MODEL 1
REMARK VINA RESULT:      -9.0      0.000      0.000
REMARK  6 active torsions:
REMARK  status: ('A' for Active; 'I' for Inactive)
REMARK    1  A    between atoms: C_4  and  N_5 
REMARK       I    between atoms: N_5  and  C_6 
REMARK    2  A    between atoms: C_6  and  C_7 
REMARK    3  A    between atoms: C_9  and  N_10 
REMARK       I    between atoms: N_10  and  C_11 
REMARK    4  A    between atoms: C_11  and  C_12 
REMARK    5  A    between atoms: C_12  and  O_13 
REMARK    6  A    between atoms: O_13  and  C_14 
ROOT
HETATM    1  C   UNL     1      -5.202   1.220 -32.466  1.00  0.00     0.034 A 
HETATM    2  C   UNL     1      -3.990   1.908 -32.330  1.00  0.00     0.046 A 
HETATM    3  C   UNL     1      -3.938   3.301 -32.344  1.00  0.00     0.035 A 
HETATM    4  C   UNL     1      -5.111   4.013 -32.611  1.00  0.00     0.029 A 
HETATM    5  C   UNL     1      -6.321   3.333 -32.808  1.00  0.00     0.003 A 
HETATM    6  C   UNL     1      -6.370   1.937 -32.727  1.00  0.00     0.017 A 
ENDROOT
BRANCH   3   7
HETATM    7  N   UNL     1      -2.739   4.006 -32.108  1.00  0.00    -0.325 N 
HETATM    8  C   UNL     1      -1.946   4.593 -33.084  1.00  0.00     0.246 C 
HETATM    9  O   UNL     1      -2.124   4.516 -34.299  1.00  0.00    -0.271 OA
HETATM   10  H   UNL     1      -2.343   3.981 -31.173  1.00  0.00     0.169 HD
BRANCH   8  11
HETATM   11  C   UNL     1      -0.800   5.438 -32.537  1.00  0.00     0.278 C 
BRANCH  11  12
HETATM   12  O   UNL     1      -0.099   4.816 -31.468  1.00  0.00    -0.342 OA
BRANCH  12  13
HETATM   13  C   UNL     1       0.096   5.609 -30.364  1.00  0.00     0.069 A 
HETATM   14  C   UNL     1      -0.351   6.925 -30.493  1.00  0.00     0.037 A 
HETATM   15  C   UNL     1      -0.219   7.825 -29.432  1.00  0.00     0.003 A 
HETATM   16  C   UNL     1       0.366   7.414 -28.237  1.00  0.00     0.000 A 
HETATM   17  C   UNL     1       0.825   6.106 -28.104  1.00  0.00     0.003 A 
HETATM   18  C   UNL     1       0.695   5.206 -29.165  1.00  0.00     0.037 A 
ENDBRANCH  12  13
ENDBRANCH  11  12
ENDBRANCH   8  11
ENDBRANCH   3   7
BRANCH   1  19
HETATM   19  C   UNL     1      -5.236  -0.274 -32.356  1.00  0.00     0.257 C 
HETATM   20  N   UNL     1      -4.389  -0.911 -33.240  1.00  0.00    -0.307 N 
HETATM   21  H   UNL     1      -3.739  -0.343 -33.763  1.00  0.00     0.170 HD
HETATM   22  O   UNL     1      -5.970  -0.779 -31.516  1.00  0.00    -0.267 OA
BRANCH  20  23
HETATM   23  C   UNL     1      -4.365  -2.275 -33.545  1.00  0.00     0.130 A 
HETATM   24  C   UNL     1      -5.361  -2.732 -34.410  1.00  0.00     0.057 A 
HETATM   25  C   UNL     1      -5.454  -4.095 -34.702  1.00  0.00    -0.057 A 
HETATM   26  C   UNL     1      -6.518  -4.610 -35.623  1.00  0.00     0.048 C 
HETATM   27  C   UNL     1      -4.507  -4.952 -34.148  1.00  0.00     0.026 A 
HETATM   28  C   UNL     1      -3.545  -4.414 -33.308  1.00  0.00     0.119 A 
HETATM   29  N   UNL     1      -3.465  -3.103 -32.993  1.00  0.00    -0.243 NA
ENDBRANCH  20  23
ENDBRANCH   1  19
TORSDOF 6
ENDMDL
MODEL 2
REMARK VINA RESULT:      -8.8      1.673      2.258
REMARK  6 active torsions:
REMARK  status: ('A' for Active; 'I' for Inactive)
REMARK    1  A    between atoms: C_4  and  N_5 
REMARK       I    between atoms: N_5  and  C_6 
REMARK    2  A    between atoms: C_6  and  C_7 
REMARK    3  A    between atoms: C_9  and  N_10 
REMARK       I    between atoms: N_10  and  C_11 
REMARK    4  A    between atoms: C_11  and  C_12 
REMARK    5  A    between atoms: C_12  and  O_13 
REMARK    6  A    between atoms: O_13  and  C_14 
ROOT
HETATM    1  C   UNL     1      -5.016   1.806 -31.581  1.00  0.00     0.034 A 
HETATM    2  C   UNL     1      -4.085   2.434 -32.417  1.00  0.00     0.046 A 
HETATM    3  C   UNL     1      -3.658   3.741 -32.180  1.00  0.00     0.035 A 
HETATM    4  C   UNL     1      -4.262   4.466 -31.150  1.00  0.00     0.029 A 
HETATM    5  C   UNL     1      -5.240   3.868 -30.343  1.00  0.00     0.003 A 
HETATM    6  C   UNL     1      -5.611   2.535 -30.551  1.00  0.00     0.017 A 
ENDROOT
BRANCH   3   7
HETATM    7  N   UNL     1      -2.647   4.348 -32.955  1.00  0.00    -0.325 N 
HETATM    8  C   UNL     1      -2.852   5.324 -33.920  1.00  0.00     0.246 C 
HETATM    9  O   UNL     1      -3.944   5.742 -34.302  1.00  0.00    -0.271 OA
HETATM   10  H   UNL     1      -1.709   3.962 -32.908  1.00  0.00     0.169 HD
BRANCH   8  11
HETATM   11  C   UNL     1      -1.569   5.928 -34.483  1.00  0.00     0.278 C 
BRANCH  11  12
HETATM   12  O   UNL     1      -1.323   7.254 -34.031  1.00  0.00    -0.342 OA
BRANCH  12  13
HETATM   13  C   UNL     1      -1.133   7.378 -32.676  1.00  0.00     0.069 A 
HETATM   14  C   UNL     1      -2.036   8.220 -32.025  1.00  0.00     0.037 A 
HETATM   15  C   UNL     1      -1.952   8.417 -30.644  1.00  0.00     0.003 A 
HETATM   16  C   UNL     1      -0.960   7.776 -29.907  1.00  0.00     0.000 A 
HETATM   17  C   UNL     1      -0.048   6.943 -30.550  1.00  0.00     0.003 A 
HETATM   18  C   UNL     1      -0.131   6.746 -31.931  1.00  0.00     0.037 A 
ENDBRANCH  12  13
ENDBRANCH  11  12
ENDBRANCH   8  11
ENDBRANCH   3   7
BRANCH   1  19
HETATM   19  C   UNL     1      -5.386   0.373 -31.809  1.00  0.00     0.257 C 
HETATM   20  N   UNL     1      -4.815  -0.170 -32.942  1.00  0.00    -0.307 N 
HETATM   21  H   UNL     1      -4.112   0.372 -33.423  1.00  0.00     0.170 HD
HETATM   22  O   UNL     1      -6.118  -0.176 -30.996  1.00  0.00    -0.267 OA
BRANCH  20  23
HETATM   23  C   UNL     1      -5.144  -1.386 -33.549  1.00  0.00     0.130 A 
HETATM   24  C   UNL     1      -4.201  -2.410 -33.432  1.00  0.00     0.057 A 
HETATM   25  C   UNL     1      -4.419  -3.630 -34.076  1.00  0.00    -0.057 A 
HETATM   26  C   UNL     1      -3.419  -4.741 -33.969  1.00  0.00     0.048 C 
HETATM   27  C   UNL     1      -5.607  -3.798 -34.782  1.00  0.00     0.026 A 
HETATM   28  C   UNL     1      -6.493  -2.734 -34.839  1.00  0.00     0.119 A 
HETATM   29  N   UNL     1      -6.278  -1.539 -34.248  1.00  0.00    -0.243 NA
ENDBRANCH  20  23
ENDBRANCH   1  19
TORSDOF 6
ENDMDL
MODEL 3
REMARK VINA RESULT:      -8.7      1.506      1.997
REMARK  6 active torsions:
REMARK  status: ('A' for Active; 'I' for Inactive)
REMARK    1  A    between atoms: C_4  and  N_5 
REMARK       I    between atoms: N_5  and  C_6 
REMARK    2  A    between atoms: C_6  and  C_7 
REMARK    3  A    between atoms: C_9  and  N_10 
REMARK       I    between atoms: N_10  and  C_11 
REMARK    4  A    between atoms: C_11  and  C_12 
REMARK    5  A    between atoms: C_12  and  O_13 
REMARK    6  A    between atoms: O_13  and  C_14 
ROOT
HETATM    1  C   UNL     1      -4.868   1.478 -31.713  1.00  0.00     0.034 A 
HETATM    2  C   UNL     1      -3.897   2.117 -32.494  1.00  0.00     0.046 A 
HETATM    3  C   UNL     1      -3.645   3.483 -32.369  1.00  0.00     0.035 A 
HETATM    4  C   UNL     1      -4.461   4.241 -31.524  1.00  0.00     0.029 A 
HETATM    5  C   UNL     1      -5.476   3.622 -30.781  1.00  0.00     0.003 A 
HETATM    6  C   UNL     1      -5.674   2.240 -30.867  1.00  0.00     0.017 A 
ENDROOT
BRANCH   3   7
HETATM    7  N   UNL     1      -2.603   4.118 -33.077  1.00  0.00    -0.325 N 
HETATM    8  C   UNL     1      -2.769   5.107 -34.037  1.00  0.00     0.246 C 
HETATM    9  O   UNL     1      -3.846   5.515 -34.472  1.00  0.00    -0.271 OA
HETATM   10  H   UNL     1      -1.663   3.746 -32.984  1.00  0.00     0.169 HD
BRANCH   8  11
HETATM   11  C   UNL     1      -1.467   5.739 -34.518  1.00  0.00     0.278 C 
BRANCH  11  12
HETATM   12  O   UNL     1      -1.337   7.108 -34.158  1.00  0.00    -0.342 OA
BRANCH  12  13
HETATM   13  C   UNL     1      -1.259   7.347 -32.807  1.00  0.00     0.069 A 
HETATM   14  C   UNL     1      -0.194   6.723 -32.155  1.00  0.00     0.037 A 
HETATM   15  C   UNL     1      -0.002   6.900 -30.783  1.00  0.00     0.003 A 
HETATM   16  C   UNL     1      -0.879   7.699 -30.053  1.00  0.00     0.000 A 
HETATM   17  C   UNL     1      -1.950   8.316 -30.694  1.00  0.00     0.003 A 
HETATM   18  C   UNL     1      -2.143   8.139 -32.066  1.00  0.00     0.037 A 
ENDBRANCH  12  13
ENDBRANCH  11  12
ENDBRANCH   8  11
ENDBRANCH   3   7
BRANCH   1  19
HETATM   19  C   UNL     1      -5.052  -0.005 -31.806  1.00  0.00     0.257 C 
HETATM   20  N   UNL     1      -4.022  -0.648 -32.463  1.00  0.00    -0.307 N 
HETATM   21  H   UNL     1      -3.199  -0.111 -32.689  1.00  0.00     0.170 HD
HETATM   22  O   UNL     1      -6.049  -0.501 -31.297  1.00  0.00    -0.267 OA
BRANCH  20  23
HETATM   23  C   UNL     1      -4.010  -1.971 -32.914  1.00  0.00     0.130 A 
HETATM   24  C   UNL     1      -4.907  -2.283 -33.938  1.00  0.00     0.057 A 
HETATM   25  C   UNL     1      -5.012  -3.600 -34.391  1.00  0.00    -0.057 A 
HETATM   26  C   UNL     1      -5.971  -3.959 -35.486  1.00  0.00     0.048 C 
HETATM   27  C   UNL     1      -4.174  -4.558 -33.827  1.00  0.00     0.026 A 
HETATM   28  C   UNL     1      -3.306  -4.162 -32.822  1.00  0.00     0.119 A 
HETATM   29  N   UNL     1      -3.218  -2.898 -32.354  1.00  0.00    -0.243 NA
ENDBRANCH  20  23
ENDBRANCH   1  19
TORSDOF 6
ENDMDL
MODEL 4
REMARK VINA RESULT:      -8.6      2.166     10.295
REMARK  6 active torsions:
REMARK  status: ('A' for Active; 'I' for Inactive)
REMARK    1  A    between atoms: C_4  and  N_5 
REMARK       I    between atoms: N_5  and  C_6 
REMARK    2  A    between atoms: C_6  and  C_7 
REMARK    3  A    between atoms: C_9  and  N_10 
REMARK       I    between atoms: N_10  and  C_11 
REMARK    4  A    between atoms: C_11  and  C_12 
REMARK    5  A    between atoms: C_12  and  O_13 
REMARK    6  A    between atoms: O_13  and  C_14 
ROOT
HETATM    1  C   UNL     1      -0.989   5.992 -32.272  1.00  0.00     0.034 A 
HETATM    2  C   UNL     1      -1.770   4.882 -31.925  1.00  0.00     0.046 A 
HETATM    3  C   UNL     1      -2.419   4.116 -32.894  1.00  0.00     0.035 A 
HETATM    4  C   UNL     1      -2.371   4.540 -34.225  1.00  0.00     0.029 A 
HETATM    5  C   UNL     1      -1.640   5.683 -34.577  1.00  0.00     0.003 A 
HETATM    6  C   UNL     1      -0.941   6.404 -33.604  1.00  0.00     0.017 A 
ENDROOT
BRANCH   3   7
HETATM    7  N   UNL     1      -3.126   2.940 -32.566  1.00  0.00    -0.325 N 
HETATM    8  C   UNL     1      -4.491   2.863 -32.330  1.00  0.00     0.246 C 
HETATM    9  O   UNL     1      -5.271   3.814 -32.289  1.00  0.00    -0.271 OA
HETATM   10  H   UNL     1      -2.592   2.103 -32.354  1.00  0.00     0.169 HD
BRANCH   8  11
HETATM   11  C   UNL     1      -5.020   1.441 -32.166  1.00  0.00     0.278 C 
BRANCH  11  12
HETATM   12  O   UNL     1      -5.864   1.026 -33.232  1.00  0.00    -0.342 OA
BRANCH  12  13
HETATM   13  C   UNL     1      -5.685  -0.274 -33.640  1.00  0.00     0.069 A 
HETATM   14  C   UNL     1      -6.808  -0.878 -34.207  1.00  0.00     0.037 A 
HETATM   15  C   UNL     1      -6.746  -2.194 -34.672  1.00  0.00     0.003 A 
HETATM   16  C   UNL     1      -5.560  -2.916 -34.566  1.00  0.00     0.000 A 
HETATM   17  C   UNL     1      -4.437  -2.325 -33.991  1.00  0.00     0.003 A 
HETATM   18  C   UNL     1      -4.499  -1.009 -33.525  1.00  0.00     0.037 A 
ENDBRANCH  12  13
ENDBRANCH  11  12
ENDBRANCH   8  11
ENDBRANCH   3   7
BRANCH   1  19
HETATM   19  C   UNL     1      -0.232   6.739 -31.217  1.00  0.00     0.257 C 
HETATM   20  N   UNL     1      -0.989   7.035 -30.102  1.00  0.00    -0.307 N 
HETATM   21  H   UNL     1      -1.905   6.619 -30.029  1.00  0.00     0.170 HD
HETATM   22  O   UNL     1       0.947   6.996 -31.420  1.00  0.00    -0.267 OA
BRANCH  20  23
HETATM   23  C   UNL     1      -0.651   7.912 -29.066  1.00  0.00     0.130 A 
HETATM   24  C   UNL     1       0.414   7.523 -28.252  1.00  0.00     0.057 A 
HETATM   25  C   UNL     1       0.764   8.304 -27.147  1.00  0.00    -0.057 A 
HETATM   26  C   UNL     1       1.900   7.905 -26.256  1.00  0.00     0.048 C 
HETATM   27  C   UNL     1       0.056   9.482 -26.925  1.00  0.00     0.026 A 
HETATM   28  C   UNL     1      -0.981   9.799 -27.789  1.00  0.00     0.119 A 
HETATM   29  N   UNL     1      -1.349   9.035 -28.840  1.00  0.00    -0.243 NA
ENDBRANCH  20  23
ENDBRANCH   1  19
TORSDOF 6
ENDMDL
MODEL 5
REMARK VINA RESULT:      -8.4      2.126     10.048
REMARK  6 active torsions:
REMARK  status: ('A' for Active; 'I' for Inactive)
REMARK    1  A    between atoms: C_4  and  N_5 
REMARK       I    between atoms: N_5  and  C_6 
REMARK    2  A    between atoms: C_6  and  C_7 
REMARK    3  A    between atoms: C_9  and  N_10 
REMARK       I    between atoms: N_10  and  C_11 
REMARK    4  A    between atoms: C_11  and  C_12 
REMARK    5  A    between atoms: C_12  and  O_13 
REMARK    6  A    between atoms: O_13  and  C_14 
ROOT
HETATM    1  C   UNL     1      -1.085   5.737 -32.046  1.00  0.00     0.034 A 
HETATM    2  C   UNL     1      -1.945   4.648 -31.856  1.00  0.00     0.046 A 
HETATM    3  C   UNL     1      -2.617   4.055 -32.924  1.00  0.00     0.035 A 
HETATM    4  C   UNL     1      -2.510   4.638 -34.190  1.00  0.00     0.029 A 
HETATM    5  C   UNL     1      -1.699   5.765 -34.382  1.00  0.00     0.003 A 
HETATM    6  C   UNL     1      -0.979   6.310 -33.314  1.00  0.00     0.017 A 
ENDROOT
BRANCH   3   7
HETATM    7  N   UNL     1      -3.406   2.897 -32.760  1.00  0.00    -0.325 N 
HETATM    8  C   UNL     1      -4.773   2.883 -32.517  1.00  0.00     0.246 C 
HETATM    9  O   UNL     1      -5.481   3.871 -32.327  1.00  0.00    -0.271 OA
HETATM   10  H   UNL     1      -2.933   2.002 -32.680  1.00  0.00     0.169 HD
BRANCH   8  11
HETATM   11  C   UNL     1      -5.402   1.494 -32.553  1.00  0.00     0.278 C 
BRANCH  11  12
HETATM   12  O   UNL     1      -4.459   0.452 -32.771  1.00  0.00    -0.342 OA
BRANCH  12  13
HETATM   13  C   UNL     1      -4.953  -0.646 -33.432  1.00  0.00     0.069 A 
HETATM   14  C   UNL     1      -6.296  -0.560 -33.804  1.00  0.00     0.037 A 
HETATM   15  C   UNL     1      -6.909  -1.610 -34.494  1.00  0.00     0.003 A 
HETATM   16  C   UNL     1      -6.182  -2.755 -34.811  1.00  0.00     0.000 A 
HETATM   17  C   UNL     1      -4.845  -2.853 -34.434  1.00  0.00     0.003 A 
HETATM   18  C   UNL     1      -4.232  -1.804 -33.743  1.00  0.00     0.037 A 
ENDBRANCH  12  13
ENDBRANCH  11  12
ENDBRANCH   8  11
ENDBRANCH   3   7
BRANCH   1  19
HETATM   19  C   UNL     1      -0.308   6.294 -30.893  1.00  0.00     0.257 C 
HETATM   20  N   UNL     1      -0.994   6.252 -29.696  1.00  0.00    -0.307 N 
HETATM   21  H   UNL     1      -1.864   5.742 -29.667  1.00  0.00     0.170 HD
HETATM   22  O   UNL     1       0.826   6.705 -31.100  1.00  0.00    -0.267 OA
BRANCH  20  23
HETATM   23  C   UNL     1      -0.644   6.897 -28.505  1.00  0.00     0.130 A 
HETATM   24  C   UNL     1      -0.894   8.270 -28.451  1.00  0.00     0.057 A 
HETATM   25  C   UNL     1      -0.503   9.002 -27.327  1.00  0.00    -0.057 A 
HETATM   26  C   UNL     1      -0.755  10.477 -27.248  1.00  0.00     0.048 C 
HETATM   27  C   UNL     1       0.089   8.316 -26.270  1.00  0.00     0.026 A 
HETATM   28  C   UNL     1       0.291   6.952 -26.402  1.00  0.00     0.119 A 
HETATM   29  N   UNL     1      -0.054   6.239 -27.497  1.00  0.00    -0.243 NA
ENDBRANCH  20  23
ENDBRANCH   1  19
TORSDOF 6
ENDMDL
MODEL 6
REMARK VINA RESULT:      -8.0      4.326      6.494
REMARK  6 active torsions:
REMARK  status: ('A' for Active; 'I' for Inactive)
REMARK    1  A    between atoms: C_4  and  N_5 
REMARK       I    between atoms: N_5  and  C_6 
REMARK    2  A    between atoms: C_6  and  C_7 
REMARK    3  A    between atoms: C_9  and  N_10 
REMARK       I    between atoms: N_10  and  C_11 
REMARK    4  A    between atoms: C_11  and  C_12 
REMARK    5  A    between atoms: C_12  and  O_13 
REMARK    6  A    between atoms: O_13  and  C_14 
ROOT
HETATM    1  C   UNL     1      -8.126  -0.062 -33.332  1.00  0.00     0.034 A 
HETATM    2  C   UNL     1      -7.237   0.914 -32.864  1.00  0.00     0.046 A 
HETATM    3  C   UNL     1      -5.871   0.846 -33.139  1.00  0.00     0.035 A 
HETATM    4  C   UNL     1      -5.376  -0.281 -33.800  1.00  0.00     0.029 A 
HETATM    5  C   UNL     1      -6.249  -1.293 -34.222  1.00  0.00     0.003 A 
HETATM    6  C   UNL     1      -7.625  -1.181 -33.997  1.00  0.00     0.017 A 
ENDROOT
BRANCH   3   7
HETATM    7  N   UNL     1      -4.982   1.873 -32.759  1.00  0.00    -0.325 N 
HETATM    8  C   UNL     1      -4.199   1.875 -31.613  1.00  0.00     0.246 C 
HETATM    9  O   UNL     1      -4.226   1.028 -30.720  1.00  0.00    -0.271 OA
HETATM   10  H   UNL     1      -4.999   2.742 -33.284  1.00  0.00     0.169 HD
BRANCH   8  11
HETATM   11  C   UNL     1      -3.202   3.027 -31.536  1.00  0.00     0.278 C 
BRANCH  11  12
HETATM   12  O   UNL     1      -3.774   4.291 -31.847  1.00  0.00    -0.342 OA
BRANCH  12  13
HETATM   13  C   UNL     1      -2.950   5.144 -32.541  1.00  0.00     0.069 A 
HETATM   14  C   UNL     1      -2.263   4.565 -33.610  1.00  0.00     0.037 A 
HETATM   15  C   UNL     1      -1.404   5.334 -34.400  1.00  0.00     0.003 A 
HETATM   16  C   UNL     1      -1.224   6.687 -34.121  1.00  0.00     0.000 A 
HETATM   17  C   UNL     1      -1.897   7.269 -33.050  1.00  0.00     0.003 A 
HETATM   18  C   UNL     1      -2.755   6.500 -32.259  1.00  0.00     0.037 A 
ENDBRANCH  12  13
ENDBRANCH  11  12
ENDBRANCH   8  11
ENDBRANCH   3   7
BRANCH   1  19
HETATM   19  C   UNL     1      -9.598   0.087 -33.097  1.00  0.00     0.257 C 
HETATM   20  N   UNL     1     -10.139   1.210 -33.689  1.00  0.00    -0.307 N 
HETATM   21  H   UNL     1      -9.557   1.737 -34.323  1.00  0.00     0.170 HD
HETATM   22  O   UNL     1     -10.173  -0.773 -32.442  1.00  0.00    -0.267 OA
BRANCH  20  23
HETATM   23  C   UNL     1     -11.410   1.748 -33.464  1.00  0.00     0.130 A 
HETATM   24  C   UNL     1     -12.491   0.997 -33.931  1.00  0.00     0.057 A 
HETATM   25  C   UNL     1     -13.788   1.502 -33.815  1.00  0.00    -0.057 A 
HETATM   26  C   UNL     1     -14.963   0.716 -34.313  1.00  0.00     0.048 C 
HETATM   27  C   UNL     1     -13.961   2.732 -33.188  1.00  0.00     0.026 A 
HETATM   28  C   UNL     1     -12.835   3.408 -32.744  1.00  0.00     0.119 A 
HETATM   29  N   UNL     1     -11.574   2.944 -32.880  1.00  0.00    -0.243 NA
ENDBRANCH  20  23
ENDBRANCH   1  19
TORSDOF 6
ENDMDL
MODEL 7
REMARK VINA RESULT:      -7.9      5.098      8.985
REMARK  6 active torsions:
REMARK  status: ('A' for Active; 'I' for Inactive)
REMARK    1  A    between atoms: C_4  and  N_5 
REMARK       I    between atoms: N_5  and  C_6 
REMARK    2  A    between atoms: C_6  and  C_7 
REMARK    3  A    between atoms: C_9  and  N_10 
REMARK       I    between atoms: N_10  and  C_11 
REMARK    4  A    between atoms: C_11  and  C_12 
REMARK    5  A    between atoms: C_12  and  O_13 
REMARK    6  A    between atoms: O_13  and  C_14 
ROOT
HETATM    1  C   UNL     1      -7.614   1.954 -32.027  1.00  0.00     0.034 A 
HETATM    2  C   UNL     1      -8.999   2.121 -31.899  1.00  0.00     0.046 A 
HETATM    3  C   UNL     1      -9.543   2.999 -30.962  1.00  0.00     0.035 A 
HETATM    4  C   UNL     1      -8.684   3.637 -30.063  1.00  0.00     0.029 A 
HETATM    5  C   UNL     1      -7.299   3.432 -30.143  1.00  0.00     0.003 A 
HETATM    6  C   UNL     1      -6.762   2.599 -31.130  1.00  0.00     0.017 A 
ENDROOT
BRANCH   3   7
HETATM    7  N   UNL     1     -10.930   3.250 -30.891  1.00  0.00    -0.325 N 
HETATM    8  C   UNL     1     -11.579   4.341 -31.452  1.00  0.00     0.246 C 
HETATM    9  O   UNL     1     -11.036   5.290 -32.019  1.00  0.00    -0.271 OA
HETATM   10  H   UNL     1     -11.492   2.669 -30.278  1.00  0.00     0.169 HD
BRANCH   8  11
HETATM   11  C   UNL     1     -13.100   4.275 -31.372  1.00  0.00     0.278 C 
BRANCH  11  12
HETATM   12  O   UNL     1     -13.732   4.224 -32.645  1.00  0.00    -0.342 OA
BRANCH  12  13
HETATM   13  C   UNL     1     -13.607   3.027 -33.306  1.00  0.00     0.069 A 
HETATM   14  C   UNL     1     -14.384   1.985 -32.797  1.00  0.00     0.037 A 
HETATM   15  C   UNL     1     -14.352   0.721 -33.393  1.00  0.00     0.003 A 
HETATM   16  C   UNL     1     -13.537   0.491 -34.499  1.00  0.00     0.000 A 
HETATM   17  C   UNL     1     -12.750   1.523 -35.006  1.00  0.00     0.003 A 
HETATM   18  C   UNL     1     -12.781   2.786 -34.410  1.00  0.00     0.037 A 
ENDBRANCH  12  13
ENDBRANCH  11  12
ENDBRANCH   8  11
ENDBRANCH   3   7
BRANCH   1  19
HETATM   19  C   UNL     1      -7.059   1.073 -33.103  1.00  0.00     0.257 C 
HETATM   20  N   UNL     1      -6.772  -0.207 -32.674  1.00  0.00    -0.307 N 
HETATM   21  H   UNL     1      -7.081  -0.476 -31.751  1.00  0.00     0.170 HD
HETATM   22  O   UNL     1      -6.928   1.539 -34.227  1.00  0.00    -0.267 OA
BRANCH  20  23
HETATM   23  C   UNL     1      -6.037  -1.179 -33.360  1.00  0.00     0.130 A 
HETATM   24  C   UNL     1      -6.778  -2.159 -34.024  1.00  0.00     0.057 A 
HETATM   25  C   UNL     1      -6.119  -3.209 -34.667  1.00  0.00    -0.057 A 
HETATM   26  C   UNL     1      -6.892  -4.275 -35.382  1.00  0.00     0.048 C 
HETATM   27  C   UNL     1      -4.727  -3.213 -34.661  1.00  0.00     0.026 A 
HETATM   28  C   UNL     1      -4.069  -2.196 -33.987  1.00  0.00     0.119 A 
HETATM   29  N   UNL     1      -4.696  -1.194 -33.334  1.00  0.00    -0.243 NA
ENDBRANCH  20  23
ENDBRANCH   1  19
TORSDOF 6
ENDMDL
MODEL 8
REMARK VINA RESULT:      -7.8      3.801      5.286
REMARK  6 active torsions:
REMARK  status: ('A' for Active; 'I' for Inactive)
REMARK    1  A    between atoms: C_4  and  N_5 
REMARK       I    between atoms: N_5  and  C_6 
REMARK    2  A    between atoms: C_6  and  C_7 
REMARK    3  A    between atoms: C_9  and  N_10 
REMARK       I    between atoms: N_10  and  C_11 
REMARK    4  A    between atoms: C_11  and  C_12 
REMARK    5  A    between atoms: C_12  and  O_13 
REMARK    6  A    between atoms: O_13  and  C_14 
ROOT
HETATM    1  C   UNL     1      -6.923   0.697 -33.202  1.00  0.00     0.034 A 
HETATM    2  C   UNL     1      -5.929   1.683 -33.222  1.00  0.00     0.046 A 
HETATM    3  C   UNL     1      -4.753   1.546 -32.484  1.00  0.00     0.035 A 
HETATM    4  C   UNL     1      -4.624   0.451 -31.625  1.00  0.00     0.029 A 
HETATM    5  C   UNL     1      -5.639  -0.513 -31.552  1.00  0.00     0.003 A 
HETATM    6  C   UNL     1      -6.784  -0.397 -32.347  1.00  0.00     0.017 A 
ENDROOT
BRANCH   3   7
HETATM    7  N   UNL     1      -3.702   2.484 -32.573  1.00  0.00    -0.325 N 
HETATM    8  C   UNL     1      -3.569   3.619 -31.786  1.00  0.00     0.246 C 
HETATM    9  O   UNL     1      -4.384   4.020 -30.956  1.00  0.00    -0.271 OA
HETATM   10  H   UNL     1      -3.056   2.408 -33.353  1.00  0.00     0.169 HD
BRANCH   8  11
HETATM   11  C   UNL     1      -2.251   4.363 -31.976  1.00  0.00     0.278 C 
BRANCH  11  12
HETATM   12  O   UNL     1      -2.374   5.773 -31.847  1.00  0.00    -0.342 OA
BRANCH  12  13
HETATM   13  C   UNL     1      -1.479   6.356 -30.983  1.00  0.00     0.069 A 
HETATM   14  C   UNL     1      -2.023   6.805 -29.778  1.00  0.00     0.037 A 
HETATM   15  C   UNL     1      -1.209   7.404 -28.813  1.00  0.00     0.003 A 
HETATM   16  C   UNL     1       0.154   7.563 -29.051  1.00  0.00     0.000 A 
HETATM   17  C   UNL     1       0.703   7.128 -30.255  1.00  0.00     0.003 A 
HETATM   18  C   UNL     1      -0.111   6.530 -31.221  1.00  0.00     0.037 A 
ENDBRANCH  12  13
ENDBRANCH  11  12
ENDBRANCH   8  11
ENDBRANCH   3   7
BRANCH   1  19
HETATM   19  C   UNL     1      -8.133   0.831 -34.075  1.00  0.00     0.257 C 
HETATM   20  N   UNL     1      -9.121   1.623 -33.528  1.00  0.00    -0.307 N 
HETATM   21  H   UNL     1      -8.902   2.141 -32.691  1.00  0.00     0.170 HD
HETATM   22  O   UNL     1      -8.133   0.263 -35.160  1.00  0.00    -0.267 OA
BRANCH  20  23
HETATM   23  C   UNL     1     -10.440   1.750 -33.976  1.00  0.00     0.130 A 
HETATM   24  C   UNL     1     -11.325   0.744 -33.584  1.00  0.00     0.057 A 
HETATM   25  C   UNL     1     -12.641   0.755 -34.053  1.00  0.00    -0.057 A 
HETATM   26  C   UNL     1     -13.607  -0.317 -33.650  1.00  0.00     0.048 C 
HETATM   27  C   UNL     1     -13.037   1.809 -34.870  1.00  0.00     0.026 A 
HETATM   28  C   UNL     1     -12.098   2.773 -35.203  1.00  0.00     0.119 A 
HETATM   29  N   UNL     1     -10.815   2.754 -34.781  1.00  0.00    -0.243 NA
ENDBRANCH  20  23
ENDBRANCH   1  19
TORSDOF 6
ENDMDL
MODEL 9
REMARK VINA RESULT:      -7.8      3.692      9.270
REMARK  6 active torsions:
REMARK  status: ('A' for Active; 'I' for Inactive)
REMARK    1  A    between atoms: C_4  and  N_5 
REMARK       I    between atoms: N_5  and  C_6 
REMARK    2  A    between atoms: C_6  and  C_7 
REMARK    3  A    between atoms: C_9  and  N_10 
REMARK       I    between atoms: N_10  and  C_11 
REMARK    4  A    between atoms: C_11  and  C_12 
REMARK    5  A    between atoms: C_12  and  O_13 
REMARK    6  A    between atoms: O_13  and  C_14 
ROOT
HETATM    1  C   UNL     1      -4.720   0.177 -32.914  1.00  0.00     0.034 A 
HETATM    2  C   UNL     1      -6.020   0.620 -33.186  1.00  0.00     0.046 A 
HETATM    3  C   UNL     1      -6.989  -0.240 -33.703  1.00  0.00     0.035 A 
HETATM    4  C   UNL     1      -6.613  -1.538 -34.056  1.00  0.00     0.029 A 
HETATM    5  C   UNL     1      -5.298  -1.975 -33.844  1.00  0.00     0.003 A 
HETATM    6  C   UNL     1      -4.353  -1.122 -33.265  1.00  0.00     0.017 A 
ENDROOT
BRANCH   3   7
HETATM    7  N   UNL     1      -8.328   0.168 -33.886  1.00  0.00    -0.325 N 
HETATM    8  C   UNL     1      -9.251   0.375 -32.872  1.00  0.00     0.246 C 
HETATM    9  O   UNL     1      -9.068   0.154 -31.675  1.00  0.00    -0.271 OA
HETATM   10  H   UNL     1      -8.697   0.191 -34.832  1.00  0.00     0.169 HD
BRANCH   8  11
HETATM   11  C   UNL     1     -10.572   0.978 -33.339  1.00  0.00     0.278 C 
BRANCH  11  12
HETATM   12  O   UNL     1     -10.444   1.787 -34.501  1.00  0.00    -0.342 OA
BRANCH  12  13
HETATM   13  C   UNL     1     -11.266   2.888 -34.533  1.00  0.00     0.069 A 
HETATM   14  C   UNL     1     -12.230   2.937 -33.525  1.00  0.00     0.037 A 
HETATM   15  C   UNL     1     -13.117   4.015 -33.445  1.00  0.00     0.003 A 
HETATM   16  C   UNL     1     -13.047   5.047 -34.377  1.00  0.00     0.000 A 
HETATM   17  C   UNL     1     -12.094   5.000 -35.392  1.00  0.00     0.003 A 
HETATM   18  C   UNL     1     -11.208   3.922 -35.473  1.00  0.00     0.037 A 
ENDBRANCH  12  13
ENDBRANCH  11  12
ENDBRANCH   8  11
ENDBRANCH   3   7
BRANCH   1  19
HETATM   19  C   UNL     1      -3.728   1.101 -32.276  1.00  0.00     0.257 C 
HETATM   20  N   UNL     1      -3.842   2.409 -32.699  1.00  0.00    -0.307 N 
HETATM   21  H   UNL     1      -4.639   2.654 -33.267  1.00  0.00     0.170 HD
HETATM   22  O   UNL     1      -2.947   0.638 -31.456  1.00  0.00    -0.267 OA
BRANCH  20  23
HETATM   23  C   UNL     1      -2.931   3.447 -32.476  1.00  0.00     0.130 A 
HETATM   24  C   UNL     1      -2.523   4.163 -33.603  1.00  0.00     0.057 A 
HETATM   25  C   UNL     1      -1.556   5.163 -33.477  1.00  0.00    -0.057 A 
HETATM   26  C   UNL     1      -1.099   5.942 -34.673  1.00  0.00     0.048 C 
HETATM   27  C   UNL     1      -1.062   5.443 -32.206  1.00  0.00     0.026 A 
HETATM   28  C   UNL     1      -1.529   4.691 -31.139  1.00  0.00     0.119 A 
HETATM   29  N   UNL     1      -2.440   3.700 -31.254  1.00  0.00    -0.243 NA
ENDBRANCH  20  23
ENDBRANCH   1  19
TORSDOF 6
ENDMDL
MODEL 10
REMARK VINA RESULT:      -7.7      1.973      2.960
REMARK  6 active torsions:
REMARK  status: ('A' for Active; 'I' for Inactive)
REMARK    1  A    between atoms: C_4  and  N_5 
REMARK       I    between atoms: N_5  and  C_6 
REMARK    2  A    between atoms: C_6  and  C_7 
REMARK    3  A    between atoms: C_9  and  N_10 
REMARK       I    between atoms: N_10  and  C_11 
REMARK    4  A    between atoms: C_11  and  C_12 
REMARK    5  A    between atoms: C_12  and  O_13 
REMARK    6  A    between atoms: O_13  and  C_14 
ROOT
HETATM    1  C   UNL     1      -7.475   1.948 -33.662  1.00  0.00     0.034 A 
HETATM    2  C   UNL     1      -6.414   2.856 -33.754  1.00  0.00     0.046 A 
HETATM    3  C   UNL     1      -6.636   4.230 -33.847  1.00  0.00     0.035 A 
HETATM    4  C   UNL     1      -7.951   4.689 -33.961  1.00  0.00     0.029 A 
HETATM    5  C   UNL     1      -9.021   3.784 -33.929  1.00  0.00     0.003 A 
HETATM    6  C   UNL     1      -8.785   2.415 -33.771  1.00  0.00     0.017 A 
ENDROOT
BRANCH   3   7
HETATM    7  N   UNL     1      -5.575   5.160 -33.840  1.00  0.00    -0.325 N 
HETATM    8  C   UNL     1      -4.730   5.407 -32.766  1.00  0.00     0.246 C 
HETATM    9  O   UNL     1      -4.832   4.918 -31.642  1.00  0.00    -0.271 OA
HETATM   10  H   UNL     1      -5.491   5.798 -34.625  1.00  0.00     0.169 HD
BRANCH   8  11
HETATM   11  C   UNL     1      -3.564   6.336 -33.087  1.00  0.00     0.278 C 
BRANCH  11  12
HETATM   12  O   UNL     1      -2.341   5.649 -33.318  1.00  0.00    -0.342 OA
BRANCH  12  13
HETATM   13  C   UNL     1      -1.374   5.852 -32.363  1.00  0.00     0.069 A 
HETATM   14  C   UNL     1      -1.318   4.881 -31.361  1.00  0.00     0.037 A 
HETATM   15  C   UNL     1      -0.368   4.972 -30.340  1.00  0.00     0.003 A 
HETATM   16  C   UNL     1       0.528   6.038 -30.313  1.00  0.00     0.000 A 
HETATM   17  C   UNL     1       0.471   7.016 -31.302  1.00  0.00     0.003 A 
HETATM   18  C   UNL     1      -0.479   6.927 -32.323  1.00  0.00     0.037 A 
ENDBRANCH  12  13
ENDBRANCH  11  12
ENDBRANCH   8  11
ENDBRANCH   3   7
BRANCH   1  19
HETATM   19  C   UNL     1      -7.202   0.487 -33.473  1.00  0.00     0.257 C 
HETATM   20  N   UNL     1      -5.889   0.137 -33.710  1.00  0.00    -0.307 N 
HETATM   21  H   UNL     1      -5.219   0.880 -33.843  1.00  0.00     0.170 HD
HETATM   22  O   UNL     1      -8.125  -0.237 -33.123  1.00  0.00    -0.267 OA
BRANCH  20  23
HETATM   23  C   UNL     1      -5.376  -1.157 -33.847  1.00  0.00     0.130 A 
HETATM   24  C   UNL     1      -4.499  -1.582 -32.848  1.00  0.00     0.057 A 
HETATM   25  C   UNL     1      -3.882  -2.832 -32.952  1.00  0.00    -0.057 A 
HETATM   26  C   UNL     1      -2.933  -3.308 -31.895  1.00  0.00     0.048 C 
HETATM   27  C   UNL     1      -4.206  -3.635 -34.042  1.00  0.00     0.026 A 
HETATM   28  C   UNL     1      -5.094  -3.139 -34.983  1.00  0.00     0.119 A 
HETATM   29  N   UNL     1      -5.671  -1.920 -34.910  1.00  0.00    -0.243 NA
ENDBRANCH  20  23
ENDBRANCH   1  19
TORSDOF 6
ENDMDL
