MODEL 1
REMARK VINA RESULT:      -8.2      0.000      0.000
REMARK  5 active torsions:
REMARK  status: ('A' for Active; 'I' for Inactive)
REMARK    1  A    between atoms: C_3  and  N_4 
REMARK       I    between atoms: N_4  and  C_5 
REMARK       I    between atoms: C_5  and  N_6 
REMARK    2  A    between atoms: N_6  and  C_7 
REMARK    3  A    between atoms: C_7  and  C_8 
REMARK    4  A    between atoms: C_8  and  C_9 
REMARK    5  A    between atoms: N_16  and  C_17 
ROOT
HETATM    1  C   UNL     1      -7.136   2.261 -30.442  1.00  0.00     0.054 C 
HETATM    2  C   UNL     1      -6.907   1.478 -31.681  1.00  0.00     0.003 A 
HETATM    3  C   UNL     1      -7.006   1.876 -33.039  1.00  0.00     0.159 A 
HETATM    4  N   UNL     1      -6.772   0.854 -33.866  1.00  0.00    -0.149 NA
HETATM    5  N   UNL     1      -6.409  -0.193 -33.063  1.00  0.00    -0.241 N 
HETATM    6  C   UNL     1      -6.573   0.144 -31.741  1.00  0.00     0.129 A 
ENDROOT
BRANCH   3   7
HETATM    7  N   UNL     1      -7.335   3.153 -33.432  1.00  0.00    -0.291 N 
HETATM    8  C   UNL     1      -6.563   4.187 -33.837  1.00  0.00     0.321 C 
HETATM    9  N   UNL     1      -5.215   4.029 -33.870  1.00  0.00    -0.342 N 
HETATM   10  O   UNL     1      -7.120   5.234 -34.171  1.00  0.00    -0.247 OA
HETATM   11  H   UNL     1      -4.869   3.081 -33.750  1.00  0.00     0.164 HD
HETATM   12  H   UNL     1      -8.315   3.385 -33.456  1.00  0.00     0.172 HD
BRANCH   9  13
HETATM   13  C   UNL     1      -4.404   5.048 -34.495  1.00  0.00     0.134 C 
BRANCH  13  14
HETATM   14  C   UNL     1      -2.999   5.120 -33.922  1.00  0.00    -0.021 A 
HETATM   15  C   UNL     1      -1.878   5.063 -34.957  1.00  0.00     0.012 A 
HETATM   16  C   UNL     1      -2.181   6.356 -34.267  1.00  0.00     0.012 A 
BRANCH  14  17
HETATM   17  C   UNL     1      -2.820   4.366 -32.580  1.00  0.00    -0.004 A 
HETATM   18  C   UNL     1      -1.800   4.743 -31.527  1.00  0.00     0.006 A 
HETATM   19  C   UNL     1      -3.257   4.940 -31.253  1.00  0.00     0.006 A 
ENDBRANCH  14  17
ENDBRANCH  13  14
ENDBRANCH   9  13
ENDBRANCH   3   7
BRANCH   5  20
HETATM   20  C   UNL     1      -5.999  -1.434 -33.641  1.00  0.00     0.079 A 
HETATM   21  C   UNL     1      -4.690  -1.942 -33.624  1.00  0.00     0.062 A 
HETATM   22 CL   UNL     1      -3.284  -1.102 -33.071  1.00  0.00    -0.082 Cl
HETATM   23  C   UNL     1      -4.423  -3.206 -34.183  1.00  0.00     0.026 A 
HETATM   24  C   UNL     1      -5.431  -3.959 -34.777  1.00  0.00     0.002 A 
HETATM   25  C   UNL     1      -6.721  -3.451 -34.832  1.00  0.00     0.002 A 
HETATM   26  C   UNL     1      -7.000  -2.201 -34.274  1.00  0.00     0.033 A 
ENDBRANCH   5  20
TORSDOF 5
ENDMDL
MODEL 2
REMARK VINA RESULT:      -8.1      2.858      7.671
REMARK  5 active torsions:
REMARK  status: ('A' for Active; 'I' for Inactive)
REMARK    1  A    between atoms: C_3  and  N_4 
REMARK       I    between atoms: N_4  and  C_5 
REMARK       I    between atoms: C_5  and  N_6 
REMARK    2  A    between atoms: N_6  and  C_7 
REMARK    3  A    between atoms: C_7  and  C_8 
REMARK    4  A    between atoms: C_8  and  C_9 
REMARK    5  A    between atoms: N_16  and  C_17 
ROOT
HETATM    1  C   UNL     1      -5.925   1.447 -30.172  1.00  0.00     0.054 C 
HETATM    2  C   UNL     1      -4.749   1.998 -30.891  1.00  0.00     0.003 A 
HETATM    3  C   UNL     1      -3.584   1.343 -31.365  1.00  0.00     0.159 A 
HETATM    4  N   UNL     1      -2.728   2.206 -31.916  1.00  0.00    -0.149 NA
HETATM    5  N   UNL     1      -3.369   3.415 -31.909  1.00  0.00    -0.241 N 
HETATM    6  C   UNL     1      -4.550   3.321 -31.214  1.00  0.00     0.129 A 
ENDROOT
BRANCH   3   7
HETATM    7  N   UNL     1      -3.370  -0.010 -31.233  1.00  0.00    -0.291 N 
HETATM    8  C   UNL     1      -3.769  -1.054 -31.996  1.00  0.00     0.321 C 
HETATM    9  N   UNL     1      -4.537  -0.814 -33.090  1.00  0.00    -0.342 N 
HETATM   10  O   UNL     1      -3.408  -2.186 -31.670  1.00  0.00    -0.247 OA
HETATM   11  H   UNL     1      -4.628   0.158 -33.372  1.00  0.00     0.164 HD
HETATM   12  H   UNL     1      -2.801  -0.309 -30.457  1.00  0.00     0.172 HD
BRANCH   9  13
HETATM   13  C   UNL     1      -4.789  -1.890 -34.018  1.00  0.00     0.134 C 
BRANCH  13  14
HETATM   14  C   UNL     1      -6.267  -2.078 -34.318  1.00  0.00    -0.021 A 
HETATM   15  C   UNL     1      -7.197  -1.098 -33.609  1.00  0.00     0.012 A 
HETATM   16  C   UNL     1      -6.959  -0.956 -35.080  1.00  0.00     0.012 A 
BRANCH  14  17
HETATM   17  C   UNL     1      -6.704  -3.558 -34.461  1.00  0.00    -0.004 A 
HETATM   18  C   UNL     1      -6.590  -4.354 -35.743  1.00  0.00     0.006 A 
HETATM   19  C   UNL     1      -5.718  -4.696 -34.577  1.00  0.00     0.006 A 
ENDBRANCH  14  17
ENDBRANCH  13  14
ENDBRANCH   9  13
ENDBRANCH   3   7
BRANCH   5  20
HETATM   20  C   UNL     1      -2.759   4.556 -32.516  1.00  0.00     0.079 A 
HETATM   21  C   UNL     1      -3.295   5.284 -33.591  1.00  0.00     0.062 A 
HETATM   22 CL   UNL     1      -4.693   4.853 -34.512  1.00  0.00    -0.082 Cl
HETATM   23  C   UNL     1      -2.621   6.425 -34.067  1.00  0.00     0.026 A 
HETATM   24  C   UNL     1      -1.415   6.837 -33.507  1.00  0.00     0.002 A 
HETATM   25  C   UNL     1      -0.859   6.103 -32.469  1.00  0.00     0.002 A 
HETATM   26  C   UNL     1      -1.522   4.974 -31.983  1.00  0.00     0.033 A 
ENDBRANCH   5  20
TORSDOF 5
ENDMDL
MODEL 3
REMARK VINA RESULT:      -8.0      3.721      6.195
REMARK  5 active torsions:
REMARK  status: ('A' for Active; 'I' for Inactive)
REMARK    1  A    between atoms: C_3  and  N_4 
REMARK       I    between atoms: N_4  and  C_5 
REMARK       I    between atoms: C_5  and  N_6 
REMARK    2  A    between atoms: N_6  and  C_7 
REMARK    3  A    between atoms: C_7  and  C_8 
REMARK    4  A    between atoms: C_8  and  C_9 
REMARK    5  A    between atoms: N_16  and  C_17 
ROOT
HETATM    1  C   UNL     1      -8.029   2.530 -30.972  1.00  0.00     0.054 C 
HETATM    2  C   UNL     1      -7.736   1.637 -32.120  1.00  0.00     0.003 A 
HETATM    3  C   UNL     1      -8.045   1.793 -33.495  1.00  0.00     0.159 A 
HETATM    4  N   UNL     1      -7.654   0.734 -34.208  1.00  0.00    -0.149 NA
HETATM    5  N   UNL     1      -6.987  -0.074 -33.328  1.00  0.00    -0.241 N 
HETATM    6  C   UNL     1      -7.106   0.414 -32.050  1.00  0.00     0.129 A 
ENDROOT
BRANCH   3   7
HETATM    7  N   UNL     1      -8.697   2.893 -34.004  1.00  0.00    -0.291 N 
HETATM    8  C   UNL     1      -9.924   3.025 -34.558  1.00  0.00     0.321 C 
HETATM    9  N   UNL     1     -10.707   1.923 -34.693  1.00  0.00    -0.342 N 
HETATM   10  O   UNL     1     -10.288   4.148 -34.909  1.00  0.00    -0.247 OA
HETATM   11  H   UNL     1     -10.392   1.085 -34.213  1.00  0.00     0.164 HD
HETATM   12  H   UNL     1      -8.214   3.776 -33.949  1.00  0.00     0.172 HD
BRANCH   9  13
HETATM   13  C   UNL     1     -12.086   2.087 -35.087  1.00  0.00     0.134 C 
BRANCH  13  14
HETATM   14  C   UNL     1     -13.065   1.610 -34.027  1.00  0.00    -0.021 A 
HETATM   15  C   UNL     1     -14.007   0.497 -34.476  1.00  0.00     0.012 A 
HETATM   16  C   UNL     1     -12.892   0.182 -33.528  1.00  0.00     0.012 A 
BRANCH  14  17
HETATM   17  C   UNL     1     -13.614   2.737 -33.116  1.00  0.00    -0.004 A 
HETATM   18  C   UNL     1     -12.758   3.558 -32.177  1.00  0.00     0.006 A 
HETATM   19  C   UNL     1     -13.363   4.202 -33.384  1.00  0.00     0.006 A 
ENDBRANCH  14  17
ENDBRANCH  13  14
ENDBRANCH   9  13
ENDBRANCH   3   7
BRANCH   5  20
HETATM   20  C   UNL     1      -6.352  -1.269 -33.789  1.00  0.00     0.079 A 
HETATM   21  C   UNL     1      -4.978  -1.544 -33.695  1.00  0.00     0.062 A 
HETATM   22 CL   UNL     1      -3.756  -0.437 -33.176  1.00  0.00    -0.082 Cl
HETATM   23  C   UNL     1      -4.481  -2.784 -34.140  1.00  0.00     0.026 A 
HETATM   24  C   UNL     1      -5.325  -3.742 -34.696  1.00  0.00     0.002 A 
HETATM   25  C   UNL     1      -6.678  -3.466 -34.828  1.00  0.00     0.002 A 
HETATM   26  C   UNL     1      -7.184  -2.242 -34.383  1.00  0.00     0.033 A 
ENDBRANCH   5  20
TORSDOF 5
ENDMDL
MODEL 4
REMARK VINA RESULT:      -7.8      1.991      2.832
REMARK  5 active torsions:
REMARK  status: ('A' for Active; 'I' for Inactive)
REMARK    1  A    between atoms: C_3  and  N_4 
REMARK       I    between atoms: N_4  and  C_5 
REMARK       I    between atoms: C_5  and  N_6 
REMARK    2  A    between atoms: N_6  and  C_7 
REMARK    3  A    between atoms: C_7  and  C_8 
REMARK    4  A    between atoms: C_8  and  C_9 
REMARK    5  A    between atoms: N_16  and  C_17 
ROOT
HETATM    1  C   UNL     1      -9.527   1.721 -34.265  1.00  0.00     0.054 C 
HETATM    2  C   UNL     1      -8.495   0.749 -33.826  1.00  0.00     0.003 A 
HETATM    3  C   UNL     1      -7.808   0.650 -32.590  1.00  0.00     0.159 A 
HETATM    4  N   UNL     1      -6.910  -0.338 -32.607  1.00  0.00    -0.149 NA
HETATM    5  N   UNL     1      -7.077  -0.965 -33.812  1.00  0.00    -0.241 N 
HETATM    6  C   UNL     1      -7.967  -0.266 -34.591  1.00  0.00     0.129 A 
ENDROOT
BRANCH   3   7
HETATM    7  N   UNL     1      -8.032   1.497 -31.529  1.00  0.00    -0.291 N 
HETATM    8  C   UNL     1      -7.191   2.300 -30.837  1.00  0.00     0.321 C 
HETATM    9  N   UNL     1      -5.874   2.315 -31.168  1.00  0.00    -0.342 N 
HETATM   10  O   UNL     1      -7.660   2.996 -29.935  1.00  0.00    -0.247 OA
HETATM   11  H   UNL     1      -5.622   1.848 -32.034  1.00  0.00     0.164 HD
HETATM   12  H   UNL     1      -8.981   1.576 -31.200  1.00  0.00     0.172 HD
BRANCH   9  13
HETATM   13  C   UNL     1      -5.015   3.315 -30.579  1.00  0.00     0.134 C 
BRANCH  13  14
HETATM   14  C   UNL     1      -4.209   4.085 -31.612  1.00  0.00    -0.021 A 
HETATM   15  C   UNL     1      -2.695   3.916 -31.503  1.00  0.00     0.012 A 
HETATM   16  C   UNL     1      -3.433   3.260 -32.629  1.00  0.00     0.012 A 
BRANCH  14  17
HETATM   17  C   UNL     1      -4.785   5.482 -31.956  1.00  0.00    -0.004 A 
HETATM   18  C   UNL     1      -5.708   5.751 -33.124  1.00  0.00     0.006 A 
HETATM   19  C   UNL     1      -6.232   5.850 -31.726  1.00  0.00     0.006 A 
ENDBRANCH  14  17
ENDBRANCH  13  14
ENDBRANCH   9  13
ENDBRANCH   3   7
BRANCH   5  20
HETATM   20  C   UNL     1      -6.323  -2.139 -34.123  1.00  0.00     0.079 A 
HETATM   21  C   UNL     1      -4.931  -2.266 -33.985  1.00  0.00     0.062 A 
HETATM   22 CL   UNL     1      -3.830  -0.994 -33.590  1.00  0.00    -0.082 Cl
HETATM   23  C   UNL     1      -4.310  -3.496 -34.275  1.00  0.00     0.026 A 
HETATM   24  C   UNL     1      -5.047  -4.589 -34.722  1.00  0.00     0.002 A 
HETATM   25  C   UNL     1      -6.418  -4.463 -34.897  1.00  0.00     0.002 A 
HETATM   26  C   UNL     1      -7.046  -3.250 -34.605  1.00  0.00     0.033 A 
ENDBRANCH   5  20
TORSDOF 5
ENDMDL
MODEL 5
REMARK VINA RESULT:      -7.8      2.142      2.796
REMARK  5 active torsions:
REMARK  status: ('A' for Active; 'I' for Inactive)
REMARK    1  A    between atoms: C_3  and  N_4 
REMARK       I    between atoms: N_4  and  C_5 
REMARK       I    between atoms: C_5  and  N_6 
REMARK    2  A    between atoms: N_6  and  C_7 
REMARK    3  A    between atoms: C_7  and  C_8 
REMARK    4  A    between atoms: C_8  and  C_9 
REMARK    5  A    between atoms: N_16  and  C_17 
ROOT
HETATM    1  C   UNL     1      -8.172   3.408 -30.440  1.00  0.00     0.054 C 
HETATM    2  C   UNL     1      -7.149   2.648 -31.201  1.00  0.00     0.003 A 
HETATM    3  C   UNL     1      -5.784   2.948 -31.438  1.00  0.00     0.159 A 
HETATM    4  N   UNL     1      -5.210   2.032 -32.221  1.00  0.00    -0.149 NA
HETATM    5  N   UNL     1      -6.161   1.066 -32.414  1.00  0.00    -0.241 N 
HETATM    6  C   UNL     1      -7.361   1.468 -31.879  1.00  0.00     0.129 A 
ENDROOT
BRANCH   3   7
HETATM    7  N   UNL     1      -5.157   4.067 -30.940  1.00  0.00    -0.291 N 
HETATM    8  C   UNL     1      -3.927   4.579 -31.176  1.00  0.00     0.321 C 
HETATM    9  N   UNL     1      -3.093   3.924 -32.024  1.00  0.00    -0.342 N 
HETATM   10  O   UNL     1      -3.617   5.632 -30.616  1.00  0.00    -0.247 OA
HETATM   11  H   UNL     1      -3.504   3.172 -32.569  1.00  0.00     0.164 HD
HETATM   12  H   UNL     1      -5.686   4.641 -30.303  1.00  0.00     0.172 HD
BRANCH   9  13
HETATM   13  C   UNL     1      -1.869   4.568 -32.440  1.00  0.00     0.134 C 
BRANCH  13  14
HETATM   14  C   UNL     1      -2.071   5.529 -33.599  1.00  0.00    -0.021 A 
HETATM   15  C   UNL     1      -1.936   4.904 -34.985  1.00  0.00     0.012 A 
HETATM   16  C   UNL     1      -3.290   5.294 -34.479  1.00  0.00     0.012 A 
BRANCH  14  17
HETATM   17  C   UNL     1      -1.495   6.948 -33.357  1.00  0.00    -0.004 A 
HETATM   18  C   UNL     1      -2.144   7.983 -32.464  1.00  0.00     0.006 A 
HETATM   19  C   UNL     1      -0.848   7.357 -32.055  1.00  0.00     0.006 A 
ENDBRANCH  14  17
ENDBRANCH  13  14
ENDBRANCH   9  13
ENDBRANCH   3   7
BRANCH   5  20
HETATM   20  C   UNL     1      -5.844  -0.121 -33.144  1.00  0.00     0.079 A 
HETATM   21  C   UNL     1      -6.482  -0.541 -34.323  1.00  0.00     0.062 A 
HETATM   22 CL   UNL     1      -7.886   0.181 -35.029  1.00  0.00    -0.082 Cl
HETATM   23  C   UNL     1      -6.041  -1.705 -34.980  1.00  0.00     0.026 A 
HETATM   24  C   UNL     1      -4.993  -2.467 -34.471  1.00  0.00     0.002 A 
HETATM   25  C   UNL     1      -4.380  -2.082 -33.287  1.00  0.00     0.002 A 
HETATM   26  C   UNL     1      -4.805  -0.924 -32.631  1.00  0.00     0.033 A 
ENDBRANCH   5  20
TORSDOF 5
ENDMDL
MODEL 6
REMARK VINA RESULT:      -7.7      2.917      6.779
REMARK  5 active torsions:
REMARK  status: ('A' for Active; 'I' for Inactive)
REMARK    1  A    between atoms: C_3  and  N_4 
REMARK       I    between atoms: N_4  and  C_5 
REMARK       I    between atoms: C_5  and  N_6 
REMARK    2  A    between atoms: N_6  and  C_7 
REMARK    3  A    between atoms: C_7  and  C_8 
REMARK    4  A    between atoms: C_8  and  C_9 
REMARK    5  A    between atoms: N_16  and  C_17 
ROOT
HETATM    1  C   UNL     1      -6.977   4.842 -29.288  1.00  0.00     0.054 C 
HETATM    2  C   UNL     1      -5.795   4.519 -30.125  1.00  0.00     0.003 A 
HETATM    3  C   UNL     1      -5.141   3.278 -30.335  1.00  0.00     0.159 A 
HETATM    4  N   UNL     1      -4.073   3.416 -31.123  1.00  0.00    -0.149 NA
HETATM    5  N   UNL     1      -4.080   4.724 -31.527  1.00  0.00    -0.241 N 
HETATM    6  C   UNL     1      -5.060   5.420 -30.863  1.00  0.00     0.129 A 
ENDROOT
BRANCH   3   7
HETATM    7  N   UNL     1      -5.555   2.099 -29.761  1.00  0.00    -0.291 N 
HETATM    8  C   UNL     1      -6.108   0.989 -30.303  1.00  0.00     0.321 C 
HETATM    9  N   UNL     1      -6.351   0.961 -31.639  1.00  0.00    -0.342 N 
HETATM   10  O   UNL     1      -6.360   0.040 -29.559  1.00  0.00    -0.247 OA
HETATM   11  H   UNL     1      -5.945   1.714 -32.187  1.00  0.00     0.164 HD
HETATM   12  H   UNL     1      -5.415   2.000 -28.768  1.00  0.00     0.172 HD
BRANCH   9  13
HETATM   13  C   UNL     1      -6.743  -0.285 -32.254  1.00  0.00     0.134 C 
BRANCH  13  14
HETATM   14  C   UNL     1      -6.121  -0.489 -33.625  1.00  0.00    -0.021 A 
HETATM   15  C   UNL     1      -7.101  -0.900 -34.721  1.00  0.00     0.012 A 
HETATM   16  C   UNL     1      -6.536   0.487 -34.717  1.00  0.00     0.012 A 
BRANCH  14  17
HETATM   17  C   UNL     1      -4.714  -1.139 -33.595  1.00  0.00    -0.004 A 
HETATM   18  C   UNL     1      -3.471  -0.440 -33.088  1.00  0.00     0.006 A 
HETATM   19  C   UNL     1      -4.046  -1.587 -32.317  1.00  0.00     0.006 A 
ENDBRANCH  14  17
ENDBRANCH  13  14
ENDBRANCH   9  13
ENDBRANCH   3   7
BRANCH   5  20
HETATM   20  C   UNL     1      -3.108   5.192 -32.465  1.00  0.00     0.079 A 
HETATM   21  C   UNL     1      -2.009   6.009 -32.151  1.00  0.00     0.062 A 
HETATM   22 CL   UNL     1      -1.706   6.758 -30.623  1.00  0.00    -0.082 Cl
HETATM   23  C   UNL     1      -1.090   6.361 -33.158  1.00  0.00     0.026 A 
HETATM   24  C   UNL     1      -1.260   5.932 -34.472  1.00  0.00     0.002 A 
HETATM   25  C   UNL     1      -2.362   5.156 -34.799  1.00  0.00     0.002 A 
HETATM   26  C   UNL     1      -3.277   4.795 -33.808  1.00  0.00     0.033 A 
ENDBRANCH   5  20
TORSDOF 5
ENDMDL
MODEL 7
REMARK VINA RESULT:      -7.6      4.331      6.558
REMARK  5 active torsions:
REMARK  status: ('A' for Active; 'I' for Inactive)
REMARK    1  A    between atoms: C_3  and  N_4 
REMARK       I    between atoms: N_4  and  C_5 
REMARK       I    between atoms: C_5  and  N_6 
REMARK    2  A    between atoms: N_6  and  C_7 
REMARK    3  A    between atoms: C_7  and  C_8 
REMARK    4  A    between atoms: C_8  and  C_9 
REMARK    5  A    between atoms: N_16  and  C_17 
ROOT
HETATM    1  C   UNL     1      -2.642   5.969 -34.479  1.00  0.00     0.054 C 
HETATM    2  C   UNL     1      -2.694   5.028 -33.333  1.00  0.00     0.003 A 
HETATM    3  C   UNL     1      -1.775   4.840 -32.269  1.00  0.00     0.159 A 
HETATM    4  N   UNL     1      -2.159   3.850 -31.460  1.00  0.00    -0.149 NA
HETATM    5  N   UNL     1      -3.385   3.455 -31.921  1.00  0.00    -0.241 N 
HETATM    6  C   UNL     1      -3.678   4.095 -33.100  1.00  0.00     0.129 A 
ENDROOT
BRANCH   3   7
HETATM    7  N   UNL     1      -0.621   5.577 -32.126  1.00  0.00    -0.291 N 
HETATM    8  C   UNL     1       0.096   5.906 -31.027  1.00  0.00     0.321 C 
HETATM    9  N   UNL     1      -0.342   5.496 -29.808  1.00  0.00    -0.342 N 
HETATM   10  O   UNL     1       1.129   6.560 -31.179  1.00  0.00    -0.247 OA
HETATM   11  H   UNL     1      -1.098   4.817 -29.806  1.00  0.00     0.164 HD
HETATM   12  H   UNL     1      -0.196   5.928 -32.969  1.00  0.00     0.172 HD
BRANCH   9  13
HETATM   13  C   UNL     1       0.519   5.662 -28.662  1.00  0.00     0.134 C 
BRANCH  13  14
HETATM   14  C   UNL     1       0.192   6.904 -27.850  1.00  0.00    -0.021 A 
HETATM   15  C   UNL     1       1.274   7.332 -26.863  1.00  0.00     0.012 A 
HETATM   16  C   UNL     1       1.049   8.135 -28.106  1.00  0.00     0.012 A 
BRANCH  14  17
HETATM   17  C   UNL     1      -1.295   7.013 -27.427  1.00  0.00    -0.004 A 
HETATM   18  C   UNL     1      -1.817   6.621 -26.062  1.00  0.00     0.006 A 
HETATM   19  C   UNL     1      -1.797   8.062 -26.463  1.00  0.00     0.006 A 
ENDBRANCH  14  17
ENDBRANCH  13  14
ENDBRANCH   9  13
ENDBRANCH   3   7
BRANCH   5  20
HETATM   20  C   UNL     1      -4.130   2.457 -31.219  1.00  0.00     0.079 A 
HETATM   21  C   UNL     1      -5.223   2.708 -30.372  1.00  0.00     0.062 A 
HETATM   22 CL   UNL     1      -5.775   4.265 -29.865  1.00  0.00    -0.082 Cl
HETATM   23  C   UNL     1      -5.908   1.632 -29.778  1.00  0.00     0.026 A 
HETATM   24  C   UNL     1      -5.509   0.315 -29.994  1.00  0.00     0.002 A 
HETATM   25  C   UNL     1      -4.409   0.058 -30.798  1.00  0.00     0.002 A 
HETATM   26  C   UNL     1      -3.725   1.118 -31.400  1.00  0.00     0.033 A 
ENDBRANCH   5  20
TORSDOF 5
ENDMDL
MODEL 8
REMARK VINA RESULT:      -7.5      1.559      1.864
REMARK  5 active torsions:
REMARK  status: ('A' for Active; 'I' for Inactive)
REMARK    1  A    between atoms: C_3  and  N_4 
REMARK       I    between atoms: N_4  and  C_5 
REMARK       I    between atoms: C_5  and  N_6 
REMARK    2  A    between atoms: N_6  and  C_7 
REMARK    3  A    between atoms: C_7  and  C_8 
REMARK    4  A    between atoms: C_8  and  C_9 
REMARK    5  A    between atoms: N_16  and  C_17 
ROOT
HETATM    1  C   UNL     1      -7.297   2.918 -29.868  1.00  0.00     0.054 C 
HETATM    2  C   UNL     1      -6.774   2.268 -31.096  1.00  0.00     0.003 A 
HETATM    3  C   UNL     1      -6.340   2.846 -32.316  1.00  0.00     0.159 A 
HETATM    4  N   UNL     1      -5.989   1.911 -33.202  1.00  0.00    -0.149 NA
HETATM    5  N   UNL     1      -6.084   0.719 -32.535  1.00  0.00    -0.241 N 
HETATM    6  C   UNL     1      -6.641   0.912 -31.295  1.00  0.00     0.129 A 
ENDROOT
BRANCH   3   7
HETATM    7  N   UNL     1      -6.321   4.202 -32.547  1.00  0.00    -0.291 N 
HETATM    8  C   UNL     1      -5.398   4.992 -33.142  1.00  0.00     0.321 C 
HETATM    9  N   UNL     1      -4.249   4.432 -33.601  1.00  0.00    -0.342 N 
HETATM   10  O   UNL     1      -5.644   6.194 -33.253  1.00  0.00    -0.247 OA
HETATM   11  H   UNL     1      -4.221   3.416 -33.624  1.00  0.00     0.164 HD
HETATM   12  H   UNL     1      -7.131   4.726 -32.256  1.00  0.00     0.172 HD
BRANCH   9  13
HETATM   13  C   UNL     1      -3.360   5.224 -34.416  1.00  0.00     0.134 C 
BRANCH  13  14
HETATM   14  C   UNL     1      -2.141   5.717 -33.656  1.00  0.00    -0.021 A 
HETATM   15  C   UNL     1      -0.991   6.209 -34.531  1.00  0.00     0.012 A 
HETATM   16  C   UNL     1      -1.816   7.200 -33.770  1.00  0.00     0.012 A 
BRANCH  14  17
HETATM   17  C   UNL     1      -1.815   4.901 -32.378  1.00  0.00    -0.004 A 
HETATM   18  C   UNL     1      -0.614   5.158 -31.494  1.00  0.00     0.006 A 
HETATM   19  C   UNL     1      -1.988   5.458 -30.985  1.00  0.00     0.006 A 
ENDBRANCH  14  17
ENDBRANCH  13  14
ENDBRANCH   9  13
ENDBRANCH   3   7
BRANCH   5  20
HETATM   20  C   UNL     1      -5.688  -0.496 -33.176  1.00  0.00     0.079 A 
HETATM   21  C   UNL     1      -6.271  -1.025 -34.339  1.00  0.00     0.062 A 
HETATM   22 CL   UNL     1      -7.686  -0.423 -35.128  1.00  0.00    -0.082 Cl
HETATM   23  C   UNL     1      -5.755  -2.207 -34.904  1.00  0.00     0.026 A 
HETATM   24  C   UNL     1      -4.687  -2.880 -34.318  1.00  0.00     0.002 A 
HETATM   25  C   UNL     1      -4.128  -2.387 -33.147  1.00  0.00     0.002 A 
HETATM   26  C   UNL     1      -4.627  -1.211 -32.582  1.00  0.00     0.033 A 
ENDBRANCH   5  20
TORSDOF 5
ENDMDL
MODEL 9
REMARK VINA RESULT:      -7.4      2.891      5.488
REMARK  5 active torsions:
REMARK  status: ('A' for Active; 'I' for Inactive)
REMARK    1  A    between atoms: C_3  and  N_4 
REMARK       I    between atoms: N_4  and  C_5 
REMARK       I    between atoms: C_5  and  N_6 
REMARK    2  A    between atoms: N_6  and  C_7 
REMARK    3  A    between atoms: C_7  and  C_8 
REMARK    4  A    between atoms: C_8  and  C_9 
REMARK    5  A    between atoms: N_16  and  C_17 
ROOT
HETATM    1  C   UNL     1      -3.340   2.319 -32.143  1.00  0.00     0.054 C 
HETATM    2  C   UNL     1      -4.074   1.037 -32.289  1.00  0.00     0.003 A 
HETATM    3  C   UNL     1      -5.366   0.673 -31.831  1.00  0.00     0.159 A 
HETATM    4  N   UNL     1      -5.646  -0.600 -32.119  1.00  0.00    -0.149 NA
HETATM    5  N   UNL     1      -4.588  -1.049 -32.864  1.00  0.00    -0.241 N 
HETATM    6  C   UNL     1      -3.595  -0.101 -32.897  1.00  0.00     0.129 A 
ENDROOT
BRANCH   3   7
HETATM    7  N   UNL     1      -6.197   1.531 -31.149  1.00  0.00    -0.291 N 
HETATM    8  C   UNL     1      -7.525   1.766 -31.265  1.00  0.00     0.321 C 
HETATM    9  N   UNL     1      -8.232   1.095 -32.210  1.00  0.00    -0.342 N 
HETATM   10  O   UNL     1      -8.043   2.577 -30.496  1.00  0.00    -0.247 OA
HETATM   11  H   UNL     1      -7.754   0.324 -32.668  1.00  0.00     0.164 HD
HETATM   12  H   UNL     1      -5.783   2.079 -30.412  1.00  0.00     0.172 HD
BRANCH   9  13
HETATM   13  C   UNL     1      -9.673   1.183 -32.202  1.00  0.00     0.134 C 
BRANCH  13  14
HETATM   14  C   UNL     1     -10.229   1.908 -33.416  1.00  0.00    -0.021 A 
HETATM   15  C   UNL     1     -10.505   3.394 -33.208  1.00  0.00     0.012 A 
HETATM   16  C   UNL     1      -9.339   2.970 -34.046  1.00  0.00     0.012 A 
BRANCH  14  17
HETATM   17  C   UNL     1     -11.226   1.070 -34.256  1.00  0.00    -0.004 A 
HETATM   18  C   UNL     1     -12.701   0.945 -33.940  1.00  0.00     0.006 A 
HETATM   19  C   UNL     1     -12.263   1.694 -35.159  1.00  0.00     0.006 A 
ENDBRANCH  14  17
ENDBRANCH  13  14
ENDBRANCH   9  13
ENDBRANCH   3   7
BRANCH   5  20
HETATM   20  C   UNL     1      -4.608  -2.366 -33.420  1.00  0.00     0.079 A 
HETATM   21  C   UNL     1      -3.848  -3.452 -32.953  1.00  0.00     0.062 A 
HETATM   22 CL   UNL     1      -2.614  -3.382 -31.746  1.00  0.00    -0.082 Cl
HETATM   23  C   UNL     1      -3.995  -4.717 -33.554  1.00  0.00     0.026 A 
HETATM   24  C   UNL     1      -4.867  -4.911 -34.622  1.00  0.00     0.002 A 
HETATM   25  C   UNL     1      -5.594  -3.836 -35.114  1.00  0.00     0.002 A 
HETATM   26  C   UNL     1      -5.462  -2.579 -34.522  1.00  0.00     0.033 A 
ENDBRANCH   5  20
TORSDOF 5
ENDMDL
MODEL 10
REMARK VINA RESULT:      -7.4      3.503      5.901
REMARK  5 active torsions:
REMARK  status: ('A' for Active; 'I' for Inactive)
REMARK    1  A    between atoms: C_3  and  N_4 
REMARK       I    between atoms: N_4  and  C_5 
REMARK       I    between atoms: C_5  and  N_6 
REMARK    2  A    between atoms: N_6  and  C_7 
REMARK    3  A    between atoms: C_7  and  C_8 
REMARK    4  A    between atoms: C_8  and  C_9 
REMARK    5  A    between atoms: N_16  and  C_17 
ROOT
HETATM    1  C   UNL     1      -6.620   4.173 -32.895  1.00  0.00     0.054 C 
HETATM    2  C   UNL     1      -6.735   2.697 -32.787  1.00  0.00     0.003 A 
HETATM    3  C   UNL     1      -7.561   1.909 -31.947  1.00  0.00     0.159 A 
HETATM    4  N   UNL     1      -7.327   0.605 -32.114  1.00  0.00    -0.149 NA
HETATM    5  N   UNL     1      -6.428   0.523 -33.143  1.00  0.00    -0.241 N 
HETATM    6  C   UNL     1      -5.996   1.778 -33.497  1.00  0.00     0.129 A 
ENDROOT
BRANCH   3   7
HETATM    7  N   UNL     1      -8.461   2.443 -31.054  1.00  0.00    -0.291 N 
HETATM    8  C   UNL     1      -9.700   2.956 -31.236  1.00  0.00     0.321 C 
HETATM    9  N   UNL     1     -10.212   3.009 -32.492  1.00  0.00    -0.342 N 
HETATM   10  O   UNL     1     -10.321   3.345 -30.246  1.00  0.00    -0.247 OA
HETATM   11  H   UNL     1      -9.700   2.502 -33.209  1.00  0.00     0.164 HD
HETATM   12  H   UNL     1      -8.193   2.448 -30.082  1.00  0.00     0.172 HD
BRANCH   9  13
HETATM   13  C   UNL     1     -11.602   3.358 -32.669  1.00  0.00     0.134 C 
BRANCH  13  14
HETATM   14  C   UNL     1     -12.049   3.289 -34.119  1.00  0.00    -0.021 A 
HETATM   15  C   UNL     1     -12.113   4.634 -34.838  1.00  0.00     0.012 A 
HETATM   16  C   UNL     1     -11.019   3.669 -35.173  1.00  0.00     0.012 A 
BRANCH  14  17
HETATM   17  C   UNL     1     -13.155   2.238 -34.395  1.00  0.00    -0.004 A 
HETATM   18  C   UNL     1     -12.972   0.748 -34.202  1.00  0.00     0.006 A 
HETATM   19  C   UNL     1     -13.884   1.508 -33.292  1.00  0.00     0.006 A 
ENDBRANCH  14  17
ENDBRANCH  13  14
ENDBRANCH   9  13
ENDBRANCH   3   7
BRANCH   5  20
HETATM   20  C   UNL     1      -6.025  -0.753 -33.645  1.00  0.00     0.079 A 
HETATM   21  C   UNL     1      -4.718  -1.266 -33.597  1.00  0.00     0.062 A 
HETATM   22 CL   UNL     1      -3.308  -0.402 -33.093  1.00  0.00    -0.082 Cl
HETATM   23  C   UNL     1      -4.458  -2.563 -34.079  1.00  0.00     0.026 A 
HETATM   24  C   UNL     1      -5.470  -3.345 -34.628  1.00  0.00     0.002 A 
HETATM   25  C   UNL     1      -6.757  -2.834 -34.715  1.00  0.00     0.002 A 
HETATM   26  C   UNL     1      -7.029  -1.551 -34.232  1.00  0.00     0.033 A 
ENDBRANCH   5  20
TORSDOF 5
ENDMDL
