MODEL 1
REMARK VINA RESULT:      -9.7      0.000      0.000
REMARK  6 active torsions:
REMARK  status: ('A' for Active; 'I' for Inactive)
REMARK    1  A    between atoms: O_2  and  C_3 
REMARK    2  A    between atoms: C_3  and  C_4 
REMARK       I    between atoms: C_4  and  N_6 
REMARK    3  A    between atoms: N_6  and  C_7 
REMARK    4  A    between atoms: C_12  and  C_13 
REMARK    5  A    between atoms: C_15  and  N_16 
REMARK    6  A    between atoms: N_16  and  C_17 
ROOT
HETATM    1  C   UNL     1      -9.799   1.442 -33.200  1.00  0.00     0.164 A 
HETATM    2  N   UNL     1      -8.801   0.972 -33.966  1.00  0.00    -0.210 NA
HETATM    3  C   UNL     1      -7.540   1.120 -33.519  1.00  0.00     0.143 A 
HETATM    4  C   UNL     1      -7.249   1.779 -32.310  1.00  0.00     0.039 A 
HETATM    5  C   UNL     1      -5.952   1.971 -31.768  1.00  0.00     0.018 A 
HETATM    6  C   UNL     1      -5.771   2.659 -30.571  1.00  0.00     0.001 A 
HETATM    7  C   UNL     1      -6.878   3.156 -29.898  1.00  0.00     0.002 A 
HETATM    8  C   UNL     1      -8.157   2.949 -30.422  1.00  0.00     0.032 A 
HETATM    9  C   UNL     1      -8.362   2.264 -31.613  1.00  0.00     0.073 A 
HETATM   10  N   UNL     1      -9.615   2.092 -32.040  1.00  0.00    -0.228 NA
ENDROOT
BRANCH   1  11
HETATM   11  C   UNL     1     -11.189   1.216 -33.658  1.00  0.00     0.039 A 
HETATM   12  C   UNL     1     -11.929   2.157 -34.430  1.00  0.00     0.049 A 
HETATM   13  C   UNL     1     -13.247   1.853 -34.808  1.00  0.00     0.030 A 
HETATM   14  C   UNL     1     -13.846   0.645 -34.446  1.00  0.00     0.002 A 
HETATM   15  C   UNL     1     -13.140  -0.280 -33.694  1.00  0.00     0.001 A 
HETATM   16  C   UNL     1     -11.831   0.006 -33.305  1.00  0.00     0.018 A 
BRANCH  12  17
HETATM   17  N   UNL     1     -11.318   3.383 -34.806  1.00  0.00    -0.324 N 
HETATM   18  C   UNL     1     -11.358   4.605 -34.153  1.00  0.00     0.245 C 
HETATM   19  O   UNL     1     -11.929   4.834 -33.090  1.00  0.00    -0.271 OA
HETATM   20  H   UNL     1     -10.786   3.336 -35.676  1.00  0.00     0.169 HD
BRANCH  18  21
HETATM   21  C   UNL     1     -10.542   5.703 -34.866  1.00  0.00     0.270 C 
BRANCH  21  22
HETATM   22  O   UNL     1      -9.149   5.472 -35.019  1.00  0.00    -0.387 OA
HETATM   23  C   UNL     1      -8.474   5.292 -33.782  1.00  0.00     0.202 C 
ENDBRANCH  21  22
ENDBRANCH  18  21
ENDBRANCH  12  17
ENDBRANCH   1  11
BRANCH   3  24
HETATM   24  N   UNL     1      -6.475   0.595 -34.299  1.00  0.00    -0.340 N 
HETATM   25  H   UNL     1      -6.538   0.950 -35.246  1.00  0.00     0.167 HD
BRANCH  24  26
HETATM   26  C   UNL     1      -5.934  -0.712 -34.257  1.00  0.00     0.034 A 
HETATM   27  C   UNL     1      -4.671  -0.980 -33.708  1.00  0.00     0.032 A 
HETATM   28  C   UNL     1      -4.137  -2.275 -33.655  1.00  0.00     0.034 A 
HETATM   29  C   UNL     1      -4.905  -3.297 -34.211  1.00  0.00     0.062 A 
HETATM   30  N   UNL     1      -4.699  -4.648 -34.299  1.00  0.00    -0.278 N 
HETATM   31  C   UNL     1      -6.133  -3.073 -34.818  1.00  0.00     0.013 A 
HETATM   32  H   UNL     1      -3.916  -5.178 -33.934  1.00  0.00     0.189 HD
HETATM   33  N   UNL     1      -5.667  -5.309 -34.962  1.00  0.00    -0.186 NA
HETATM   34  C   UNL     1      -6.544  -4.349 -35.263  1.00  0.00     0.152 A 
HETATM   35  C   UNL     1      -6.651  -1.764 -34.856  1.00  0.00     0.044 A 
ENDBRANCH  24  26
ENDBRANCH   3  24
TORSDOF 6
ENDMDL
MODEL 2
REMARK VINA RESULT:      -9.5      3.071      7.459
REMARK  6 active torsions:
REMARK  status: ('A' for Active; 'I' for Inactive)
REMARK    1  A    between atoms: O_2  and  C_3 
REMARK    2  A    between atoms: C_3  and  C_4 
REMARK       I    between atoms: C_4  and  N_6 
REMARK    3  A    between atoms: N_6  and  C_7 
REMARK    4  A    between atoms: C_12  and  C_13 
REMARK    5  A    between atoms: C_15  and  N_16 
REMARK    6  A    between atoms: N_16  and  C_17 
ROOT
HETATM    1  C   UNL     1      -6.843  -0.958 -33.456  1.00  0.00     0.164 A 
HETATM    2  N   UNL     1      -7.688  -0.272 -34.243  1.00  0.00    -0.210 NA
HETATM    3  C   UNL     1      -8.142   0.915 -33.797  1.00  0.00     0.143 A 
HETATM    4  C   UNL     1      -7.789   1.422 -32.533  1.00  0.00     0.039 A 
HETATM    5  C   UNL     1      -8.218   2.663 -31.994  1.00  0.00     0.018 A 
HETATM    6  C   UNL     1      -7.825   3.063 -30.719  1.00  0.00     0.001 A 
HETATM    7  C   UNL     1      -6.998   2.238 -29.972  1.00  0.00     0.002 A 
HETATM    8  C   UNL     1      -6.559   1.025 -30.512  1.00  0.00     0.032 A 
HETATM    9  C   UNL     1      -6.935   0.606 -31.782  1.00  0.00     0.073 A 
HETATM   10  N   UNL     1      -6.461  -0.557 -32.233  1.00  0.00    -0.228 NA
ENDROOT
BRANCH   1  11
HETATM   11  C   UNL     1      -6.290  -2.229 -33.976  1.00  0.00     0.039 A 
HETATM   12  C   UNL     1      -4.923  -2.606 -33.851  1.00  0.00     0.049 A 
HETATM   13  C   UNL     1      -4.494  -3.831 -34.388  1.00  0.00     0.030 A 
HETATM   14  C   UNL     1      -5.382  -4.689 -35.038  1.00  0.00     0.002 A 
HETATM   15  C   UNL     1      -6.716  -4.337 -35.169  1.00  0.00     0.001 A 
HETATM   16  C   UNL     1      -7.160  -3.122 -34.647  1.00  0.00     0.018 A 
BRANCH  12  17
HETATM   17  N   UNL     1      -4.019  -1.736 -33.183  1.00  0.00    -0.324 N 
HETATM   18  C   UNL     1      -3.147  -2.027 -32.146  1.00  0.00     0.245 C 
HETATM   19  O   UNL     1      -2.987  -3.129 -31.628  1.00  0.00    -0.271 OA
HETATM   20  H   UNL     1      -4.032  -0.776 -33.527  1.00  0.00     0.169 HD
BRANCH  18  21
HETATM   21  C   UNL     1      -2.305  -0.813 -31.702  1.00  0.00     0.270 C 
BRANCH  21  22
HETATM   22  O   UNL     1      -2.945   0.144 -30.869  1.00  0.00    -0.387 OA
HETATM   23  C   UNL     1      -3.243   1.359 -31.540  1.00  0.00     0.202 C 
ENDBRANCH  21  22
ENDBRANCH  18  21
ENDBRANCH  12  17
ENDBRANCH   1  11
BRANCH   3  24
HETATM   24  N   UNL     1      -9.007   1.671 -34.633  1.00  0.00    -0.340 N 
HETATM   25  H   UNL     1      -8.530   2.510 -34.947  1.00  0.00     0.167 HD
BRANCH  24  26
HETATM   26  C   UNL     1     -10.399   1.876 -34.481  1.00  0.00     0.034 A 
HETATM   27  C   UNL     1     -10.989   3.139 -34.636  1.00  0.00     0.032 A 
HETATM   28  C   UNL     1     -12.368   3.343 -34.497  1.00  0.00     0.034 A 
HETATM   29  C   UNL     1     -13.139   2.231 -34.157  1.00  0.00     0.062 A 
HETATM   30  N   UNL     1     -14.488   2.077 -33.975  1.00  0.00    -0.278 N 
HETATM   31  C   UNL     1     -12.593   0.974 -33.934  1.00  0.00     0.013 A 
HETATM   32  H   UNL     1     -15.210   2.781 -34.085  1.00  0.00     0.189 HD
HETATM   33  N   UNL     1     -14.853   0.837 -33.600  1.00  0.00    -0.186 NA
HETATM   34  C   UNL     1     -13.699   0.166 -33.590  1.00  0.00     0.152 A 
HETATM   35  C   UNL     1     -11.205   0.792 -34.083  1.00  0.00     0.044 A 
ENDBRANCH  24  26
ENDBRANCH   3  24
TORSDOF 6
ENDMDL
MODEL 3
REMARK VINA RESULT:      -9.1      2.744      5.581
REMARK  6 active torsions:
REMARK  status: ('A' for Active; 'I' for Inactive)
REMARK    1  A    between atoms: O_2  and  C_3 
REMARK    2  A    between atoms: C_3  and  C_4 
REMARK       I    between atoms: C_4  and  N_6 
REMARK    3  A    between atoms: N_6  and  C_7 
REMARK    4  A    between atoms: C_12  and  C_13 
REMARK    5  A    between atoms: C_15  and  N_16 
REMARK    6  A    between atoms: N_16  and  C_17 
ROOT
HETATM    1  C   UNL     1      -8.302   0.540 -33.206  1.00  0.00     0.164 A 
HETATM    2  N   UNL     1      -7.545   1.067 -32.230  1.00  0.00    -0.210 NA
HETATM    3  C   UNL     1      -6.316   0.551 -32.037  1.00  0.00     0.143 A 
HETATM    4  C   UNL     1      -5.834  -0.532 -32.795  1.00  0.00     0.039 A 
HETATM    5  C   UNL     1      -4.553  -1.127 -32.658  1.00  0.00     0.018 A 
HETATM    6  C   UNL     1      -4.182  -2.214 -33.446  1.00  0.00     0.001 A 
HETATM    7  C   UNL     1      -5.076  -2.713 -34.382  1.00  0.00     0.002 A 
HETATM    8  C   UNL     1      -6.330  -2.113 -34.530  1.00  0.00     0.032 A 
HETATM    9  C   UNL     1      -6.722  -1.028 -33.757  1.00  0.00     0.073 A 
HETATM   10  N   UNL     1      -7.929  -0.499 -33.970  1.00  0.00    -0.228 NA
ENDROOT
BRANCH   1  11
HETATM   11  C   UNL     1      -9.625   1.153 -33.464  1.00  0.00     0.039 A 
HETATM   12  C   UNL     1      -9.806   2.514 -33.838  1.00  0.00     0.049 A 
HETATM   13  C   UNL     1     -11.105   3.004 -34.051  1.00  0.00     0.030 A 
HETATM   14  C   UNL     1     -12.223   2.181 -33.906  1.00  0.00     0.002 A 
HETATM   15  C   UNL     1     -12.064   0.854 -33.541  1.00  0.00     0.001 A 
HETATM   16  C   UNL     1     -10.783   0.351 -33.321  1.00  0.00     0.018 A 
BRANCH  12  17
HETATM   17  N   UNL     1      -8.668   3.351 -33.993  1.00  0.00    -0.324 N 
HETATM   18  C   UNL     1      -8.170   4.303 -33.118  1.00  0.00     0.245 C 
HETATM   19  O   UNL     1      -8.632   4.577 -32.013  1.00  0.00    -0.271 OA
HETATM   20  H   UNL     1      -8.167   3.218 -34.872  1.00  0.00     0.169 HD
BRANCH  18  21
HETATM   21  C   UNL     1      -6.891   4.995 -33.635  1.00  0.00     0.270 C 
BRANCH  21  22
HETATM   22  O   UNL     1      -5.843   4.150 -34.090  1.00  0.00    -0.387 OA
HETATM   23  C   UNL     1      -4.743   4.866 -34.631  1.00  0.00     0.202 C 
ENDBRANCH  21  22
ENDBRANCH  18  21
ENDBRANCH  12  17
ENDBRANCH   1  11
BRANCH   3  24
HETATM   24  N   UNL     1      -5.488   1.122 -31.034  1.00  0.00    -0.340 N 
HETATM   25  H   UNL     1      -5.813   0.833 -30.118  1.00  0.00     0.167 HD
BRANCH  24  26
HETATM   26  C   UNL     1      -4.923   2.420 -31.012  1.00  0.00     0.034 A 
HETATM   27  C   UNL     1      -5.594   3.517 -30.451  1.00  0.00     0.032 A 
HETATM   28  C   UNL     1      -5.032   4.800 -30.417  1.00  0.00     0.034 A 
HETATM   29  C   UNL     1      -3.778   4.955 -31.006  1.00  0.00     0.062 A 
HETATM   30  N   UNL     1      -2.951   6.041 -31.120  1.00  0.00    -0.278 N 
HETATM   31  C   UNL     1      -3.102   3.913 -31.626  1.00  0.00     0.013 A 
HETATM   32  H   UNL     1      -3.105   6.975 -30.755  1.00  0.00     0.189 HD
HETATM   33  N   UNL     1      -1.821   5.801 -31.811  1.00  0.00    -0.186 NA
HETATM   34  C   UNL     1      -1.910   4.502 -32.105  1.00  0.00     0.152 A 
HETATM   35  C   UNL     1      -3.684   2.631 -31.644  1.00  0.00     0.044 A 
ENDBRANCH  24  26
ENDBRANCH   3  24
TORSDOF 6
ENDMDL
MODEL 4
REMARK VINA RESULT:      -9.0      3.812      7.221
REMARK  6 active torsions:
REMARK  status: ('A' for Active; 'I' for Inactive)
REMARK    1  A    between atoms: O_2  and  C_3 
REMARK    2  A    between atoms: C_3  and  C_4 
REMARK       I    between atoms: C_4  and  N_6 
REMARK    3  A    between atoms: N_6  and  C_7 
REMARK    4  A    between atoms: C_12  and  C_13 
REMARK    5  A    between atoms: C_15  and  N_16 
REMARK    6  A    between atoms: N_16  and  C_17 
ROOT
HETATM    1  C   UNL     1      -5.358   0.265 -32.379  1.00  0.00     0.164 A 
HETATM    2  N   UNL     1      -4.216   0.967 -32.305  1.00  0.00    -0.210 NA
HETATM    3  C   UNL     1      -4.215   2.092 -31.564  1.00  0.00     0.143 A 
HETATM    4  C   UNL     1      -5.371   2.557 -30.912  1.00  0.00     0.039 A 
HETATM    5  C   UNL     1      -5.450   3.725 -30.110  1.00  0.00     0.018 A 
HETATM    6  C   UNL     1      -6.654   4.110 -29.524  1.00  0.00     0.001 A 
HETATM    7  C   UNL     1      -7.787   3.335 -29.724  1.00  0.00     0.002 A 
HETATM    8  C   UNL     1      -7.703   2.173 -30.497  1.00  0.00     0.032 A 
HETATM    9  C   UNL     1      -6.514   1.768 -31.089  1.00  0.00     0.073 A 
HETATM   10  N   UNL     1      -6.510   0.638 -31.800  1.00  0.00    -0.228 NA
ENDROOT
BRANCH   1  11
HETATM   11  C   UNL     1      -5.341  -1.008 -33.136  1.00  0.00     0.039 A 
HETATM   12  C   UNL     1      -6.440  -1.485 -33.905  1.00  0.00     0.049 A 
HETATM   13  C   UNL     1      -6.328  -2.712 -34.581  1.00  0.00     0.030 A 
HETATM   14  C   UNL     1      -5.157  -3.470 -34.517  1.00  0.00     0.002 A 
HETATM   15  C   UNL     1      -4.079  -3.019 -33.773  1.00  0.00     0.001 A 
HETATM   16  C   UNL     1      -4.173  -1.807 -33.092  1.00  0.00     0.018 A 
BRANCH  12  17
HETATM   17  N   UNL     1      -7.629  -0.711 -33.976  1.00  0.00    -0.324 N 
HETATM   18  C   UNL     1      -7.927   0.340 -34.828  1.00  0.00     0.245 C 
HETATM   19  O   UNL     1      -7.196   0.779 -35.713  1.00  0.00    -0.271 OA
HETATM   20  H   UNL     1      -8.345  -0.980 -33.299  1.00  0.00     0.169 HD
BRANCH  18  21
HETATM   21  C   UNL     1      -9.343   0.916 -34.613  1.00  0.00     0.270 C 
BRANCH  21  22
HETATM   22  O   UNL     1      -9.807   0.997 -33.273  1.00  0.00    -0.387 OA
HETATM   23  C   UNL     1     -10.460   2.224 -32.981  1.00  0.00     0.202 C 
ENDBRANCH  21  22
ENDBRANCH  18  21
ENDBRANCH  12  17
ENDBRANCH   1  11
BRANCH   3  24
HETATM   24  N   UNL     1      -3.005   2.827 -31.445  1.00  0.00    -0.340 N 
HETATM   25  H   UNL     1      -2.692   2.815 -30.480  1.00  0.00     0.167 HD
BRANCH  24  26
HETATM   26  C   UNL     1      -2.653   4.030 -32.103  1.00  0.00     0.034 A 
HETATM   27  C   UNL     1      -2.373   4.075 -33.476  1.00  0.00     0.032 A 
HETATM   28  C   UNL     1      -2.036   5.267 -34.133  1.00  0.00     0.034 A 
HETATM   29  C   UNL     1      -1.952   6.416 -33.348  1.00  0.00     0.062 A 
HETATM   30  N   UNL     1      -1.681   7.721 -33.667  1.00  0.00    -0.278 N 
HETATM   31  C   UNL     1      -2.161   6.410 -31.976  1.00  0.00     0.013 A 
HETATM   32  H   UNL     1      -1.505   8.107 -34.588  1.00  0.00     0.189 HD
HETATM   33  N   UNL     1      -1.643   8.549 -32.606  1.00  0.00    -0.186 NA
HETATM   34  C   UNL     1      -1.950   7.750 -31.581  1.00  0.00     0.152 A 
HETATM   35  C   UNL     1      -2.503   5.202 -31.338  1.00  0.00     0.044 A 
ENDBRANCH  24  26
ENDBRANCH   3  24
TORSDOF 6
ENDMDL
MODEL 5
REMARK VINA RESULT:      -8.7      2.172      5.703
REMARK  6 active torsions:
REMARK  status: ('A' for Active; 'I' for Inactive)
REMARK    1  A    between atoms: O_2  and  C_3 
REMARK    2  A    between atoms: C_3  and  C_4 
REMARK       I    between atoms: C_4  and  N_6 
REMARK    3  A    between atoms: N_6  and  C_7 
REMARK    4  A    between atoms: C_12  and  C_13 
REMARK    5  A    between atoms: C_15  and  N_16 
REMARK    6  A    between atoms: N_16  and  C_17 
ROOT
HETATM    1  C   UNL     1      -9.697   0.640 -33.016  1.00  0.00     0.164 A 
HETATM    2  N   UNL     1      -9.178   1.095 -31.864  1.00  0.00    -0.210 NA
HETATM    3  C   UNL     1      -7.890   0.808 -31.595  1.00  0.00     0.143 A 
HETATM    4  C   UNL     1      -7.105   0.023 -32.459  1.00  0.00     0.039 A 
HETATM    5  C   UNL     1      -5.743  -0.318 -32.253  1.00  0.00     0.018 A 
HETATM    6  C   UNL     1      -5.061  -1.122 -33.163  1.00  0.00     0.001 A 
HETATM    7  C   UNL     1      -5.723  -1.587 -34.289  1.00  0.00     0.002 A 
HETATM    8  C   UNL     1      -7.059  -1.234 -34.503  1.00  0.00     0.032 A 
HETATM    9  C   UNL     1      -7.759  -0.432 -33.611  1.00  0.00     0.073 A 
HETATM   10  N   UNL     1      -9.027  -0.124 -33.893  1.00  0.00    -0.228 NA
ENDROOT
BRANCH   1  11
HETATM   11  C   UNL     1     -11.092   1.015 -33.343  1.00  0.00     0.039 A 
HETATM   12  C   UNL     1     -11.525   2.357 -33.533  1.00  0.00     0.049 A 
HETATM   13  C   UNL     1     -12.874   2.610 -33.832  1.00  0.00     0.030 A 
HETATM   14  C   UNL     1     -13.798   1.571 -33.950  1.00  0.00     0.002 A 
HETATM   15  C   UNL     1     -13.393   0.259 -33.767  1.00  0.00     0.001 A 
HETATM   16  C   UNL     1     -12.058  -0.012 -33.465  1.00  0.00     0.018 A 
BRANCH  12  17
HETATM   17  N   UNL     1     -10.584   3.416 -33.420  1.00  0.00    -0.324 N 
HETATM   18  C   UNL     1     -10.106   4.258 -34.412  1.00  0.00     0.245 C 
HETATM   19  O   UNL     1     -10.447   4.244 -35.592  1.00  0.00    -0.271 OA
HETATM   20  H   UNL     1     -10.224   3.556 -32.476  1.00  0.00     0.169 HD
BRANCH  18  21
HETATM   21  C   UNL     1      -9.104   5.307 -33.888  1.00  0.00     0.270 C 
BRANCH  21  22
HETATM   22  O   UNL     1      -7.747   5.150 -34.277  1.00  0.00    -0.387 OA
HETATM   23  C   UNL     1      -7.122   4.021 -33.683  1.00  0.00     0.202 C 
ENDBRANCH  21  22
ENDBRANCH  18  21
ENDBRANCH  12  17
ENDBRANCH   1  11
BRANCH   3  24
HETATM   24  N   UNL     1      -7.315   1.315 -30.400  1.00  0.00    -0.340 N 
HETATM   25  H   UNL     1      -7.791   0.917 -29.597  1.00  0.00     0.167 HD
BRANCH  24  26
HETATM   26  C   UNL     1      -6.857   2.630 -30.148  1.00  0.00     0.034 A 
HETATM   27  C   UNL     1      -5.553   3.040 -30.465  1.00  0.00     0.032 A 
HETATM   28  C   UNL     1      -5.100   4.345 -30.228  1.00  0.00     0.034 A 
HETATM   29  C   UNL     1      -5.997   5.223 -29.620  1.00  0.00     0.062 A 
HETATM   30  N   UNL     1      -5.891   6.546 -29.280  1.00  0.00    -0.278 N 
HETATM   31  C   UNL     1      -7.277   4.847 -29.234  1.00  0.00     0.013 A 
HETATM   32  H   UNL     1      -5.103   7.162 -29.441  1.00  0.00     0.189 HD
HETATM   33  N   UNL     1      -6.976   7.041 -28.656  1.00  0.00    -0.186 NA
HETATM   34  C   UNL     1      -7.822   6.008 -28.643  1.00  0.00     0.152 A 
HETATM   35  C   UNL     1      -7.711   3.531 -29.486  1.00  0.00     0.044 A 
ENDBRANCH  24  26
ENDBRANCH   3  24
TORSDOF 6
ENDMDL
MODEL 6
REMARK VINA RESULT:      -8.6      3.249      7.087
REMARK  6 active torsions:
REMARK  status: ('A' for Active; 'I' for Inactive)
REMARK    1  A    between atoms: O_2  and  C_3 
REMARK    2  A    between atoms: C_3  and  C_4 
REMARK       I    between atoms: C_4  and  N_6 
REMARK    3  A    between atoms: N_6  and  C_7 
REMARK    4  A    between atoms: C_12  and  C_13 
REMARK    5  A    between atoms: C_15  and  N_16 
REMARK    6  A    between atoms: N_16  and  C_17 
ROOT
HETATM    1  C   UNL     1      -7.469   0.589 -33.766  1.00  0.00     0.164 A 
HETATM    2  N   UNL     1      -7.111   1.876 -33.902  1.00  0.00    -0.210 NA
HETATM    3  C   UNL     1      -8.083   2.807 -33.880  1.00  0.00     0.143 A 
HETATM    4  C   UNL     1      -9.442   2.463 -33.759  1.00  0.00     0.039 A 
HETATM    5  C   UNL     1     -10.523   3.382 -33.721  1.00  0.00     0.018 A 
HETATM    6  C   UNL     1     -11.839   2.935 -33.621  1.00  0.00     0.001 A 
HETATM    7  C   UNL     1     -12.091   1.573 -33.550  1.00  0.00     0.002 A 
HETATM    8  C   UNL     1     -11.024   0.669 -33.567  1.00  0.00     0.032 A 
HETATM    9  C   UNL     1      -9.704   1.092 -33.664  1.00  0.00     0.073 A 
HETATM   10  N   UNL     1      -8.739   0.169 -33.657  1.00  0.00    -0.228 NA
ENDROOT
BRANCH   1  11
HETATM   11  C   UNL     1      -6.394  -0.429 -33.721  1.00  0.00     0.039 A 
HETATM   12  C   UNL     1      -5.333  -0.416 -32.772  1.00  0.00     0.049 A 
HETATM   13  C   UNL     1      -4.354  -1.422 -32.819  1.00  0.00     0.030 A 
HETATM   14  C   UNL     1      -4.403  -2.438 -33.775  1.00  0.00     0.002 A 
HETATM   15  C   UNL     1      -5.429  -2.464 -34.706  1.00  0.00     0.001 A 
HETATM   16  C   UNL     1      -6.407  -1.471 -34.679  1.00  0.00     0.018 A 
BRANCH  12  17
HETATM   17  N   UNL     1      -5.286   0.614 -31.793  1.00  0.00    -0.324 N 
HETATM   18  C   UNL     1      -4.515   1.764 -31.785  1.00  0.00     0.245 C 
HETATM   19  O   UNL     1      -3.731   2.111 -32.666  1.00  0.00    -0.271 OA
HETATM   20  H   UNL     1      -5.911   0.465 -31.000  1.00  0.00     0.169 HD
BRANCH  18  21
HETATM   21  C   UNL     1      -4.765   2.656 -30.551  1.00  0.00     0.270 C 
BRANCH  21  22
HETATM   22  O   UNL     1      -5.852   2.298 -29.709  1.00  0.00    -0.387 OA
HETATM   23  C   UNL     1      -7.028   3.052 -29.964  1.00  0.00     0.202 C 
ENDBRANCH  21  22
ENDBRANCH  18  21
ENDBRANCH  12  17
ENDBRANCH   1  11
BRANCH   3  24
HETATM   24  N   UNL     1      -7.718   4.176 -33.984  1.00  0.00    -0.340 N 
HETATM   25  H   UNL     1      -8.117   4.572 -34.828  1.00  0.00     0.167 HD
BRANCH  24  26
HETATM   26  C   UNL     1      -6.475   4.768 -33.655  1.00  0.00     0.034 A 
HETATM   27  C   UNL     1      -6.300   5.541 -32.498  1.00  0.00     0.032 A 
HETATM   28  C   UNL     1      -5.068   6.120 -32.164  1.00  0.00     0.034 A 
HETATM   29  C   UNL     1      -4.017   5.925 -33.059  1.00  0.00     0.062 A 
HETATM   30  N   UNL     1      -2.705   6.318 -33.025  1.00  0.00    -0.278 N 
HETATM   31  C   UNL     1      -4.157   5.219 -34.246  1.00  0.00     0.013 A 
HETATM   32  H   UNL     1      -2.233   6.831 -32.289  1.00  0.00     0.189 HD
HETATM   33  N   UNL     1      -2.000   5.972 -34.118  1.00  0.00    -0.186 NA
HETATM   34  C   UNL     1      -2.883   5.291 -34.852  1.00  0.00     0.152 A 
HETATM   35  C   UNL     1      -5.403   4.643 -34.559  1.00  0.00     0.044 A 
ENDBRANCH  24  26
ENDBRANCH   3  24
TORSDOF 6
ENDMDL
MODEL 7
REMARK VINA RESULT:      -8.6      2.660      7.060
REMARK  6 active torsions:
REMARK  status: ('A' for Active; 'I' for Inactive)
REMARK    1  A    between atoms: O_2  and  C_3 
REMARK    2  A    between atoms: C_3  and  C_4 
REMARK       I    between atoms: C_4  and  N_6 
REMARK    3  A    between atoms: N_6  and  C_7 
REMARK    4  A    between atoms: C_12  and  C_13 
REMARK    5  A    between atoms: C_15  and  N_16 
REMARK    6  A    between atoms: N_16  and  C_17 
ROOT
HETATM    1  C   UNL     1      -3.989   2.486 -32.116  1.00  0.00     0.164 A 
HETATM    2  N   UNL     1      -5.018   2.332 -32.965  1.00  0.00    -0.210 NA
HETATM    3  C   UNL     1      -5.342   1.081 -33.343  1.00  0.00     0.143 A 
HETATM    4  C   UNL     1      -4.614  -0.041 -32.908  1.00  0.00     0.039 A 
HETATM    5  C   UNL     1      -4.894  -1.389 -33.255  1.00  0.00     0.018 A 
HETATM    6  C   UNL     1      -4.094  -2.429 -32.785  1.00  0.00     0.001 A 
HETATM    7  C   UNL     1      -3.016  -2.140 -31.962  1.00  0.00     0.002 A 
HETATM    8  C   UNL     1      -2.754  -0.814 -31.604  1.00  0.00     0.032 A 
HETATM    9  C   UNL     1      -3.538   0.239 -32.058  1.00  0.00     0.073 A 
HETATM   10  N   UNL     1      -3.233   1.476 -31.658  1.00  0.00    -0.228 NA
ENDROOT
BRANCH   1  11
HETATM   11  C   UNL     1      -3.678   3.855 -31.645  1.00  0.00     0.039 A 
HETATM   12  C   UNL     1      -4.519   4.601 -30.771  1.00  0.00     0.049 A 
HETATM   13  C   UNL     1      -4.140   5.898 -30.390  1.00  0.00     0.030 A 
HETATM   14  C   UNL     1      -2.952   6.471 -30.848  1.00  0.00     0.002 A 
HETATM   15  C   UNL     1      -2.123   5.759 -31.700  1.00  0.00     0.001 A 
HETATM   16  C   UNL     1      -2.485   4.471 -32.094  1.00  0.00     0.018 A 
BRANCH  12  17
HETATM   17  N   UNL     1      -5.725   4.016 -30.298  1.00  0.00    -0.324 N 
HETATM   18  C   UNL     1      -7.001   4.119 -30.827  1.00  0.00     0.245 C 
HETATM   19  O   UNL     1      -7.311   4.735 -31.843  1.00  0.00    -0.271 OA
HETATM   20  H   UNL     1      -5.613   3.452 -29.455  1.00  0.00     0.169 HD
BRANCH  18  21
HETATM   21  C   UNL     1      -8.054   3.313 -30.037  1.00  0.00     0.270 C 
BRANCH  21  22
HETATM   22  O   UNL     1      -9.211   2.898 -30.749  1.00  0.00    -0.387 OA
HETATM   23  C   UNL     1     -10.346   3.714 -30.494  1.00  0.00     0.202 C 
ENDBRANCH  21  22
ENDBRANCH  18  21
ENDBRANCH  12  17
ENDBRANCH   1  11
BRANCH   3  24
HETATM   24  N   UNL     1      -6.452   0.898 -34.210  1.00  0.00    -0.340 N 
HETATM   25  H   UNL     1      -6.268   1.350 -35.100  1.00  0.00     0.167 HD
BRANCH  24  26
HETATM   26  C   UNL     1      -7.826   0.923 -33.875  1.00  0.00     0.034 A 
HETATM   27  C   UNL     1      -8.443  -0.123 -33.171  1.00  0.00     0.032 A 
HETATM   28  C   UNL     1      -9.801  -0.096 -32.828  1.00  0.00     0.034 A 
HETATM   29  C   UNL     1     -10.537   1.010 -33.253  1.00  0.00     0.062 A 
HETATM   30  N   UNL     1     -11.848   1.359 -33.068  1.00  0.00    -0.278 N 
HETATM   31  C   UNL     1      -9.985   2.040 -34.003  1.00  0.00     0.013 A 
HETATM   32  H   UNL     1     -12.552   0.856 -32.539  1.00  0.00     0.189 HD
HETATM   33  N   UNL     1     -12.204   2.502 -33.684  1.00  0.00    -0.186 NA
HETATM   34  C   UNL     1     -11.064   2.920 -34.239  1.00  0.00     0.152 A 
HETATM   35  C   UNL     1      -8.617   1.993 -34.333  1.00  0.00     0.044 A 
ENDBRANCH  24  26
ENDBRANCH   3  24
TORSDOF 6
ENDMDL
MODEL 8
REMARK VINA RESULT:      -8.5     15.332     17.407
REMARK  6 active torsions:
REMARK  status: ('A' for Active; 'I' for Inactive)
REMARK    1  A    between atoms: O_2  and  C_3 
REMARK    2  A    between atoms: C_3  and  C_4 
REMARK       I    between atoms: C_4  and  N_6 
REMARK    3  A    between atoms: N_6  and  C_7 
REMARK    4  A    between atoms: C_12  and  C_13 
REMARK    5  A    between atoms: C_15  and  N_16 
REMARK    6  A    between atoms: N_16  and  C_17 
ROOT
HETATM    1  C   UNL     1      -5.030 -13.431 -38.694  1.00  0.00     0.164 A 
HETATM    2  N   UNL     1      -5.499 -14.048 -37.597  1.00  0.00    -0.210 NA
HETATM    3  C   UNL     1      -6.834 -14.135 -37.444  1.00  0.00     0.143 A 
HETATM    4  C   UNL     1      -7.729 -13.570 -38.371  1.00  0.00     0.039 A 
HETATM    5  C   UNL     1      -9.145 -13.623 -38.286  1.00  0.00     0.018 A 
HETATM    6  C   UNL     1      -9.942 -13.010 -39.249  1.00  0.00     0.001 A 
HETATM    7  C   UNL     1      -9.341 -12.346 -40.308  1.00  0.00     0.002 A 
HETATM    8  C   UNL     1      -7.947 -12.311 -40.402  1.00  0.00     0.032 A 
HETATM    9  C   UNL     1      -7.131 -12.917 -39.455  1.00  0.00     0.073 A 
HETATM   10  N   UNL     1      -5.808 -12.855 -39.624  1.00  0.00    -0.228 NA
ENDROOT
BRANCH   1  11
HETATM   11  C   UNL     1      -3.563 -13.397 -38.896  1.00  0.00     0.039 A 
HETATM   12  C   UNL     1      -2.881 -14.185 -39.866  1.00  0.00     0.049 A 
HETATM   13  C   UNL     1      -1.484 -14.088 -39.974  1.00  0.00     0.030 A 
HETATM   14  C   UNL     1      -0.751 -13.231 -39.150  1.00  0.00     0.002 A 
HETATM   15  C   UNL     1      -1.400 -12.459 -38.201  1.00  0.00     0.001 A 
HETATM   16  C   UNL     1      -2.786 -12.545 -38.076  1.00  0.00     0.018 A 
BRANCH  12  17
HETATM   17  N   UNL     1      -3.627 -15.052 -40.710  1.00  0.00    -0.324 N 
HETATM   18  C   UNL     1      -4.066 -14.831 -42.005  1.00  0.00     0.245 C 
HETATM   19  O   UNL     1      -3.857 -13.821 -42.673  1.00  0.00    -0.271 OA
HETATM   20  H   UNL     1      -3.860 -15.950 -40.285  1.00  0.00     0.169 HD
BRANCH  18  21
HETATM   21  C   UNL     1      -4.831 -16.031 -42.601  1.00  0.00     0.270 C 
BRANCH  21  22
HETATM   22  O   UNL     1      -6.199 -15.825 -42.923  1.00  0.00    -0.387 OA
HETATM   23  C   UNL     1      -7.038 -15.756 -41.779  1.00  0.00     0.202 C 
ENDBRANCH  21  22
ENDBRANCH  18  21
ENDBRANCH  12  17
ENDBRANCH   1  11
BRANCH   3  24
HETATM   24  N   UNL     1      -7.346 -14.817 -36.309  1.00  0.00    -0.340 N 
HETATM   25  H   UNL     1      -8.359 -14.841 -36.353  1.00  0.00     0.167 HD
BRANCH  24  26
HETATM   26  C   UNL     1      -6.874 -14.757 -34.976  1.00  0.00     0.034 A 
HETATM   27  C   UNL     1      -6.322 -13.588 -34.431  1.00  0.00     0.032 A 
HETATM   28  C   UNL     1      -5.864 -13.522 -33.109  1.00  0.00     0.034 A 
HETATM   29  C   UNL     1      -5.945 -14.691 -32.354  1.00  0.00     0.062 A 
HETATM   30  N   UNL     1      -5.621 -14.961 -31.051  1.00  0.00    -0.278 N 
HETATM   31  C   UNL     1      -6.428 -15.888 -32.867  1.00  0.00     0.013 A 
HETATM   32  H   UNL     1      -5.264 -14.313 -30.357  1.00  0.00     0.189 HD
HETATM   33  N   UNL     1      -5.803 -16.247 -30.694  1.00  0.00    -0.186 NA
HETATM   34  C   UNL     1      -6.308 -16.803 -31.798  1.00  0.00     0.152 A 
HETATM   35  C   UNL     1      -6.886 -15.930 -34.197  1.00  0.00     0.044 A 
ENDBRANCH  24  26
ENDBRANCH   3  24
TORSDOF 6
ENDMDL
MODEL 9
REMARK VINA RESULT:      -8.3     15.006     17.624
REMARK  6 active torsions:
REMARK  status: ('A' for Active; 'I' for Inactive)
REMARK    1  A    between atoms: O_2  and  C_3 
REMARK    2  A    between atoms: C_3  and  C_4 
REMARK       I    between atoms: C_4  and  N_6 
REMARK    3  A    between atoms: N_6  and  C_7 
REMARK    4  A    between atoms: C_12  and  C_13 
REMARK    5  A    between atoms: C_15  and  N_16 
REMARK    6  A    between atoms: N_16  and  C_17 
ROOT
HETATM    1  C   UNL     1      -3.850 -13.980 -37.678  1.00  0.00     0.164 A 
HETATM    2  N   UNL     1      -4.909 -13.323 -38.180  1.00  0.00    -0.210 NA
HETATM    3  C   UNL     1      -5.981 -13.155 -37.383  1.00  0.00     0.143 A 
HETATM    4  C   UNL     1      -6.031 -13.677 -36.078  1.00  0.00     0.039 A 
HETATM    5  C   UNL     1      -7.118 -13.538 -35.176  1.00  0.00     0.018 A 
HETATM    6  C   UNL     1      -7.074 -14.115 -33.909  1.00  0.00     0.001 A 
HETATM    7  C   UNL     1      -5.947 -14.827 -33.524  1.00  0.00     0.002 A 
HETATM    8  C   UNL     1      -4.869 -14.945 -34.405  1.00  0.00     0.032 A 
HETATM    9  C   UNL     1      -4.889 -14.378 -35.673  1.00  0.00     0.073 A 
HETATM   10  N   UNL     1      -3.813 -14.521 -36.450  1.00  0.00    -0.228 NA
ENDROOT
BRANCH   1  11
HETATM   11  C   UNL     1      -2.645 -14.104 -38.530  1.00  0.00     0.039 A 
HETATM   12  C   UNL     1      -2.670 -14.585 -39.870  1.00  0.00     0.049 A 
HETATM   13  C   UNL     1      -1.469 -14.675 -40.592  1.00  0.00     0.030 A 
HETATM   14  C   UNL     1      -0.251 -14.297 -40.025  1.00  0.00     0.002 A 
HETATM   15  C   UNL     1      -0.210 -13.827 -38.722  1.00  0.00     0.001 A 
HETATM   16  C   UNL     1      -1.391 -13.736 -37.987  1.00  0.00     0.018 A 
BRANCH  12  17
HETATM   17  N   UNL     1      -3.911 -14.964 -40.451  1.00  0.00    -0.324 N 
HETATM   18  C   UNL     1      -4.536 -14.440 -41.571  1.00  0.00     0.245 C 
HETATM   19  O   UNL     1      -4.096 -13.545 -42.288  1.00  0.00    -0.271 OA
HETATM   20  H   UNL     1      -4.388 -15.722 -39.961  1.00  0.00     0.169 HD
BRANCH  18  21
HETATM   21  C   UNL     1      -5.871 -15.138 -41.904  1.00  0.00     0.270 C 
BRANCH  21  22
HETATM   22  O   UNL     1      -6.037 -15.607 -43.235  1.00  0.00    -0.387 OA
HETATM   23  C   UNL     1      -5.335 -16.815 -43.493  1.00  0.00     0.202 C 
ENDBRANCH  21  22
ENDBRANCH  18  21
ENDBRANCH  12  17
ENDBRANCH   1  11
BRANCH   3  24
HETATM   24  N   UNL     1      -7.095 -12.429 -37.885  1.00  0.00    -0.340 N 
HETATM   25  H   UNL     1      -7.433 -11.789 -37.175  1.00  0.00     0.167 HD
BRANCH  24  26
HETATM   26  C   UNL     1      -8.140 -12.908 -38.710  1.00  0.00     0.034 A 
HETATM   27  C   UNL     1      -8.956 -12.046 -39.458  1.00  0.00     0.032 A 
HETATM   28  C   UNL     1      -9.985 -12.517 -40.284  1.00  0.00     0.034 A 
HETATM   29  C   UNL     1     -10.194 -13.896 -40.307  1.00  0.00     0.062 A 
HETATM   30  N   UNL     1     -11.075 -14.674 -41.010  1.00  0.00    -0.278 N 
HETATM   31  C   UNL     1      -9.452 -14.783 -39.539  1.00  0.00     0.013 A 
HETATM   32  H   UNL     1     -11.755 -14.369 -41.697  1.00  0.00     0.189 HD
HETATM   33  N   UNL     1     -11.001 -15.986 -40.719  1.00  0.00    -0.186 NA
HETATM   34  C   UNL     1     -10.003 -16.050 -39.835  1.00  0.00     0.152 A 
HETATM   35  C   UNL     1      -8.421 -14.287 -38.719  1.00  0.00     0.044 A 
ENDBRANCH  24  26
ENDBRANCH   3  24
TORSDOF 6
ENDMDL
MODEL 10
REMARK VINA RESULT:      -8.2      4.082      6.958
REMARK  6 active torsions:
REMARK  status: ('A' for Active; 'I' for Inactive)
REMARK    1  A    between atoms: O_2  and  C_3 
REMARK    2  A    between atoms: C_3  and  C_4 
REMARK       I    between atoms: C_4  and  N_6 
REMARK    3  A    between atoms: N_6  and  C_7 
REMARK    4  A    between atoms: C_12  and  C_13 
REMARK    5  A    between atoms: C_15  and  N_16 
REMARK    6  A    between atoms: N_16  and  C_17 
ROOT
HETATM    1  C   UNL     1      -6.045   1.871 -32.830  1.00  0.00     0.164 A 
HETATM    2  N   UNL     1      -5.333   2.838 -33.432  1.00  0.00    -0.210 NA
HETATM    3  C   UNL     1      -5.334   4.063 -32.871  1.00  0.00     0.143 A 
HETATM    4  C   UNL     1      -6.080   4.353 -31.715  1.00  0.00     0.039 A 
HETATM    5  C   UNL     1      -6.129   5.612 -31.060  1.00  0.00     0.018 A 
HETATM    6  C   UNL     1      -6.920   5.800 -29.930  1.00  0.00     0.001 A 
HETATM    7  C   UNL     1      -7.663   4.739 -29.435  1.00  0.00     0.002 A 
HETATM    8  C   UNL     1      -7.599   3.494 -30.067  1.00  0.00     0.032 A 
HETATM    9  C   UNL     1      -6.816   3.282 -31.195  1.00  0.00     0.073 A 
HETATM   10  N   UNL     1      -6.794   2.060 -31.732  1.00  0.00    -0.228 NA
ENDROOT
BRANCH   1  11
HETATM   11  C   UNL     1      -5.988   0.508 -33.407  1.00  0.00     0.039 A 
HETATM   12  C   UNL     1      -7.054  -0.084 -34.142  1.00  0.00     0.049 A 
HETATM   13  C   UNL     1      -6.906  -1.388 -34.641  1.00  0.00     0.030 A 
HETATM   14  C   UNL     1      -5.732  -2.115 -34.436  1.00  0.00     0.002 A 
HETATM   15  C   UNL     1      -4.686  -1.553 -33.722  1.00  0.00     0.001 A 
HETATM   16  C   UNL     1      -4.816  -0.261 -33.214  1.00  0.00     0.018 A 
BRANCH  12  17
HETATM   17  N   UNL     1      -8.247   0.658 -34.358  1.00  0.00    -0.324 N 
HETATM   18  C   UNL     1      -9.447   0.586 -33.669  1.00  0.00     0.245 C 
HETATM   19  O   UNL     1      -9.680  -0.140 -32.706  1.00  0.00    -0.271 OA
HETATM   20  H   UNL     1      -8.191   1.324 -35.129  1.00  0.00     0.169 HD
BRANCH  18  21
HETATM   21  C   UNL     1     -10.508   1.578 -34.190  1.00  0.00     0.270 C 
BRANCH  21  22
HETATM   22  O   UNL     1     -11.860   1.314 -33.840  1.00  0.00    -0.387 OA
HETATM   23  C   UNL     1     -12.536   2.453 -33.327  1.00  0.00     0.202 C 
ENDBRANCH  21  22
ENDBRANCH  18  21
ENDBRANCH  12  17
ENDBRANCH   1  11
BRANCH   3  24
HETATM   24  N   UNL     1      -4.556   5.087 -33.473  1.00  0.00    -0.340 N 
HETATM   25  H   UNL     1      -4.614   5.010 -34.483  1.00  0.00     0.167 HD
BRANCH  24  26
HETATM   26  C   UNL     1      -3.301   5.585 -33.049  1.00  0.00     0.034 A 
HETATM   27  C   UNL     1      -2.679   6.675 -33.677  1.00  0.00     0.032 A 
HETATM   28  C   UNL     1      -1.442   7.177 -33.252  1.00  0.00     0.034 A 
HETATM   29  C   UNL     1      -0.826   6.519 -32.188  1.00  0.00     0.062 A 
HETATM   30  N   UNL     1       0.346   6.761 -31.521  1.00  0.00    -0.278 N 
HETATM   31  C   UNL     1      -1.374   5.401 -31.574  1.00  0.00     0.013 A 
HETATM   32  H   UNL     1       1.000   7.520 -31.677  1.00  0.00     0.189 HD
HETATM   33  N   UNL     1       0.628   5.859 -30.562  1.00  0.00    -0.186 NA
HETATM   34  C   UNL     1      -0.428   5.041 -30.588  1.00  0.00     0.152 A 
HETATM   35  C   UNL     1      -2.620   4.916 -32.015  1.00  0.00     0.044 A 
ENDBRANCH  24  26
ENDBRANCH   3  24
TORSDOF 6
ENDMDL
