MODEL 1
REMARK VINA RESULT:      -9.5      0.000      0.000
REMARK  7 active torsions:
REMARK  status: ('A' for Active; 'I' for Inactive)
REMARK    1  A    between atoms: C_2  and  C_3 
REMARK    2  A    between atoms: C_6  and  C_7 
REMARK    3  A    between atoms: N_9  and  C_10 
REMARK    4  A    between atoms: C_10  and  C_11 
REMARK    5  A    between atoms: C_18  and  C_19 
REMARK       I    between atoms: C_19  and  N_20 
REMARK    6  A    between atoms: N_20  and  C_21 
REMARK    7  A    between atoms: C_24  and  O_25 
ROOT
HETATM    1  C   UNL     1      -6.148   1.382 -32.636  1.00  0.00     0.104 A 
HETATM    2  N   UNL     1      -5.046   2.145 -32.493  1.00  0.00    -0.171 NA
HETATM    3  N   UNL     1      -5.479   3.278 -31.931  1.00  0.00    -0.275 N 
HETATM    4  C   UNL     1      -6.825   3.295 -31.723  1.00  0.00     0.132 A 
HETATM    5  C   UNL     1      -7.310   2.058 -32.123  1.00  0.00     0.080 A 
ENDROOT
BRANCH   5   6
HETATM    6  C   UNL     1      -8.692   1.590 -32.018  1.00  0.00     0.255 C 
HETATM    7  N   UNL     1      -9.614   2.396 -32.650  1.00  0.00    -0.352 N 
HETATM    8  H   UNL     1      -9.278   3.277 -33.008  1.00  0.00     0.163 HD
HETATM    9  O   UNL     1      -9.002   0.574 -31.411  1.00  0.00    -0.268 OA
BRANCH   7  10
HETATM   10  C   UNL     1     -11.063   2.211 -32.713  1.00  0.00     0.084 C 
HETATM   11  C   UNL     1     -11.859   3.520 -32.785  1.00  0.00     0.028 C 
HETATM   12  C   UNL     1     -12.230   3.984 -34.192  1.00  0.00     0.034 C 
HETATM   13  C   UNL     1     -12.796   2.857 -35.048  1.00  0.00     0.118 C 
HETATM   14  C   UNL     1     -11.852   1.661 -35.108  1.00  0.00     0.034 C 
HETATM   15  C   UNL     1     -11.498   1.136 -33.718  1.00  0.00     0.028 C 
BRANCH  13  16
HETATM   16  O   UNL     1     -14.045   2.445 -34.488  1.00  0.00    -0.396 OA
HETATM   17  H   UNL     1     -13.854   2.066 -33.612  1.00  0.00     0.210 HD
ENDBRANCH  13  16
ENDBRANCH   7  10
ENDBRANCH   5   6
BRANCH   1  18
HETATM   18  C   UNL     1      -5.997   0.050 -33.225  1.00  0.00    -0.005 A 
HETATM   19  C   UNL     1      -4.822  -0.679 -32.987  1.00  0.00     0.014 A 
HETATM   20  C   UNL     1      -4.611  -1.926 -33.588  1.00  0.00     0.008 A 
HETATM   21  C   UNL     1      -5.567  -2.471 -34.450  1.00  0.00    -0.059 A 
HETATM   22  C   UNL     1      -6.744  -1.741 -34.682  1.00  0.00     0.008 A 
HETATM   23  C   UNL     1      -6.952  -0.491 -34.086  1.00  0.00     0.014 A 
BRANCH  21  24
HETATM   24  C   UNL     1      -5.404  -3.806 -35.140  1.00  0.00     0.034 C 
HETATM   25  C   UNL     1      -6.675  -4.609 -35.389  1.00  0.00     0.010 C 
ENDBRANCH  21  24
ENDBRANCH   1  18
BRANCH   3  26
HETATM   26  C   UNL     1      -4.526   4.332 -31.597  1.00  0.00     0.189 C 
BRANCH  26  27
HETATM   27  C   UNL     1      -3.625   4.670 -32.760  1.00  0.00    -0.038 A 
HETATM   28  C   UNL     1      -4.159   5.044 -34.004  1.00  0.00     0.009 A 
HETATM   29  C   UNL     1      -3.321   5.365 -35.072  1.00  0.00     0.001 A 
HETATM   30  C   UNL     1      -1.938   5.334 -34.906  1.00  0.00     0.000 A 
HETATM   31  C   UNL     1      -1.393   4.985 -33.671  1.00  0.00     0.001 A 
HETATM   32  C   UNL     1      -2.231   4.658 -32.603  1.00  0.00     0.009 A 
ENDBRANCH  26  27
ENDBRANCH   3  26
TORSDOF 7
ENDMDL
MODEL 2
REMARK VINA RESULT:      -9.3      1.442      1.904
REMARK  7 active torsions:
REMARK  status: ('A' for Active; 'I' for Inactive)
REMARK    1  A    between atoms: C_2  and  C_3 
REMARK    2  A    between atoms: C_6  and  C_7 
REMARK    3  A    between atoms: N_9  and  C_10 
REMARK    4  A    between atoms: C_10  and  C_11 
REMARK    5  A    between atoms: C_18  and  C_19 
REMARK       I    between atoms: C_19  and  N_20 
REMARK    6  A    between atoms: N_20  and  C_21 
REMARK    7  A    between atoms: C_24  and  O_25 
ROOT
HETATM    1  C   UNL     1      -4.755   1.285 -32.729  1.00  0.00     0.104 A 
HETATM    2  N   UNL     1      -3.514   1.661 -32.360  1.00  0.00    -0.171 NA
HETATM    3  N   UNL     1      -3.643   2.928 -31.952  1.00  0.00    -0.275 N 
HETATM    4  C   UNL     1      -4.915   3.402 -32.063  1.00  0.00     0.132 A 
HETATM    5  C   UNL     1      -5.697   2.352 -32.522  1.00  0.00     0.080 A 
ENDROOT
BRANCH   5   6
HETATM    6  C   UNL     1      -7.146   2.370 -32.725  1.00  0.00     0.255 C 
HETATM    7  N   UNL     1      -7.866   1.734 -31.737  1.00  0.00    -0.352 N 
HETATM    8  H   UNL     1      -7.337   1.217 -31.050  1.00  0.00     0.163 HD
HETATM    9  O   UNL     1      -7.672   2.899 -33.695  1.00  0.00    -0.268 OA
BRANCH   7  10
HETATM   10  C   UNL     1      -9.316   1.568 -31.659  1.00  0.00     0.084 C 
HETATM   11  C   UNL     1     -10.092   2.887 -31.559  1.00  0.00     0.028 C 
HETATM   12  C   UNL     1     -10.601   3.449 -32.886  1.00  0.00     0.034 C 
HETATM   13  C   UNL     1     -11.273   2.388 -33.750  1.00  0.00     0.118 C 
HETATM   14  C   UNL     1     -10.361   1.189 -33.989  1.00  0.00     0.034 C 
HETATM   15  C   UNL     1      -9.872   0.569 -32.681  1.00  0.00     0.028 C 
BRANCH  13  16
HETATM   16  O   UNL     1     -12.463   1.953 -33.090  1.00  0.00    -0.396 OA
HETATM   17  H   UNL     1     -12.658   2.603 -32.393  1.00  0.00     0.210 HD
ENDBRANCH  13  16
ENDBRANCH   7  10
ENDBRANCH   5   6
BRANCH   1  18
HETATM   18  C   UNL     1      -4.946  -0.081 -33.222  1.00  0.00    -0.005 A 
HETATM   19  C   UNL     1      -4.015  -1.073 -32.882  1.00  0.00     0.014 A 
HETATM   20  C   UNL     1      -4.126  -2.373 -33.389  1.00  0.00     0.008 A 
HETATM   21  C   UNL     1      -5.168  -2.711 -34.258  1.00  0.00    -0.059 A 
HETATM   22  C   UNL     1      -6.102  -1.717 -34.593  1.00  0.00     0.008 A 
HETATM   23  C   UNL     1      -5.987  -0.415 -34.090  1.00  0.00     0.014 A 
BRANCH  21  24
HETATM   24  C   UNL     1      -5.347  -4.090 -34.851  1.00  0.00     0.034 C 
HETATM   25  C   UNL     1      -6.748  -4.457 -35.325  1.00  0.00     0.010 C 
ENDBRANCH  21  24
ENDBRANCH   1  18
BRANCH   3  26
HETATM   26  C   UNL     1      -2.480   3.646 -31.441  1.00  0.00     0.189 C 
BRANCH  26  27
HETATM   27  C   UNL     1      -2.001   4.707 -32.404  1.00  0.00    -0.038 A 
HETATM   28  C   UNL     1      -1.385   5.880 -31.939  1.00  0.00     0.009 A 
HETATM   29  C   UNL     1      -0.936   6.851 -32.835  1.00  0.00     0.001 A 
HETATM   30  C   UNL     1      -1.081   6.655 -34.207  1.00  0.00     0.000 A 
HETATM   31  C   UNL     1      -1.673   5.486 -34.683  1.00  0.00     0.001 A 
HETATM   32  C   UNL     1      -2.128   4.516 -33.788  1.00  0.00     0.009 A 
ENDBRANCH  26  27
ENDBRANCH   3  26
TORSDOF 7
ENDMDL
MODEL 3
REMARK VINA RESULT:      -9.2      1.476      2.038
REMARK  7 active torsions:
REMARK  status: ('A' for Active; 'I' for Inactive)
REMARK    1  A    between atoms: C_2  and  C_3 
REMARK    2  A    between atoms: C_6  and  C_7 
REMARK    3  A    between atoms: N_9  and  C_10 
REMARK    4  A    between atoms: C_10  and  C_11 
REMARK    5  A    between atoms: C_18  and  C_19 
REMARK       I    between atoms: C_19  and  N_20 
REMARK    6  A    between atoms: N_20  and  C_21 
REMARK    7  A    between atoms: C_24  and  O_25 
ROOT
HETATM    1  C   UNL     1      -7.090   2.424 -33.938  1.00  0.00     0.104 A 
HETATM    2  N   UNL     1      -6.060   3.285 -33.820  1.00  0.00    -0.171 NA
HETATM    3  N   UNL     1      -6.628   4.490 -33.707  1.00  0.00    -0.275 N 
HETATM    4  C   UNL     1      -7.987   4.453 -33.772  1.00  0.00     0.132 A 
HETATM    5  C   UNL     1      -8.348   3.117 -33.875  1.00  0.00     0.080 A 
ENDROOT
BRANCH   5   6
HETATM    6  C   UNL     1      -9.711   2.584 -33.901  1.00  0.00     0.255 C 
HETATM    7  N   UNL     1     -10.508   3.110 -34.895  1.00  0.00    -0.352 N 
HETATM    8  H   UNL     1     -10.129   3.885 -35.419  1.00  0.00     0.163 HD
HETATM    9  O   UNL     1     -10.110   1.750 -33.101  1.00  0.00    -0.268 OA
BRANCH   7  10
HETATM   10  C   UNL     1     -11.909   2.797 -35.172  1.00  0.00     0.084 C 
HETATM   11  C   UNL     1     -12.215   1.295 -35.229  1.00  0.00     0.028 C 
HETATM   12  C   UNL     1     -12.721   0.680 -33.926  1.00  0.00     0.034 C 
HETATM   13  C   UNL     1     -13.811   1.519 -33.269  1.00  0.00     0.118 C 
HETATM   14  C   UNL     1     -13.362   2.958 -33.044  1.00  0.00     0.034 C 
HETATM   15  C   UNL     1     -12.895   3.624 -34.338  1.00  0.00     0.028 C 
BRANCH  13  16
HETATM   16  O   UNL     1     -14.962   1.510 -34.115  1.00  0.00    -0.396 OA
HETATM   17  H   UNL     1     -15.439   0.680 -33.940  1.00  0.00     0.210 HD
ENDBRANCH  13  16
ENDBRANCH   7  10
ENDBRANCH   5   6
BRANCH   1  18
HETATM   18  C   UNL     1      -6.788   0.997 -34.071  1.00  0.00    -0.005 A 
HETATM   19  C   UNL     1      -5.820   0.417 -33.237  1.00  0.00     0.014 A 
HETATM   20  C   UNL     1      -5.455  -0.927 -33.380  1.00  0.00     0.008 A 
HETATM   21  C   UNL     1      -6.042  -1.723 -34.367  1.00  0.00    -0.059 A 
HETATM   22  C   UNL     1      -7.015  -1.141 -35.197  1.00  0.00     0.008 A 
HETATM   23  C   UNL     1      -7.376   0.205 -35.058  1.00  0.00     0.014 A 
BRANCH  21  24
HETATM   24  C   UNL     1      -5.692  -3.177 -34.586  1.00  0.00     0.034 C 
HETATM   25  C   UNL     1      -6.830  -4.103 -34.998  1.00  0.00     0.010 C 
ENDBRANCH  21  24
ENDBRANCH   1  18
BRANCH   3  26
HETATM   26  C   UNL     1      -5.790   5.671 -33.522  1.00  0.00     0.189 C 
BRANCH  26  27
HETATM   27  C   UNL     1      -4.319   5.343 -33.619  1.00  0.00    -0.038 A 
HETATM   28  C   UNL     1      -3.636   5.433 -34.843  1.00  0.00     0.009 A 
HETATM   29  C   UNL     1      -2.275   5.139 -34.923  1.00  0.00     0.001 A 
HETATM   30  C   UNL     1      -1.574   4.767 -33.778  1.00  0.00     0.000 A 
HETATM   31  C   UNL     1      -2.234   4.693 -32.552  1.00  0.00     0.001 A 
HETATM   32  C   UNL     1      -3.597   4.982 -32.471  1.00  0.00     0.009 A 
ENDBRANCH  26  27
ENDBRANCH   3  26
TORSDOF 7
ENDMDL
MODEL 4
REMARK VINA RESULT:      -9.1      2.222      7.499
REMARK  7 active torsions:
REMARK  status: ('A' for Active; 'I' for Inactive)
REMARK    1  A    between atoms: C_2  and  C_3 
REMARK    2  A    between atoms: C_6  and  C_7 
REMARK    3  A    between atoms: N_9  and  C_10 
REMARK    4  A    between atoms: C_10  and  C_11 
REMARK    5  A    between atoms: C_18  and  C_19 
REMARK       I    between atoms: C_19  and  N_20 
REMARK    6  A    between atoms: N_20  and  C_21 
REMARK    7  A    between atoms: C_24  and  O_25 
ROOT
HETATM    1  C   UNL     1      -8.922   1.923 -33.345  1.00  0.00     0.104 A 
HETATM    2  N   UNL     1     -10.020   2.104 -34.106  1.00  0.00    -0.171 NA
HETATM    3  N   UNL     1     -10.633   3.170 -33.581  1.00  0.00    -0.275 N 
HETATM    4  C   UNL     1      -9.992   3.677 -32.492  1.00  0.00     0.132 A 
HETATM    5  C   UNL     1      -8.837   2.928 -32.320  1.00  0.00     0.080 A 
ENDROOT
BRANCH   5   6
HETATM    6  C   UNL     1      -7.795   3.153 -31.316  1.00  0.00     0.255 C 
HETATM    7  N   UNL     1      -6.594   3.587 -31.833  1.00  0.00    -0.352 N 
HETATM    8  H   UNL     1      -6.505   3.589 -32.838  1.00  0.00     0.163 HD
HETATM    9  O   UNL     1      -7.975   2.961 -30.122  1.00  0.00    -0.268 OA
BRANCH   7  10
HETATM   10  C   UNL     1      -5.365   3.884 -31.099  1.00  0.00     0.084 C 
HETATM   11  C   UNL     1      -4.468   2.662 -30.862  1.00  0.00     0.028 C 
HETATM   12  C   UNL     1      -3.360   2.454 -31.894  1.00  0.00     0.034 C 
HETATM   13  C   UNL     1      -2.603   3.739 -32.205  1.00  0.00     0.118 C 
HETATM   14  C   UNL     1      -3.541   4.859 -32.643  1.00  0.00     0.034 C 
HETATM   15  C   UNL     1      -4.634   5.131 -31.610  1.00  0.00     0.028 C 
BRANCH  13  16
HETATM   16  O   UNL     1      -1.898   4.146 -31.031  1.00  0.00    -0.396 OA
HETATM   17  H   UNL     1      -2.456   3.918 -30.268  1.00  0.00     0.210 HD
ENDBRANCH  13  16
ENDBRANCH   7  10
ENDBRANCH   5   6
BRANCH   1  18
HETATM   18  C   UNL     1      -8.023   0.817 -33.680  1.00  0.00    -0.005 A 
HETATM   19  C   UNL     1      -7.838   0.463 -35.024  1.00  0.00     0.014 A 
HETATM   20  C   UNL     1      -7.040  -0.631 -35.381  1.00  0.00     0.008 A 
HETATM   21  C   UNL     1      -6.414  -1.405 -34.399  1.00  0.00    -0.059 A 
HETATM   22  C   UNL     1      -6.598  -1.045 -33.054  1.00  0.00     0.008 A 
HETATM   23  C   UNL     1      -7.400   0.046 -32.697  1.00  0.00     0.014 A 
BRANCH  21  24
HETATM   24  C   UNL     1      -5.546  -2.604 -34.707  1.00  0.00     0.034 C 
HETATM   25  C   UNL     1      -6.265  -3.923 -34.966  1.00  0.00     0.010 C 
ENDBRANCH  21  24
ENDBRANCH   1  18
BRANCH   3  26
HETATM   26  C   UNL     1     -11.858   3.676 -34.192  1.00  0.00     0.189 C 
BRANCH  26  27
HETATM   27  C   UNL     1     -13.072   2.884 -33.768  1.00  0.00    -0.038 A 
HETATM   28  C   UNL     1     -13.778   3.214 -32.600  1.00  0.00     0.009 A 
HETATM   29  C   UNL     1     -14.905   2.485 -32.219  1.00  0.00     0.001 A 
HETATM   30  C   UNL     1     -15.351   1.428 -33.010  1.00  0.00     0.000 A 
HETATM   31  C   UNL     1     -14.672   1.102 -34.183  1.00  0.00     0.001 A 
HETATM   32  C   UNL     1     -13.541   1.827 -34.562  1.00  0.00     0.009 A 
ENDBRANCH  26  27
ENDBRANCH   3  26
TORSDOF 7
ENDMDL
MODEL 5
REMARK VINA RESULT:      -9.1      2.675      7.511
REMARK  7 active torsions:
REMARK  status: ('A' for Active; 'I' for Inactive)
REMARK    1  A    between atoms: C_2  and  C_3 
REMARK    2  A    between atoms: C_6  and  C_7 
REMARK    3  A    between atoms: N_9  and  C_10 
REMARK    4  A    between atoms: C_10  and  C_11 
REMARK    5  A    between atoms: C_18  and  C_19 
REMARK       I    between atoms: C_19  and  N_20 
REMARK    6  A    between atoms: N_20  and  C_21 
REMARK    7  A    between atoms: C_24  and  O_25 
ROOT
HETATM    1  C   UNL     1      -5.905   0.785 -32.676  1.00  0.00     0.104 A 
HETATM    2  N   UNL     1      -5.399  -0.455 -32.518  1.00  0.00    -0.171 NA
HETATM    3  N   UNL     1      -4.093  -0.271 -32.297  1.00  0.00    -0.275 N 
HETATM    4  C   UNL     1      -3.722   1.039 -32.330  1.00  0.00     0.132 A 
HETATM    5  C   UNL     1      -4.877   1.780 -32.527  1.00  0.00     0.080 A 
ENDROOT
BRANCH   5   6
HETATM    6  C   UNL     1      -4.980   3.240 -32.560  1.00  0.00     0.255 C 
HETATM    7  N   UNL     1      -3.964   3.865 -33.251  1.00  0.00    -0.352 N 
HETATM    8  H   UNL     1      -3.197   3.285 -33.554  1.00  0.00     0.163 HD
HETATM    9  O   UNL     1      -5.885   3.852 -32.010  1.00  0.00    -0.268 OA
BRANCH   7  10
HETATM   10  C   UNL     1      -3.776   5.301 -33.450  1.00  0.00     0.084 C 
HETATM   11  C   UNL     1      -3.251   6.040 -32.212  1.00  0.00     0.028 C 
HETATM   12  C   UNL     1      -1.736   6.226 -32.155  1.00  0.00     0.034 C 
HETATM   13  C   UNL     1      -1.158   6.722 -33.476  1.00  0.00     0.118 C 
HETATM   14  C   UNL     1      -1.544   5.816 -34.640  1.00  0.00     0.034 C 
HETATM   15  C   UNL     1      -3.058   5.647 -34.760  1.00  0.00     0.028 C 
BRANCH  13  16
HETATM   16  O   UNL     1      -1.651   8.041 -33.720  1.00  0.00    -0.396 OA
HETATM   17  H   UNL     1      -1.929   8.075 -34.652  1.00  0.00     0.210 HD
ENDBRANCH  13  16
ENDBRANCH   7  10
ENDBRANCH   5   6
BRANCH   1  18
HETATM   18  C   UNL     1      -7.341   0.920 -32.928  1.00  0.00    -0.005 A 
HETATM   19  C   UNL     1      -8.251   0.602 -31.909  1.00  0.00     0.014 A 
HETATM   20  C   UNL     1      -9.632   0.653 -32.132  1.00  0.00     0.008 A 
HETATM   21  C   UNL     1     -10.138   1.014 -33.384  1.00  0.00    -0.059 A 
HETATM   22  C   UNL     1      -9.224   1.336 -34.401  1.00  0.00     0.008 A 
HETATM   23  C   UNL     1      -7.842   1.280 -34.179  1.00  0.00     0.014 A 
BRANCH  21  24
HETATM   24  C   UNL     1     -11.615   1.082 -33.701  1.00  0.00     0.034 C 
HETATM   25  C   UNL     1     -12.001   1.688 -35.045  1.00  0.00     0.010 C 
ENDBRANCH  21  24
ENDBRANCH   1  18
BRANCH   3  26
HETATM   26  C   UNL     1      -3.232  -1.421 -32.042  1.00  0.00     0.189 C 
BRANCH  26  27
HETATM   27  C   UNL     1      -3.670  -2.640 -32.820  1.00  0.00    -0.038 A 
HETATM   28  C   UNL     1      -4.501  -2.518 -33.946  1.00  0.00     0.009 A 
HETATM   29  C   UNL     1      -4.893  -3.646 -34.667  1.00  0.00     0.001 A 
HETATM   30  C   UNL     1      -4.446  -4.909 -34.282  1.00  0.00     0.000 A 
HETATM   31  C   UNL     1      -3.604  -5.043 -33.179  1.00  0.00     0.001 A 
HETATM   32  C   UNL     1      -3.216  -3.915 -32.454  1.00  0.00     0.009 A 
ENDBRANCH  26  27
ENDBRANCH   3  26
TORSDOF 7
ENDMDL
MODEL 6
REMARK VINA RESULT:      -8.8      2.678      7.902
REMARK  7 active torsions:
REMARK  status: ('A' for Active; 'I' for Inactive)
REMARK    1  A    between atoms: C_2  and  C_3 
REMARK    2  A    between atoms: C_6  and  C_7 
REMARK    3  A    between atoms: N_9  and  C_10 
REMARK    4  A    between atoms: C_10  and  C_11 
REMARK    5  A    between atoms: C_18  and  C_19 
REMARK       I    between atoms: C_19  and  N_20 
REMARK    6  A    between atoms: N_20  and  C_21 
REMARK    7  A    between atoms: C_24  and  O_25 
ROOT
HETATM    1  C   UNL     1      -7.580   2.190 -32.248  1.00  0.00     0.104 A 
HETATM    2  N   UNL     1      -7.413   0.923 -31.817  1.00  0.00    -0.171 NA
HETATM    3  N   UNL     1      -6.186   0.579 -32.223  1.00  0.00    -0.275 N 
HETATM    4  C   UNL     1      -5.556   1.562 -32.924  1.00  0.00     0.132 A 
HETATM    5  C   UNL     1      -6.405   2.659 -32.931  1.00  0.00     0.080 A 
ENDROOT
BRANCH   5   6
HETATM    6  C   UNL     1      -6.121   3.975 -33.505  1.00  0.00     0.255 C 
HETATM    7  N   UNL     1      -4.825   4.408 -33.319  1.00  0.00    -0.352 N 
HETATM    8  H   UNL     1      -4.243   3.852 -32.711  1.00  0.00     0.163 HD
HETATM    9  O   UNL     1      -6.966   4.637 -34.091  1.00  0.00    -0.268 OA
BRANCH   7  10
HETATM   10  C   UNL     1      -4.239   5.674 -33.756  1.00  0.00     0.084 C 
HETATM   11  C   UNL     1      -3.740   6.562 -32.608  1.00  0.00     0.028 C 
HETATM   12  C   UNL     1      -2.257   6.419 -32.269  1.00  0.00     0.034 C 
HETATM   13  C   UNL     1      -1.371   6.437 -33.509  1.00  0.00     0.118 C 
HETATM   14  C   UNL     1      -1.793   5.379 -34.524  1.00  0.00     0.034 C 
HETATM   15  C   UNL     1      -3.260   5.522 -34.926  1.00  0.00     0.028 C 
BRANCH  13  16
HETATM   16  O   UNL     1      -1.457   7.730 -34.110  1.00  0.00    -0.396 OA
HETATM   17  H   UNL     1      -0.654   7.850 -34.647  1.00  0.00     0.210 HD
ENDBRANCH  13  16
ENDBRANCH   7  10
ENDBRANCH   5   6
BRANCH   1  18
HETATM   18  C   UNL     1      -8.845   2.863 -31.944  1.00  0.00    -0.005 A 
HETATM   19  C   UNL     1      -8.959   3.613 -30.765  1.00  0.00     0.014 A 
HETATM   20  C   UNL     1     -10.172   4.215 -30.405  1.00  0.00     0.008 A 
HETATM   21  C   UNL     1     -11.304   4.072 -31.213  1.00  0.00    -0.059 A 
HETATM   22  C   UNL     1     -11.184   3.324 -32.396  1.00  0.00     0.008 A 
HETATM   23  C   UNL     1      -9.973   2.717 -32.752  1.00  0.00     0.014 A 
BRANCH  21  24
HETATM   24  C   UNL     1     -12.647   4.684 -30.886  1.00  0.00     0.034 C 
HETATM   25  C   UNL     1     -13.881   3.886 -31.288  1.00  0.00     0.010 C 
ENDBRANCH  21  24
ENDBRANCH   1  18
BRANCH   3  26
HETATM   26  C   UNL     1      -5.656  -0.739 -31.889  1.00  0.00     0.189 C 
BRANCH  26  27
HETATM   27  C   UNL     1      -5.611  -1.653 -33.091  1.00  0.00    -0.038 A 
HETATM   28  C   UNL     1      -6.767  -1.913 -33.844  1.00  0.00     0.009 A 
HETATM   29  C   UNL     1      -6.717  -2.750 -34.959  1.00  0.00     0.001 A 
HETATM   30  C   UNL     1      -5.508  -3.324 -35.346  1.00  0.00     0.000 A 
HETATM   31  C   UNL     1      -4.348  -3.059 -34.619  1.00  0.00     0.001 A 
HETATM   32  C   UNL     1      -4.398  -2.226 -33.500  1.00  0.00     0.009 A 
ENDBRANCH  26  27
ENDBRANCH   3  26
TORSDOF 7
ENDMDL
MODEL 7
REMARK VINA RESULT:      -8.5      2.466      7.272
REMARK  7 active torsions:
REMARK  status: ('A' for Active; 'I' for Inactive)
REMARK    1  A    between atoms: C_2  and  C_3 
REMARK    2  A    between atoms: C_6  and  C_7 
REMARK    3  A    between atoms: N_9  and  C_10 
REMARK    4  A    between atoms: C_10  and  C_11 
REMARK    5  A    between atoms: C_18  and  C_19 
REMARK       I    between atoms: C_19  and  N_20 
REMARK    6  A    between atoms: N_20  and  C_21 
REMARK    7  A    between atoms: C_24  and  O_25 
ROOT
HETATM    1  C   UNL     1      -7.307   2.200 -33.164  1.00  0.00     0.104 A 
HETATM    2  N   UNL     1      -8.574   2.514 -33.503  1.00  0.00    -0.171 NA
HETATM    3  N   UNL     1      -8.756   3.758 -33.047  1.00  0.00    -0.275 N 
HETATM    4  C   UNL     1      -7.666   4.260 -32.403  1.00  0.00     0.132 A 
HETATM    5  C   UNL     1      -6.669   3.299 -32.490  1.00  0.00     0.080 A 
ENDROOT
BRANCH   5   6
HETATM    6  C   UNL     1      -5.294   3.425 -32.003  1.00  0.00     0.255 C 
HETATM    7  N   UNL     1      -4.489   4.232 -32.777  1.00  0.00    -0.352 N 
HETATM    8  H   UNL     1      -4.874   4.551 -33.654  1.00  0.00     0.163 HD
HETATM    9  O   UNL     1      -4.894   2.853 -30.998  1.00  0.00    -0.268 OA
BRANCH   7  10
HETATM   10  C   UNL     1      -3.076   4.543 -32.567  1.00  0.00     0.084 C 
HETATM   11  C   UNL     1      -2.237   4.542 -33.851  1.00  0.00     0.028 C 
HETATM   12  C   UNL     1      -2.055   5.906 -34.515  1.00  0.00     0.034 C 
HETATM   13  C   UNL     1      -1.677   6.995 -33.518  1.00  0.00     0.118 C 
HETATM   14  C   UNL     1      -2.677   7.086 -32.370  1.00  0.00     0.034 C 
HETATM   15  C   UNL     1      -2.847   5.750 -31.648  1.00  0.00     0.028 C 
BRANCH  13  16
HETATM   16  O   UNL     1      -0.381   6.700 -32.994  1.00  0.00    -0.396 OA
HETATM   17  H   UNL     1       0.032   7.549 -32.759  1.00  0.00     0.210 HD
ENDBRANCH  13  16
ENDBRANCH   7  10
ENDBRANCH   5   6
BRANCH   1  18
HETATM   18  C   UNL     1      -6.797   0.880 -33.540  1.00  0.00    -0.005 A 
HETATM   19  C   UNL     1      -7.152   0.333 -34.782  1.00  0.00     0.014 A 
HETATM   20  C   UNL     1      -6.740  -0.954 -35.149  1.00  0.00     0.008 A 
HETATM   21  C   UNL     1      -5.970  -1.730 -34.278  1.00  0.00    -0.059 A 
HETATM   22  C   UNL     1      -5.612  -1.177 -33.037  1.00  0.00     0.008 A 
HETATM   23  C   UNL     1      -6.028   0.108 -32.668  1.00  0.00     0.014 A 
BRANCH  21  24
HETATM   24  C   UNL     1      -5.497  -3.129 -34.601  1.00  0.00     0.034 C 
HETATM   25  C   UNL     1      -6.568  -4.148 -34.971  1.00  0.00     0.010 C 
ENDBRANCH  21  24
ENDBRANCH   1  18
BRANCH   3  26
HETATM   26  C   UNL     1     -10.027   4.436 -33.279  1.00  0.00     0.189 C 
BRANCH  26  27
HETATM   27  C   UNL     1     -11.064   3.509 -33.870  1.00  0.00    -0.038 A 
HETATM   28  C   UNL     1     -11.741   2.576 -33.067  1.00  0.00     0.009 A 
HETATM   29  C   UNL     1     -12.704   1.730 -33.617  1.00  0.00     0.001 A 
HETATM   30  C   UNL     1     -13.016   1.817 -34.972  1.00  0.00     0.000 A 
HETATM   31  C   UNL     1     -12.366   2.752 -35.777  1.00  0.00     0.001 A 
HETATM   32  C   UNL     1     -11.398   3.595 -35.229  1.00  0.00     0.009 A 
ENDBRANCH  26  27
ENDBRANCH   3  26
TORSDOF 7
ENDMDL
MODEL 8
REMARK VINA RESULT:      -8.4      3.534      8.042
REMARK  7 active torsions:
REMARK  status: ('A' for Active; 'I' for Inactive)
REMARK    1  A    between atoms: C_2  and  C_3 
REMARK    2  A    between atoms: C_6  and  C_7 
REMARK    3  A    between atoms: N_9  and  C_10 
REMARK    4  A    between atoms: C_10  and  C_11 
REMARK    5  A    between atoms: C_18  and  C_19 
REMARK       I    between atoms: C_19  and  N_20 
REMARK    6  A    between atoms: N_20  and  C_21 
REMARK    7  A    between atoms: C_24  and  O_25 
ROOT
HETATM    1  C   UNL     1      -5.004   1.163 -31.769  1.00  0.00     0.104 A 
HETATM    2  N   UNL     1      -4.989  -0.182 -31.683  1.00  0.00    -0.171 NA
HETATM    3  N   UNL     1      -3.768  -0.541 -32.094  1.00  0.00    -0.275 N 
HETATM    4  C   UNL     1      -2.994   0.515 -32.469  1.00  0.00     0.132 A 
HETATM    5  C   UNL     1      -3.737   1.662 -32.232  1.00  0.00     0.080 A 
ENDROOT
BRANCH   5   6
HETATM    6  C   UNL     1      -3.288   3.043 -32.415  1.00  0.00     0.255 C 
HETATM    7  N   UNL     1      -4.056   3.778 -33.294  1.00  0.00    -0.352 N 
HETATM    8  H   UNL     1      -4.760   3.274 -33.813  1.00  0.00     0.163 HD
HETATM    9  O   UNL     1      -2.309   3.502 -31.844  1.00  0.00    -0.268 OA
BRANCH   7  10
HETATM   10  C   UNL     1      -3.860   5.169 -33.699  1.00  0.00     0.084 C 
HETATM   11  C   UNL     1      -3.652   6.137 -32.528  1.00  0.00     0.028 C 
HETATM   12  C   UNL     1      -2.195   6.426 -32.169  1.00  0.00     0.034 C 
HETATM   13  C   UNL     1      -1.340   6.727 -33.394  1.00  0.00     0.118 C 
HETATM   14  C   UNL     1      -1.427   5.616 -34.434  1.00  0.00     0.034 C 
HETATM   15  C   UNL     1      -2.868   5.334 -34.857  1.00  0.00     0.028 C 
BRANCH  13  16
HETATM   16  O   UNL     1      -1.794   7.952 -33.973  1.00  0.00    -0.396 OA
HETATM   17  H   UNL     1      -2.742   7.846 -34.161  1.00  0.00     0.210 HD
ENDBRANCH  13  16
ENDBRANCH   7  10
ENDBRANCH   5   6
BRANCH   1  18
HETATM   18  C   UNL     1      -6.225   1.868 -31.371  1.00  0.00    -0.005 A 
HETATM   19  C   UNL     1      -7.331   1.869 -32.233  1.00  0.00     0.014 A 
HETATM   20  C   UNL     1      -8.491   2.588 -31.918  1.00  0.00     0.008 A 
HETATM   21  C   UNL     1      -8.569   3.332 -30.737  1.00  0.00    -0.059 A 
HETATM   22  C   UNL     1      -7.461   3.324 -29.874  1.00  0.00     0.008 A 
HETATM   23  C   UNL     1      -6.299   2.609 -30.191  1.00  0.00     0.014 A 
BRANCH  21  24
HETATM   24  C   UNL     1      -9.783   4.138 -30.336  1.00  0.00     0.034 C 
HETATM   25  C   UNL     1      -9.553   5.608 -30.008  1.00  0.00     0.010 C 
ENDBRANCH  21  24
ENDBRANCH   1  18
BRANCH   3  26
HETATM   26  C   UNL     1      -3.388  -1.950 -32.094  1.00  0.00     0.189 C 
BRANCH  26  27
HETATM   27  C   UNL     1      -4.135  -2.738 -33.144  1.00  0.00    -0.038 A 
HETATM   28  C   UNL     1      -3.878  -4.105 -33.341  1.00  0.00     0.009 A 
HETATM   29  C   UNL     1      -4.579  -4.830 -34.305  1.00  0.00     0.001 A 
HETATM   30  C   UNL     1      -5.557  -4.202 -35.074  1.00  0.00     0.000 A 
HETATM   31  C   UNL     1      -5.837  -2.851 -34.876  1.00  0.00     0.001 A 
HETATM   32  C   UNL     1      -5.132  -2.123 -33.915  1.00  0.00     0.009 A 
ENDBRANCH  26  27
ENDBRANCH   3  26
TORSDOF 7
ENDMDL
MODEL 9
REMARK VINA RESULT:      -8.3      2.140      6.377
REMARK  7 active torsions:
REMARK  status: ('A' for Active; 'I' for Inactive)
REMARK    1  A    between atoms: C_2  and  C_3 
REMARK    2  A    between atoms: C_6  and  C_7 
REMARK    3  A    between atoms: N_9  and  C_10 
REMARK    4  A    between atoms: C_10  and  C_11 
REMARK    5  A    between atoms: C_18  and  C_19 
REMARK       I    between atoms: C_19  and  N_20 
REMARK    6  A    between atoms: N_20  and  C_21 
REMARK    7  A    between atoms: C_24  and  O_25 
ROOT
HETATM    1  C   UNL     1      -4.804   3.107 -32.261  1.00  0.00     0.104 A 
HETATM    2  N   UNL     1      -4.514   1.877 -31.790  1.00  0.00    -0.171 NA
HETATM    3  N   UNL     1      -5.638   1.170 -31.955  1.00  0.00    -0.275 N 
HETATM    4  C   UNL     1      -6.656   1.897 -32.492  1.00  0.00     0.132 A 
HETATM    5  C   UNL     1      -6.152   3.162 -32.758  1.00  0.00     0.080 A 
ENDROOT
BRANCH   5   6
HETATM    6  C   UNL     1      -6.865   4.264 -33.407  1.00  0.00     0.255 C 
HETATM    7  N   UNL     1      -8.188   4.380 -33.036  1.00  0.00    -0.352 N 
HETATM    8  H   UNL     1      -8.567   3.639 -32.466  1.00  0.00     0.163 HD
HETATM    9  O   UNL     1      -6.333   5.011 -34.215  1.00  0.00    -0.268 OA
BRANCH   7  10
HETATM   10  C   UNL     1      -9.162   5.360 -33.513  1.00  0.00     0.084 C 
HETATM   11  C   UNL     1      -9.743   5.042 -34.897  1.00  0.00     0.028 C 
HETATM   12  C   UNL     1     -11.068   4.281 -34.890  1.00  0.00     0.034 C 
HETATM   13  C   UNL     1     -12.073   4.866 -33.905  1.00  0.00     0.118 C 
HETATM   14  C   UNL     1     -11.499   4.956 -32.495  1.00  0.00     0.034 C 
HETATM   15  C   UNL     1     -10.198   5.756 -32.454  1.00  0.00     0.028 C 
BRANCH  13  16
HETATM   16  O   UNL     1     -12.438   6.173 -34.352  1.00  0.00    -0.396 OA
HETATM   17  H   UNL     1     -12.305   6.193 -35.315  1.00  0.00     0.210 HD
ENDBRANCH  13  16
ENDBRANCH   7  10
ENDBRANCH   5   6
BRANCH   1  18
HETATM   18  C   UNL     1      -3.753   4.126 -32.227  1.00  0.00    -0.005 A 
HETATM   19  C   UNL     1      -2.701   4.062 -33.153  1.00  0.00     0.014 A 
HETATM   20  C   UNL     1      -1.643   4.978 -33.108  1.00  0.00     0.008 A 
HETATM   21  C   UNL     1      -1.605   5.975 -32.130  1.00  0.00    -0.059 A 
HETATM   22  C   UNL     1      -2.663   6.040 -31.207  1.00  0.00     0.008 A 
HETATM   23  C   UNL     1      -3.719   5.120 -31.248  1.00  0.00     0.014 A 
BRANCH  21  24
HETATM   24  C   UNL     1      -0.492   6.992 -32.015  1.00  0.00     0.034 C 
HETATM   25  C   UNL     1       0.637   6.666 -31.045  1.00  0.00     0.010 C 
ENDBRANCH  21  24
ENDBRANCH   1  18
BRANCH   3  26
HETATM   26  C   UNL     1      -5.668  -0.239 -31.578  1.00  0.00     0.189 C 
BRANCH  26  27
HETATM   27  C   UNL     1      -5.646  -1.148 -32.785  1.00  0.00    -0.038 A 
HETATM   28  C   UNL     1      -6.801  -1.355 -33.556  1.00  0.00     0.009 A 
HETATM   29  C   UNL     1      -6.771  -2.187 -34.675  1.00  0.00     0.001 A 
HETATM   30  C   UNL     1      -5.582  -2.810 -35.048  1.00  0.00     0.000 A 
HETATM   31  C   UNL     1      -4.422  -2.599 -34.304  1.00  0.00     0.001 A 
HETATM   32  C   UNL     1      -4.453  -1.770 -33.180  1.00  0.00     0.009 A 
ENDBRANCH  26  27
ENDBRANCH   3  26
TORSDOF 7
ENDMDL
MODEL 10
REMARK VINA RESULT:      -8.3     15.692     17.215
REMARK  7 active torsions:
REMARK  status: ('A' for Active; 'I' for Inactive)
REMARK    1  A    between atoms: C_2  and  C_3 
REMARK    2  A    between atoms: C_6  and  C_7 
REMARK    3  A    between atoms: N_9  and  C_10 
REMARK    4  A    between atoms: C_10  and  C_11 
REMARK    5  A    between atoms: C_18  and  C_19 
REMARK       I    between atoms: C_19  and  N_20 
REMARK    6  A    between atoms: N_20  and  C_21 
REMARK    7  A    between atoms: C_24  and  O_25 
ROOT
HETATM    1  C   UNL     1      -5.005 -12.991 -37.726  1.00  0.00     0.104 A 
HETATM    2  N   UNL     1      -4.016 -12.464 -38.476  1.00  0.00    -0.171 NA
HETATM    3  N   UNL     1      -2.896 -12.695 -37.783  1.00  0.00    -0.275 N 
HETATM    4  C   UNL     1      -3.116 -13.331 -36.599  1.00  0.00     0.132 A 
HETATM    5  C   UNL     1      -4.477 -13.593 -36.531  1.00  0.00     0.080 A 
ENDROOT
BRANCH   5   6
HETATM    6  C   UNL     1      -5.169 -14.327 -35.470  1.00  0.00     0.255 C 
HETATM    7  N   UNL     1      -5.505 -13.559 -34.375  1.00  0.00    -0.352 N 
HETATM    8  H   UNL     1      -5.141 -12.619 -34.351  1.00  0.00     0.163 HD
HETATM    9  O   UNL     1      -5.419 -15.521 -35.547  1.00  0.00    -0.268 OA
BRANCH   7  10
HETATM   10  C   UNL     1      -6.183 -13.997 -33.156  1.00  0.00     0.084 C 
HETATM   11  C   UNL     1      -7.443 -14.835 -33.407  1.00  0.00     0.028 C 
HETATM   12  C   UNL     1      -7.236 -16.348 -33.392  1.00  0.00     0.034 C 
HETATM   13  C   UNL     1      -6.400 -16.811 -32.205  1.00  0.00     0.118 C 
HETATM   14  C   UNL     1      -5.060 -16.086 -32.137  1.00  0.00     0.034 C 
HETATM   15  C   UNL     1      -5.229 -14.568 -32.099  1.00  0.00     0.028 C 
BRANCH  13  16
HETATM   16  O   UNL     1      -7.135 -16.559 -31.006  1.00  0.00    -0.396 OA
HETATM   17  H   UNL     1      -8.049 -16.853 -31.164  1.00  0.00     0.210 HD
ENDBRANCH  13  16
ENDBRANCH   7  10
ENDBRANCH   5   6
BRANCH   1  18
HETATM   18  C   UNL     1      -6.377 -12.905 -38.230  1.00  0.00    -0.005 A 
HETATM   19  C   UNL     1      -7.431 -13.389 -37.442  1.00  0.00     0.014 A 
HETATM   20  C   UNL     1      -8.749 -13.386 -37.917  1.00  0.00     0.008 A 
HETATM   21  C   UNL     1      -9.043 -12.908 -39.197  1.00  0.00    -0.059 A 
HETATM   22  C   UNL     1      -7.985 -12.419 -39.981  1.00  0.00     0.008 A 
HETATM   23  C   UNL     1      -6.667 -12.427 -39.508  1.00  0.00     0.014 A 
BRANCH  21  24
HETATM   24  C   UNL     1     -10.437 -12.882 -39.780  1.00  0.00     0.034 C 
HETATM   25  C   UNL     1     -10.883 -11.581 -40.437  1.00  0.00     0.010 C 
ENDBRANCH  21  24
ENDBRANCH   1  18
BRANCH   3  26
HETATM   26  C   UNL     1      -1.608 -12.281 -38.330  1.00  0.00     0.189 C 
BRANCH  26  27
HETATM   27  C   UNL     1      -0.854 -13.439 -38.941  1.00  0.00    -0.038 A 
HETATM   28  C   UNL     1      -1.198 -13.938 -40.208  1.00  0.00     0.009 A 
HETATM   29  C   UNL     1      -0.491 -15.000 -40.771  1.00  0.00     0.001 A 
HETATM   30  C   UNL     1       0.581 -15.566 -40.083  1.00  0.00     0.000 A 
HETATM   31  C   UNL     1       0.947 -15.068 -38.833  1.00  0.00     0.001 A 
HETATM   32  C   UNL     1       0.236 -14.008 -38.267  1.00  0.00     0.009 A 
ENDBRANCH  26  27
ENDBRANCH   3  26
TORSDOF 7
ENDMDL
