MODEL 1
REMARK VINA RESULT:      -8.1      0.000      0.000
REMARK  5 active torsions:
REMARK  status: ('A' for Active; 'I' for Inactive)
REMARK    1  A    between atoms: C_2  and  C_3 
REMARK    2  A    between atoms: C_3  and  N_4 
REMARK       I    between atoms: N_4  and  C_5 
REMARK    3  A    between atoms: C_5  and  C_6 
REMARK    4  A    between atoms: C_10  and  N_11 
REMARK       I    between atoms: N_11  and  C_12 
REMARK       I    between atoms: C_12  and  N_13 
REMARK    5  A    between atoms: N_13  and  C_14 
ROOT
HETATM    1  C   UNL     1      -6.247  -0.805 -33.816  1.00  0.00     0.053 A 
HETATM    2  C   UNL     1      -6.771  -0.303 -32.619  1.00  0.00     0.051 A 
HETATM    3 CL   UNL     1      -6.021  -0.542 -31.079  1.00  0.00    -0.083 Cl
HETATM    4  C   UNL     1      -7.971   0.425 -32.628  1.00  0.00     0.054 A 
HETATM    5  C   UNL     1      -8.660   0.660 -33.820  1.00  0.00     0.038 A 
HETATM    6  C   UNL     1      -8.179   0.088 -35.001  1.00  0.00     0.030 A 
HETATM    7  C   UNL     1      -6.982  -0.635 -35.000  1.00  0.00     0.021 A 
ENDROOT
BRANCH   5   8
HETATM    8  N   UNL     1      -9.808   1.475 -33.920  1.00  0.00    -0.309 N 
HETATM    9  C   UNL     1     -11.105   1.127 -33.564  1.00  0.00     0.325 C 
HETATM   10  N   UNL     1     -11.947   2.217 -33.683  1.00  0.00    -0.305 N 
HETATM   11  O   UNL     1     -11.445   0.019 -33.172  1.00  0.00    -0.247 OA
HETATM   12  H   UNL     1     -11.686   2.926 -34.349  1.00  0.00     0.171 HD
HETATM   13  H   UNL     1      -9.642   2.464 -34.038  1.00  0.00     0.170 HD
BRANCH  10  14
HETATM   14  C   UNL     1     -13.221   2.327 -33.149  1.00  0.00     0.086 A 
HETATM   15  C   UNL     1     -14.452   1.649 -33.404  1.00  0.00     0.079 A 
HETATM   16  C   UNL     1     -14.773   0.551 -34.350  1.00  0.00     0.075 C 
HETATM   17  N   UNL     1     -15.429   2.092 -32.597  1.00  0.00    -0.177 NA
HETATM   18  N   UNL     1     -14.838   3.018 -31.839  1.00  0.00    -0.280 N 
HETATM   19  H   UNL     1     -15.404   3.489 -31.140  1.00  0.00     0.189 HD
HETATM   20  C   UNL     1     -13.510   3.191 -32.109  1.00  0.00     0.052 A 
HETATM   21  C   UNL     1     -12.687   4.153 -31.341  1.00  0.00     0.072 C 
ENDBRANCH  10  14
ENDBRANCH   5   8
BRANCH   1  22
HETATM   22  C   UNL     1      -4.922  -1.468 -33.962  1.00  0.00     0.253 C 
HETATM   23  N   UNL     1      -4.932  -2.809 -34.267  1.00  0.00    -0.357 N 
HETATM   24  H   UNL     1      -5.818  -3.275 -34.424  1.00  0.00     0.162 HD
HETATM   25  O   UNL     1      -3.897  -0.840 -33.720  1.00  0.00    -0.268 OA
BRANCH  23  26
HETATM   26  C   UNL     1      -3.740  -3.629 -34.210  1.00  0.00     0.122 C 
BRANCH  26  27
HETATM   27  C   UNL     1      -3.633  -4.394 -32.891  1.00  0.00     0.015 C 
HETATM   28  C   UNL     1      -2.939  -3.593 -31.799  1.00  0.00     0.006 C 
ENDBRANCH  26  27
ENDBRANCH  23  26
ENDBRANCH   1  22
TORSDOF 5
ENDMDL
MODEL 2
REMARK VINA RESULT:      -7.9      1.601      1.917
REMARK  5 active torsions:
REMARK  status: ('A' for Active; 'I' for Inactive)
REMARK    1  A    between atoms: C_2  and  C_3 
REMARK    2  A    between atoms: C_3  and  N_4 
REMARK       I    between atoms: N_4  and  C_5 
REMARK    3  A    between atoms: C_5  and  C_6 
REMARK    4  A    between atoms: C_10  and  N_11 
REMARK       I    between atoms: N_11  and  C_12 
REMARK       I    between atoms: C_12  and  N_13 
REMARK    5  A    between atoms: N_13  and  C_14 
ROOT
HETATM    1  C   UNL     1      -5.455  -0.041 -33.714  1.00  0.00     0.053 A 
HETATM    2  C   UNL     1      -6.258  -0.856 -34.522  1.00  0.00     0.051 A 
HETATM    3 CL   UNL     1      -5.789  -2.439 -35.038  1.00  0.00    -0.083 Cl
HETATM    4  C   UNL     1      -7.506  -0.394 -34.965  1.00  0.00     0.054 A 
HETATM    5  C   UNL     1      -7.969   0.877 -34.614  1.00  0.00     0.038 A 
HETATM    6  C   UNL     1      -7.132   1.719 -33.878  1.00  0.00     0.030 A 
HETATM    7  C   UNL     1      -5.888   1.264 -33.430  1.00  0.00     0.021 A 
ENDROOT
BRANCH   5   8
HETATM    8  N   UNL     1      -9.256   1.363 -34.929  1.00  0.00    -0.309 N 
HETATM    9  C   UNL     1     -10.418   1.174 -34.192  1.00  0.00     0.325 C 
HETATM   10  N   UNL     1     -11.460   1.899 -34.738  1.00  0.00    -0.305 N 
HETATM   11  O   UNL     1     -10.497   0.487 -33.183  1.00  0.00    -0.247 OA
HETATM   12  H   UNL     1     -11.411   2.098 -35.724  1.00  0.00     0.171 HD
HETATM   13  H   UNL     1      -9.295   2.102 -35.617  1.00  0.00     0.170 HD
BRANCH  10  14
HETATM   14  C   UNL     1     -12.669   2.183 -34.123  1.00  0.00     0.086 A 
HETATM   15  C   UNL     1     -13.738   1.370 -33.640  1.00  0.00     0.079 A 
HETATM   16  C   UNL     1     -13.899  -0.107 -33.624  1.00  0.00     0.075 C 
HETATM   17  N   UNL     1     -14.704   2.115 -33.081  1.00  0.00    -0.177 NA
HETATM   18  N   UNL     1     -14.262   3.369 -33.193  1.00  0.00    -0.280 N 
HETATM   19  H   UNL     1     -14.847   4.112 -32.824  1.00  0.00     0.189 HD
HETATM   20  C   UNL     1     -13.038   3.474 -33.791  1.00  0.00     0.052 A 
HETATM   21  C   UNL     1     -12.377   4.787 -33.967  1.00  0.00     0.072 C 
ENDBRANCH  10  14
ENDBRANCH   5   8
BRANCH   1  22
HETATM   22  C   UNL     1      -4.182  -0.460 -33.068  1.00  0.00     0.253 C 
HETATM   23  N   UNL     1      -4.074  -1.785 -32.714  1.00  0.00    -0.357 N 
HETATM   24  H   UNL     1      -4.828  -2.422 -32.943  1.00  0.00     0.162 HD
HETATM   25  O   UNL     1      -3.332   0.382 -32.794  1.00  0.00    -0.268 OA
BRANCH  23  26
HETATM   26  C   UNL     1      -3.003  -2.282 -31.878  1.00  0.00     0.122 C 
BRANCH  26  27
HETATM   27  C   UNL     1      -2.989  -3.809 -31.810  1.00  0.00     0.015 C 
HETATM   28  C   UNL     1      -3.393  -4.461 -33.126  1.00  0.00     0.006 C 
ENDBRANCH  26  27
ENDBRANCH  23  26
ENDBRANCH   1  22
TORSDOF 5
ENDMDL
MODEL 3
REMARK VINA RESULT:      -7.9      1.437      2.349
REMARK  5 active torsions:
REMARK  status: ('A' for Active; 'I' for Inactive)
REMARK    1  A    between atoms: C_2  and  C_3 
REMARK    2  A    between atoms: C_3  and  N_4 
REMARK       I    between atoms: N_4  and  C_5 
REMARK    3  A    between atoms: C_5  and  C_6 
REMARK    4  A    between atoms: C_10  and  N_11 
REMARK       I    between atoms: N_11  and  C_12 
REMARK       I    between atoms: C_12  and  N_13 
REMARK    5  A    between atoms: N_13  and  C_14 
ROOT
HETATM    1  C   UNL     1      -5.512  -0.146 -33.734  1.00  0.00     0.053 A 
HETATM    2  C   UNL     1      -6.356  -0.931 -34.527  1.00  0.00     0.051 A 
HETATM    3 CL   UNL     1      -5.905  -2.479 -35.154  1.00  0.00    -0.083 Cl
HETATM    4  C   UNL     1      -7.637  -0.466 -34.864  1.00  0.00     0.054 A 
HETATM    5  C   UNL     1      -8.090   0.778 -34.418  1.00  0.00     0.038 A 
HETATM    6  C   UNL     1      -7.216   1.594 -33.696  1.00  0.00     0.030 A 
HETATM    7  C   UNL     1      -5.940   1.137 -33.355  1.00  0.00     0.021 A 
ENDROOT
BRANCH   5   8
HETATM    8  N   UNL     1      -9.401   1.260 -34.622  1.00  0.00    -0.309 N 
HETATM    9  C   UNL     1     -10.506   1.027 -33.814  1.00  0.00     0.325 C 
HETATM   10  N   UNL     1     -11.591   1.760 -34.256  1.00  0.00    -0.305 N 
HETATM   11  O   UNL     1     -10.507   0.298 -32.831  1.00  0.00    -0.247 OA
HETATM   12  H   UNL     1     -11.614   1.999 -35.234  1.00  0.00     0.171 HD
HETATM   13  H   UNL     1      -9.496   2.025 -35.274  1.00  0.00     0.170 HD
BRANCH  10  14
HETATM   14  C   UNL     1     -12.756   2.004 -33.547  1.00  0.00     0.086 A 
HETATM   15  C   UNL     1     -13.293   3.165 -32.913  1.00  0.00     0.079 A 
HETATM   16  C   UNL     1     -12.762   4.549 -32.819  1.00  0.00     0.075 C 
HETATM   17  N   UNL     1     -14.494   2.913 -32.368  1.00  0.00    -0.177 NA
HETATM   18  N   UNL     1     -14.725   1.630 -32.655  1.00  0.00    -0.280 N 
HETATM   19  H   UNL     1     -15.598   1.224 -32.336  1.00  0.00     0.189 HD
HETATM   20  C   UNL     1     -13.729   1.035 -33.377  1.00  0.00     0.052 A 
HETATM   21  C   UNL     1     -13.832  -0.376 -33.815  1.00  0.00     0.072 C 
ENDBRANCH  10  14
ENDBRANCH   5   8
BRANCH   1  22
HETATM   22  C   UNL     1      -4.193  -0.578 -33.195  1.00  0.00     0.253 C 
HETATM   23  N   UNL     1      -4.131  -1.838 -32.648  1.00  0.00    -0.357 N 
HETATM   24  H   UNL     1      -4.953  -2.430 -32.672  1.00  0.00     0.162 HD
HETATM   25  O   UNL     1      -3.256   0.214 -33.171  1.00  0.00    -0.268 OA
BRANCH  23  26
HETATM   26  C   UNL     1      -2.991  -2.299 -31.885  1.00  0.00     0.122 C 
BRANCH  26  27
HETATM   27  C   UNL     1      -2.934  -3.825 -31.804  1.00  0.00     0.015 C 
HETATM   28  C   UNL     1      -3.384  -4.500 -33.092  1.00  0.00     0.006 C 
ENDBRANCH  26  27
ENDBRANCH  23  26
ENDBRANCH   1  22
TORSDOF 5
ENDMDL
MODEL 4
REMARK VINA RESULT:      -7.5      6.010      8.337
REMARK  5 active torsions:
REMARK  status: ('A' for Active; 'I' for Inactive)
REMARK    1  A    between atoms: C_2  and  C_3 
REMARK    2  A    between atoms: C_3  and  N_4 
REMARK       I    between atoms: N_4  and  C_5 
REMARK    3  A    between atoms: C_5  and  C_6 
REMARK    4  A    between atoms: C_10  and  N_11 
REMARK       I    between atoms: N_11  and  C_12 
REMARK       I    between atoms: C_12  and  N_13 
REMARK    5  A    between atoms: N_13  and  C_14 
ROOT
HETATM    1  C   UNL     1      -5.224  -0.469 -32.706  1.00  0.00     0.053 A 
HETATM    2  C   UNL     1      -4.009  -0.576 -32.019  1.00  0.00     0.051 A 
HETATM    3 CL   UNL     1      -3.133  -2.060 -31.864  1.00  0.00    -0.083 Cl
HETATM    4  C   UNL     1      -3.448   0.552 -31.402  1.00  0.00     0.054 A 
HETATM    5  C   UNL     1      -4.086   1.794 -31.459  1.00  0.00     0.038 A 
HETATM    6  C   UNL     1      -5.339   1.880 -32.073  1.00  0.00     0.030 A 
HETATM    7  C   UNL     1      -5.902   0.761 -32.693  1.00  0.00     0.021 A 
ENDROOT
BRANCH   5   8
HETATM    8  N   UNL     1      -3.530   2.991 -30.959  1.00  0.00    -0.309 N 
HETATM    9  C   UNL     1      -3.027   4.047 -31.708  1.00  0.00     0.325 C 
HETATM   10  N   UNL     1      -2.681   5.101 -30.883  1.00  0.00    -0.305 N 
HETATM   11  O   UNL     1      -2.933   4.053 -32.927  1.00  0.00    -0.247 OA
HETATM   12  H   UNL     1      -2.430   4.876 -29.934  1.00  0.00     0.171 HD
HETATM   13  H   UNL     1      -3.725   3.200 -29.991  1.00  0.00     0.170 HD
BRANCH  10  14
HETATM   14  C   UNL     1      -2.424   6.403 -31.284  1.00  0.00     0.086 A 
HETATM   15  C   UNL     1      -3.259   7.534 -31.534  1.00  0.00     0.079 A 
HETATM   16  C   UNL     1      -4.732   7.692 -31.424  1.00  0.00     0.075 C 
HETATM   17  N   UNL     1      -2.534   8.609 -31.879  1.00  0.00    -0.177 NA
HETATM   18  N   UNL     1      -1.270   8.182 -31.840  1.00  0.00    -0.280 N 
HETATM   19  H   UNL     1      -0.538   8.848 -32.066  1.00  0.00     0.189 HD
HETATM   20  C   UNL     1      -1.138   6.874 -31.471  1.00  0.00     0.052 A 
HETATM   21  C   UNL     1       0.195   6.241 -31.340  1.00  0.00     0.072 C 
ENDBRANCH  10  14
ENDBRANCH   5   8
BRANCH   1  22
HETATM   22  C   UNL     1      -5.852  -1.549 -33.515  1.00  0.00     0.253 C 
HETATM   23  N   UNL     1      -5.006  -2.332 -34.265  1.00  0.00    -0.357 N 
HETATM   24  H   UNL     1      -4.006  -2.179 -34.205  1.00  0.00     0.162 HD
HETATM   25  O   UNL     1      -7.075  -1.644 -33.560  1.00  0.00    -0.268 OA
BRANCH  23  26
HETATM   26  C   UNL     1      -5.487  -3.258 -35.268  1.00  0.00     0.122 C 
BRANCH  26  27
HETATM   27  C   UNL     1      -5.526  -4.696 -34.750  1.00  0.00     0.015 C 
HETATM   28  C   UNL     1      -4.335  -5.035 -33.864  1.00  0.00     0.006 C 
ENDBRANCH  26  27
ENDBRANCH  23  26
ENDBRANCH   1  22
TORSDOF 5
ENDMDL
MODEL 5
REMARK VINA RESULT:      -7.2      2.270      8.943
REMARK  5 active torsions:
REMARK  status: ('A' for Active; 'I' for Inactive)
REMARK    1  A    between atoms: C_2  and  C_3 
REMARK    2  A    between atoms: C_3  and  N_4 
REMARK       I    between atoms: N_4  and  C_5 
REMARK    3  A    between atoms: C_5  and  C_6 
REMARK    4  A    between atoms: C_10  and  N_11 
REMARK       I    between atoms: N_11  and  C_12 
REMARK       I    between atoms: C_12  and  N_13 
REMARK    5  A    between atoms: N_13  and  C_14 
ROOT
HETATM    1  C   UNL     1      -9.614   2.556 -33.643  1.00  0.00     0.053 A 
HETATM    2  C   UNL     1      -8.307   2.971 -33.363  1.00  0.00     0.051 A 
HETATM    3 CL   UNL     1      -7.930   4.486 -32.616  1.00  0.00    -0.083 Cl
HETATM    4  C   UNL     1      -7.221   2.150 -33.701  1.00  0.00     0.054 A 
HETATM    5  C   UNL     1      -7.420   0.913 -34.320  1.00  0.00     0.038 A 
HETATM    6  C   UNL     1      -8.719   0.538 -34.673  1.00  0.00     0.030 A 
HETATM    7  C   UNL     1      -9.806   1.350 -34.336  1.00  0.00     0.021 A 
ENDROOT
BRANCH   5   8
HETATM    8  N   UNL     1      -6.387  -0.011 -34.588  1.00  0.00    -0.309 N 
HETATM    9  C   UNL     1      -5.965  -1.045 -33.762  1.00  0.00     0.325 C 
HETATM   10  N   UNL     1      -5.019  -1.820 -34.406  1.00  0.00    -0.305 N 
HETATM   11  O   UNL     1      -6.395  -1.256 -32.637  1.00  0.00    -0.247 OA
HETATM   12  H   UNL     1      -4.468  -1.372 -35.120  1.00  0.00     0.171 HD
HETATM   13  H   UNL     1      -6.089  -0.076 -35.550  1.00  0.00     0.170 HD
BRANCH  10  14
HETATM   14  C   UNL     1      -4.593  -3.080 -34.016  1.00  0.00     0.086 A 
HETATM   15  C   UNL     1      -3.690  -3.543 -33.011  1.00  0.00     0.079 A 
HETATM   16  C   UNL     1      -2.896  -2.792 -32.005  1.00  0.00     0.075 C 
HETATM   17  N   UNL     1      -3.624  -4.883 -32.993  1.00  0.00    -0.177 NA
HETATM   18  N   UNL     1      -4.469  -5.269 -33.952  1.00  0.00    -0.280 N 
HETATM   19  H   UNL     1      -4.581  -6.265 -34.112  1.00  0.00     0.189 HD
HETATM   20  C   UNL     1      -5.095  -4.235 -34.588  1.00  0.00     0.052 A 
HETATM   21  C   UNL     1      -6.093  -4.478 -35.656  1.00  0.00     0.072 C 
ENDBRANCH  10  14
ENDBRANCH   5   8
BRANCH   1  22
HETATM   22  C   UNL     1     -10.851   3.264 -33.213  1.00  0.00     0.253 C 
HETATM   23  N   UNL     1     -11.885   2.482 -32.756  1.00  0.00    -0.357 N 
HETATM   24  H   UNL     1     -11.754   1.480 -32.685  1.00  0.00     0.162 HD
HETATM   25  O   UNL     1     -10.941   4.478 -33.366  1.00  0.00    -0.268 OA
BRANCH  23  26
HETATM   26  C   UNL     1     -13.215   3.006 -32.527  1.00  0.00     0.122 C 
BRANCH  26  27
HETATM   27  C   UNL     1     -14.297   2.094 -33.106  1.00  0.00     0.015 C 
HETATM   28  C   UNL     1     -13.758   1.127 -34.151  1.00  0.00     0.006 C 
ENDBRANCH  26  27
ENDBRANCH  23  26
ENDBRANCH   1  22
TORSDOF 5
ENDMDL
MODEL 6
REMARK VINA RESULT:      -7.2      1.943      2.594
REMARK  5 active torsions:
REMARK  status: ('A' for Active; 'I' for Inactive)
REMARK    1  A    between atoms: C_2  and  C_3 
REMARK    2  A    between atoms: C_3  and  N_4 
REMARK       I    between atoms: N_4  and  C_5 
REMARK    3  A    between atoms: C_5  and  C_6 
REMARK    4  A    between atoms: C_10  and  N_11 
REMARK       I    between atoms: N_11  and  C_12 
REMARK       I    between atoms: C_12  and  N_13 
REMARK    5  A    between atoms: N_13  and  C_14 
ROOT
HETATM    1  C   UNL     1      -6.304  -0.182 -32.388  1.00  0.00     0.053 A 
HETATM    2  C   UNL     1      -6.901   0.345 -31.236  1.00  0.00     0.051 A 
HETATM    3 CL   UNL     1      -6.067   0.525 -29.731  1.00  0.00    -0.083 Cl
HETATM    4  C   UNL     1      -8.245   0.746 -31.261  1.00  0.00     0.054 A 
HETATM    5  C   UNL     1      -9.009   0.627 -32.426  1.00  0.00     0.038 A 
HETATM    6  C   UNL     1      -8.435   0.026 -33.549  1.00  0.00     0.030 A 
HETATM    7  C   UNL     1      -7.096  -0.373 -33.532  1.00  0.00     0.021 A 
ENDROOT
BRANCH   5   8
HETATM    8  N   UNL     1     -10.328   1.110 -32.557  1.00  0.00    -0.309 N 
HETATM    9  C   UNL     1     -10.718   2.439 -32.671  1.00  0.00     0.325 C 
HETATM   10  N   UNL     1     -12.077   2.525 -32.908  1.00  0.00    -0.305 N 
HETATM   11  O   UNL     1      -9.957   3.394 -32.602  1.00  0.00    -0.247 OA
HETATM   12  H   UNL     1     -12.649   1.768 -32.570  1.00  0.00     0.171 HD
HETATM   13  H   UNL     1     -11.025   0.431 -32.825  1.00  0.00     0.170 HD
BRANCH  10  14
HETATM   14  C   UNL     1     -12.759   3.645 -33.357  1.00  0.00     0.086 A 
HETATM   15  C   UNL     1     -13.452   4.702 -32.692  1.00  0.00     0.079 A 
HETATM   16  C   UNL     1     -13.660   4.963 -31.245  1.00  0.00     0.075 C 
HETATM   17  N   UNL     1     -13.934   5.596 -33.569  1.00  0.00    -0.177 NA
HETATM   18  N   UNL     1     -13.552   5.131 -34.761  1.00  0.00    -0.280 N 
HETATM   19  H   UNL     1     -13.811   5.666 -35.583  1.00  0.00     0.189 HD
HETATM   20  C   UNL     1     -12.826   3.975 -34.698  1.00  0.00     0.052 A 
HETATM   21  C   UNL     1     -12.289   3.335 -35.920  1.00  0.00     0.072 C 
ENDBRANCH  10  14
ENDBRANCH   5   8
BRANCH   1  22
HETATM   22  C   UNL     1      -4.860  -0.513 -32.532  1.00  0.00     0.253 C 
HETATM   23  N   UNL     1      -4.478  -1.784 -32.174  1.00  0.00    -0.357 N 
HETATM   24  H   UNL     1      -5.183  -2.448 -31.876  1.00  0.00     0.162 HD
HETATM   25  O   UNL     1      -4.066   0.361 -32.866  1.00  0.00    -0.268 OA
BRANCH  23  26
HETATM   26  C   UNL     1      -3.089  -2.170 -32.041  1.00  0.00     0.122 C 
BRANCH  26  27
HETATM   27  C   UNL     1      -2.924  -3.686 -31.929  1.00  0.00     0.015 C 
HETATM   28  C   UNL     1      -3.449  -4.428 -33.151  1.00  0.00     0.006 C 
ENDBRANCH  26  27
ENDBRANCH  23  26
ENDBRANCH   1  22
TORSDOF 5
ENDMDL
MODEL 7
REMARK VINA RESULT:      -7.2      6.479      8.145
REMARK  5 active torsions:
REMARK  status: ('A' for Active; 'I' for Inactive)
REMARK    1  A    between atoms: C_2  and  C_3 
REMARK    2  A    between atoms: C_3  and  N_4 
REMARK       I    between atoms: N_4  and  C_5 
REMARK    3  A    between atoms: C_5  and  C_6 
REMARK    4  A    between atoms: C_10  and  N_11 
REMARK       I    between atoms: N_11  and  C_12 
REMARK       I    between atoms: C_12  and  N_13 
REMARK    5  A    between atoms: N_13  and  C_14 
ROOT
HETATM    1  C   UNL     1      -3.678  -1.402 -32.527  1.00  0.00     0.053 A 
HETATM    2  C   UNL     1      -4.598  -0.474 -33.028  1.00  0.00     0.051 A 
HETATM    3 CL   UNL     1      -5.787  -0.863 -34.223  1.00  0.00    -0.083 Cl
HETATM    4  C   UNL     1      -4.577   0.853 -32.571  1.00  0.00     0.054 A 
HETATM    5  C   UNL     1      -3.646   1.270 -31.616  1.00  0.00     0.038 A 
HETATM    6  C   UNL     1      -2.677   0.363 -31.180  1.00  0.00     0.030 A 
HETATM    7  C   UNL     1      -2.693  -0.961 -31.628  1.00  0.00     0.021 A 
ENDROOT
BRANCH   5   8
HETATM    8  N   UNL     1      -3.637   2.554 -31.031  1.00  0.00    -0.309 N 
HETATM    9  C   UNL     1      -2.980   3.680 -31.512  1.00  0.00     0.325 C 
HETATM   10  N   UNL     1      -3.299   4.787 -30.748  1.00  0.00    -0.305 N 
HETATM   11  O   UNL     1      -2.249   3.693 -32.491  1.00  0.00    -0.247 OA
HETATM   12  H   UNL     1      -3.566   4.621 -29.791  1.00  0.00     0.171 HD
HETATM   13  H   UNL     1      -4.351   2.731 -30.339  1.00  0.00     0.170 HD
BRANCH  10  14
HETATM   14  C   UNL     1      -3.072   6.110 -31.091  1.00  0.00     0.086 A 
HETATM   15  C   UNL     1      -3.912   7.152 -31.587  1.00  0.00     0.079 A 
HETATM   16  C   UNL     1      -5.366   7.160 -31.892  1.00  0.00     0.075 C 
HETATM   17  N   UNL     1      -3.230   8.297 -31.742  1.00  0.00    -0.177 NA
HETATM   18  N   UNL     1      -1.990   8.001 -31.347  1.00  0.00    -0.280 N 
HETATM   19  H   UNL     1      -1.294   8.738 -31.377  1.00  0.00     0.189 HD
HETATM   20  C   UNL     1      -1.837   6.710 -30.926  1.00  0.00     0.052 A 
HETATM   21  C   UNL     1      -0.537   6.214 -30.418  1.00  0.00     0.072 C 
ENDBRANCH  10  14
ENDBRANCH   5   8
BRANCH   1  22
HETATM   22  C   UNL     1      -3.682  -2.862 -32.823  1.00  0.00     0.253 C 
HETATM   23  N   UNL     1      -4.249  -3.249 -34.014  1.00  0.00    -0.357 N 
HETATM   24  H   UNL     1      -4.593  -2.542 -34.653  1.00  0.00     0.162 HD
HETATM   25  O   UNL     1      -3.278  -3.655 -31.979  1.00  0.00    -0.268 OA
BRANCH  23  26
HETATM   26  C   UNL     1      -4.531  -4.634 -34.326  1.00  0.00     0.122 C 
BRANCH  26  27
HETATM   27  C   UNL     1      -5.754  -4.780 -35.233  1.00  0.00     0.015 C 
HETATM   28  C   UNL     1      -6.999  -4.119 -34.655  1.00  0.00     0.006 C 
ENDBRANCH  26  27
ENDBRANCH  23  26
ENDBRANCH   1  22
TORSDOF 5
ENDMDL
MODEL 8
REMARK VINA RESULT:      -7.0      6.446      7.494
REMARK  5 active torsions:
REMARK  status: ('A' for Active; 'I' for Inactive)
REMARK    1  A    between atoms: C_2  and  C_3 
REMARK    2  A    between atoms: C_3  and  N_4 
REMARK       I    between atoms: N_4  and  C_5 
REMARK    3  A    between atoms: C_5  and  C_6 
REMARK    4  A    between atoms: C_10  and  N_11 
REMARK       I    between atoms: N_11  and  C_12 
REMARK       I    between atoms: C_12  and  N_13 
REMARK    5  A    between atoms: N_13  and  C_14 
ROOT
HETATM    1  C   UNL     1      -3.182   6.643 -32.893  1.00  0.00     0.053 A 
HETATM    2  C   UNL     1      -3.024   5.787 -33.990  1.00  0.00     0.051 A 
HETATM    3 CL   UNL     1      -1.532   5.604 -34.846  1.00  0.00    -0.083 Cl
HETATM    4  C   UNL     1      -4.112   5.034 -34.455  1.00  0.00     0.054 A 
HETATM    5  C   UNL     1      -5.364   5.122 -33.840  1.00  0.00     0.038 A 
HETATM    6  C   UNL     1      -5.539   6.038 -32.799  1.00  0.00     0.030 A 
HETATM    7  C   UNL     1      -4.459   6.790 -32.328  1.00  0.00     0.021 A 
ENDROOT
BRANCH   5   8
HETATM    8  N   UNL     1      -6.470   4.315 -34.181  1.00  0.00    -0.309 N 
HETATM    9  C   UNL     1      -6.838   3.116 -33.584  1.00  0.00     0.325 C 
HETATM   10  N   UNL     1      -8.043   2.673 -34.095  1.00  0.00    -0.305 N 
HETATM   11  O   UNL     1      -6.198   2.551 -32.708  1.00  0.00    -0.247 OA
HETATM   12  H   UNL     1      -8.280   2.965 -35.029  1.00  0.00     0.171 HD
HETATM   13  H   UNL     1      -7.184   4.756 -34.743  1.00  0.00     0.170 HD
BRANCH  10  14
HETATM   14  C   UNL     1      -8.851   1.688 -33.546  1.00  0.00     0.086 A 
HETATM   15  C   UNL     1      -8.724   0.271 -33.427  1.00  0.00     0.079 A 
HETATM   16  C   UNL     1      -7.633  -0.642 -33.854  1.00  0.00     0.075 C 
HETATM   17  N   UNL     1      -9.771  -0.259 -32.776  1.00  0.00    -0.177 NA
HETATM   18  N   UNL     1     -10.541   0.789 -32.477  1.00  0.00    -0.280 N 
HETATM   19  H   UNL     1     -11.402   0.615 -31.969  1.00  0.00     0.189 HD
HETATM   20  C   UNL     1     -10.033   1.987 -32.895  1.00  0.00     0.052 A 
HETATM   21  C   UNL     1     -10.737   3.260 -32.618  1.00  0.00     0.072 C 
ENDBRANCH  10  14
ENDBRANCH   5   8
BRANCH   1  22
HETATM   22  C   UNL     1      -2.083   7.387 -32.219  1.00  0.00     0.253 C 
HETATM   23  N   UNL     1      -1.582   6.838 -31.063  1.00  0.00    -0.357 N 
HETATM   24  H   UNL     1      -1.938   5.945 -30.744  1.00  0.00     0.162 HD
HETATM   25  O   UNL     1      -1.734   8.481 -32.652  1.00  0.00    -0.268 OA
BRANCH  23  26
HETATM   26  C   UNL     1      -0.684   7.558 -30.185  1.00  0.00     0.122 C 
BRANCH  26  27
HETATM   27  C   UNL     1       0.412   6.654 -29.619  1.00  0.00     0.015 C 
HETATM   28  C   UNL     1       0.565   5.355 -30.398  1.00  0.00     0.006 C 
ENDBRANCH  26  27
ENDBRANCH  23  26
ENDBRANCH   1  22
TORSDOF 5
ENDMDL
MODEL 9
REMARK VINA RESULT:      -7.0      6.425      9.164
REMARK  5 active torsions:
REMARK  status: ('A' for Active; 'I' for Inactive)
REMARK    1  A    between atoms: C_2  and  C_3 
REMARK    2  A    between atoms: C_3  and  N_4 
REMARK       I    between atoms: N_4  and  C_5 
REMARK    3  A    between atoms: C_5  and  C_6 
REMARK    4  A    between atoms: C_10  and  N_11 
REMARK       I    between atoms: N_11  and  C_12 
REMARK       I    between atoms: C_12  and  N_13 
REMARK    5  A    between atoms: N_13  and  C_14 
ROOT
HETATM    1  C   UNL     1      -6.566   1.245 -33.076  1.00  0.00     0.053 A 
HETATM    2  C   UNL     1      -6.251   1.179 -31.714  1.00  0.00     0.051 A 
HETATM    3 CL   UNL     1      -6.656  -0.170 -30.709  1.00  0.00    -0.083 Cl
HETATM    4  C   UNL     1      -5.585   2.246 -31.093  1.00  0.00     0.054 A 
HETATM    5  C   UNL     1      -5.227   3.388 -31.816  1.00  0.00     0.038 A 
HETATM    6  C   UNL     1      -5.616   3.486 -33.155  1.00  0.00     0.030 A 
HETATM    7  C   UNL     1      -6.277   2.425 -33.780  1.00  0.00     0.021 A 
ENDROOT
BRANCH   5   8
HETATM    8  N   UNL     1      -4.461   4.448 -31.288  1.00  0.00    -0.309 N 
HETATM    9  C   UNL     1      -3.079   4.487 -31.154  1.00  0.00     0.325 C 
HETATM   10  N   UNL     1      -2.671   5.732 -30.715  1.00  0.00    -0.305 N 
HETATM   11  O   UNL     1      -2.329   3.558 -31.419  1.00  0.00    -0.247 OA
HETATM   12  H   UNL     1      -3.333   6.266 -30.175  1.00  0.00     0.171 HD
HETATM   13  H   UNL     1      -4.928   5.341 -31.218  1.00  0.00     0.170 HD
BRANCH  10  14
HETATM   14  C   UNL     1      -1.376   6.226 -30.745  1.00  0.00     0.086 A 
HETATM   15  C   UNL     1      -0.395   6.465 -29.736  1.00  0.00     0.079 A 
HETATM   16  C   UNL     1      -0.441   6.237 -28.269  1.00  0.00     0.075 C 
HETATM   17  N   UNL     1       0.747   6.930 -30.266  1.00  0.00    -0.177 NA
HETATM   18  N   UNL     1       0.508   6.978 -31.578  1.00  0.00    -0.280 N 
HETATM   19  H   UNL     1       1.254   7.303 -32.184  1.00  0.00     0.189 HD
HETATM   20  C   UNL     1      -0.741   6.549 -31.930  1.00  0.00     0.052 A 
HETATM   21  C   UNL     1      -1.167   6.500 -33.347  1.00  0.00     0.072 C 
ENDBRANCH  10  14
ENDBRANCH   5   8
BRANCH   1  22
HETATM   22  C   UNL     1      -7.143   0.132 -33.880  1.00  0.00     0.253 C 
HETATM   23  N   UNL     1      -6.399  -1.021 -33.962  1.00  0.00    -0.357 N 
HETATM   24  H   UNL     1      -5.529  -1.088 -33.447  1.00  0.00     0.162 HD
HETATM   25  O   UNL     1      -8.186   0.307 -34.501  1.00  0.00    -0.268 OA
BRANCH  23  26
HETATM   26  C   UNL     1      -6.718  -2.088 -34.887  1.00  0.00     0.122 C 
BRANCH  26  27
HETATM   27  C   UNL     1      -5.763  -3.273 -34.747  1.00  0.00     0.015 C 
HETATM   28  C   UNL     1      -6.371  -4.582 -35.235  1.00  0.00     0.006 C 
ENDBRANCH  26  27
ENDBRANCH  23  26
ENDBRANCH   1  22
TORSDOF 5
ENDMDL
MODEL 10
REMARK VINA RESULT:      -7.0      2.159      2.533
REMARK  5 active torsions:
REMARK  status: ('A' for Active; 'I' for Inactive)
REMARK    1  A    between atoms: C_2  and  C_3 
REMARK    2  A    between atoms: C_3  and  N_4 
REMARK       I    between atoms: N_4  and  C_5 
REMARK    3  A    between atoms: C_5  and  C_6 
REMARK    4  A    between atoms: C_10  and  N_11 
REMARK       I    between atoms: N_11  and  C_12 
REMARK       I    between atoms: C_12  and  N_13 
REMARK    5  A    between atoms: N_13  and  C_14 
ROOT
HETATM    1  C   UNL     1      -5.839  -0.704 -32.452  1.00  0.00     0.053 A 
HETATM    2  C   UNL     1      -6.706  -0.796 -33.547  1.00  0.00     0.051 A 
HETATM    3 CL   UNL     1      -6.304  -1.622 -35.013  1.00  0.00    -0.083 Cl
HETATM    4  C   UNL     1      -7.969  -0.187 -33.495  1.00  0.00     0.054 A 
HETATM    5  C   UNL     1      -8.382   0.517 -32.361  1.00  0.00     0.038 A 
HETATM    6  C   UNL     1      -7.483   0.676 -31.303  1.00  0.00     0.030 A 
HETATM    7  C   UNL     1      -6.225   0.070 -31.346  1.00  0.00     0.021 A 
ENDROOT
BRANCH   5   8
HETATM    8  N   UNL     1      -9.675   1.057 -32.195  1.00  0.00    -0.309 N 
HETATM    9  C   UNL     1     -10.076   2.355 -32.490  1.00  0.00     0.325 C 
HETATM   10  N   UNL     1     -11.441   2.489 -32.318  1.00  0.00    -0.305 N 
HETATM   11  O   UNL     1      -9.328   3.241 -32.877  1.00  0.00    -0.247 OA
HETATM   12  H   UNL     1     -11.882   1.869 -31.657  1.00  0.00     0.171 HD
HETATM   13  H   UNL     1     -10.423   0.390 -32.075  1.00  0.00     0.170 HD
BRANCH  10  14
HETATM   14  C   UNL     1     -12.225   3.531 -32.786  1.00  0.00     0.086 A 
HETATM   15  C   UNL     1     -12.543   4.008 -34.094  1.00  0.00     0.079 A 
HETATM   16  C   UNL     1     -12.134   3.508 -35.431  1.00  0.00     0.075 C 
HETATM   17  N   UNL     1     -13.387   5.050 -34.041  1.00  0.00    -0.177 NA
HETATM   18  N   UNL     1     -13.612   5.229 -32.738  1.00  0.00    -0.280 N 
HETATM   19  H   UNL     1     -14.240   5.978 -32.465  1.00  0.00     0.189 HD
HETATM   20  C   UNL     1     -12.959   4.337 -31.935  1.00  0.00     0.052 A 
HETATM   21  C   UNL     1     -13.120   4.365 -30.463  1.00  0.00     0.072 C 
ENDBRANCH  10  14
ENDBRANCH   5   8
BRANCH   1  22
HETATM   22  C   UNL     1      -4.537  -1.416 -32.327  1.00  0.00     0.253 C 
HETATM   23  N   UNL     1      -4.445  -2.648 -32.930  1.00  0.00    -0.357 N 
HETATM   24  H   UNL     1      -5.231  -2.999 -33.464  1.00  0.00     0.162 HD
HETATM   25  O   UNL     1      -3.646  -0.938 -31.631  1.00  0.00    -0.268 OA
BRANCH  23  26
HETATM   26  C   UNL     1      -3.334  -3.547 -32.697  1.00  0.00     0.122 C 
BRANCH  26  27
HETATM   27  C   UNL     1      -3.418  -4.800 -33.568  1.00  0.00     0.015 C 
HETATM   28  C   UNL     1      -4.739  -4.910 -34.318  1.00  0.00     0.006 C 
ENDBRANCH  26  27
ENDBRANCH  23  26
ENDBRANCH   1  22
TORSDOF 5
ENDMDL
