MODEL 1
REMARK VINA RESULT:      -8.5      0.000      0.000
REMARK  6 active torsions:
REMARK  status: ('A' for Active; 'I' for Inactive)
REMARK    1  A    between atoms: C_2  and  C_3 
REMARK    2  A    between atoms: C_7  and  C_8 
REMARK       I    between atoms: C_8  and  N_9 
REMARK    3  A    between atoms: N_9  and  C_10 
REMARK    4  A    between atoms: C_10  and  C_11 
REMARK    5  A    between atoms: C_10  and  C_19 
REMARK    6  A    between atoms: C_14  and  O_15 
ROOT
HETATM    1  C   UNL     1      -6.584  -0.131 -32.742  1.00  0.00     0.151 C 
ENDROOT
BRANCH   1   2
HETATM    2  N   UNL     1      -5.605   0.940 -32.808  1.00  0.00    -0.343 N 
HETATM    3  C   UNL     1      -5.213   1.644 -31.700  1.00  0.00     0.270 C 
HETATM    4  O   UNL     1      -5.683   1.454 -30.582  1.00  0.00    -0.266 OA
HETATM    5  H   UNL     1      -5.357   1.285 -33.722  1.00  0.00     0.163 HD
BRANCH   3   6
HETATM    6  C   UNL     1      -4.178   2.613 -31.937  1.00  0.00     0.119 A 
HETATM    7  N   UNL     1      -3.147   2.799 -31.056  1.00  0.00    -0.273 N 
HETATM    8  N   UNL     1      -2.231   3.693 -31.463  1.00  0.00    -0.179 NA
HETATM    9  H   UNL     1      -3.013   2.324 -30.169  1.00  0.00     0.189 HD
HETATM   10  C   UNL     1      -2.680   4.096 -32.655  1.00  0.00     0.056 A 
HETATM   11  C   UNL     1      -3.906   3.471 -32.987  1.00  0.00     0.065 A 
BRANCH  10  12
HETATM   12  C   UNL     1      -1.896   5.063 -33.476  1.00  0.00     0.056 C 
HETATM   13  C   UNL     1      -2.447   5.194 -34.888  1.00  0.00     0.011 C 
ENDBRANCH  10  12
ENDBRANCH   3   6
ENDBRANCH   1   2
BRANCH   1  14
HETATM   14  C   UNL     1      -7.945   0.418 -33.159  1.00  0.00    -0.031 A 
HETATM   15  C   UNL     1      -9.140  -0.088 -32.626  1.00  0.00     0.012 A 
HETATM   16  C   UNL     1     -10.371   0.457 -33.003  1.00  0.00     0.037 A 
HETATM   17  C   UNL     1     -10.436   1.510 -33.917  1.00  0.00     0.068 A 
HETATM   18  C   UNL     1      -9.256   1.999 -34.476  1.00  0.00     0.037 A 
HETATM   19  C   UNL     1      -8.022   1.455 -34.104  1.00  0.00     0.012 A 
BRANCH  17  20
HETATM   20  O   UNL     1     -11.699   1.963 -34.183  1.00  0.00    -0.356 OA
HETATM   21  C   UNL     1     -12.772   1.087 -33.860  1.00  0.00     0.210 C 
ENDBRANCH  17  20
ENDBRANCH   1  14
BRANCH   1  22
HETATM   22  C   UNL     1      -6.136  -1.365 -33.535  1.00  0.00    -0.031 A 
HETATM   23  C   UNL     1      -4.787  -1.757 -33.604  1.00  0.00     0.009 A 
HETATM   24  C   UNL     1      -4.403  -2.903 -34.307  1.00  0.00     0.001 A 
HETATM   25  C   UNL     1      -5.362  -3.689 -34.937  1.00  0.00     0.000 A 
HETATM   26  C   UNL     1      -6.707  -3.340 -34.854  1.00  0.00     0.001 A 
HETATM   27  C   UNL     1      -7.091  -2.195 -34.152  1.00  0.00     0.009 A 
ENDBRANCH   1  22
TORSDOF 6
ENDMDL
MODEL 2
REMARK VINA RESULT:      -8.1      1.489      1.645
REMARK  6 active torsions:
REMARK  status: ('A' for Active; 'I' for Inactive)
REMARK    1  A    between atoms: C_2  and  C_3 
REMARK    2  A    between atoms: C_7  and  C_8 
REMARK       I    between atoms: C_8  and  N_9 
REMARK    3  A    between atoms: N_9  and  C_10 
REMARK    4  A    between atoms: C_10  and  C_11 
REMARK    5  A    between atoms: C_10  and  C_19 
REMARK    6  A    between atoms: C_14  and  O_15 
ROOT
HETATM    1  C   UNL     1      -6.421   0.741 -32.871  1.00  0.00     0.151 C 
ENDROOT
BRANCH   1   2
HETATM    2  N   UNL     1      -5.721   1.919 -33.351  1.00  0.00    -0.343 N 
HETATM    3  C   UNL     1      -4.918   2.677 -32.540  1.00  0.00     0.270 C 
HETATM    4  O   UNL     1      -4.763   2.446 -31.344  1.00  0.00    -0.266 OA
HETATM    5  H   UNL     1      -5.987   2.280 -34.254  1.00  0.00     0.163 HD
BRANCH   3   6
HETATM    6  C   UNL     1      -4.241   3.758 -33.203  1.00  0.00     0.119 A 
HETATM    7  N   UNL     1      -4.908   4.640 -34.009  1.00  0.00    -0.273 N 
HETATM    8  N   UNL     1      -4.140   5.630 -34.495  1.00  0.00    -0.179 NA
HETATM    9  H   UNL     1      -5.896   4.622 -34.245  1.00  0.00     0.189 HD
HETATM   10  C   UNL     1      -2.932   5.384 -33.977  1.00  0.00     0.056 A 
HETATM   11  C   UNL     1      -2.936   4.212 -33.184  1.00  0.00     0.065 A 
BRANCH  10  12
HETATM   12  C   UNL     1      -1.793   6.311 -34.235  1.00  0.00     0.056 C 
HETATM   13  C   UNL     1      -1.813   7.515 -33.305  1.00  0.00     0.011 C 
ENDBRANCH  10  12
ENDBRANCH   3   6
ENDBRANCH   1   2
BRANCH   1  14
HETATM   14  C   UNL     1      -7.908   0.892 -33.177  1.00  0.00    -0.031 A 
HETATM   15  C   UNL     1      -8.868   0.040 -32.611  1.00  0.00     0.012 A 
HETATM   16  C   UNL     1     -10.227   0.223 -32.884  1.00  0.00     0.037 A 
HETATM   17  C   UNL     1     -10.654   1.251 -33.727  1.00  0.00     0.068 A 
HETATM   18  C   UNL     1      -9.705   2.083 -34.319  1.00  0.00     0.037 A 
HETATM   19  C   UNL     1      -8.344   1.901 -34.050  1.00  0.00     0.012 A 
BRANCH  17  20
HETATM   20  O   UNL     1     -12.009   1.331 -33.893  1.00  0.00    -0.356 OA
HETATM   21  C   UNL     1     -12.475   1.635 -35.202  1.00  0.00     0.210 C 
ENDBRANCH  17  20
ENDBRANCH   1  14
BRANCH   1  22
HETATM   22  C   UNL     1      -5.798  -0.554 -33.408  1.00  0.00    -0.031 A 
HETATM   23  C   UNL     1      -4.654  -1.128 -32.826  1.00  0.00     0.009 A 
HETATM   24  C   UNL     1      -4.119  -2.325 -33.312  1.00  0.00     0.001 A 
HETATM   25  C   UNL     1      -4.732  -2.982 -34.375  1.00  0.00     0.000 A 
HETATM   26  C   UNL     1      -5.885  -2.451 -34.945  1.00  0.00     0.001 A 
HETATM   27  C   UNL     1      -6.419  -1.254 -34.460  1.00  0.00     0.009 A 
ENDBRANCH   1  22
TORSDOF 6
ENDMDL
MODEL 3
REMARK VINA RESULT:      -8.1      2.626      7.232
REMARK  6 active torsions:
REMARK  status: ('A' for Active; 'I' for Inactive)
REMARK    1  A    between atoms: C_2  and  C_3 
REMARK    2  A    between atoms: C_7  and  C_8 
REMARK       I    between atoms: C_8  and  N_9 
REMARK    3  A    between atoms: N_9  and  C_10 
REMARK    4  A    between atoms: C_10  and  C_11 
REMARK    5  A    between atoms: C_10  and  C_19 
REMARK    6  A    between atoms: C_14  and  O_15 
ROOT
HETATM    1  C   UNL     1      -6.398   0.974 -32.618  1.00  0.00     0.151 C 
ENDROOT
BRANCH   1   2
HETATM    2  N   UNL     1      -7.802   1.058 -32.981  1.00  0.00    -0.343 N 
HETATM    3  C   UNL     1      -8.756   1.520 -32.113  1.00  0.00     0.270 C 
HETATM    4  O   UNL     1      -8.509   1.856 -30.959  1.00  0.00    -0.266 OA
HETATM    5  H   UNL     1      -8.091   0.590 -33.825  1.00  0.00     0.163 HD
BRANCH   3   6
HETATM    6  C   UNL     1     -10.080   1.610 -32.667  1.00  0.00     0.119 A 
HETATM    7  N   UNL     1     -10.892   2.685 -32.426  1.00  0.00    -0.273 N 
HETATM    8  N   UNL     1     -12.068   2.643 -33.074  1.00  0.00    -0.179 NA
HETATM    9  H   UNL     1     -10.680   3.487 -31.840  1.00  0.00     0.189 HD
HETATM   10  C   UNL     1     -12.013   1.501 -33.766  1.00  0.00     0.056 A 
HETATM   11  C   UNL     1     -10.804   0.805 -33.527  1.00  0.00     0.065 A 
BRANCH  10  12
HETATM   12  C   UNL     1     -13.127   1.112 -34.679  1.00  0.00     0.056 C 
HETATM   13  C   UNL     1     -14.199   0.304 -33.961  1.00  0.00     0.011 C 
ENDBRANCH  10  12
ENDBRANCH   3   6
ENDBRANCH   1   2
BRANCH   1  14
HETATM   14  C   UNL     1      -5.821  -0.324 -33.176  1.00  0.00    -0.031 A 
HETATM   15  C   UNL     1      -4.688  -0.929 -32.614  1.00  0.00     0.012 A 
HETATM   16  C   UNL     1      -4.201  -2.136 -33.126  1.00  0.00     0.037 A 
HETATM   17  C   UNL     1      -4.830  -2.759 -34.206  1.00  0.00     0.068 A 
HETATM   18  C   UNL     1      -5.939  -2.149 -34.790  1.00  0.00     0.037 A 
HETATM   19  C   UNL     1      -6.428  -0.940 -34.283  1.00  0.00     0.012 A 
BRANCH  17  20
HETATM   20  O   UNL     1      -4.266  -3.943 -34.594  1.00  0.00    -0.356 OA
HETATM   21  C   UNL     1      -3.495  -4.633 -33.618  1.00  0.00     0.210 C 
ENDBRANCH  17  20
ENDBRANCH   1  14
BRANCH   1  22
HETATM   22  C   UNL     1      -5.624   2.232 -33.032  1.00  0.00    -0.031 A 
HETATM   23  C   UNL     1      -6.133   3.144 -33.974  1.00  0.00     0.009 A 
HETATM   24  C   UNL     1      -5.426   4.301 -34.315  1.00  0.00     0.001 A 
HETATM   25  C   UNL     1      -4.206   4.578 -33.705  1.00  0.00     0.000 A 
HETATM   26  C   UNL     1      -3.698   3.708 -32.745  1.00  0.00     0.001 A 
HETATM   27  C   UNL     1      -4.405   2.551 -32.405  1.00  0.00     0.009 A 
ENDBRANCH   1  22
TORSDOF 6
ENDMDL
MODEL 4
REMARK VINA RESULT:      -7.9      2.743      7.181
REMARK  6 active torsions:
REMARK  status: ('A' for Active; 'I' for Inactive)
REMARK    1  A    between atoms: C_2  and  C_3 
REMARK    2  A    between atoms: C_7  and  C_8 
REMARK       I    between atoms: C_8  and  N_9 
REMARK    3  A    between atoms: N_9  and  C_10 
REMARK    4  A    between atoms: C_10  and  C_11 
REMARK    5  A    between atoms: C_10  and  C_19 
REMARK    6  A    between atoms: C_14  and  O_15 
ROOT
HETATM    1  C   UNL     1      -6.465   1.036 -32.771  1.00  0.00     0.151 C 
ENDROOT
BRANCH   1   2
HETATM    2  N   UNL     1      -7.800   1.117 -33.336  1.00  0.00    -0.343 N 
HETATM    3  C   UNL     1      -8.922   0.821 -32.609  1.00  0.00     0.270 C 
HETATM    4  O   UNL     1      -8.885   0.428 -31.446  1.00  0.00    -0.266 OA
HETATM    5  H   UNL     1      -7.874   1.214 -34.336  1.00  0.00     0.163 HD
BRANCH   3   6
HETATM    6  C   UNL     1     -10.163   1.032 -33.304  1.00  0.00     0.119 A 
HETATM    7  N   UNL     1     -11.282   0.295 -33.023  1.00  0.00    -0.273 N 
HETATM    8  N   UNL     1     -12.372   0.666 -33.714  1.00  0.00    -0.179 NA
HETATM    9  H   UNL     1     -11.358  -0.463 -32.352  1.00  0.00     0.189 HD
HETATM   10  C   UNL     1     -11.946   1.687 -34.465  1.00  0.00     0.056 A 
HETATM   11  C   UNL     1     -10.568   1.939 -34.265  1.00  0.00     0.065 A 
BRANCH  10  12
HETATM   12  C   UNL     1     -12.893   2.428 -35.347  1.00  0.00     0.056 C 
HETATM   13  C   UNL     1     -12.704   3.936 -35.250  1.00  0.00     0.011 C 
ENDBRANCH  10  12
ENDBRANCH   3   6
ENDBRANCH   1   2
BRANCH   1  14
HETATM   14  C   UNL     1      -5.822  -0.278 -33.208  1.00  0.00    -0.031 A 
HETATM   15  C   UNL     1      -6.268  -0.976 -34.339  1.00  0.00     0.012 A 
HETATM   16  C   UNL     1      -5.639  -2.160 -34.734  1.00  0.00     0.037 A 
HETATM   17  C   UNL     1      -4.559  -2.672 -34.011  1.00  0.00     0.068 A 
HETATM   18  C   UNL     1      -4.129  -2.000 -32.867  1.00  0.00     0.037 A 
HETATM   19  C   UNL     1      -4.758  -0.816 -32.466  1.00  0.00     0.012 A 
BRANCH  17  20
HETATM   20  O   UNL     1      -4.023  -3.824 -34.516  1.00  0.00    -0.356 OA
HETATM   21  C   UNL     1      -3.459  -4.731 -33.577  1.00  0.00     0.210 C 
ENDBRANCH  17  20
ENDBRANCH   1  14
BRANCH   1  22
HETATM   22  C   UNL     1      -5.629   2.281 -33.096  1.00  0.00    -0.031 A 
HETATM   23  C   UNL     1      -6.072   3.259 -34.005  1.00  0.00     0.009 A 
HETATM   24  C   UNL     1      -5.310   4.402 -34.265  1.00  0.00     0.001 A 
HETATM   25  C   UNL     1      -4.100   4.598 -33.606  1.00  0.00     0.000 A 
HETATM   26  C   UNL     1      -3.657   3.661 -32.678  1.00  0.00     0.001 A 
HETATM   27  C   UNL     1      -4.419   2.518 -32.418  1.00  0.00     0.009 A 
ENDBRANCH   1  22
TORSDOF 6
ENDMDL
MODEL 5
REMARK VINA RESULT:      -7.8      0.985      1.409
REMARK  6 active torsions:
REMARK  status: ('A' for Active; 'I' for Inactive)
REMARK    1  A    between atoms: C_2  and  C_3 
REMARK    2  A    between atoms: C_7  and  C_8 
REMARK       I    between atoms: C_8  and  N_9 
REMARK    3  A    between atoms: N_9  and  C_10 
REMARK    4  A    between atoms: C_10  and  C_11 
REMARK    5  A    between atoms: C_10  and  C_19 
REMARK    6  A    between atoms: C_14  and  O_15 
ROOT
HETATM    1  C   UNL     1      -6.823   0.061 -32.439  1.00  0.00     0.151 C 
ENDROOT
BRANCH   1   2
HETATM    2  N   UNL     1      -5.892   1.172 -32.360  1.00  0.00    -0.343 N 
HETATM    3  C   UNL     1      -5.454   1.677 -31.164  1.00  0.00     0.270 C 
HETATM    4  O   UNL     1      -5.843   1.261 -30.077  1.00  0.00    -0.266 OA
HETATM    5  H   UNL     1      -5.718   1.691 -33.205  1.00  0.00     0.163 HD
BRANCH   3   6
HETATM    6  C   UNL     1      -4.474   2.723 -31.275  1.00  0.00     0.119 A 
HETATM    7  N   UNL     1      -3.270   2.520 -31.892  1.00  0.00    -0.273 N 
HETATM    8  N   UNL     1      -2.500   3.619 -31.970  1.00  0.00    -0.179 NA
HETATM    9  H   UNL     1      -2.932   1.652 -32.297  1.00  0.00     0.189 HD
HETATM   10  C   UNL     1      -3.237   4.570 -31.388  1.00  0.00     0.056 A 
HETATM   11  C   UNL     1      -4.467   4.057 -30.913  1.00  0.00     0.065 A 
BRANCH  10  12
HETATM   12  C   UNL     1      -2.748   5.978 -31.326  1.00  0.00     0.056 C 
HETATM   13  C   UNL     1      -3.022   6.736 -32.617  1.00  0.00     0.011 C 
ENDBRANCH  10  12
ENDBRANCH   3   6
ENDBRANCH   1   2
BRANCH   1  14
HETATM   14  C   UNL     1      -8.149   0.567 -33.003  1.00  0.00    -0.031 A 
HETATM   15  C   UNL     1      -9.372  -0.023 -32.652  1.00  0.00     0.012 A 
HETATM   16  C   UNL     1     -10.573   0.483 -33.158  1.00  0.00     0.037 A 
HETATM   17  C   UNL     1     -10.579   1.579 -34.024  1.00  0.00     0.068 A 
HETATM   18  C   UNL     1      -9.365   2.152 -34.402  1.00  0.00     0.037 A 
HETATM   19  C   UNL     1      -8.161   1.647 -33.900  1.00  0.00     0.012 A 
BRANCH  17  20
HETATM   20  O   UNL     1     -11.820   1.985 -34.428  1.00  0.00    -0.356 OA
HETATM   21  C   UNL     1     -12.875   1.851 -33.484  1.00  0.00     0.210 C 
ENDBRANCH  17  20
ENDBRANCH   1  14
BRANCH   1  22
HETATM   22  C   UNL     1      -6.231  -1.129 -33.205  1.00  0.00    -0.031 A 
HETATM   23  C   UNL     1      -7.012  -1.931 -34.057  1.00  0.00     0.009 A 
HETATM   24  C   UNL     1      -6.446  -2.992 -34.770  1.00  0.00     0.001 A 
HETATM   25  C   UNL     1      -5.085  -3.259 -34.661  1.00  0.00     0.000 A 
HETATM   26  C   UNL     1      -4.284  -2.458 -33.851  1.00  0.00     0.001 A 
HETATM   27  C   UNL     1      -4.850  -1.398 -33.137  1.00  0.00     0.009 A 
ENDBRANCH   1  22
TORSDOF 6
ENDMDL
MODEL 6
REMARK VINA RESULT:      -7.8      2.822      6.799
REMARK  6 active torsions:
REMARK  status: ('A' for Active; 'I' for Inactive)
REMARK    1  A    between atoms: C_2  and  C_3 
REMARK    2  A    between atoms: C_7  and  C_8 
REMARK       I    between atoms: C_8  and  N_9 
REMARK    3  A    between atoms: N_9  and  C_10 
REMARK    4  A    between atoms: C_10  and  C_11 
REMARK    5  A    between atoms: C_10  and  C_19 
REMARK    6  A    between atoms: C_14  and  O_15 
ROOT
HETATM    1  C   UNL     1      -7.104   0.988 -33.973  1.00  0.00     0.151 C 
ENDROOT
BRANCH   1   2
HETATM    2  N   UNL     1      -8.551   0.878 -34.022  1.00  0.00    -0.343 N 
HETATM    3  C   UNL     1      -9.359   1.953 -34.286  1.00  0.00     0.270 C 
HETATM    4  O   UNL     1      -8.930   3.089 -34.458  1.00  0.00    -0.266 OA
HETATM    5  H   UNL     1      -8.964   0.029 -33.670  1.00  0.00     0.163 HD
BRANCH   3   6
HETATM    6  C   UNL     1     -10.761   1.645 -34.374  1.00  0.00     0.119 A 
HETATM    7  N   UNL     1     -11.499   1.956 -35.484  1.00  0.00    -0.273 N 
HETATM    8  N   UNL     1     -12.775   1.538 -35.431  1.00  0.00    -0.179 NA
HETATM    9  H   UNL     1     -11.172   2.437 -36.316  1.00  0.00     0.189 HD
HETATM   10  C   UNL     1     -12.864   0.926 -34.246  1.00  0.00     0.056 A 
HETATM   11  C   UNL     1     -11.642   0.987 -33.536  1.00  0.00     0.065 A 
BRANCH  10  12
HETATM   12  C   UNL     1     -14.132   0.260 -33.828  1.00  0.00     0.056 C 
HETATM   13  C   UNL     1     -15.222   1.267 -33.490  1.00  0.00     0.011 C 
ENDBRANCH  10  12
ENDBRANCH   3   6
ENDBRANCH   1   2
BRANCH   1  14
HETATM   14  C   UNL     1      -6.712   1.790 -32.735  1.00  0.00    -0.031 A 
HETATM   15  C   UNL     1      -7.187   1.455 -31.458  1.00  0.00     0.012 A 
HETATM   16  C   UNL     1      -6.784   2.188 -30.338  1.00  0.00     0.037 A 
HETATM   17  C   UNL     1      -5.906   3.266 -30.467  1.00  0.00     0.068 A 
HETATM   18  C   UNL     1      -5.453   3.625 -31.736  1.00  0.00     0.037 A 
HETATM   19  C   UNL     1      -5.857   2.896 -32.860  1.00  0.00     0.012 A 
BRANCH  17  20
HETATM   20  O   UNL     1      -5.577   3.883 -29.292  1.00  0.00    -0.356 OA
HETATM   21  C   UNL     1      -5.964   5.245 -29.156  1.00  0.00     0.210 C 
ENDBRANCH  17  20
ENDBRANCH   1  14
BRANCH   1  22
HETATM   22  C   UNL     1      -6.423  -0.383 -34.074  1.00  0.00    -0.031 A 
HETATM   23  C   UNL     1      -7.069  -1.496 -34.640  1.00  0.00     0.009 A 
HETATM   24  C   UNL     1      -6.419  -2.730 -34.750  1.00  0.00     0.001 A 
HETATM   25  C   UNL     1      -5.104  -2.867 -34.317  1.00  0.00     0.000 A 
HETATM   26  C   UNL     1      -4.432  -1.770 -33.784  1.00  0.00     0.001 A 
HETATM   27  C   UNL     1      -5.082  -0.538 -33.673  1.00  0.00     0.009 A 
ENDBRANCH   1  22
TORSDOF 6
ENDMDL
MODEL 7
REMARK VINA RESULT:      -7.7      2.790      7.023
REMARK  6 active torsions:
REMARK  status: ('A' for Active; 'I' for Inactive)
REMARK    1  A    between atoms: C_2  and  C_3 
REMARK    2  A    between atoms: C_7  and  C_8 
REMARK       I    between atoms: C_8  and  N_9 
REMARK    3  A    between atoms: N_9  and  C_10 
REMARK    4  A    between atoms: C_10  and  C_11 
REMARK    5  A    between atoms: C_10  and  C_19 
REMARK    6  A    between atoms: C_14  and  O_15 
ROOT
HETATM    1  C   UNL     1      -5.112   1.995 -31.609  1.00  0.00     0.151 C 
ENDROOT
BRANCH   1   2
HETATM    2  N   UNL     1      -4.992   0.731 -32.314  1.00  0.00    -0.343 N 
HETATM    3  C   UNL     1      -4.113  -0.245 -31.925  1.00  0.00     0.270 C 
HETATM    4  O   UNL     1      -3.336  -0.112 -30.984  1.00  0.00    -0.266 OA
HETATM    5  H   UNL     1      -5.438   0.660 -33.215  1.00  0.00     0.163 HD
BRANCH   3   6
HETATM    6  C   UNL     1      -4.186  -1.460 -32.689  1.00  0.00     0.119 A 
HETATM    7  N   UNL     1      -3.399  -2.542 -32.400  1.00  0.00    -0.273 N 
HETATM    8  N   UNL     1      -3.642  -3.618 -33.167  1.00  0.00    -0.179 NA
HETATM    9  H   UNL     1      -2.693  -2.603 -31.673  1.00  0.00     0.189 HD
HETATM   10  C   UNL     1      -4.627  -3.222 -33.977  1.00  0.00     0.056 A 
HETATM   11  C   UNL     1      -4.986  -1.874 -33.738  1.00  0.00     0.065 A 
BRANCH  10  12
HETATM   12  C   UNL     1      -5.232  -4.168 -34.958  1.00  0.00     0.056 C 
HETATM   13  C   UNL     1      -6.754  -4.149 -34.908  1.00  0.00     0.011 C 
ENDBRANCH  10  12
ENDBRANCH   3   6
ENDBRANCH   1   2
BRANCH   1  14
HETATM   14  C   UNL     1      -4.401   3.079 -32.414  1.00  0.00    -0.031 A 
HETATM   15  C   UNL     1      -5.074   3.844 -33.378  1.00  0.00     0.012 A 
HETATM   16  C   UNL     1      -4.404   4.852 -34.077  1.00  0.00     0.037 A 
HETATM   17  C   UNL     1      -3.054   5.115 -33.832  1.00  0.00     0.068 A 
HETATM   18  C   UNL     1      -2.369   4.339 -32.898  1.00  0.00     0.037 A 
HETATM   19  C   UNL     1      -3.035   3.327 -32.199  1.00  0.00     0.012 A 
BRANCH  17  20
HETATM   20  O   UNL     1      -2.527   6.140 -34.568  1.00  0.00    -0.356 OA
HETATM   21  C   UNL     1      -1.892   7.186 -33.844  1.00  0.00     0.210 C 
ENDBRANCH  17  20
ENDBRANCH   1  14
BRANCH   1  22
HETATM   22  C   UNL     1      -6.571   2.324 -31.268  1.00  0.00    -0.031 A 
HETATM   23  C   UNL     1      -7.646   1.610 -31.828  1.00  0.00     0.009 A 
HETATM   24  C   UNL     1      -8.969   1.905 -31.481  1.00  0.00     0.001 A 
HETATM   25  C   UNL     1      -9.239   2.905 -30.552  1.00  0.00     0.000 A 
HETATM   26  C   UNL     1      -8.191   3.602 -29.959  1.00  0.00     0.001 A 
HETATM   27  C   UNL     1      -6.869   3.308 -30.307  1.00  0.00     0.009 A 
ENDBRANCH   1  22
TORSDOF 6
ENDMDL
MODEL 8
REMARK VINA RESULT:      -7.7      2.658      5.141
REMARK  6 active torsions:
REMARK  status: ('A' for Active; 'I' for Inactive)
REMARK    1  A    between atoms: C_2  and  C_3 
REMARK    2  A    between atoms: C_7  and  C_8 
REMARK       I    between atoms: C_8  and  N_9 
REMARK    3  A    between atoms: N_9  and  C_10 
REMARK    4  A    between atoms: C_10  and  C_11 
REMARK    5  A    between atoms: C_10  and  C_19 
REMARK    6  A    between atoms: C_14  and  O_15 
ROOT
HETATM    1  C   UNL     1      -6.442   2.438 -33.577  1.00  0.00     0.151 C 
ENDROOT
BRANCH   1   2
HETATM    2  N   UNL     1      -5.159   3.066 -33.315  1.00  0.00    -0.343 N 
HETATM    3  C   UNL     1      -4.846   4.315 -33.781  1.00  0.00     0.270 C 
HETATM    4  O   UNL     1      -5.602   4.979 -34.484  1.00  0.00    -0.266 OA
HETATM    5  H   UNL     1      -4.427   2.484 -32.941  1.00  0.00     0.163 HD
BRANCH   3   6
HETATM    6  C   UNL     1      -3.564   4.812 -33.359  1.00  0.00     0.119 A 
HETATM    7  N   UNL     1      -3.133   6.068 -33.690  1.00  0.00    -0.273 N 
HETATM    8  N   UNL     1      -1.944   6.398 -33.158  1.00  0.00    -0.179 NA
HETATM    9  H   UNL     1      -3.624   6.749 -34.261  1.00  0.00     0.189 HD
HETATM   10  C   UNL     1      -1.596   5.318 -32.451  1.00  0.00     0.056 A 
HETATM   11  C   UNL     1      -2.561   4.290 -32.564  1.00  0.00     0.065 A 
BRANCH  10  12
HETATM   12  C   UNL     1      -0.340   5.310 -31.646  1.00  0.00     0.056 C 
HETATM   13  C   UNL     1       0.152   6.717 -31.340  1.00  0.00     0.011 C 
ENDBRANCH  10  12
ENDBRANCH   3   6
ENDBRANCH   1   2
BRANCH   1  14
HETATM   14  C   UNL     1      -6.221   0.948 -33.826  1.00  0.00    -0.031 A 
HETATM   15  C   UNL     1      -5.214   0.231 -33.164  1.00  0.00     0.012 A 
HETATM   16  C   UNL     1      -5.056  -1.139 -33.388  1.00  0.00     0.037 A 
HETATM   17  C   UNL     1      -5.893  -1.820 -34.275  1.00  0.00     0.068 A 
HETATM   18  C   UNL     1      -6.877  -1.109 -34.961  1.00  0.00     0.037 A 
HETATM   19  C   UNL     1      -7.036   0.264 -34.742  1.00  0.00     0.012 A 
BRANCH  17  20
HETATM   20  O   UNL     1      -5.645  -3.160 -34.386  1.00  0.00    -0.356 OA
HETATM   21  C   UNL     1      -6.682  -3.958 -34.942  1.00  0.00     0.210 C 
ENDBRANCH  17  20
ENDBRANCH   1  14
BRANCH   1  22
HETATM   22  C   UNL     1      -7.464   2.744 -32.475  1.00  0.00    -0.031 A 
HETATM   23  C   UNL     1      -8.845   2.801 -32.735  1.00  0.00     0.009 A 
HETATM   24  C   UNL     1      -9.764   3.051 -31.710  1.00  0.00     0.001 A 
HETATM   25  C   UNL     1      -9.320   3.228 -30.403  1.00  0.00     0.000 A 
HETATM   26  C   UNL     1      -7.960   3.142 -30.116  1.00  0.00     0.001 A 
HETATM   27  C   UNL     1      -7.043   2.893 -31.140  1.00  0.00     0.009 A 
ENDBRANCH   1  22
TORSDOF 6
ENDMDL
MODEL 9
REMARK VINA RESULT:      -7.5     15.080     16.259
REMARK  6 active torsions:
REMARK  status: ('A' for Active; 'I' for Inactive)
REMARK    1  A    between atoms: C_2  and  C_3 
REMARK    2  A    between atoms: C_7  and  C_8 
REMARK       I    between atoms: C_8  and  N_9 
REMARK    3  A    between atoms: N_9  and  C_10 
REMARK    4  A    between atoms: C_10  and  C_11 
REMARK    5  A    between atoms: C_10  and  C_19 
REMARK    6  A    between atoms: C_14  and  O_15 
ROOT
HETATM    1  C   UNL     1      -6.428 -13.383 -37.353  1.00  0.00     0.151 C 
ENDROOT
BRANCH   1   2
HETATM    2  N   UNL     1      -5.267 -13.726 -38.154  1.00  0.00    -0.343 N 
HETATM    3  C   UNL     1      -4.105 -13.002 -38.109  1.00  0.00     0.270 C 
HETATM    4  O   UNL     1      -3.971 -11.991 -37.426  1.00  0.00    -0.266 OA
HETATM    5  H   UNL     1      -5.395 -14.402 -38.891  1.00  0.00     0.163 HD
BRANCH   3   6
HETATM    6  C   UNL     1      -3.033 -13.532 -38.907  1.00  0.00     0.119 A 
HETATM    7  N   UNL     1      -3.138 -13.654 -40.266  1.00  0.00    -0.273 N 
HETATM    8  N   UNL     1      -2.022 -14.102 -40.865  1.00  0.00    -0.179 NA
HETATM    9  H   UNL     1      -3.946 -13.425 -40.837  1.00  0.00     0.189 HD
HETATM   10  C   UNL     1      -1.160 -14.269 -39.857  1.00  0.00     0.056 A 
HETATM   11  C   UNL     1      -1.750 -13.952 -38.611  1.00  0.00     0.065 A 
BRANCH  10  12
HETATM   12  C   UNL     1       0.241 -14.708 -40.121  1.00  0.00     0.056 C 
HETATM   13  C   UNL     1       1.130 -14.548 -38.896  1.00  0.00     0.011 C 
ENDBRANCH  10  12
ENDBRANCH   3   6
ENDBRANCH   1   2
BRANCH   1  14
HETATM   14  C   UNL     1      -7.684 -13.558 -38.204  1.00  0.00    -0.031 A 
HETATM   15  C   UNL     1      -8.264 -14.818 -38.412  1.00  0.00     0.012 A 
HETATM   16  C   UNL     1      -9.433 -14.944 -39.169  1.00  0.00     0.037 A 
HETATM   17  C   UNL     1     -10.042 -13.822 -39.734  1.00  0.00     0.068 A 
HETATM   18  C   UNL     1      -9.455 -12.569 -39.559  1.00  0.00     0.037 A 
HETATM   19  C   UNL     1      -8.283 -12.440 -38.805  1.00  0.00     0.012 A 
BRANCH  17  20
HETATM   20  O   UNL     1     -11.189 -14.081 -40.432  1.00  0.00    -0.356 OA
HETATM   21  C   UNL     1     -11.112 -15.087 -41.434  1.00  0.00     0.210 C 
ENDBRANCH  17  20
ENDBRANCH   1  14
BRANCH   1  22
HETATM   22  C   UNL     1      -6.458 -14.154 -36.028  1.00  0.00    -0.031 A 
HETATM   23  C   UNL     1      -5.807 -15.391 -35.870  1.00  0.00     0.009 A 
HETATM   24  C   UNL     1      -5.820 -16.063 -34.644  1.00  0.00     0.001 A 
HETATM   25  C   UNL     1      -6.465 -15.501 -33.547  1.00  0.00     0.000 A 
HETATM   26  C   UNL     1      -7.087 -14.262 -33.669  1.00  0.00     0.001 A 
HETATM   27  C   UNL     1      -7.075 -13.590 -34.895  1.00  0.00     0.009 A 
ENDBRANCH   1  22
TORSDOF 6
ENDMDL
MODEL 10
REMARK VINA RESULT:      -7.4      2.994      5.827
REMARK  6 active torsions:
REMARK  status: ('A' for Active; 'I' for Inactive)
REMARK    1  A    between atoms: C_2  and  C_3 
REMARK    2  A    between atoms: C_7  and  C_8 
REMARK       I    between atoms: C_8  and  N_9 
REMARK    3  A    between atoms: N_9  and  C_10 
REMARK    4  A    between atoms: C_10  and  C_11 
REMARK    5  A    between atoms: C_10  and  C_19 
REMARK    6  A    between atoms: C_14  and  O_15 
ROOT
HETATM    1  C   UNL     1      -5.567   2.694 -33.082  1.00  0.00     0.151 C 
ENDROOT
BRANCH   1   2
HETATM    2  N   UNL     1      -4.409   3.567 -33.020  1.00  0.00    -0.343 N 
HETATM    3  C   UNL     1      -4.214   4.590 -33.910  1.00  0.00     0.270 C 
HETATM    4  O   UNL     1      -4.975   4.821 -34.845  1.00  0.00    -0.266 OA
HETATM    5  H   UNL     1      -3.649   3.287 -32.421  1.00  0.00     0.163 HD
BRANCH   3   6
HETATM    6  C   UNL     1      -3.056   5.402 -33.651  1.00  0.00     0.119 A 
HETATM    7  N   UNL     1      -2.671   6.402 -34.502  1.00  0.00    -0.273 N 
HETATM    8  N   UNL     1      -1.610   7.107 -34.076  1.00  0.00    -0.179 NA
HETATM    9  H   UNL     1      -3.113   6.658 -35.379  1.00  0.00     0.189 HD
HETATM   10  C   UNL     1      -1.301   6.548 -32.902  1.00  0.00     0.056 A 
HETATM   11  C   UNL     1      -2.157   5.463 -32.602  1.00  0.00     0.065 A 
BRANCH  10  12
HETATM   12  C   UNL     1      -0.193   7.096 -32.068  1.00  0.00     0.056 C 
HETATM   13  C   UNL     1       0.040   6.270 -30.811  1.00  0.00     0.011 C 
ENDBRANCH  10  12
ENDBRANCH   3   6
ENDBRANCH   1   2
BRANCH   1  14
HETATM   14  C   UNL     1      -5.095   1.243 -33.027  1.00  0.00    -0.031 A 
HETATM   15  C   UNL     1      -5.849   0.201 -33.587  1.00  0.00     0.012 A 
HETATM   16  C   UNL     1      -5.375  -1.114 -33.551  1.00  0.00     0.037 A 
HETATM   17  C   UNL     1      -4.148  -1.416 -32.956  1.00  0.00     0.068 A 
HETATM   18  C   UNL     1      -3.407  -0.390 -32.369  1.00  0.00     0.037 A 
HETATM   19  C   UNL     1      -3.879   0.927 -32.401  1.00  0.00     0.012 A 
BRANCH  17  20
HETATM   20  O   UNL     1      -3.794  -2.736 -33.007  1.00  0.00    -0.356 OA
HETATM   21  C   UNL     1      -3.028  -3.234 -31.917  1.00  0.00     0.210 C 
ENDBRANCH  17  20
ENDBRANCH   1  14
BRANCH   1  22
HETATM   22  C   UNL     1      -6.612   3.053 -32.018  1.00  0.00    -0.031 A 
HETATM   23  C   UNL     1      -6.251   3.371 -30.696  1.00  0.00     0.009 A 
HETATM   24  C   UNL     1      -7.216   3.726 -29.749  1.00  0.00     0.001 A 
HETATM   25  C   UNL     1      -8.558   3.789 -30.110  1.00  0.00     0.000 A 
HETATM   26  C   UNL     1      -8.937   3.512 -31.421  1.00  0.00     0.001 A 
HETATM   27  C   UNL     1      -7.972   3.156 -32.367  1.00  0.00     0.009 A 
ENDBRANCH   1  22
TORSDOF 6
ENDMDL
