MODEL 1
REMARK VINA RESULT:      -8.5      0.000      0.000
REMARK  4 active torsions:
REMARK  status: ('A' for Active; 'I' for Inactive)
REMARK    1  A    between atoms: C_6  and  C_7 
REMARK    2  A    between atoms: C_9  and  C_10 
REMARK    3  A    between atoms: C_10  and  C_11 
REMARK    4  A    between atoms: C_15  and  N_16 
ROOT
HETATM    1  C   UNL     1      -4.356   0.856 -32.681  1.00  0.00     0.112 A 
HETATM    2  O   UNL     1      -4.840   2.068 -33.098  1.00  0.00    -0.308 OA
HETATM    3  C   UNL     1      -4.233   3.086 -32.390  1.00  0.00     0.077 A 
HETATM    4  C   UNL     1      -3.365   2.485 -31.488  1.00  0.00     0.040 A 
HETATM    5  C   UNL     1      -3.435   1.085 -31.677  1.00  0.00     0.043 A 
ENDROOT
BRANCH   3   6
HETATM    6  C   UNL     1      -4.586   4.443 -32.638  1.00  0.00     0.059 C 
BRANCH   6   7
HETATM    7  C   UNL     1      -3.751   5.472 -32.824  1.00  0.00     0.053 A 
HETATM    8  S   UNL     1      -2.963   6.487 -31.682  1.00  0.00    -0.024 SA
HETATM    9  C   UNL     1      -2.235   7.436 -32.984  1.00  0.00     0.312 A 
HETATM   10  O   UNL     1      -1.527   8.401 -32.745  1.00  0.00    -0.258 OA
HETATM   11  N   UNL     1      -2.540   6.972 -34.243  1.00  0.00    -0.191 NA
HETATM   12  C   UNL     1      -3.331   5.935 -34.189  1.00  0.00     0.122 A 
BRANCH  12  13
HETATM   13  N   UNL     1      -3.707   5.354 -35.369  1.00  0.00    -0.286 NA
HETATM   14  H   UNL     1      -2.973   5.115 -36.024  1.00  0.00     0.125 HD
HETATM   15  H   UNL     1      -4.471   5.854 -35.816  1.00  0.00     0.125 HD
ENDBRANCH  12  13
ENDBRANCH   6   7
ENDBRANCH   3   6
BRANCH   1  16
HETATM   16  C   UNL     1      -4.775  -0.409 -33.220  1.00  0.00     0.133 A 
HETATM   17  S   UNL     1      -6.325  -0.636 -33.915  1.00  0.00    -0.066 SA
HETATM   18  C   UNL     1      -5.943  -2.285 -34.233  1.00  0.00     0.035 A 
HETATM   19  C   UNL     1      -4.646  -2.543 -33.783  1.00  0.00     0.075 A 
HETATM   20  C   UNL     1      -6.730  -3.279 -34.835  1.00  0.00     0.021 A 
HETATM   21  C   UNL     1      -4.119  -3.841 -33.941  1.00  0.00     0.033 A 
HETATM   22  N   UNL     1      -3.992  -1.467 -33.208  1.00  0.00    -0.238 NA
HETATM   23  C   UNL     1      -4.895  -4.839 -34.540  1.00  0.00     0.002 A 
HETATM   24  C   UNL     1      -6.184  -4.559 -34.981  1.00  0.00     0.002 A 
ENDBRANCH   1  16
TORSDOF 4
ENDMDL
MODEL 2
REMARK VINA RESULT:      -8.5      1.654      2.000
REMARK  4 active torsions:
REMARK  status: ('A' for Active; 'I' for Inactive)
REMARK    1  A    between atoms: C_6  and  C_7 
REMARK    2  A    between atoms: C_9  and  C_10 
REMARK    3  A    between atoms: C_10  and  C_11 
REMARK    4  A    between atoms: C_15  and  N_16 
ROOT
HETATM    1  C   UNL     1      -5.132   0.926 -33.093  1.00  0.00     0.112 A 
HETATM    2  O   UNL     1      -3.952   1.399 -32.580  1.00  0.00    -0.308 OA
HETATM    3  C   UNL     1      -4.087   2.729 -32.240  1.00  0.00     0.077 A 
HETATM    4  C   UNL     1      -5.382   3.101 -32.577  1.00  0.00     0.040 A 
HETATM    5  C   UNL     1      -6.041   1.965 -33.104  1.00  0.00     0.043 A 
ENDROOT
BRANCH   3   6
HETATM    6  C   UNL     1      -2.984   3.447 -31.696  1.00  0.00     0.059 C 
BRANCH   6   7
HETATM    7  C   UNL     1      -2.446   4.578 -32.167  1.00  0.00     0.053 A 
HETATM    8  S   UNL     1      -2.949   5.596 -33.458  1.00  0.00    -0.024 SA
HETATM    9  C   UNL     1      -1.555   6.654 -33.205  1.00  0.00     0.312 A 
HETATM   10  O   UNL     1      -1.358   7.624 -33.919  1.00  0.00    -0.258 OA
HETATM   11  N   UNL     1      -0.760   6.276 -32.146  1.00  0.00    -0.191 NA
HETATM   12  C   UNL     1      -1.209   5.191 -31.578  1.00  0.00     0.122 A 
BRANCH  12  13
HETATM   13  N   UNL     1      -0.527   4.704 -30.497  1.00  0.00    -0.286 NA
HETATM   14  H   UNL     1      -0.955   4.819 -29.586  1.00  0.00     0.125 HD
HETATM   15  H   UNL     1       0.449   4.990 -30.499  1.00  0.00     0.125 HD
ENDBRANCH  12  13
ENDBRANCH   6   7
ENDBRANCH   3   6
BRANCH   1  16
HETATM   16  C   UNL     1      -5.334  -0.426 -33.541  1.00  0.00     0.133 A 
HETATM   17  S   UNL     1      -6.812  -0.946 -34.234  1.00  0.00    -0.066 SA
HETATM   18  C   UNL     1      -6.167  -2.531 -34.424  1.00  0.00     0.035 A 
HETATM   19  C   UNL     1      -4.856  -2.546 -33.942  1.00  0.00     0.075 A 
HETATM   20  C   UNL     1      -6.773  -3.679 -34.959  1.00  0.00     0.021 A 
HETATM   21  C   UNL     1      -4.127  -3.751 -33.997  1.00  0.00     0.033 A 
HETATM   22  N   UNL     1      -4.394  -1.341 -33.442  1.00  0.00    -0.238 NA
HETATM   23  C   UNL     1      -4.722  -4.900 -34.529  1.00  0.00     0.002 A 
HETATM   24  C   UNL     1      -6.028  -4.862 -35.003  1.00  0.00     0.002 A 
ENDBRANCH   1  16
TORSDOF 4
ENDMDL
MODEL 3
REMARK VINA RESULT:      -8.2      2.078      2.519
REMARK  4 active torsions:
REMARK  status: ('A' for Active; 'I' for Inactive)
REMARK    1  A    between atoms: C_6  and  C_7 
REMARK    2  A    between atoms: C_9  and  C_10 
REMARK    3  A    between atoms: C_10  and  C_11 
REMARK    4  A    between atoms: C_15  and  N_16 
ROOT
HETATM    1  C   UNL     1      -6.018   1.025 -32.756  1.00  0.00     0.112 A 
HETATM    2  O   UNL     1      -5.172   2.083 -32.964  1.00  0.00    -0.308 OA
HETATM    3  C   UNL     1      -5.696   3.223 -32.389  1.00  0.00     0.077 A 
HETATM    4  C   UNL     1      -6.916   2.866 -31.830  1.00  0.00     0.040 A 
HETATM    5  C   UNL     1      -7.113   1.484 -32.052  1.00  0.00     0.043 A 
ENDROOT
BRANCH   3   6
HETATM    6  C   UNL     1      -5.000   4.462 -32.487  1.00  0.00     0.059 C 
BRANCH   6   7
HETATM    7  C   UNL     1      -3.844   4.690 -33.121  1.00  0.00     0.053 A 
HETATM    8  S   UNL     1      -3.541   5.316 -34.693  1.00  0.00    -0.024 SA
HETATM    9  C   UNL     1      -1.799   5.123 -34.466  1.00  0.00     0.312 A 
HETATM   10  O   UNL     1      -1.009   5.408 -35.352  1.00  0.00    -0.258 OA
HETATM   11  N   UNL     1      -1.453   4.644 -33.222  1.00  0.00    -0.191 NA
HETATM   12  C   UNL     1      -2.509   4.414 -32.491  1.00  0.00     0.122 A 
BRANCH  12  13
HETATM   13  N   UNL     1      -2.319   3.948 -31.219  1.00  0.00    -0.286 NA
HETATM   14  H   UNL     1      -2.032   4.619 -30.517  1.00  0.00     0.125 HD
HETATM   15  H   UNL     1      -1.749   3.107 -31.200  1.00  0.00     0.125 HD
ENDBRANCH  12  13
ENDBRANCH   6   7
ENDBRANCH   3   6
BRANCH   1  16
HETATM   16  C   UNL     1      -5.766  -0.313 -33.221  1.00  0.00     0.133 A 
HETATM   17  S   UNL     1      -4.217  -1.039 -33.117  1.00  0.00    -0.066 SA
HETATM   18  C   UNL     1      -4.838  -2.470 -33.847  1.00  0.00     0.035 A 
HETATM   19  C   UNL     1      -6.196  -2.288 -34.115  1.00  0.00     0.075 A 
HETATM   20  C   UNL     1      -4.174  -3.667 -34.159  1.00  0.00     0.021 A 
HETATM   21  C   UNL     1      -6.915  -3.340 -34.718  1.00  0.00     0.033 A 
HETATM   22  N   UNL     1      -6.713  -1.056 -33.755  1.00  0.00    -0.238 NA
HETATM   23  C   UNL     1      -6.263  -4.537 -35.033  1.00  0.00     0.002 A 
HETATM   24  C   UNL     1      -4.910  -4.696 -34.756  1.00  0.00     0.002 A 
ENDBRANCH   1  16
TORSDOF 4
ENDMDL
MODEL 4
REMARK VINA RESULT:      -7.9      4.868      6.723
REMARK  4 active torsions:
REMARK  status: ('A' for Active; 'I' for Inactive)
REMARK    1  A    between atoms: C_6  and  C_7 
REMARK    2  A    between atoms: C_9  and  C_10 
REMARK    3  A    between atoms: C_10  and  C_11 
REMARK    4  A    between atoms: C_15  and  N_16 
ROOT
HETATM    1  C   UNL     1      -6.916   0.930 -34.007  1.00  0.00     0.112 A 
HETATM    2  O   UNL     1      -8.228   1.237 -34.258  1.00  0.00    -0.308 OA
HETATM    3  C   UNL     1      -8.431   2.593 -34.104  1.00  0.00     0.077 A 
HETATM    4  C   UNL     1      -7.214   3.140 -33.719  1.00  0.00     0.040 A 
HETATM    5  C   UNL     1      -6.260   2.097 -33.669  1.00  0.00     0.043 A 
ENDROOT
BRANCH   3   6
HETATM    6  C   UNL     1      -9.726   3.152 -34.298  1.00  0.00     0.059 C 
BRANCH   6   7
HETATM    7  C   UNL     1     -10.887   2.491 -34.379  1.00  0.00     0.053 A 
HETATM    8  S   UNL     1     -12.219   2.705 -35.444  1.00  0.00    -0.024 SA
HETATM    9  C   UNL     1     -13.111   1.412 -34.635  1.00  0.00     0.312 A 
HETATM   10  O   UNL     1     -14.243   1.110 -34.980  1.00  0.00    -0.258 OA
HETATM   11  N   UNL     1     -12.406   0.804 -33.621  1.00  0.00    -0.191 NA
HETATM   12  C   UNL     1     -11.229   1.347 -33.469  1.00  0.00     0.122 A 
BRANCH  12  13
HETATM   13  N   UNL     1     -10.406   0.834 -32.505  1.00  0.00    -0.286 NA
HETATM   14  H   UNL     1      -9.480   1.235 -32.422  1.00  0.00     0.125 HD
HETATM   15  H   UNL     1     -10.382  -0.183 -32.523  1.00  0.00     0.125 HD
ENDBRANCH  12  13
ENDBRANCH   6   7
ENDBRANCH   3   6
BRANCH   1  16
HETATM   16  C   UNL     1      -6.368  -0.398 -34.085  1.00  0.00     0.133 A 
HETATM   17  S   UNL     1      -4.786  -0.765 -33.540  1.00  0.00    -0.066 SA
HETATM   18  C   UNL     1      -5.007  -2.410 -34.000  1.00  0.00     0.035 A 
HETATM   19  C   UNL     1      -6.287  -2.559 -34.539  1.00  0.00     0.075 A 
HETATM   20  C   UNL     1      -4.116  -3.490 -33.894  1.00  0.00     0.021 A 
HETATM   21  C   UNL     1      -6.689  -3.834 -34.987  1.00  0.00     0.033 A 
HETATM   22  N   UNL     1      -7.052  -1.407 -34.582  1.00  0.00    -0.238 NA
HETATM   23  C   UNL     1      -5.810  -4.917 -34.886  1.00  0.00     0.002 A 
HETATM   24  C   UNL     1      -4.540  -4.744 -34.346  1.00  0.00     0.002 A 
ENDBRANCH   1  16
TORSDOF 4
ENDMDL
MODEL 5
REMARK VINA RESULT:      -7.8      3.547      4.074
REMARK  4 active torsions:
REMARK  status: ('A' for Active; 'I' for Inactive)
REMARK    1  A    between atoms: C_6  and  C_7 
REMARK    2  A    between atoms: C_9  and  C_10 
REMARK    3  A    between atoms: C_10  and  C_11 
REMARK    4  A    between atoms: C_15  and  N_16 
ROOT
HETATM    1  C   UNL     1      -5.335   2.332 -32.254  1.00  0.00     0.112 A 
HETATM    2  O   UNL     1      -4.563   3.107 -33.080  1.00  0.00    -0.308 OA
HETATM    3  C   UNL     1      -3.322   3.307 -32.511  1.00  0.00     0.077 A 
HETATM    4  C   UNL     1      -3.334   2.660 -31.283  1.00  0.00     0.040 A 
HETATM    5  C   UNL     1      -4.595   2.039 -31.126  1.00  0.00     0.043 A 
ENDROOT
BRANCH   3   6
HETATM    6  C   UNL     1      -2.344   4.098 -33.181  1.00  0.00     0.059 C 
BRANCH   6   7
HETATM    7  C   UNL     1      -2.151   5.416 -33.057  1.00  0.00     0.053 A 
HETATM    8  S   UNL     1      -2.535   6.482 -31.764  1.00  0.00    -0.024 SA
HETATM    9  C   UNL     1      -1.921   7.863 -32.681  1.00  0.00     0.312 A 
HETATM   10  O   UNL     1      -1.968   8.995 -32.229  1.00  0.00    -0.258 OA
HETATM   11  N   UNL     1      -1.398   7.523 -33.909  1.00  0.00    -0.191 NA
HETATM   12  C   UNL     1      -1.500   6.241 -34.130  1.00  0.00     0.122 A 
BRANCH  12  13
HETATM   13  N   UNL     1      -1.005   5.752 -35.308  1.00  0.00    -0.286 NA
HETATM   14  H   UNL     1      -0.250   6.268 -35.745  1.00  0.00     0.125 HD
HETATM   15  H   UNL     1      -1.744   5.523 -35.968  1.00  0.00     0.125 HD
ENDBRANCH  12  13
ENDBRANCH   6   7
ENDBRANCH   3   6
BRANCH   1  16
HETATM   16  C   UNL     1      -6.683   1.930 -32.552  1.00  0.00     0.133 A 
HETATM   17  S   UNL     1      -7.371   0.498 -31.910  1.00  0.00    -0.066 SA
HETATM   18  C   UNL     1      -8.843   0.830 -32.742  1.00  0.00     0.035 A 
HETATM   19  C   UNL     1      -8.700   2.024 -33.453  1.00  0.00     0.075 A 
HETATM   20  C   UNL     1     -10.036   0.092 -32.765  1.00  0.00     0.021 A 
HETATM   21  C   UNL     1      -9.789   2.494 -34.214  1.00  0.00     0.033 A 
HETATM   22  N   UNL     1      -7.466   2.640 -33.337  1.00  0.00    -0.238 NA
HETATM   23  C   UNL     1     -10.983   1.766 -34.244  1.00  0.00     0.002 A 
HETATM   24  C   UNL     1     -11.102   0.580 -33.527  1.00  0.00     0.002 A 
ENDBRANCH   1  16
TORSDOF 4
ENDMDL
MODEL 6
REMARK VINA RESULT:      -7.7      3.129      8.487
REMARK  4 active torsions:
REMARK  status: ('A' for Active; 'I' for Inactive)
REMARK    1  A    between atoms: C_6  and  C_7 
REMARK    2  A    between atoms: C_9  and  C_10 
REMARK    3  A    between atoms: C_10  and  C_11 
REMARK    4  A    between atoms: C_15  and  N_16 
ROOT
HETATM    1  C   UNL     1      -6.380   1.273 -33.428  1.00  0.00     0.112 A 
HETATM    2  O   UNL     1      -5.955   0.187 -34.148  1.00  0.00    -0.308 OA
HETATM    3  C   UNL     1      -6.946  -0.773 -34.178  1.00  0.00     0.077 A 
HETATM    4  C   UNL     1      -8.008  -0.278 -33.432  1.00  0.00     0.040 A 
HETATM    5  C   UNL     1      -7.656   1.011 -32.969  1.00  0.00     0.043 A 
ENDROOT
BRANCH   3   6
HETATM    6  C   UNL     1      -6.731  -2.005 -34.859  1.00  0.00     0.059 C 
BRANCH   6   7
HETATM    7  C   UNL     1      -5.822  -2.941 -34.566  1.00  0.00     0.053 A 
HETATM    8  S   UNL     1      -4.293  -2.804 -33.792  1.00  0.00    -0.024 SA
HETATM    9  C   UNL     1      -4.001  -4.535 -33.995  1.00  0.00     0.312 A 
HETATM   10  O   UNL     1      -2.959  -5.051 -33.623  1.00  0.00    -0.258 OA
HETATM   11  N   UNL     1      -5.048  -5.206 -34.588  1.00  0.00    -0.191 NA
HETATM   12  C   UNL     1      -6.022  -4.393 -34.892  1.00  0.00     0.122 A 
BRANCH  12  13
HETATM   13  N   UNL     1      -7.140  -4.922 -35.474  1.00  0.00    -0.286 NA
HETATM   14  H   UNL     1      -7.524  -4.434 -36.275  1.00  0.00     0.125 HD
HETATM   15  H   UNL     1      -7.855  -5.155 -34.790  1.00  0.00     0.125 HD
ENDBRANCH  12  13
ENDBRANCH   6   7
ENDBRANCH   3   6
BRANCH   1  16
HETATM   16  C   UNL     1      -5.590   2.455 -33.207  1.00  0.00     0.133 A 
HETATM   17  S   UNL     1      -6.056   3.989 -33.811  1.00  0.00    -0.066 SA
HETATM   18  C   UNL     1      -4.641   4.691 -33.123  1.00  0.00     0.035 A 
HETATM   19  C   UNL     1      -3.913   3.692 -32.474  1.00  0.00     0.075 A 
HETATM   20  C   UNL     1      -4.207   6.026 -33.154  1.00  0.00     0.021 A 
HETATM   21  C   UNL     1      -2.706   4.042 -31.833  1.00  0.00     0.033 A 
HETATM   22  N   UNL     1      -4.463   2.424 -32.528  1.00  0.00    -0.238 NA
HETATM   23  C   UNL     1      -2.264   5.368 -31.858  1.00  0.00     0.002 A 
HETATM   24  C   UNL     1      -3.007   6.346 -32.511  1.00  0.00     0.002 A 
ENDBRANCH   1  16
TORSDOF 4
ENDMDL
MODEL 7
REMARK VINA RESULT:      -7.6      3.752      5.018
REMARK  4 active torsions:
REMARK  status: ('A' for Active; 'I' for Inactive)
REMARK    1  A    between atoms: C_6  and  C_7 
REMARK    2  A    between atoms: C_9  and  C_10 
REMARK    3  A    between atoms: C_10  and  C_11 
REMARK    4  A    between atoms: C_15  and  N_16 
ROOT
HETATM    1  C   UNL     1      -2.526   4.152 -32.852  1.00  0.00     0.112 A 
HETATM    2  O   UNL     1      -1.680   4.561 -31.854  1.00  0.00    -0.308 OA
HETATM    3  C   UNL     1      -0.825   5.532 -32.333  1.00  0.00     0.077 A 
HETATM    4  C   UNL     1      -1.131   5.711 -33.676  1.00  0.00     0.040 A 
HETATM    5  C   UNL     1      -2.206   4.851 -33.999  1.00  0.00     0.043 A 
ENDROOT
BRANCH   3   6
HETATM    6  C   UNL     1       0.161   6.105 -31.479  1.00  0.00     0.059 C 
BRANCH   6   7
HETATM    7  C   UNL     1       0.043   6.366 -30.172  1.00  0.00     0.053 A 
HETATM    8  S   UNL     1      -0.639   7.723 -29.366  1.00  0.00    -0.024 SA
HETATM    9  C   UNL     1      -0.210   7.039 -27.793  1.00  0.00     0.312 A 
HETATM   10  O   UNL     1      -0.448   7.638 -26.756  1.00  0.00    -0.258 OA
HETATM   11  N   UNL     1       0.389   5.802 -27.872  1.00  0.00    -0.191 NA
HETATM   12  C   UNL     1       0.528   5.421 -29.112  1.00  0.00     0.122 A 
BRANCH  12  13
HETATM   13  N   UNL     1       1.095   4.198 -29.347  1.00  0.00    -0.286 NA
HETATM   14  H   UNL     1       0.470   3.406 -29.441  1.00  0.00     0.125 HD
HETATM   15  H   UNL     1       1.864   4.004 -28.711  1.00  0.00     0.125 HD
ENDBRANCH  12  13
ENDBRANCH   6   7
ENDBRANCH   3   6
BRANCH   1  16
HETATM   16  C   UNL     1      -3.547   3.153 -32.685  1.00  0.00     0.133 A 
HETATM   17  S   UNL     1      -5.188   3.451 -33.079  1.00  0.00    -0.066 SA
HETATM   18  C   UNL     1      -5.598   1.852 -32.589  1.00  0.00     0.035 A 
HETATM   19  C   UNL     1      -4.440   1.200 -32.160  1.00  0.00     0.075 A 
HETATM   20  C   UNL     1      -6.851   1.218 -32.584  1.00  0.00     0.021 A 
HETATM   21  C   UNL     1      -4.539  -0.132 -31.709  1.00  0.00     0.033 A 
HETATM   22  N   UNL     1      -3.279   1.951 -32.219  1.00  0.00    -0.238 NA
HETATM   23  C   UNL     1      -5.782  -0.773 -31.700  1.00  0.00     0.002 A 
HETATM   24  C   UNL     1      -6.922  -0.104 -32.132  1.00  0.00     0.002 A 
ENDBRANCH   1  16
TORSDOF 4
ENDMDL
MODEL 8
REMARK VINA RESULT:      -7.3      3.457      7.798
REMARK  4 active torsions:
REMARK  status: ('A' for Active; 'I' for Inactive)
REMARK    1  A    between atoms: C_6  and  C_7 
REMARK    2  A    between atoms: C_9  and  C_10 
REMARK    3  A    between atoms: C_10  and  C_11 
REMARK    4  A    between atoms: C_15  and  N_16 
ROOT
HETATM    1  C   UNL     1      -3.948   1.982 -32.145  1.00  0.00     0.112 A 
HETATM    2  O   UNL     1      -5.226   1.705 -32.553  1.00  0.00    -0.308 OA
HETATM    3  C   UNL     1      -5.534   0.389 -32.275  1.00  0.00     0.077 A 
HETATM    4  C   UNL     1      -4.402  -0.175 -31.701  1.00  0.00     0.040 A 
HETATM    5  C   UNL     1      -3.409   0.829 -31.610  1.00  0.00     0.043 A 
ENDROOT
BRANCH   3   6
HETATM    6  C   UNL     1      -6.810  -0.139 -32.622  1.00  0.00     0.059 C 
BRANCH   6   7
HETATM    7  C   UNL     1      -7.935   0.550 -32.846  1.00  0.00     0.053 A 
HETATM    8  S   UNL     1      -8.945   1.417 -31.758  1.00  0.00    -0.024 SA
HETATM    9  C   UNL     1     -10.058   1.822 -33.070  1.00  0.00     0.312 A 
HETATM   10  O   UNL     1     -11.075   2.464 -32.863  1.00  0.00    -0.258 OA
HETATM   11  N   UNL     1      -9.654   1.357 -34.302  1.00  0.00    -0.191 NA
HETATM   12  C   UNL     1      -8.537   0.690 -34.214  1.00  0.00     0.122 A 
BRANCH  12  13
HETATM   13  N   UNL     1      -8.003   0.179 -35.366  1.00  0.00    -0.286 NA
HETATM   14  H   UNL     1      -7.345  -0.586 -35.275  1.00  0.00     0.125 HD
HETATM   15  H   UNL     1      -7.658   0.909 -35.985  1.00  0.00     0.125 HD
ENDBRANCH  12  13
ENDBRANCH   6   7
ENDBRANCH   3   6
BRANCH   1  16
HETATM   16  C   UNL     1      -3.317   3.267 -32.283  1.00  0.00     0.133 A 
HETATM   17  S   UNL     1      -3.939   4.482 -33.319  1.00  0.00    -0.066 SA
HETATM   18  C   UNL     1      -2.650   5.531 -32.866  1.00  0.00     0.035 A 
HETATM   19  C   UNL     1      -1.834   4.871 -31.945  1.00  0.00     0.075 A 
HETATM   20  C   UNL     1      -2.380   6.841 -33.291  1.00  0.00     0.021 A 
HETATM   21  C   UNL     1      -0.707   5.545 -31.433  1.00  0.00     0.033 A 
HETATM   22  N   UNL     1      -2.223   3.583 -31.622  1.00  0.00    -0.238 NA
HETATM   23  C   UNL     1      -0.428   6.851 -31.850  1.00  0.00     0.002 A 
HETATM   24  C   UNL     1      -1.255   7.489 -32.768  1.00  0.00     0.002 A 
ENDBRANCH   1  16
TORSDOF 4
ENDMDL
MODEL 9
REMARK VINA RESULT:      -7.3      2.525      8.318
REMARK  4 active torsions:
REMARK  status: ('A' for Active; 'I' for Inactive)
REMARK    1  A    between atoms: C_6  and  C_7 
REMARK    2  A    between atoms: C_9  and  C_10 
REMARK    3  A    between atoms: C_10  and  C_11 
REMARK    4  A    between atoms: C_15  and  N_16 
ROOT
HETATM    1  C   UNL     1      -4.774   3.213 -33.097  1.00  0.00     0.112 A 
HETATM    2  O   UNL     1      -4.838   1.898 -32.714  1.00  0.00    -0.308 OA
HETATM    3  C   UNL     1      -6.009   1.332 -33.174  1.00  0.00     0.077 A 
HETATM    4  C   UNL     1      -6.705   2.332 -33.839  1.00  0.00     0.040 A 
HETATM    5  C   UNL     1      -5.924   3.511 -33.799  1.00  0.00     0.043 A 
ENDROOT
BRANCH   3   6
HETATM    6  C   UNL     1      -6.308  -0.031 -32.887  1.00  0.00     0.059 C 
BRANCH   6   7
HETATM    7  C   UNL     1      -5.573  -1.103 -33.206  1.00  0.00     0.053 A 
HETATM    8  S   UNL     1      -5.805  -2.289 -34.428  1.00  0.00    -0.024 SA
HETATM    9  C   UNL     1      -4.362  -3.161 -33.897  1.00  0.00     0.312 A 
HETATM   10  O   UNL     1      -4.016  -4.200 -34.434  1.00  0.00    -0.258 OA
HETATM   11  N   UNL     1      -3.698  -2.548 -32.858  1.00  0.00    -0.191 NA
HETATM   12  C   UNL     1      -4.309  -1.460 -32.479  1.00  0.00     0.122 A 
BRANCH  12  13
HETATM   13  N   UNL     1      -3.753  -0.734 -31.461  1.00  0.00    -0.286 NA
HETATM   14  H   UNL     1      -2.863  -1.050 -31.097  1.00  0.00     0.125 HD
HETATM   15  H   UNL     1      -4.422  -0.538 -30.721  1.00  0.00     0.125 HD
ENDBRANCH  12  13
ENDBRANCH   6   7
ENDBRANCH   3   6
BRANCH   1  16
HETATM   16  C   UNL     1      -3.679   4.092 -32.785  1.00  0.00     0.133 A 
HETATM   17  S   UNL     1      -3.416   5.557 -33.634  1.00  0.00    -0.066 SA
HETATM   18  C   UNL     1      -2.030   5.873 -32.662  1.00  0.00     0.035 A 
HETATM   19  C   UNL     1      -1.870   4.828 -31.750  1.00  0.00     0.075 A 
HETATM   20  C   UNL     1      -1.147   6.964 -32.701  1.00  0.00     0.021 A 
HETATM   21  C   UNL     1      -0.789   4.876 -30.846  1.00  0.00     0.033 A 
HETATM   22  N   UNL     1      -2.815   3.820 -31.830  1.00  0.00    -0.238 NA
HETATM   23  C   UNL     1       0.096   5.958 -30.876  1.00  0.00     0.002 A 
HETATM   24  C   UNL     1      -0.083   6.988 -31.793  1.00  0.00     0.002 A 
ENDBRANCH   1  16
TORSDOF 4
ENDMDL
MODEL 10
REMARK VINA RESULT:      -7.2      2.745      8.369
REMARK  4 active torsions:
REMARK  status: ('A' for Active; 'I' for Inactive)
REMARK    1  A    between atoms: C_6  and  C_7 
REMARK    2  A    between atoms: C_9  and  C_10 
REMARK    3  A    between atoms: C_10  and  C_11 
REMARK    4  A    between atoms: C_15  and  N_16 
ROOT
HETATM    1  C   UNL     1      -5.755   1.802 -32.283  1.00  0.00     0.112 A 
HETATM    2  O   UNL     1      -5.667   0.978 -33.375  1.00  0.00    -0.308 OA
HETATM    3  C   UNL     1      -6.670   0.031 -33.330  1.00  0.00     0.077 A 
HETATM    4  C   UNL     1      -7.384   0.257 -32.161  1.00  0.00     0.040 A 
HETATM    5  C   UNL     1      -6.816   1.376 -31.509  1.00  0.00     0.043 A 
ENDROOT
BRANCH   3   6
HETATM    6  C   UNL     1      -6.776  -0.952 -34.355  1.00  0.00     0.059 C 
BRANCH   6   7
HETATM    7  C   UNL     1      -6.148  -2.132 -34.410  1.00  0.00     0.053 A 
HETATM    8  S   UNL     1      -6.734  -3.686 -34.856  1.00  0.00    -0.024 SA
HETATM    9  C   UNL     1      -5.158  -4.410 -34.515  1.00  0.00     0.312 A 
HETATM   10  O   UNL     1      -4.972  -5.610 -34.638  1.00  0.00    -0.258 OA
HETATM   11  N   UNL     1      -4.204  -3.498 -34.121  1.00  0.00    -0.191 NA
HETATM   12  C   UNL     1      -4.696  -2.291 -34.064  1.00  0.00     0.122 A 
BRANCH  12  13
HETATM   13  N   UNL     1      -3.856  -1.274 -33.701  1.00  0.00    -0.286 NA
HETATM   14  H   UNL     1      -3.657  -1.165 -32.714  1.00  0.00     0.125 HD
HETATM   15  H   UNL     1      -4.111  -0.392 -34.139  1.00  0.00     0.125 HD
ENDBRANCH  12  13
ENDBRANCH   6   7
ENDBRANCH   3   6
BRANCH   1  16
HETATM   16  C   UNL     1      -4.863   2.901 -32.027  1.00  0.00     0.133 A 
HETATM   17  S   UNL     1      -5.245   4.146 -30.913  1.00  0.00    -0.066 SA
HETATM   18  C   UNL     1      -3.746   4.918 -31.260  1.00  0.00     0.035 A 
HETATM   19  C   UNL     1      -3.055   4.160 -32.207  1.00  0.00     0.075 A 
HETATM   20  C   UNL     1      -3.216   6.108 -30.733  1.00  0.00     0.021 A 
HETATM   21  C   UNL     1      -1.792   4.607 -32.643  1.00  0.00     0.033 A 
HETATM   22  N   UNL     1      -3.702   3.014 -32.637  1.00  0.00    -0.238 NA
HETATM   23  C   UNL     1      -1.255   5.790 -32.125  1.00  0.00     0.002 A 
HETATM   24  C   UNL     1      -1.961   6.529 -31.182  1.00  0.00     0.002 A 
ENDBRANCH   1  16
TORSDOF 4
ENDMDL
