MODEL 1
REMARK VINA RESULT:      -8.2      0.000      0.000
REMARK  6 active torsions:
REMARK  status: ('A' for Active; 'I' for Inactive)
REMARK    1  A    between atoms: C_5  and  N_6 
REMARK    2  A    between atoms: N_6  and  C_7 
REMARK    3  A    between atoms: C_7  and  C_8 
REMARK    4  A    between atoms: N_10  and  C_12 
REMARK    5  A    between atoms: C_12  and  C_13 
REMARK    6  A    between atoms: C_14  and  O_15 
ROOT
HETATM    1  C   UNL     1      -4.939   1.464 -32.816  1.00  0.00     0.026 C 
HETATM    2  C   UNL     1      -3.520   1.631 -32.282  1.00  0.00     0.241 C 
HETATM    3  N   UNL     1      -3.387   3.122 -32.091  1.00  0.00    -0.067 N 
HETATM    4  H   UNL     1      -2.895   3.308 -31.197  1.00  0.00     0.280 HD
HETATM    5  C   UNL     1      -4.780   3.709 -31.995  1.00  0.00     0.235 C 
HETATM    6  C   UNL     1      -5.699   2.495 -31.986  1.00  0.00     0.035 C 
ENDROOT
BRANCH   1   7
HETATM    7  C   UNL     1      -5.508   0.048 -32.690  1.00  0.00     0.100 C 
BRANCH   7   8
HETATM    8  N   UNL     1      -5.677  -0.547 -34.010  1.00  0.00    -0.279 NA
HETATM    9  H   UNL     1      -6.468  -0.162 -34.537  1.00  0.00     0.129 HD
BRANCH   8  10
HETATM   10  C   UNL     1      -5.653  -1.934 -34.208  1.00  0.00     0.080 A 
HETATM   11  N   UNL     1      -4.570  -2.693 -33.969  1.00  0.00    -0.351 N 
HETATM   12  C   UNL     1      -4.540  -4.030 -34.147  1.00  0.00     0.006 A 
HETATM   13  H   UNL     1      -3.732  -2.246 -33.617  1.00  0.00     0.167 HD
HETATM   14  C   UNL     1      -3.298  -4.783 -33.793  1.00  0.00     0.068 C 
HETATM   15  C   UNL     1      -5.671  -4.679 -34.640  1.00  0.00     0.024 A 
HETATM   16  C   UNL     1      -6.806  -3.937 -34.934  1.00  0.00     0.005 A 
HETATM   17  C   UNL     1      -6.797  -2.563 -34.717  1.00  0.00     0.042 A 
ENDBRANCH   8  10
ENDBRANCH   7   8
ENDBRANCH   1   7
BRANCH   3  18
HETATM   18  C   UNL     1      -2.503   3.808 -33.108  1.00  0.00     0.276 C 
BRANCH  18  19
HETATM   19  C   UNL     1      -2.067   5.184 -32.688  1.00  0.00     0.002 A 
HETATM   20  C   UNL     1      -1.314   5.375 -31.521  1.00  0.00     0.091 A 
HETATM   21  C   UNL     1      -0.874   6.649 -31.150  1.00  0.00     0.044 A 
HETATM   22 BR   UNL     1       0.143   6.898 -29.574  1.00  0.00    -0.048 Br
HETATM   23  C   UNL     1      -1.187   7.751 -31.943  1.00  0.00     0.022 A 
HETATM   24  C   UNL     1      -1.936   7.576 -33.106  1.00  0.00     0.002 A 
HETATM   25  C   UNL     1      -2.369   6.301 -33.481  1.00  0.00     0.012 A 
BRANCH  20  26
HETATM   26  O   UNL     1      -1.046   4.271 -30.748  1.00  0.00    -0.359 OA
HETATM   27  H   UNL     1      -0.093   4.071 -30.883  1.00  0.00     0.218 HD
ENDBRANCH  20  26
ENDBRANCH  18  19
ENDBRANCH   3  18
TORSDOF 6
ENDMDL
MODEL 2
REMARK VINA RESULT:      -7.9      1.655      2.360
REMARK  6 active torsions:
REMARK  status: ('A' for Active; 'I' for Inactive)
REMARK    1  A    between atoms: C_5  and  N_6 
REMARK    2  A    between atoms: N_6  and  C_7 
REMARK    3  A    between atoms: C_7  and  C_8 
REMARK    4  A    between atoms: N_10  and  C_12 
REMARK    5  A    between atoms: C_12  and  C_13 
REMARK    6  A    between atoms: C_14  and  O_15 
ROOT
HETATM    1  C   UNL     1      -5.640   1.936 -30.884  1.00  0.00     0.026 C 
HETATM    2  C   UNL     1      -4.127   1.749 -30.886  1.00  0.00     0.241 C 
HETATM    3  N   UNL     1      -3.600   3.129 -31.192  1.00  0.00    -0.067 N 
HETATM    4  H   UNL     1      -2.779   3.321 -30.589  1.00  0.00     0.280 HD
HETATM    5  C   UNL     1      -4.683   4.131 -30.851  1.00  0.00     0.235 C 
HETATM    6  C   UNL     1      -5.779   3.295 -30.204  1.00  0.00     0.035 C 
ENDROOT
BRANCH   1   7
HETATM    7  C   UNL     1      -6.423   0.825 -30.179  1.00  0.00     0.100 C 
BRANCH   7   8
HETATM    8  N   UNL     1      -7.505   0.349 -31.033  1.00  0.00    -0.279 NA
HETATM    9  H   UNL     1      -8.108  -0.349 -30.583  1.00  0.00     0.129 HD
BRANCH   8  10
HETATM   10  C   UNL     1      -7.286  -0.050 -32.357  1.00  0.00     0.080 A 
HETATM   11  N   UNL     1      -6.326  -0.921 -32.716  1.00  0.00    -0.351 N 
HETATM   12  C   UNL     1      -6.115  -1.319 -33.987  1.00  0.00     0.006 A 
HETATM   13  H   UNL     1      -5.737  -1.318 -31.993  1.00  0.00     0.167 HD
HETATM   14  C   UNL     1      -5.055  -2.337 -34.263  1.00  0.00     0.068 C 
HETATM   15  C   UNL     1      -6.898  -0.786 -35.009  1.00  0.00     0.024 A 
HETATM   16  C   UNL     1      -7.882   0.141 -34.698  1.00  0.00     0.005 A 
HETATM   17  C   UNL     1      -8.077   0.508 -33.370  1.00  0.00     0.042 A 
ENDBRANCH   8  10
ENDBRANCH   7   8
ENDBRANCH   1   7
BRANCH   3  18
HETATM   18  C   UNL     1      -3.035   3.289 -32.586  1.00  0.00     0.276 C 
BRANCH  18  19
HETATM   19  C   UNL     1      -2.363   4.614 -32.809  1.00  0.00     0.002 A 
HETATM   20  C   UNL     1      -1.374   5.077 -31.929  1.00  0.00     0.091 A 
HETATM   21  C   UNL     1      -0.719   6.292 -32.157  1.00  0.00     0.044 A 
HETATM   22 BR   UNL     1       0.615   6.907 -30.966  1.00  0.00    -0.048 Br
HETATM   23  C   UNL     1      -1.052   7.062 -33.269  1.00  0.00     0.022 A 
HETATM   24  C   UNL     1      -2.035   6.616 -34.152  1.00  0.00     0.002 A 
HETATM   25  C   UNL     1      -2.683   5.397 -33.928  1.00  0.00     0.012 A 
BRANCH  20  26
HETATM   26  O   UNL     1      -1.090   4.305 -30.828  1.00  0.00    -0.359 OA
HETATM   27  H   UNL     1      -0.109   4.300 -30.747  1.00  0.00     0.218 HD
ENDBRANCH  20  26
ENDBRANCH  18  19
ENDBRANCH   3  18
TORSDOF 6
ENDMDL
MODEL 3
REMARK VINA RESULT:      -7.9      1.181      1.453
REMARK  6 active torsions:
REMARK  status: ('A' for Active; 'I' for Inactive)
REMARK    1  A    between atoms: C_5  and  N_6 
REMARK    2  A    between atoms: N_6  and  C_7 
REMARK    3  A    between atoms: C_7  and  C_8 
REMARK    4  A    between atoms: N_10  and  C_12 
REMARK    5  A    between atoms: C_12  and  C_13 
REMARK    6  A    between atoms: C_14  and  O_15 
ROOT
HETATM    1  C   UNL     1      -5.601   1.107 -31.638  1.00  0.00     0.026 C 
HETATM    2  C   UNL     1      -4.309   1.807 -32.044  1.00  0.00     0.241 C 
HETATM    3  N   UNL     1      -4.365   3.115 -31.296  1.00  0.00    -0.067 N 
HETATM    4  H   UNL     1      -3.425   3.327 -30.911  1.00  0.00     0.280 HD
HETATM    5  C   UNL     1      -5.326   2.952 -30.136  1.00  0.00     0.235 C 
HETATM    6  C   UNL     1      -5.696   1.475 -30.160  1.00  0.00     0.035 C 
ENDROOT
BRANCH   1   7
HETATM    7  C   UNL     1      -5.618  -0.404 -31.887  1.00  0.00     0.100 C 
BRANCH   7   8
HETATM    8  N   UNL     1      -5.685  -0.681 -33.316  1.00  0.00    -0.279 NA
HETATM    9  H   UNL     1      -6.429  -0.168 -33.801  1.00  0.00     0.129 HD
BRANCH   8  10
HETATM   10  C   UNL     1      -5.651  -1.986 -33.823  1.00  0.00     0.080 A 
HETATM   11  N   UNL     1      -4.580  -2.792 -33.713  1.00  0.00    -0.351 N 
HETATM   12  C   UNL     1      -4.541  -4.053 -34.188  1.00  0.00     0.006 A 
HETATM   13  H   UNL     1      -3.759  -2.444 -33.231  1.00  0.00     0.167 HD
HETATM   14  C   UNL     1      -3.316  -4.880 -33.958  1.00  0.00     0.068 C 
HETATM   15  C   UNL     1      -5.647  -4.562 -34.867  1.00  0.00     0.024 A 
HETATM   16  C   UNL     1      -6.767  -3.761 -35.036  1.00  0.00     0.005 A 
HETATM   17  C   UNL     1      -6.769  -2.472 -34.513  1.00  0.00     0.042 A 
ENDBRANCH   8  10
ENDBRANCH   7   8
ENDBRANCH   1   7
BRANCH   3  18
HETATM   18  C   UNL     1      -4.650   4.321 -32.162  1.00  0.00     0.276 C 
BRANCH  18  19
HETATM   19  C   UNL     1      -3.413   4.948 -32.740  1.00  0.00     0.002 A 
HETATM   20  C   UNL     1      -2.401   5.446 -31.908  1.00  0.00     0.091 A 
HETATM   21  C   UNL     1      -1.232   5.993 -32.444  1.00  0.00     0.044 A 
HETATM   22 BR   UNL     1       0.129   6.661 -31.313  1.00  0.00    -0.048 Br
HETATM   23  C   UNL     1      -1.063   6.053 -33.826  1.00  0.00     0.022 A 
HETATM   24  C   UNL     1      -2.062   5.563 -34.667  1.00  0.00     0.002 A 
HETATM   25  C   UNL     1      -3.227   5.008 -34.130  1.00  0.00     0.012 A 
BRANCH  20  26
HETATM   26  O   UNL     1      -2.612   5.396 -30.550  1.00  0.00    -0.359 OA
HETATM   27  H   UNL     1      -3.563   5.175 -30.431  1.00  0.00     0.218 HD
ENDBRANCH  20  26
ENDBRANCH  18  19
ENDBRANCH   3  18
TORSDOF 6
ENDMDL
MODEL 4
REMARK VINA RESULT:      -7.8      1.596      2.500
REMARK  6 active torsions:
REMARK  status: ('A' for Active; 'I' for Inactive)
REMARK    1  A    between atoms: C_5  and  N_6 
REMARK    2  A    between atoms: N_6  and  C_7 
REMARK    3  A    between atoms: C_7  and  C_8 
REMARK    4  A    between atoms: N_10  and  C_12 
REMARK    5  A    between atoms: C_12  and  C_13 
REMARK    6  A    between atoms: C_14  and  O_15 
ROOT
HETATM    1  C   UNL     1      -4.288   0.997 -31.405  1.00  0.00     0.026 C 
HETATM    2  C   UNL     1      -3.365   2.200 -31.237  1.00  0.00     0.241 C 
HETATM    3  N   UNL     1      -4.279   3.276 -30.706  1.00  0.00    -0.067 N 
HETATM    4  H   UNL     1      -3.789   3.798 -29.955  1.00  0.00     0.280 HD
HETATM    5  C   UNL     1      -5.493   2.603 -30.099  1.00  0.00     0.235 C 
HETATM    6  C   UNL     1      -5.172   1.117 -30.167  1.00  0.00     0.035 C 
ENDROOT
BRANCH   1   7
HETATM    7  C   UNL     1      -3.572  -0.352 -31.508  1.00  0.00     0.100 C 
BRANCH   7   8
HETATM    8  N   UNL     1      -3.443  -0.751 -32.905  1.00  0.00    -0.279 NA
HETATM    9  H   UNL     1      -2.972  -0.053 -33.490  1.00  0.00     0.129 HD
BRANCH   8  10
HETATM   10  C   UNL     1      -4.520  -1.276 -33.630  1.00  0.00     0.080 A 
HETATM   11  N   UNL     1      -5.561  -0.533 -34.045  1.00  0.00    -0.351 N 
HETATM   12  C   UNL     1      -6.597  -1.027 -34.753  1.00  0.00     0.006 A 
HETATM   13  H   UNL     1      -5.565   0.458 -33.834  1.00  0.00     0.167 HD
HETATM   14  C   UNL     1      -7.674  -0.096 -35.212  1.00  0.00     0.068 C 
HETATM   15  C   UNL     1      -6.632  -2.387 -35.053  1.00  0.00     0.024 A 
HETATM   16  C   UNL     1      -5.598  -3.205 -34.620  1.00  0.00     0.005 A 
HETATM   17  C   UNL     1      -4.541  -2.648 -33.909  1.00  0.00     0.042 A 
ENDBRANCH   8  10
ENDBRANCH   7   8
ENDBRANCH   1   7
BRANCH   3  18
HETATM   18  C   UNL     1      -4.615   4.361 -31.703  1.00  0.00     0.276 C 
BRANCH  18  19
HETATM   19  C   UNL     1      -3.411   4.917 -32.410  1.00  0.00     0.002 A 
HETATM   20  C   UNL     1      -2.360   5.501 -31.689  1.00  0.00     0.091 A 
HETATM   21  C   UNL     1      -1.221   5.983 -32.342  1.00  0.00     0.044 A 
HETATM   22 BR   UNL     1       0.194   6.767 -31.361  1.00  0.00    -0.048 Br
HETATM   23  C   UNL     1      -1.124   5.891 -33.728  1.00  0.00     0.022 A 
HETATM   24  C   UNL     1      -2.163   5.315 -34.459  1.00  0.00     0.002 A 
HETATM   25  C   UNL     1      -3.297   4.826 -33.805  1.00  0.00     0.012 A 
BRANCH  20  26
HETATM   26  O   UNL     1      -2.500   5.600 -30.325  1.00  0.00    -0.359 OA
HETATM   27  H   UNL     1      -3.446   5.816 -30.165  1.00  0.00     0.218 HD
ENDBRANCH  20  26
ENDBRANCH  18  19
ENDBRANCH   3  18
TORSDOF 6
ENDMDL
MODEL 5
REMARK VINA RESULT:      -7.7      5.387      7.217
REMARK  6 active torsions:
REMARK  status: ('A' for Active; 'I' for Inactive)
REMARK    1  A    between atoms: C_5  and  N_6 
REMARK    2  A    between atoms: N_6  and  C_7 
REMARK    3  A    between atoms: C_7  and  C_8 
REMARK    4  A    between atoms: N_10  and  C_12 
REMARK    5  A    between atoms: C_12  and  C_13 
REMARK    6  A    between atoms: C_14  and  O_15 
ROOT
HETATM    1  C   UNL     1      -6.418   1.341 -32.548  1.00  0.00     0.026 C 
HETATM    2  C   UNL     1      -7.592   1.256 -33.517  1.00  0.00     0.241 C 
HETATM    3  N   UNL     1      -7.902   2.700 -33.826  1.00  0.00    -0.067 N 
HETATM    4  H   UNL     1      -8.099   2.796 -34.840  1.00  0.00     0.280 HD
HETATM    5  C   UNL     1      -6.671   3.523 -33.504  1.00  0.00     0.235 C 
HETATM    6  C   UNL     1      -5.611   2.490 -33.148  1.00  0.00     0.035 C 
ENDROOT
BRANCH   1   7
HETATM    7  C   UNL     1      -5.611   0.048 -32.403  1.00  0.00     0.100 C 
BRANCH   7   8
HETATM    8  N   UNL     1      -5.246  -0.471 -33.715  1.00  0.00    -0.279 NA
HETATM    9  H   UNL     1      -5.617   0.082 -34.494  1.00  0.00     0.129 HD
BRANCH   8  10
HETATM   10  C   UNL     1      -5.377  -1.827 -34.041  1.00  0.00     0.080 A 
HETATM   11  N   UNL     1      -4.380  -2.719 -33.898  1.00  0.00    -0.351 N 
HETATM   12  C   UNL     1      -4.499  -4.028 -34.199  1.00  0.00     0.006 A 
HETATM   13  H   UNL     1      -3.493  -2.399 -33.527  1.00  0.00     0.167 HD
HETATM   14  C   UNL     1      -3.342  -4.940 -33.946  1.00  0.00     0.068 C 
HETATM   15  C   UNL     1      -5.701  -4.502 -34.722  1.00  0.00     0.024 A 
HETATM   16  C   UNL     1      -6.752  -3.618 -34.919  1.00  0.00     0.005 A 
HETATM   17  C   UNL     1      -6.590  -2.280 -34.577  1.00  0.00     0.042 A 
ENDBRANCH   8  10
ENDBRANCH   7   8
ENDBRANCH   1   7
BRANCH   3  18
HETATM   18  C   UNL     1      -9.170   3.220 -33.187  1.00  0.00     0.276 C 
BRANCH  18  19
HETATM   19  C   UNL     1     -10.407   2.922 -33.986  1.00  0.00     0.002 A 
HETATM   20  C   UNL     1     -11.247   1.854 -33.640  1.00  0.00     0.091 A 
HETATM   21  C   UNL     1     -12.419   1.599 -34.359  1.00  0.00     0.044 A 
HETATM   22 BR   UNL     1     -13.548   0.158 -33.883  1.00  0.00    -0.048 Br
HETATM   23  C   UNL     1     -12.762   2.409 -35.439  1.00  0.00     0.022 A 
HETATM   24  C   UNL     1     -11.935   3.473 -35.797  1.00  0.00     0.002 A 
HETATM   25  C   UNL     1     -10.767   3.733 -35.072  1.00  0.00     0.012 A 
BRANCH  20  26
HETATM   26  O   UNL     1     -10.865   1.059 -32.586  1.00  0.00    -0.359 OA
HETATM   27  H   UNL     1      -9.973   0.714 -32.816  1.00  0.00     0.218 HD
ENDBRANCH  20  26
ENDBRANCH  18  19
ENDBRANCH   3  18
TORSDOF 6
ENDMDL
MODEL 6
REMARK VINA RESULT:      -7.7      3.612      9.283
REMARK  6 active torsions:
REMARK  status: ('A' for Active; 'I' for Inactive)
REMARK    1  A    between atoms: C_5  and  N_6 
REMARK    2  A    between atoms: N_6  and  C_7 
REMARK    3  A    between atoms: C_7  and  C_8 
REMARK    4  A    between atoms: N_10  and  C_12 
REMARK    5  A    between atoms: C_12  and  C_13 
REMARK    6  A    between atoms: C_14  and  O_15 
ROOT
HETATM    1  C   UNL     1      -3.052   3.306 -31.624  1.00  0.00     0.026 C 
HETATM    2  C   UNL     1      -3.568   2.337 -32.682  1.00  0.00     0.241 C 
HETATM    3  N   UNL     1      -4.712   1.635 -31.993  1.00  0.00    -0.067 N 
HETATM    4  H   UNL     1      -5.502   1.538 -32.658  1.00  0.00     0.280 HD
HETATM    5  C   UNL     1      -5.169   2.506 -30.840  1.00  0.00     0.235 C 
HETATM    6  C   UNL     1      -4.355   3.783 -30.987  1.00  0.00     0.035 C 
ENDROOT
BRANCH   1   7
HETATM    7  C   UNL     1      -2.190   4.449 -32.167  1.00  0.00     0.100 C 
BRANCH   7   8
HETATM    8  N   UNL     1      -0.993   4.610 -31.352  1.00  0.00    -0.279 NA
HETATM    9  H   UNL     1      -0.706   3.753 -30.867  1.00  0.00     0.129 HD
BRANCH   8  10
HETATM   10  C   UNL     1      -0.832   5.686 -30.470  1.00  0.00     0.080 A 
HETATM   11  N   UNL     1      -1.823   6.153 -29.689  1.00  0.00    -0.351 N 
HETATM   12  C   UNL     1      -1.676   7.181 -28.829  1.00  0.00     0.006 A 
HETATM   13  H   UNL     1      -2.728   5.699 -29.730  1.00  0.00     0.167 HD
HETATM   14  C   UNL     1      -2.831   7.579 -27.967  1.00  0.00     0.068 C 
HETATM   15  C   UNL     1      -0.448   7.837 -28.753  1.00  0.00     0.024 A 
HETATM   16  C   UNL     1       0.598   7.417 -29.560  1.00  0.00     0.005 A 
HETATM   17  C   UNL     1       0.406   6.339 -30.419  1.00  0.00     0.042 A 
ENDBRANCH   8  10
ENDBRANCH   7   8
ENDBRANCH   1   7
BRANCH   3  18
HETATM   18  C   UNL     1      -4.426   0.203 -31.602  1.00  0.00     0.276 C 
BRANCH  18  19
HETATM   19  C   UNL     1      -4.782  -0.790 -32.672  1.00  0.00     0.002 A 
HETATM   20  C   UNL     1      -4.123  -2.025 -32.756  1.00  0.00     0.091 A 
HETATM   21  C   UNL     1      -4.480  -2.966 -33.726  1.00  0.00     0.044 A 
HETATM   22 BR   UNL     1      -3.587  -4.630 -33.832  1.00  0.00    -0.048 Br
HETATM   23  C   UNL     1      -5.502  -2.680 -34.629  1.00  0.00     0.022 A 
HETATM   24  C   UNL     1      -6.166  -1.455 -34.558  1.00  0.00     0.002 A 
HETATM   25  C   UNL     1      -5.813  -0.518 -33.583  1.00  0.00     0.012 A 
BRANCH  20  26
HETATM   26  O   UNL     1      -3.102  -2.264 -31.867  1.00  0.00    -0.359 OA
HETATM   27  H   UNL     1      -3.489  -2.819 -31.154  1.00  0.00     0.218 HD
ENDBRANCH  20  26
ENDBRANCH  18  19
ENDBRANCH   3  18
TORSDOF 6
ENDMDL
MODEL 7
REMARK VINA RESULT:      -7.6      5.083      8.235
REMARK  6 active torsions:
REMARK  status: ('A' for Active; 'I' for Inactive)
REMARK    1  A    between atoms: C_5  and  N_6 
REMARK    2  A    between atoms: N_6  and  C_7 
REMARK    3  A    between atoms: C_7  and  C_8 
REMARK    4  A    between atoms: N_10  and  C_12 
REMARK    5  A    between atoms: C_12  and  C_13 
REMARK    6  A    between atoms: C_14  and  O_15 
ROOT
HETATM    1  C   UNL     1      -8.000   1.875 -31.804  1.00  0.00     0.026 C 
HETATM    2  C   UNL     1      -7.871   0.401 -32.172  1.00  0.00     0.241 C 
HETATM    3  N   UNL     1      -6.385   0.147 -32.103  1.00  0.00    -0.067 N 
HETATM    4  H   UNL     1      -6.218  -0.770 -31.648  1.00  0.00     0.280 HD
HETATM    5  C   UNL     1      -5.765   1.224 -31.237  1.00  0.00     0.235 C 
HETATM    6  C   UNL     1      -6.956   2.005 -30.698  1.00  0.00     0.035 C 
ENDROOT
BRANCH   1   7
HETATM    7  C   UNL     1      -9.402   2.307 -31.366  1.00  0.00     0.100 C 
BRANCH   7   8
HETATM    8  N   UNL     1     -10.036   3.101 -32.411  1.00  0.00    -0.279 NA
HETATM    9  H   UNL     1     -10.399   4.001 -32.081  1.00  0.00     0.129 HD
BRANCH   8  10
HETATM   10  C   UNL     1     -10.970   2.551 -33.298  1.00  0.00     0.080 A 
HETATM   11  N   UNL     1     -11.593   1.379 -33.080  1.00  0.00    -0.351 N 
HETATM   12  C   UNL     1     -12.501   0.847 -33.923  1.00  0.00     0.006 A 
HETATM   13  H   UNL     1     -11.386   0.871 -32.228  1.00  0.00     0.167 HD
HETATM   14  C   UNL     1     -13.174  -0.436 -33.550  1.00  0.00     0.068 C 
HETATM   15  C   UNL     1     -12.803   1.512 -35.110  1.00  0.00     0.024 A 
HETATM   16  C   UNL     1     -12.166   2.710 -35.399  1.00  0.00     0.005 A 
HETATM   17  C   UNL     1     -11.249   3.230 -34.491  1.00  0.00     0.042 A 
ENDBRANCH   8  10
ENDBRANCH   7   8
ENDBRANCH   1   7
BRANCH   3  18
HETATM   18  C   UNL     1      -5.714  -0.020 -33.447  1.00  0.00     0.276 C 
BRANCH  18  19
HETATM   19  C   UNL     1      -5.728  -1.435 -33.951  1.00  0.00     0.002 A 
HETATM   20  C   UNL     1      -4.691  -2.323 -33.634  1.00  0.00     0.091 A 
HETATM   21  C   UNL     1      -4.722  -3.651 -34.069  1.00  0.00     0.044 A 
HETATM   22 BR   UNL     1      -3.318  -4.842 -33.635  1.00  0.00    -0.048 Br
HETATM   23  C   UNL     1      -5.794  -4.107 -34.833  1.00  0.00     0.022 A 
HETATM   24  C   UNL     1      -6.833  -3.235 -35.158  1.00  0.00     0.002 A 
HETATM   25  C   UNL     1      -6.805  -1.909 -34.716  1.00  0.00     0.012 A 
BRANCH  20  26
HETATM   26  O   UNL     1      -3.635  -1.833 -32.901  1.00  0.00    -0.359 OA
HETATM   27  H   UNL     1      -2.889  -2.455 -33.052  1.00  0.00     0.218 HD
ENDBRANCH  20  26
ENDBRANCH  18  19
ENDBRANCH   3  18
TORSDOF 6
ENDMDL
MODEL 8
REMARK VINA RESULT:      -7.6      6.160      8.536
REMARK  6 active torsions:
REMARK  status: ('A' for Active; 'I' for Inactive)
REMARK    1  A    between atoms: C_5  and  N_6 
REMARK    2  A    between atoms: N_6  and  C_7 
REMARK    3  A    between atoms: C_7  and  C_8 
REMARK    4  A    between atoms: N_10  and  C_12 
REMARK    5  A    between atoms: C_12  and  C_13 
REMARK    6  A    between atoms: C_14  and  O_15 
ROOT
HETATM    1  C   UNL     1      -8.924   1.671 -33.357  1.00  0.00     0.026 C 
HETATM    2  C   UNL     1      -8.398   0.676 -34.386  1.00  0.00     0.241 C 
HETATM    3  N   UNL     1      -7.380  -0.127 -33.614  1.00  0.00    -0.067 N 
HETATM    4  H   UNL     1      -7.476  -1.129 -33.866  1.00  0.00     0.280 HD
HETATM    5  C   UNL     1      -7.689   0.020 -32.138  1.00  0.00     0.235 C 
HETATM    6  C   UNL     1      -8.994   0.804 -32.103  1.00  0.00     0.035 C 
ENDROOT
BRANCH   1   7
HETATM    7  C   UNL     1     -10.263   2.320 -33.718  1.00  0.00     0.100 C 
BRANCH   7   8
HETATM    8  N   UNL     1     -11.235   1.299 -34.092  1.00  0.00    -0.279 NA
HETATM    9  H   UNL     1     -11.159   0.997 -35.068  1.00  0.00     0.129 HD
BRANCH   8  10
HETATM   10  C   UNL     1     -12.594   1.415 -33.773  1.00  0.00     0.080 A 
HETATM   11  N   UNL     1     -13.069   2.307 -32.886  1.00  0.00    -0.351 N 
HETATM   12  C   UNL     1     -14.377   2.433 -32.581  1.00  0.00     0.006 A 
HETATM   13  H   UNL     1     -12.417   2.936 -32.433  1.00  0.00     0.167 HD
HETATM   14  C   UNL     1     -14.800   3.500 -31.622  1.00  0.00     0.068 C 
HETATM   15  C   UNL     1     -15.303   1.579 -33.177  1.00  0.00     0.024 A 
HETATM   16  C   UNL     1     -14.862   0.619 -34.075  1.00  0.00     0.005 A 
HETATM   17  C   UNL     1     -13.506   0.538 -34.374  1.00  0.00     0.042 A 
ENDBRANCH   8  10
ENDBRANCH   7   8
ENDBRANCH   1   7
BRANCH   3  18
HETATM   18  C   UNL     1      -5.942   0.173 -33.971  1.00  0.00     0.276 C 
BRANCH  18  19
HETATM   19  C   UNL     1      -4.955  -0.723 -33.277  1.00  0.00     0.002 A 
HETATM   20  C   UNL     1      -4.783  -2.054 -33.680  1.00  0.00     0.091 A 
HETATM   21  C   UNL     1      -3.838  -2.877 -33.061  1.00  0.00     0.044 A 
HETATM   22 BR   UNL     1      -3.611  -4.672 -33.613  1.00  0.00    -0.048 Br
HETATM   23  C   UNL     1      -3.054  -2.376 -32.024  1.00  0.00     0.022 A 
HETATM   24  C   UNL     1      -3.215  -1.054 -31.611  1.00  0.00     0.002 A 
HETATM   25  C   UNL     1      -4.155  -0.230 -32.236  1.00  0.00     0.012 A 
BRANCH  20  26
HETATM   26  O   UNL     1      -5.592  -2.524 -34.688  1.00  0.00    -0.359 OA
HETATM   27  H   UNL     1      -5.916  -3.403 -34.388  1.00  0.00     0.218 HD
ENDBRANCH  20  26
ENDBRANCH  18  19
ENDBRANCH   3  18
TORSDOF 6
ENDMDL
MODEL 9
REMARK VINA RESULT:      -7.6      3.646      8.579
REMARK  6 active torsions:
REMARK  status: ('A' for Active; 'I' for Inactive)
REMARK    1  A    between atoms: C_5  and  N_6 
REMARK    2  A    between atoms: N_6  and  C_7 
REMARK    3  A    between atoms: C_7  and  C_8 
REMARK    4  A    between atoms: N_10  and  C_12 
REMARK    5  A    between atoms: C_12  and  C_13 
REMARK    6  A    between atoms: C_14  and  O_15 
ROOT
HETATM    1  C   UNL     1      -4.711   2.618 -31.593  1.00  0.00     0.026 C 
HETATM    2  C   UNL     1      -5.993   2.638 -32.419  1.00  0.00     0.241 C 
HETATM    3  N   UNL     1      -7.074   2.360 -31.404  1.00  0.00    -0.067 N 
HETATM    4  H   UNL     1      -7.884   2.980 -31.591  1.00  0.00     0.280 HD
HETATM    5  C   UNL     1      -6.526   2.699 -30.032  1.00  0.00     0.235 C 
HETATM    6  C   UNL     1      -5.163   3.316 -30.313  1.00  0.00     0.035 C 
ENDROOT
BRANCH   1   7
HETATM    7  C   UNL     1      -3.509   3.293 -32.258  1.00  0.00     0.100 C 
BRANCH   7   8
HETATM    8  N   UNL     1      -2.474   3.570 -31.269  1.00  0.00    -0.279 NA
HETATM    9  H   UNL     1      -2.790   3.458 -30.300  1.00  0.00     0.129 HD
BRANCH   8  10
HETATM   10  C   UNL     1      -1.667   4.713 -31.338  1.00  0.00     0.080 A 
HETATM   11  N   UNL     1      -1.049   5.244 -30.268  1.00  0.00    -0.351 N 
HETATM   12  C   UNL     1      -0.262   6.337 -30.325  1.00  0.00     0.006 A 
HETATM   13  H   UNL     1      -1.162   4.791 -29.368  1.00  0.00     0.167 HD
HETATM   14  C   UNL     1       0.422   6.807 -29.081  1.00  0.00     0.068 C 
HETATM   15  C   UNL     1      -0.092   6.993 -31.543  1.00  0.00     0.024 A 
HETATM   16  C   UNL     1      -0.733   6.505 -32.673  1.00  0.00     0.005 A 
HETATM   17  C   UNL     1      -1.520   5.363 -32.569  1.00  0.00     0.042 A 
ENDBRANCH   8  10
ENDBRANCH   7   8
ENDBRANCH   1   7
BRANCH   3  18
HETATM   18  C   UNL     1      -7.681   0.979 -31.496  1.00  0.00     0.276 C 
BRANCH  18  19
HETATM   19  C   UNL     1      -7.328   0.256 -32.765  1.00  0.00     0.002 A 
HETATM   20  C   UNL     1      -6.275  -0.670 -32.798  1.00  0.00     0.091 A 
HETATM   21  C   UNL     1      -5.971  -1.373 -33.968  1.00  0.00     0.044 A 
HETATM   22 BR   UNL     1      -4.550  -2.621 -34.002  1.00  0.00    -0.048 Br
HETATM   23  C   UNL     1      -6.717  -1.153 -35.124  1.00  0.00     0.022 A 
HETATM   24  C   UNL     1      -7.766  -0.235 -35.107  1.00  0.00     0.002 A 
HETATM   25  C   UNL     1      -8.075   0.462 -33.935  1.00  0.00     0.012 A 
BRANCH  20  26
HETATM   26  O   UNL     1      -5.543  -0.842 -31.647  1.00  0.00    -0.359 OA
HETATM   27  H   UNL     1      -6.187  -0.785 -30.905  1.00  0.00     0.218 HD
ENDBRANCH  20  26
ENDBRANCH  18  19
ENDBRANCH   3  18
TORSDOF 6
ENDMDL
MODEL 10
REMARK VINA RESULT:      -7.5      3.535      8.638
REMARK  6 active torsions:
REMARK  status: ('A' for Active; 'I' for Inactive)
REMARK    1  A    between atoms: C_5  and  N_6 
REMARK    2  A    between atoms: N_6  and  C_7 
REMARK    3  A    between atoms: C_7  and  C_8 
REMARK    4  A    between atoms: N_10  and  C_12 
REMARK    5  A    between atoms: C_12  and  C_13 
REMARK    6  A    between atoms: C_14  and  O_15 
ROOT
HETATM    1  C   UNL     1      -4.857   3.202 -30.818  1.00  0.00     0.026 C 
HETATM    2  C   UNL     1      -5.022   2.679 -32.241  1.00  0.00     0.241 C 
HETATM    3  N   UNL     1      -5.375   1.225 -32.046  1.00  0.00    -0.067 N 
HETATM    4  H   UNL     1      -6.127   0.965 -32.711  1.00  0.00     0.280 HD
HETATM    5  C   UNL     1      -5.909   1.058 -30.638  1.00  0.00     0.235 C 
HETATM    6  C   UNL     1      -5.989   2.477 -30.095  1.00  0.00     0.035 C 
ENDROOT
BRANCH   1   7
HETATM    7  C   UNL     1      -4.930   4.725 -30.682  1.00  0.00     0.100 C 
BRANCH   7   8
HETATM    8  N   UNL     1      -3.598   5.279 -30.479  1.00  0.00    -0.279 NA
HETATM    9  H   UNL     1      -3.508   5.831 -29.619  1.00  0.00     0.129 HD
BRANCH   8  10
HETATM   10  C   UNL     1      -2.905   5.943 -31.499  1.00  0.00     0.080 A 
HETATM   11  N   UNL     1      -2.519   5.343 -32.639  1.00  0.00    -0.351 N 
HETATM   12  C   UNL     1      -1.861   5.976 -33.632  1.00  0.00     0.006 A 
HETATM   13  H   UNL     1      -2.748   4.365 -32.774  1.00  0.00     0.167 HD
HETATM   14  C   UNL     1      -1.531   5.223 -34.881  1.00  0.00     0.068 C 
HETATM   15  C   UNL     1      -1.519   7.318 -33.477  1.00  0.00     0.024 A 
HETATM   16  C   UNL     1      -1.866   7.977 -32.306  1.00  0.00     0.005 A 
HETATM   17  C   UNL     1      -2.560   7.288 -31.317  1.00  0.00     0.042 A 
ENDBRANCH   8  10
ENDBRANCH   7   8
ENDBRANCH   1   7
BRANCH   3  18
HETATM   18  C   UNL     1      -4.268   0.258 -32.399  1.00  0.00     0.276 C 
BRANCH  18  19
HETATM   19  C   UNL     1      -4.730  -0.896 -33.243  1.00  0.00     0.002 A 
HETATM   20  C   UNL     1      -4.111  -2.150 -33.149  1.00  0.00     0.091 A 
HETATM   21  C   UNL     1      -4.565  -3.236 -33.905  1.00  0.00     0.044 A 
HETATM   22 BR   UNL     1      -3.725  -4.925 -33.770  1.00  0.00    -0.048 Br
HETATM   23  C   UNL     1      -5.645  -3.076 -34.770  1.00  0.00     0.022 A 
HETATM   24  C   UNL     1      -6.270  -1.834 -34.876  1.00  0.00     0.002 A 
HETATM   25  C   UNL     1      -5.821  -0.752 -34.114  1.00  0.00     0.012 A 
BRANCH  20  26
HETATM   26  O   UNL     1      -3.031  -2.266 -32.306  1.00  0.00    -0.359 OA
HETATM   27  H   UNL     1      -3.090  -1.506 -31.685  1.00  0.00     0.218 HD
ENDBRANCH  20  26
ENDBRANCH  18  19
ENDBRANCH   3  18
TORSDOF 6
ENDMDL
