MODEL 1
REMARK VINA RESULT:      -9.4      0.000      0.000
REMARK  4 active torsions:
REMARK  status: ('A' for Active; 'I' for Inactive)
REMARK    1  A    between atoms: C_2  and  C_3 
REMARK    2  A    between atoms: C_4  and  C_5 
REMARK       I    between atoms: C_5  and  N_6 
REMARK    3  A    between atoms: N_6  and  C_7 
REMARK    4  A    between atoms: C_14  and  C_15 
REMARK       I    between atoms: C_15  and  N_16 
ROOT
HETATM    1  C   UNL     1      -9.148   2.178 -33.440  1.00  0.00     0.035 A 
HETATM    2  C   UNL     1     -10.275   1.346 -33.408  1.00  0.00     0.046 A 
HETATM    3  C   UNL     1     -11.440   1.721 -34.115  1.00  0.00     0.030 A 
HETATM    4  C   UNL     1     -11.440   2.916 -34.821  1.00  0.00     0.063 A 
HETATM    5  N   UNL     1     -12.684   3.005 -35.382  1.00  0.00    -0.277 N 
HETATM    6  H   UNL     1     -13.041   3.752 -35.966  1.00  0.00     0.189 HD
HETATM    7  N   UNL     1     -13.495   1.970 -35.107  1.00  0.00    -0.168 NA
HETATM    8  C   UNL     1     -12.738   1.165 -34.326  1.00  0.00     0.156 A 
HETATM    9  C   UNL     1     -10.338   3.771 -34.874  1.00  0.00     0.034 A 
HETATM   10  C   UNL     1      -9.193   3.374 -34.171  1.00  0.00     0.032 A 
ENDROOT
BRANCH   1  11
HETATM   11  N   UNL     1      -7.938   1.886 -32.775  1.00  0.00    -0.327 N 
HETATM   12  C   UNL     1      -6.676   1.818 -33.321  1.00  0.00     0.227 C 
HETATM   13  O   UNL     1      -6.357   2.018 -34.484  1.00  0.00    -0.273 OA
HETATM   14  H   UNL     1      -8.009   1.704 -31.785  1.00  0.00     0.169 HD
BRANCH  12  15
HETATM   15  C   UNL     1      -5.586   1.529 -32.346  1.00  0.00     0.087 A 
HETATM   16  C   UNL     1      -4.848   0.199 -32.352  1.00  0.00     0.032 A 
HETATM   17  C   UNL     1      -5.696   0.604 -31.167  1.00  0.00     0.025 A 
BRANCH  16  18
HETATM   18  C   UNL     1      -5.277  -0.998 -33.173  1.00  0.00    -0.053 A 
HETATM   19  C   UNL     1      -6.631  -1.295 -33.399  1.00  0.00     0.009 A 
HETATM   20  C   UNL     1      -7.020  -2.392 -34.177  1.00  0.00     0.024 A 
HETATM   21  C   UNL     1      -6.053  -3.202 -34.761  1.00  0.00     0.034 A 
HETATM   22  C   UNL     1      -4.703  -2.924 -34.574  1.00  0.00     0.024 A 
HETATM   23 CL   UNL     1      -6.524  -4.547 -35.723  1.00  0.00    -0.084 Cl
HETATM   24  C   UNL     1      -4.324  -1.829 -33.790  1.00  0.00     0.009 A 
ENDBRANCH  16  18
ENDBRANCH  12  15
ENDBRANCH   1  11
BRANCH   8  25
HETATM   25  C   UNL     1     -13.266  -0.103 -33.805  1.00  0.00     0.270 C 
HETATM   26  N   UNL     1     -14.598  -0.297 -34.051  1.00  0.00    -0.365 N 
HETATM   27  H   UNL     1     -15.109   0.419 -34.553  1.00  0.00     0.159 HD
HETATM   28  H   UNL     1     -15.048  -1.139 -33.727  1.00  0.00     0.159 HD
HETATM   29  O   UNL     1     -12.606  -0.941 -33.201  1.00  0.00    -0.266 OA
ENDBRANCH   8  25
TORSDOF 4
ENDMDL
MODEL 2
REMARK VINA RESULT:      -8.8      2.649      3.910
REMARK  4 active torsions:
REMARK  status: ('A' for Active; 'I' for Inactive)
REMARK    1  A    between atoms: C_2  and  C_3 
REMARK    2  A    between atoms: C_4  and  C_5 
REMARK       I    between atoms: C_5  and  N_6 
REMARK    3  A    between atoms: N_6  and  C_7 
REMARK    4  A    between atoms: C_14  and  C_15 
REMARK       I    between atoms: C_15  and  N_16 
ROOT
HETATM    1  C   UNL     1      -8.903   0.862 -33.078  1.00  0.00     0.035 A 
HETATM    2  C   UNL     1     -10.218   0.399 -33.226  1.00  0.00     0.046 A 
HETATM    3  C   UNL     1     -11.238   1.301 -33.603  1.00  0.00     0.030 A 
HETATM    4  C   UNL     1     -10.910   2.633 -33.812  1.00  0.00     0.063 A 
HETATM    5  N   UNL     1     -12.085   3.246 -34.153  1.00  0.00    -0.277 N 
HETATM    6  H   UNL     1     -12.224   4.225 -34.374  1.00  0.00     0.189 HD
HETATM    7  N   UNL     1     -13.149   2.429 -34.189  1.00  0.00    -0.168 NA
HETATM    8  C   UNL     1     -12.641   1.220 -33.854  1.00  0.00     0.156 A 
HETATM    9  C   UNL     1      -9.614   3.131 -33.673  1.00  0.00     0.034 A 
HETATM   10  C   UNL     1      -8.620   2.216 -33.304  1.00  0.00     0.032 A 
ENDROOT
BRANCH   1  11
HETATM   11  N   UNL     1      -7.818   0.037 -32.713  1.00  0.00    -0.327 N 
HETATM   12  C   UNL     1      -6.711  -0.275 -33.470  1.00  0.00     0.227 C 
HETATM   13  O   UNL     1      -6.445   0.118 -34.596  1.00  0.00    -0.273 OA
HETATM   14  H   UNL     1      -7.861  -0.370 -31.791  1.00  0.00     0.169 HD
BRANCH  12  15
HETATM   15  C   UNL     1      -5.709  -1.142 -32.786  1.00  0.00     0.087 A 
HETATM   16  C   UNL     1      -4.714  -0.570 -31.788  1.00  0.00     0.032 A 
HETATM   17  C   UNL     1      -4.237  -1.177 -33.090  1.00  0.00     0.025 A 
BRANCH  16  18
HETATM   18  C   UNL     1      -4.506   0.912 -31.564  1.00  0.00    -0.053 A 
HETATM   19  C   UNL     1      -3.581   1.655 -32.317  1.00  0.00     0.009 A 
HETATM   20  C   UNL     1      -3.410   3.030 -32.118  1.00  0.00     0.024 A 
HETATM   21  C   UNL     1      -4.180   3.691 -31.167  1.00  0.00     0.034 A 
HETATM   22  C   UNL     1      -5.120   2.989 -30.419  1.00  0.00     0.024 A 
HETATM   23 CL   UNL     1      -3.979   5.381 -30.922  1.00  0.00    -0.084 Cl
HETATM   24  C   UNL     1      -5.280   1.615 -30.621  1.00  0.00     0.009 A 
ENDBRANCH  16  18
ENDBRANCH  12  15
ENDBRANCH   1  11
BRANCH   8  25
HETATM   25  C   UNL     1     -13.498   0.028 -33.782  1.00  0.00     0.270 C 
HETATM   26  N   UNL     1     -14.756   0.213 -34.288  1.00  0.00    -0.365 N 
HETATM   27  H   UNL     1     -15.001   1.122 -34.660  1.00  0.00     0.159 HD
HETATM   28  H   UNL     1     -15.414  -0.550 -34.278  1.00  0.00     0.159 HD
HETATM   29  O   UNL     1     -13.155  -1.054 -33.320  1.00  0.00    -0.266 OA
ENDBRANCH   8  25
TORSDOF 4
ENDMDL
MODEL 3
REMARK VINA RESULT:      -8.8      4.243      7.604
REMARK  4 active torsions:
REMARK  status: ('A' for Active; 'I' for Inactive)
REMARK    1  A    between atoms: C_2  and  C_3 
REMARK    2  A    between atoms: C_4  and  C_5 
REMARK       I    between atoms: C_5  and  N_6 
REMARK    3  A    between atoms: N_6  and  C_7 
REMARK    4  A    between atoms: C_14  and  C_15 
REMARK       I    between atoms: C_15  and  N_16 
ROOT
HETATM    1  C   UNL     1      -5.022   4.029 -32.912  1.00  0.00     0.035 A 
HETATM    2  C   UNL     1      -3.800   4.279 -32.274  1.00  0.00     0.046 A 
HETATM    3  C   UNL     1      -2.796   5.009 -32.950  1.00  0.00     0.030 A 
HETATM    4  C   UNL     1      -3.046   5.458 -34.239  1.00  0.00     0.063 A 
HETATM    5  N   UNL     1      -1.908   6.112 -34.622  1.00  0.00    -0.277 N 
HETATM    6  H   UNL     1      -1.732   6.568 -35.510  1.00  0.00     0.189 HD
HETATM    7  N   UNL     1      -0.939   6.134 -33.693  1.00  0.00    -0.168 NA
HETATM    8  C   UNL     1      -1.474   5.458 -32.651  1.00  0.00     0.156 A 
HETATM    9  C   UNL     1      -4.250   5.227 -34.907  1.00  0.00     0.034 A 
HETATM   10  C   UNL     1      -5.231   4.506 -34.214  1.00  0.00     0.032 A 
ENDROOT
BRANCH   1  11
HETATM   11  N   UNL     1      -6.086   3.317 -32.318  1.00  0.00    -0.327 N 
HETATM   12  C   UNL     1      -7.172   2.751 -32.948  1.00  0.00     0.227 C 
HETATM   13  O   UNL     1      -7.413   2.739 -34.147  1.00  0.00    -0.273 OA
HETATM   14  H   UNL     1      -6.045   3.214 -31.315  1.00  0.00     0.169 HD
BRANCH  12  15
HETATM   15  C   UNL     1      -8.110   2.022 -32.048  1.00  0.00     0.087 A 
HETATM   16  C   UNL     1      -7.960   0.531 -31.786  1.00  0.00     0.032 A 
HETATM   17  C   UNL     1      -9.183   1.070 -32.496  1.00  0.00     0.025 A 
BRANCH  16  18
HETATM   18  C   UNL     1      -7.016  -0.367 -32.554  1.00  0.00    -0.053 A 
HETATM   19  C   UNL     1      -5.696  -0.592 -32.131  1.00  0.00     0.009 A 
HETATM   20  C   UNL     1      -4.835  -1.442 -32.835  1.00  0.00     0.024 A 
HETATM   21  C   UNL     1      -5.292  -2.099 -33.972  1.00  0.00     0.034 A 
HETATM   22  C   UNL     1      -6.600  -1.916 -34.406  1.00  0.00     0.024 A 
HETATM   23 CL   UNL     1      -4.241  -3.150 -34.838  1.00  0.00    -0.084 Cl
HETATM   24  C   UNL     1      -7.451  -1.060 -33.699  1.00  0.00     0.009 A 
ENDBRANCH  16  18
ENDBRANCH  12  15
ENDBRANCH   1  11
BRANCH   8  25
HETATM   25  C   UNL     1      -0.719   5.258 -31.406  1.00  0.00     0.270 C 
HETATM   26  N   UNL     1      -1.359   5.712 -30.285  1.00  0.00    -0.365 N 
HETATM   27  H   UNL     1      -2.271   6.141 -30.386  1.00  0.00     0.159 HD
HETATM   28  H   UNL     1      -0.915   5.620 -29.385  1.00  0.00     0.159 HD
HETATM   29  O   UNL     1       0.387   4.734 -31.334  1.00  0.00    -0.266 OA
ENDBRANCH   8  25
TORSDOF 4
ENDMDL
MODEL 4
REMARK VINA RESULT:      -8.8      6.366      9.033
REMARK  4 active torsions:
REMARK  status: ('A' for Active; 'I' for Inactive)
REMARK    1  A    between atoms: C_2  and  C_3 
REMARK    2  A    between atoms: C_4  and  C_5 
REMARK       I    between atoms: C_5  and  N_6 
REMARK    3  A    between atoms: N_6  and  C_7 
REMARK    4  A    between atoms: C_14  and  C_15 
REMARK       I    between atoms: C_15  and  N_16 
ROOT
HETATM    1  C   UNL     1      -4.264   3.623 -31.837  1.00  0.00     0.035 A 
HETATM    2  C   UNL     1      -4.499   2.282 -32.170  1.00  0.00     0.046 A 
HETATM    3  C   UNL     1      -5.324   1.491 -31.340  1.00  0.00     0.030 A 
HETATM    4  C   UNL     1      -5.878   2.063 -30.204  1.00  0.00     0.063 A 
HETATM    5  N   UNL     1      -6.606   1.067 -29.614  1.00  0.00    -0.277 N 
HETATM    6  H   UNL     1      -7.147   1.126 -28.759  1.00  0.00     0.189 HD
HETATM    7  N   UNL     1      -6.579  -0.105 -30.268  1.00  0.00    -0.168 NA
HETATM    8  C   UNL     1      -5.792   0.142 -31.341  1.00  0.00     0.156 A 
HETATM    9  C   UNL     1      -5.666   3.394 -29.839  1.00  0.00     0.034 A 
HETATM   10  C   UNL     1      -4.850   4.159 -30.681  1.00  0.00     0.032 A 
ENDROOT
BRANCH   1  11
HETATM   11  N   UNL     1      -3.462   4.494 -32.606  1.00  0.00    -0.327 N 
HETATM   12  C   UNL     1      -2.102   4.686 -32.509  1.00  0.00     0.227 C 
HETATM   13  O   UNL     1      -1.324   4.125 -31.752  1.00  0.00    -0.273 OA
HETATM   14  H   UNL     1      -3.944   5.038 -33.306  1.00  0.00     0.169 HD
BRANCH  12  15
HETATM   15  C   UNL     1      -1.534   5.647 -33.496  1.00  0.00     0.087 A 
HETATM   16  C   UNL     1      -0.780   6.891 -33.050  1.00  0.00     0.032 A 
HETATM   17  C   UNL     1      -2.088   7.011 -33.802  1.00  0.00     0.025 A 
BRANCH  16  18
HETATM   18  C   UNL     1      -0.724   7.372 -31.617  1.00  0.00    -0.053 A 
HETATM   19  C   UNL     1      -1.755   8.140 -31.051  1.00  0.00     0.009 A 
HETATM   20  C   UNL     1      -1.706   8.563 -29.717  1.00  0.00     0.024 A 
HETATM   21  C   UNL     1      -0.626   8.204 -28.918  1.00  0.00     0.034 A 
HETATM   22  C   UNL     1       0.402   7.426 -29.441  1.00  0.00     0.024 A 
HETATM   23 CL   UNL     1      -0.562   8.715 -27.277  1.00  0.00    -0.084 Cl
HETATM   24  C   UNL     1       0.347   7.013 -30.776  1.00  0.00     0.009 A 
ENDBRANCH  16  18
ENDBRANCH  12  15
ENDBRANCH   1  11
BRANCH   8  25
HETATM   25  C   UNL     1      -5.507  -0.905 -32.332  1.00  0.00     0.270 C 
HETATM   26  N   UNL     1      -4.250  -1.438 -32.237  1.00  0.00    -0.365 N 
HETATM   27  H   UNL     1      -3.627  -1.086 -31.521  1.00  0.00     0.159 HD
HETATM   28  H   UNL     1      -3.965  -2.161 -32.878  1.00  0.00     0.159 HD
HETATM   29  O   UNL     1      -6.297  -1.297 -33.183  1.00  0.00    -0.266 OA
ENDBRANCH   8  25
TORSDOF 4
ENDMDL
MODEL 5
REMARK VINA RESULT:      -8.8      7.928     10.767
REMARK  4 active torsions:
REMARK  status: ('A' for Active; 'I' for Inactive)
REMARK    1  A    between atoms: C_2  and  C_3 
REMARK    2  A    between atoms: C_4  and  C_5 
REMARK       I    between atoms: C_5  and  N_6 
REMARK    3  A    between atoms: N_6  and  C_7 
REMARK    4  A    between atoms: C_14  and  C_15 
REMARK       I    between atoms: C_15  and  N_16 
ROOT
HETATM    1  C   UNL     1      -1.020   7.084 -30.181  1.00  0.00     0.035 A 
HETATM    2  C   UNL     1      -2.065   6.984 -29.253  1.00  0.00     0.046 A 
HETATM    3  C   UNL     1      -1.812   7.239 -27.886  1.00  0.00     0.030 A 
HETATM    4  C   UNL     1      -0.524   7.577 -27.495  1.00  0.00     0.063 A 
HETATM    5  N   UNL     1      -0.591   7.753 -26.140  1.00  0.00    -0.277 N 
HETATM    6  H   UNL     1       0.167   8.005 -25.516  1.00  0.00     0.189 HD
HETATM    7  N   UNL     1      -1.811   7.564 -25.614  1.00  0.00    -0.168 NA
HETATM    8  C   UNL     1      -2.579   7.248 -26.682  1.00  0.00     0.156 A 
HETATM    9  C   UNL     1       0.542   7.685 -28.390  1.00  0.00     0.034 A 
HETATM   10  C   UNL     1       0.264   7.434 -29.740  1.00  0.00     0.032 A 
ENDROOT
BRANCH   1  11
HETATM   11  N   UNL     1      -1.177   6.857 -31.565  1.00  0.00    -0.327 N 
HETATM   12  C   UNL     1      -1.708   7.716 -32.501  1.00  0.00     0.227 C 
HETATM   13  O   UNL     1      -2.127   8.849 -32.318  1.00  0.00    -0.273 OA
HETATM   14  H   UNL     1      -0.864   5.959 -31.905  1.00  0.00     0.169 HD
BRANCH  12  15
HETATM   15  C   UNL     1      -1.697   7.202 -33.901  1.00  0.00     0.087 A 
HETATM   16  C   UNL     1      -2.531   5.997 -34.310  1.00  0.00     0.032 A 
HETATM   17  C   UNL     1      -1.020   5.940 -34.359  1.00  0.00     0.025 A 
BRANCH  16  18
HETATM   18  C   UNL     1      -3.256   5.103 -33.328  1.00  0.00    -0.053 A 
HETATM   19  C   UNL     1      -2.667   3.939 -32.809  1.00  0.00     0.009 A 
HETATM   20  C   UNL     1      -3.336   3.129 -31.884  1.00  0.00     0.024 A 
HETATM   21  C   UNL     1      -4.607   3.484 -31.447  1.00  0.00     0.034 A 
HETATM   22  C   UNL     1      -5.212   4.642 -31.925  1.00  0.00     0.024 A 
HETATM   23 CL   UNL     1      -5.432   2.496 -30.307  1.00  0.00    -0.084 Cl
HETATM   24  C   UNL     1      -4.538   5.442 -32.853  1.00  0.00     0.009 A 
ENDBRANCH  16  18
ENDBRANCH  12  15
ENDBRANCH   1  11
BRANCH   8  25
HETATM   25  C   UNL     1      -4.013   6.965 -26.531  1.00  0.00     0.270 C 
HETATM   26  N   UNL     1      -4.338   5.641 -26.656  1.00  0.00    -0.365 N 
HETATM   27  H   UNL     1      -3.597   4.975 -26.839  1.00  0.00     0.159 HD
HETATM   28  H   UNL     1      -5.300   5.353 -26.570  1.00  0.00     0.159 HD
HETATM   29  O   UNL     1      -4.874   7.808 -26.310  1.00  0.00    -0.266 OA
ENDBRANCH   8  25
TORSDOF 4
ENDMDL
MODEL 6
REMARK VINA RESULT:      -8.7      2.549      3.286
REMARK  4 active torsions:
REMARK  status: ('A' for Active; 'I' for Inactive)
REMARK    1  A    between atoms: C_2  and  C_3 
REMARK    2  A    between atoms: C_4  and  C_5 
REMARK       I    between atoms: C_5  and  N_6 
REMARK    3  A    between atoms: N_6  and  C_7 
REMARK    4  A    between atoms: C_14  and  C_15 
REMARK       I    between atoms: C_15  and  N_16 
ROOT
HETATM    1  C   UNL     1     -10.910   2.432 -33.431  1.00  0.00     0.035 A 
HETATM    2  C   UNL     1     -11.974   3.198 -32.937  1.00  0.00     0.046 A 
HETATM    3  C   UNL     1     -13.261   2.622 -32.837  1.00  0.00     0.030 A 
HETATM    4  C   UNL     1     -13.440   1.306 -33.240  1.00  0.00     0.063 A 
HETATM    5  N   UNL     1     -14.765   1.041 -33.033  1.00  0.00    -0.277 N 
HETATM    6  H   UNL     1     -15.253   0.172 -33.219  1.00  0.00     0.189 HD
HETATM    7  N   UNL     1     -15.467   2.067 -32.526  1.00  0.00    -0.168 NA
HETATM    8  C   UNL     1     -14.549   3.053 -32.396  1.00  0.00     0.156 A 
HETATM    9  C   UNL     1     -12.405   0.513 -33.738  1.00  0.00     0.034 A 
HETATM   10  C   UNL     1     -11.138   1.105 -33.822  1.00  0.00     0.032 A 
ENDROOT
BRANCH   1  11
HETATM   11  N   UNL     1      -9.590   2.915 -33.562  1.00  0.00    -0.327 N 
HETATM   12  C   UNL     1      -8.596   2.905 -32.609  1.00  0.00     0.227 C 
HETATM   13  O   UNL     1      -8.658   2.455 -31.474  1.00  0.00    -0.273 OA
HETATM   14  H   UNL     1      -9.351   3.316 -34.456  1.00  0.00     0.169 HD
BRANCH  12  15
HETATM   15  C   UNL     1      -7.286   3.451 -33.065  1.00  0.00     0.087 A 
HETATM   16  C   UNL     1      -6.298   2.598 -33.845  1.00  0.00     0.032 A 
HETATM   17  C   UNL     1      -5.948   3.116 -32.467  1.00  0.00     0.025 A 
BRANCH  16  18
HETATM   18  C   UNL     1      -6.446   1.105 -34.039  1.00  0.00    -0.053 A 
HETATM   19  C   UNL     1      -7.223   0.564 -35.077  1.00  0.00     0.009 A 
HETATM   20  C   UNL     1      -7.338  -0.818 -35.264  1.00  0.00     0.024 A 
HETATM   21  C   UNL     1      -6.657  -1.687 -34.419  1.00  0.00     0.034 A 
HETATM   22  C   UNL     1      -5.863  -1.186 -33.393  1.00  0.00     0.024 A 
HETATM   23 CL   UNL     1      -6.789  -3.387 -34.646  1.00  0.00    -0.084 Cl
HETATM   24  C   UNL     1      -5.758   0.197 -33.212  1.00  0.00     0.009 A 
ENDBRANCH  16  18
ENDBRANCH  12  15
ENDBRANCH   1  11
BRANCH   8  25
HETATM   25  C   UNL     1     -14.918   4.370 -31.859  1.00  0.00     0.270 C 
HETATM   26  N   UNL     1     -15.890   5.013 -32.576  1.00  0.00    -0.365 N 
HETATM   27  H   UNL     1     -16.270   4.557 -33.396  1.00  0.00     0.159 HD
HETATM   28  H   UNL     1     -16.205   5.925 -32.284  1.00  0.00     0.159 HD
HETATM   29  O   UNL     1     -14.427   4.882 -30.860  1.00  0.00    -0.266 OA
ENDBRANCH   8  25
TORSDOF 4
ENDMDL
MODEL 7
REMARK VINA RESULT:      -8.6      5.248      8.122
REMARK  4 active torsions:
REMARK  status: ('A' for Active; 'I' for Inactive)
REMARK    1  A    between atoms: C_2  and  C_3 
REMARK    2  A    between atoms: C_4  and  C_5 
REMARK       I    between atoms: C_5  and  N_6 
REMARK    3  A    between atoms: N_6  and  C_7 
REMARK    4  A    between atoms: C_14  and  C_15 
REMARK       I    between atoms: C_15  and  N_16 
ROOT
HETATM    1  C   UNL     1      -4.595   0.578 -32.946  1.00  0.00     0.035 A 
HETATM    2  C   UNL     1      -4.758  -0.686 -33.530  1.00  0.00     0.046 A 
HETATM    3  C   UNL     1      -4.077  -1.799 -32.987  1.00  0.00     0.030 A 
HETATM    4  C   UNL     1      -3.253  -1.610 -31.886  1.00  0.00     0.063 A 
HETATM    5  N   UNL     1      -2.739  -2.844 -31.602  1.00  0.00    -0.277 N 
HETATM    6  H   UNL     1      -2.093  -3.083 -30.858  1.00  0.00     0.189 HD
HETATM    7  N   UNL     1      -3.159  -3.824 -32.418  1.00  0.00    -0.168 NA
HETATM    8  C   UNL     1      -3.990  -3.194 -33.279  1.00  0.00     0.156 A 
HETATM    9  C   UNL     1      -3.065  -0.367 -31.279  1.00  0.00     0.034 A 
HETATM   10  C   UNL     1      -3.756   0.719 -31.831  1.00  0.00     0.032 A 
ENDROOT
BRANCH   1  11
HETATM   11  N   UNL     1      -5.237   1.745 -33.410  1.00  0.00    -0.327 N 
HETATM   12  C   UNL     1      -6.095   2.565 -32.711  1.00  0.00     0.227 C 
HETATM   13  O   UNL     1      -6.449   2.450 -31.547  1.00  0.00    -0.273 OA
HETATM   14  H   UNL     1      -5.046   2.006 -34.366  1.00  0.00     0.169 HD
BRANCH  12  15
HETATM   15  C   UNL     1      -6.580   3.755 -33.467  1.00  0.00     0.087 A 
HETATM   16  C   UNL     1      -5.659   4.922 -33.784  1.00  0.00     0.032 A 
HETATM   17  C   UNL     1      -6.854   5.109 -32.875  1.00  0.00     0.025 A 
BRANCH  16  18
HETATM   18  C   UNL     1      -4.273   5.084 -33.199  1.00  0.00    -0.053 A 
HETATM   19  C   UNL     1      -4.072   5.509 -31.875  1.00  0.00     0.009 A 
HETATM   20  C   UNL     1      -2.787   5.635 -31.334  1.00  0.00     0.024 A 
HETATM   21  C   UNL     1      -1.677   5.318 -32.110  1.00  0.00     0.034 A 
HETATM   22  C   UNL     1      -1.842   4.875 -33.418  1.00  0.00     0.024 A 
HETATM   23 CL   UNL     1      -0.096   5.466 -31.449  1.00  0.00    -0.084 Cl
HETATM   24  C   UNL     1      -3.129   4.757 -33.951  1.00  0.00     0.009 A 
ENDBRANCH  16  18
ENDBRANCH  12  15
ENDBRANCH   1  11
BRANCH   8  25
HETATM   25  C   UNL     1      -4.675  -3.930 -34.351  1.00  0.00     0.270 C 
HETATM   26  N   UNL     1      -4.500  -5.286 -34.298  1.00  0.00    -0.365 N 
HETATM   27  H   UNL     1      -3.930  -5.673 -33.556  1.00  0.00     0.159 HD
HETATM   28  H   UNL     1      -4.931  -5.872 -34.996  1.00  0.00     0.159 HD
HETATM   29  O   UNL     1      -5.355  -3.414 -35.231  1.00  0.00    -0.266 OA
ENDBRANCH   8  25
TORSDOF 4
ENDMDL
MODEL 8
REMARK VINA RESULT:      -8.6      2.454      3.051
REMARK  4 active torsions:
REMARK  status: ('A' for Active; 'I' for Inactive)
REMARK    1  A    between atoms: C_2  and  C_3 
REMARK    2  A    between atoms: C_4  and  C_5 
REMARK       I    between atoms: C_5  and  N_6 
REMARK    3  A    between atoms: N_6  and  C_7 
REMARK    4  A    between atoms: C_14  and  C_15 
REMARK       I    between atoms: C_15  and  N_16 
ROOT
HETATM    1  C   UNL     1      -8.417   1.829 -32.668  1.00  0.00     0.035 A 
HETATM    2  C   UNL     1      -9.175   2.914 -32.208  1.00  0.00     0.046 A 
HETATM    3  C   UNL     1     -10.574   2.925 -32.412  1.00  0.00     0.030 A 
HETATM    4  C   UNL     1     -11.163   1.857 -33.074  1.00  0.00     0.063 A 
HETATM    5  N   UNL     1     -12.498   2.153 -33.123  1.00  0.00    -0.277 N 
HETATM    6  H   UNL     1     -13.235   1.596 -33.538  1.00  0.00     0.189 HD
HETATM    7  N   UNL     1     -12.831   3.320 -32.547  1.00  0.00    -0.168 NA
HETATM    8  C   UNL     1     -11.652   3.808 -32.099  1.00  0.00     0.156 A 
HETATM    9  C   UNL     1     -10.441   0.761 -33.547  1.00  0.00     0.034 A 
HETATM   10  C   UNL     1      -9.058   0.770 -33.327  1.00  0.00     0.032 A 
ENDROOT
BRANCH   1  11
HETATM   11  N   UNL     1      -7.019   1.724 -32.505  1.00  0.00    -0.327 N 
HETATM   12  C   UNL     1      -6.337   0.918 -31.621  1.00  0.00     0.227 C 
HETATM   13  O   UNL     1      -6.809   0.124 -30.822  1.00  0.00    -0.273 OA
HETATM   14  H   UNL     1      -6.458   2.309 -33.106  1.00  0.00     0.169 HD
BRANCH  12  15
HETATM   15  C   UNL     1      -4.851   0.999 -31.719  1.00  0.00     0.087 A 
HETATM   16  C   UNL     1      -4.067   0.090 -32.652  1.00  0.00     0.032 A 
HETATM   17  C   UNL     1      -3.887  -0.005 -31.152  1.00  0.00     0.025 A 
BRANCH  16  18
HETATM   18  C   UNL     1      -4.672  -1.089 -33.382  1.00  0.00    -0.053 A 
HETATM   19  C   UNL     1      -5.823  -0.960 -34.176  1.00  0.00     0.009 A 
HETATM   20  C   UNL     1      -6.364  -2.051 -34.866  1.00  0.00     0.024 A 
HETATM   21  C   UNL     1      -5.745  -3.293 -34.787  1.00  0.00     0.034 A 
HETATM   22  C   UNL     1      -4.591  -3.452 -34.027  1.00  0.00     0.024 A 
HETATM   23 CL   UNL     1      -6.402  -4.636 -35.637  1.00  0.00    -0.084 Cl
HETATM   24  C   UNL     1      -4.061  -2.357 -33.336  1.00  0.00     0.009 A 
ENDBRANCH  16  18
ENDBRANCH  12  15
ENDBRANCH   1  11
BRANCH   8  25
HETATM   25  C   UNL     1     -11.581   5.094 -31.390  1.00  0.00     0.270 C 
HETATM   26  N   UNL     1     -12.270   5.118 -30.208  1.00  0.00    -0.365 N 
HETATM   27  H   UNL     1     -12.763   4.284 -29.916  1.00  0.00     0.159 HD
HETATM   28  H   UNL     1     -12.280   5.961 -29.654  1.00  0.00     0.159 HD
HETATM   29  O   UNL     1     -10.970   6.079 -31.786  1.00  0.00    -0.266 OA
ENDBRANCH   8  25
TORSDOF 4
ENDMDL
MODEL 9
REMARK VINA RESULT:      -8.6      4.699      7.465
REMARK  4 active torsions:
REMARK  status: ('A' for Active; 'I' for Inactive)
REMARK    1  A    between atoms: C_2  and  C_3 
REMARK    2  A    between atoms: C_4  and  C_5 
REMARK       I    between atoms: C_5  and  N_6 
REMARK    3  A    between atoms: N_6  and  C_7 
REMARK    4  A    between atoms: C_14  and  C_15 
REMARK       I    between atoms: C_15  and  N_16 
ROOT
HETATM    1  C   UNL     1      -6.472   0.482 -33.172  1.00  0.00     0.035 A 
HETATM    2  C   UNL     1      -5.441  -0.311 -32.651  1.00  0.00     0.046 A 
HETATM    3  C   UNL     1      -5.075  -1.505 -33.314  1.00  0.00     0.030 A 
HETATM    4  C   UNL     1      -5.756  -1.867 -34.467  1.00  0.00     0.063 A 
HETATM    5  N   UNL     1      -5.192  -3.047 -34.866  1.00  0.00    -0.277 N 
HETATM    6  H   UNL     1      -5.443  -3.604 -35.675  1.00  0.00     0.189 HD
HETATM    7  N   UNL     1      -4.199  -3.485 -34.076  1.00  0.00    -0.168 NA
HETATM    8  C   UNL     1      -4.112  -2.540 -33.112  1.00  0.00     0.156 A 
HETATM    9  C   UNL     1      -6.788  -1.103 -35.015  1.00  0.00     0.034 A 
HETATM   10  C   UNL     1      -7.128   0.078 -34.344  1.00  0.00     0.032 A 
ENDROOT
BRANCH   1  11
HETATM   11  N   UNL     1      -6.902   1.692 -32.587  1.00  0.00    -0.327 N 
HETATM   12  C   UNL     1      -6.549   2.201 -31.357  1.00  0.00     0.227 C 
HETATM   13  O   UNL     1      -5.777   1.713 -30.544  1.00  0.00    -0.273 OA
HETATM   14  H   UNL     1      -7.545   2.245 -33.134  1.00  0.00     0.169 HD
BRANCH  12  15
HETATM   15  C   UNL     1      -7.139   3.532 -31.037  1.00  0.00     0.087 A 
HETATM   16  C   UNL     1      -6.625   4.806 -31.688  1.00  0.00     0.032 A 
HETATM   17  C   UNL     1      -6.487   4.593 -30.196  1.00  0.00     0.025 A 
BRANCH  16  18
HETATM   18  C   UNL     1      -5.367   4.874 -32.527  1.00  0.00    -0.053 A 
HETATM   19  C   UNL     1      -5.414   4.994 -33.926  1.00  0.00     0.009 A 
HETATM   20  C   UNL     1      -4.246   5.077 -34.693  1.00  0.00     0.024 A 
HETATM   21  C   UNL     1      -3.005   5.060 -34.066  1.00  0.00     0.034 A 
HETATM   22  C   UNL     1      -2.924   4.963 -32.681  1.00  0.00     0.024 A 
HETATM   23 CL   UNL     1      -1.567   5.169 -35.003  1.00  0.00    -0.084 Cl
HETATM   24  C   UNL     1      -4.096   4.875 -31.923  1.00  0.00     0.009 A 
ENDBRANCH  16  18
ENDBRANCH  12  15
ENDBRANCH   1  11
BRANCH   8  25
HETATM   25  C   UNL     1      -3.123  -2.645 -32.030  1.00  0.00     0.270 C 
HETATM   26  N   UNL     1      -2.495  -1.466 -31.730  1.00  0.00    -0.365 N 
HETATM   27  H   UNL     1      -2.744  -0.637 -32.255  1.00  0.00     0.159 HD
HETATM   28  H   UNL     1      -1.798  -1.443 -31.003  1.00  0.00     0.159 HD
HETATM   29  O   UNL     1      -2.854  -3.676 -31.424  1.00  0.00    -0.266 OA
ENDBRANCH   8  25
TORSDOF 4
ENDMDL
MODEL 10
REMARK VINA RESULT:      -8.6      1.741      3.103
REMARK  4 active torsions:
REMARK  status: ('A' for Active; 'I' for Inactive)
REMARK    1  A    between atoms: C_2  and  C_3 
REMARK    2  A    between atoms: C_4  and  C_5 
REMARK       I    between atoms: C_5  and  N_6 
REMARK    3  A    between atoms: N_6  and  C_7 
REMARK    4  A    between atoms: C_14  and  C_15 
REMARK       I    between atoms: C_15  and  N_16 
ROOT
HETATM    1  C   UNL     1      -9.134   2.078 -33.398  1.00  0.00     0.035 A 
HETATM    2  C   UNL     1      -9.457   3.328 -33.944  1.00  0.00     0.046 A 
HETATM    3  C   UNL     1     -10.717   3.518 -34.556  1.00  0.00     0.030 A 
HETATM    4  C   UNL     1     -11.605   2.453 -34.606  1.00  0.00     0.063 A 
HETATM    5  N   UNL     1     -12.711   2.934 -35.251  1.00  0.00    -0.277 N 
HETATM    6  H   UNL     1     -13.562   2.428 -35.468  1.00  0.00     0.189 HD
HETATM    7  N   UNL     1     -12.624   4.221 -35.621  1.00  0.00    -0.168 NA
HETATM    8  C   UNL     1     -11.397   4.598 -35.195  1.00  0.00     0.156 A 
HETATM    9  C   UNL     1     -11.318   1.195 -34.075  1.00  0.00     0.034 A 
HETATM   10  C   UNL     1     -10.066   1.033 -33.469  1.00  0.00     0.032 A 
ENDROOT
BRANCH   1  11
HETATM   11  N   UNL     1      -7.907   1.794 -32.761  1.00  0.00    -0.327 N 
HETATM   12  C   UNL     1      -6.649   1.806 -33.322  1.00  0.00     0.227 C 
HETATM   13  O   UNL     1      -6.351   2.085 -34.475  1.00  0.00    -0.273 OA
HETATM   14  H   UNL     1      -7.960   1.553 -31.783  1.00  0.00     0.169 HD
BRANCH  12  15
HETATM   15  C   UNL     1      -5.538   1.503 -32.376  1.00  0.00     0.087 A 
HETATM   16  C   UNL     1      -4.791   0.179 -32.427  1.00  0.00     0.032 A 
HETATM   17  C   UNL     1      -5.619   0.550 -31.216  1.00  0.00     0.025 A 
BRANCH  16  18
HETATM   18  C   UNL     1      -5.228  -1.002 -33.266  1.00  0.00    -0.053 A 
HETATM   19  C   UNL     1      -4.301  -1.864 -33.874  1.00  0.00     0.009 A 
HETATM   20  C   UNL     1      -4.713  -2.967 -34.631  1.00  0.00     0.024 A 
HETATM   21  C   UNL     1      -6.069  -3.236 -34.778  1.00  0.00     0.034 A 
HETATM   22  C   UNL     1      -7.014  -2.413 -34.173  1.00  0.00     0.024 A 
HETATM   23 CL   UNL     1      -6.582  -4.592 -35.703  1.00  0.00    -0.084 Cl
HETATM   24  C   UNL     1      -6.592  -1.311 -33.422  1.00  0.00     0.009 A 
ENDBRANCH  16  18
ENDBRANCH  12  15
ENDBRANCH   1  11
BRANCH   8  25
HETATM   25  C   UNL     1     -10.906   5.967 -35.407  1.00  0.00     0.270 C 
HETATM   26  N   UNL     1     -11.785   6.942 -35.020  1.00  0.00    -0.365 N 
HETATM   27  H   UNL     1     -12.678   6.665 -34.633  1.00  0.00     0.159 HD
HETATM   28  H   UNL     1     -11.534   7.912 -35.131  1.00  0.00     0.159 HD
HETATM   29  O   UNL     1      -9.813   6.254 -35.882  1.00  0.00    -0.266 OA
ENDBRANCH   8  25
TORSDOF 4
ENDMDL
