MODEL 1
REMARK VINA RESULT:      -8.7      0.000      0.000
REMARK  10 active torsions:
REMARK  status: ('A' for Active; 'I' for Inactive)
REMARK    1  A    between atoms: O_2  and  C_3 
REMARK    2  A    between atoms: C_3  and  C_4 
REMARK    3  A    between atoms: C_6  and  C_7 
REMARK    4  A    between atoms: C_7  and  C_8 
REMARK    5  A    between atoms: C_8  and  N_9 
REMARK       I    between atoms: N_9  and  C_10 
REMARK       I    between atoms: C_10  and  N_17 
REMARK    6  A    between atoms: N_17  and  CA_18 
REMARK    7  A    between atoms: CA_18  and  C_19 
REMARK    8  A    between atoms: CA_18  and  CB_21 
REMARK    9  A    between atoms: C_19  and  O_20 
REMARK   10  A    between atoms: CB_21  and  CG_22 
ROOT
HETATM    1  N   UNK A   0      -5.620   3.897 -34.027  1.00  0.00    -0.343 N 
HETATM    2  C   UNK A   0      -6.070   2.948 -33.144  1.00  0.00     0.316 C 
HETATM    3  O   UNK A   0      -5.678   2.833 -31.993  1.00  0.00    -0.248 OA
HETATM    4  H   UNK A   0      -6.258   4.124 -34.775  1.00  0.00     0.164 HD
ATOM      5  N   TRP A   1      -7.032   2.164 -33.726  1.00  0.00    -0.336 N 
ATOM      6  H   TRP A   1      -6.836   2.006 -34.707  1.00  0.00     0.164 HD
ENDROOT
BRANCH   5   7
ATOM      7  CA  TRP A   1      -7.594   0.994 -33.026  1.00  0.00     0.114 C 
BRANCH   7   8
ATOM      8  C   TRP A   1      -9.044   1.248 -32.562  1.00  0.00     0.189 C 
BRANCH   8   9
ATOM      9  O   TRP A   1      -9.293   0.599 -31.315  1.00  0.00    -0.399 OA
ATOM     10  H   TRP A   1     -10.123   0.991 -30.987  1.00  0.00     0.209 HD
ENDBRANCH   8   9
ENDBRANCH   7   8
BRANCH   7  11
ATOM     11  CB  TRP A   1      -7.566  -0.255 -33.936  1.00  0.00     0.068 C 
BRANCH  11  12
ATOM     12  CG  TRP A   1      -6.276  -1.020 -33.849  1.00  0.00    -0.028 A 
ATOM     13  CD2 TRP A   1      -6.065  -2.394 -34.198  1.00  0.00    -0.002 A 
ATOM     14  CE2 TRP A   1      -4.717  -2.678 -33.987  1.00  0.00     0.042 A 
ATOM     15  CE3 TRP A   1      -6.900  -3.422 -34.687  1.00  0.00     0.014 A 
ATOM     16  CZ2 TRP A   1      -4.157  -3.935 -34.245  1.00  0.00     0.030 A 
ATOM     17  NE1 TRP A   1      -4.132  -1.531 -33.504  1.00  0.00    -0.365 N 
ATOM     18  CH2 TRP A   1      -5.004  -4.933 -34.736  1.00  0.00     0.002 A 
ATOM     19  CZ3 TRP A   1      -6.356  -4.683 -34.953  1.00  0.00     0.001 A 
ATOM     20  HE1 TRP A   1      -3.157  -1.447 -33.251  1.00  0.00     0.165 HD
ATOM     21  CD1 TRP A   1      -5.059  -0.526 -33.418  1.00  0.00     0.096 A 
ENDBRANCH  11  12
ENDBRANCH   7  11
ENDBRANCH   5   7
BRANCH   1  22
HETATM   22  C   UNK A   0      -4.708   4.941 -33.597  1.00  0.00     0.129 C 
BRANCH  22  23
HETATM   23  C   UNK A   0      -3.237   4.572 -33.806  1.00  0.00     0.058 C 
BRANCH  23  24
HETATM   24  C   UNK A   0      -2.323   5.542 -33.097  1.00  0.00    -0.056 A 
HETATM   25  C   UNK A   0      -1.375   5.083 -32.170  1.00  0.00     0.024 A 
HETATM   26  C   UNK A   0      -0.503   5.980 -31.533  1.00  0.00     0.040 A 
HETATM   27  C   UNK A   0      -0.583   7.347 -31.830  1.00  0.00     0.017 A 
HETATM   28  C   UNK A   0      -1.523   7.808 -32.754  1.00  0.00     0.002 A 
HETATM   29  C   UNK A   0      -2.386   6.912 -33.384  1.00  0.00     0.007 A 
BRANCH  26  30
HETATM   30  C   UNK A   0       0.483   5.431 -30.562  1.00  0.00     0.292 C 
HETATM   31  O   UNK A   0       0.987   4.323 -30.668  1.00  0.00    -0.259 OA
BRANCH  30  32
HETATM   32  O   UNK A   0       0.734   6.325 -29.573  1.00  0.00    -0.323 OA
HETATM   33  C   UNK A   0       0.298   5.898 -28.282  1.00  0.00     0.213 C 
ENDBRANCH  30  32
ENDBRANCH  26  30
ENDBRANCH  23  24
ENDBRANCH  22  23
ENDBRANCH   1  22
TORSDOF 10
ENDMDL
MODEL 2
REMARK VINA RESULT:      -8.6      3.054      9.990
REMARK  10 active torsions:
REMARK  status: ('A' for Active; 'I' for Inactive)
REMARK    1  A    between atoms: O_2  and  C_3 
REMARK    2  A    between atoms: C_3  and  C_4 
REMARK    3  A    between atoms: C_6  and  C_7 
REMARK    4  A    between atoms: C_7  and  C_8 
REMARK    5  A    between atoms: C_8  and  N_9 
REMARK       I    between atoms: N_9  and  C_10 
REMARK       I    between atoms: C_10  and  N_17 
REMARK    6  A    between atoms: N_17  and  CA_18 
REMARK    7  A    between atoms: CA_18  and  C_19 
REMARK    8  A    between atoms: CA_18  and  CB_21 
REMARK    9  A    between atoms: C_19  and  O_20 
REMARK   10  A    between atoms: CB_21  and  CG_22 
ROOT
HETATM    1  N   UNK A   0      -2.965   3.149 -31.231  1.00  0.00    -0.343 N 
HETATM    2  C   UNK A   0      -2.564   4.087 -32.147  1.00  0.00     0.316 C 
HETATM    3  O   UNK A   0      -2.419   3.871 -33.340  1.00  0.00    -0.248 OA
HETATM    4  H   UNK A   0      -3.397   3.520 -30.397  1.00  0.00     0.164 HD
ATOM      5  N   TRP A   1      -2.371   5.302 -31.542  1.00  0.00    -0.336 N 
ATOM      6  H   TRP A   1      -1.991   5.194 -30.610  1.00  0.00     0.164 HD
ENDROOT
BRANCH   5   7
ATOM      7  CA  TRP A   1      -1.824   6.451 -32.287  1.00  0.00     0.114 C 
BRANCH   7   8
ATOM      8  C   TRP A   1      -2.613   7.746 -32.001  1.00  0.00     0.189 C 
BRANCH   8   9
ATOM      9  O   TRP A   1      -1.847   8.893 -32.369  1.00  0.00    -0.399 OA
ATOM     10  H   TRP A   1      -1.012   8.810 -31.873  1.00  0.00     0.209 HD
ENDBRANCH   8   9
ENDBRANCH   7   8
BRANCH   7  11
ATOM     11  CB  TRP A   1      -0.336   6.676 -31.933  1.00  0.00     0.068 C 
BRANCH  11  12
ATOM     12  CG  TRP A   1       0.016   6.222 -30.546  1.00  0.00    -0.028 A 
ATOM     13  CD2 TRP A   1      -0.172   6.954 -29.328  1.00  0.00    -0.002 A 
ATOM     14  CE2 TRP A   1       0.268   6.145 -28.281  1.00  0.00     0.042 A 
ATOM     15  CE3 TRP A   1      -0.689   8.230 -29.019  1.00  0.00     0.014 A 
ATOM     16  CZ2 TRP A   1       0.212   6.543 -26.940  1.00  0.00     0.030 A 
ATOM     17  NE1 TRP A   1       0.730   4.976 -28.839  1.00  0.00    -0.365 N 
ATOM     18  CH2 TRP A   1      -0.311   7.809 -26.661  1.00  0.00     0.002 A 
ATOM     19  CZ3 TRP A   1      -0.754   8.643 -27.683  1.00  0.00     0.001 A 
ATOM     20  HE1 TRP A   1       1.121   4.206 -28.314  1.00  0.00     0.165 HD
ATOM     21  CD1 TRP A   1       0.582   5.010 -30.200  1.00  0.00     0.096 A 
ENDBRANCH  11  12
ENDBRANCH   7  11
ENDBRANCH   5   7
BRANCH   1  22
HETATM   22  C   UNK A   0      -3.379   1.824 -31.654  1.00  0.00     0.129 C 
BRANCH  22  23
HETATM   23  C   UNK A   0      -4.880   1.580 -31.467  1.00  0.00     0.058 C 
BRANCH  23  24
HETATM   24  C   UNK A   0      -5.496   0.982 -32.709  1.00  0.00    -0.056 A 
HETATM   25  C   UNK A   0      -5.278  -0.365 -33.037  1.00  0.00     0.024 A 
HETATM   26  C   UNK A   0      -5.876  -0.930 -34.174  1.00  0.00     0.040 A 
HETATM   27  C   UNK A   0      -6.699  -0.139 -34.986  1.00  0.00     0.017 A 
HETATM   28  C   UNK A   0      -6.921   1.201 -34.661  1.00  0.00     0.002 A 
HETATM   29  C   UNK A   0      -6.325   1.758 -33.530  1.00  0.00     0.007 A 
BRANCH  26  30
HETATM   30  C   UNK A   0      -5.609  -2.366 -34.466  1.00  0.00     0.292 C 
HETATM   31  O   UNK A   0      -4.497  -2.867 -34.420  1.00  0.00    -0.259 OA
BRANCH  30  32
HETATM   32  O   UNK A   0      -6.759  -3.015 -34.778  1.00  0.00    -0.323 OA
HETATM   33  C   UNK A   0      -6.608  -4.428 -34.915  1.00  0.00     0.213 C 
ENDBRANCH  30  32
ENDBRANCH  26  30
ENDBRANCH  23  24
ENDBRANCH  22  23
ENDBRANCH   1  22
TORSDOF 10
ENDMDL
MODEL 3
REMARK VINA RESULT:      -8.6      1.816      2.057
REMARK  10 active torsions:
REMARK  status: ('A' for Active; 'I' for Inactive)
REMARK    1  A    between atoms: O_2  and  C_3 
REMARK    2  A    between atoms: C_3  and  C_4 
REMARK    3  A    between atoms: C_6  and  C_7 
REMARK    4  A    between atoms: C_7  and  C_8 
REMARK    5  A    between atoms: C_8  and  N_9 
REMARK       I    between atoms: N_9  and  C_10 
REMARK       I    between atoms: C_10  and  N_17 
REMARK    6  A    between atoms: N_17  and  CA_18 
REMARK    7  A    between atoms: CA_18  and  C_19 
REMARK    8  A    between atoms: CA_18  and  CB_21 
REMARK    9  A    between atoms: C_19  and  O_20 
REMARK   10  A    between atoms: CB_21  and  CG_22 
ROOT
HETATM    1  N   UNK A   0      -6.748   4.087 -34.021  1.00  0.00    -0.343 N 
HETATM    2  C   UNK A   0      -6.685   2.873 -33.387  1.00  0.00     0.316 C 
HETATM    3  O   UNK A   0      -5.757   2.509 -32.681  1.00  0.00    -0.248 OA
HETATM    4  H   UNK A   0      -7.679   4.407 -34.244  1.00  0.00     0.164 HD
ATOM      5  N   TRP A   1      -7.814   2.137 -33.638  1.00  0.00    -0.336 N 
ATOM      6  H   TRP A   1      -8.152   2.288 -34.580  1.00  0.00     0.164 HD
ENDROOT
BRANCH   5   7
ATOM      7  CA  TRP A   1      -7.942   0.745 -33.167  1.00  0.00     0.114 C 
BRANCH   7   8
ATOM      8  C   TRP A   1      -9.358   0.453 -32.627  1.00  0.00     0.189 C 
BRANCH   8   9
ATOM      9  O   TRP A   1      -9.397   0.609 -31.209  1.00  0.00    -0.399 OA
ATOM     10  H   TRP A   1      -8.546   1.023 -30.975  1.00  0.00     0.209 HD
ENDBRANCH   8   9
ENDBRANCH   7   8
BRANCH   7  11
ATOM     11  CB  TRP A   1      -7.618  -0.251 -34.304  1.00  0.00     0.068 C 
BRANCH  11  12
ATOM     12  CG  TRP A   1      -6.323  -0.983 -34.096  1.00  0.00    -0.028 A 
ATOM     13  CD2 TRP A   1      -6.078  -2.377 -34.322  1.00  0.00    -0.002 A 
ATOM     14  CE2 TRP A   1      -4.737  -2.619 -34.028  1.00  0.00     0.042 A 
ATOM     15  CE3 TRP A   1      -6.875  -3.456 -34.762  1.00  0.00     0.014 A 
ATOM     16  CZ2 TRP A   1      -4.149  -3.883 -34.156  1.00  0.00     0.030 A 
ATOM     17  NE1 TRP A   1      -4.191  -1.427 -33.614  1.00  0.00    -0.365 N 
ATOM     18  CH2 TRP A   1      -4.958  -4.932 -34.601  1.00  0.00     0.002 A 
ATOM     19  CZ3 TRP A   1      -6.302  -4.725 -34.899  1.00  0.00     0.001 A 
ATOM     20  HE1 TRP A   1      -3.230  -1.306 -33.326  1.00  0.00     0.165 HD
ATOM     21  CD1 TRP A   1      -5.135  -0.435 -33.653  1.00  0.00     0.096 A 
ENDBRANCH  11  12
ENDBRANCH   7  11
ENDBRANCH   5   7
BRANCH   1  22
HETATM   22  C   UNK A   0      -5.739   5.104 -33.786  1.00  0.00     0.129 C 
BRANCH  22  23
HETATM   23  C   UNK A   0      -4.521   4.958 -34.702  1.00  0.00     0.058 C 
BRANCH  23  24
HETATM   24  C   UNK A   0      -3.343   5.743 -34.176  1.00  0.00    -0.056 A 
HETATM   25  C   UNK A   0      -3.504   6.648 -33.115  1.00  0.00     0.024 A 
HETATM   26  C   UNK A   0      -2.404   7.355 -32.605  1.00  0.00     0.040 A 
HETATM   27  C   UNK A   0      -1.135   7.152 -33.162  1.00  0.00     0.017 A 
HETATM   28  C   UNK A   0      -0.970   6.252 -34.216  1.00  0.00     0.002 A 
HETATM   29  C   UNK A   0      -2.066   5.550 -34.719  1.00  0.00     0.007 A 
BRANCH  26  30
HETATM   30  C   UNK A   0      -2.639   8.297 -31.475  1.00  0.00     0.292 C 
HETATM   31  O   UNK A   0      -2.267   9.460 -31.480  1.00  0.00    -0.259 OA
BRANCH  30  32
HETATM   32  O   UNK A   0      -3.316   7.685 -30.472  1.00  0.00    -0.323 OA
HETATM   33  C   UNK A   0      -2.554   7.519 -29.275  1.00  0.00     0.213 C 
ENDBRANCH  30  32
ENDBRANCH  26  30
ENDBRANCH  23  24
ENDBRANCH  22  23
ENDBRANCH   1  22
TORSDOF 10
ENDMDL
MODEL 4
REMARK VINA RESULT:      -8.6      1.987      2.914
REMARK  10 active torsions:
REMARK  status: ('A' for Active; 'I' for Inactive)
REMARK    1  A    between atoms: O_2  and  C_3 
REMARK    2  A    between atoms: C_3  and  C_4 
REMARK    3  A    between atoms: C_6  and  C_7 
REMARK    4  A    between atoms: C_7  and  C_8 
REMARK    5  A    between atoms: C_8  and  N_9 
REMARK       I    between atoms: N_9  and  C_10 
REMARK       I    between atoms: C_10  and  N_17 
REMARK    6  A    between atoms: N_17  and  CA_18 
REMARK    7  A    between atoms: CA_18  and  C_19 
REMARK    8  A    between atoms: CA_18  and  CB_21 
REMARK    9  A    between atoms: C_19  and  O_20 
REMARK   10  A    between atoms: CB_21  and  CG_22 
ROOT
HETATM    1  N   UNK A   0      -2.431   4.881 -33.600  1.00  0.00    -0.343 N 
HETATM    2  C   UNK A   0      -2.808   4.152 -32.502  1.00  0.00     0.316 C 
HETATM    3  O   UNK A   0      -2.057   3.830 -31.594  1.00  0.00    -0.248 OA
HETATM    4  H   UNK A   0      -3.176   5.385 -34.057  1.00  0.00     0.164 HD
ATOM      5  N   TRP A   1      -4.145   3.854 -32.554  1.00  0.00    -0.336 N 
ATOM      6  H   TRP A   1      -4.447   3.680 -33.505  1.00  0.00     0.164 HD
ENDROOT
BRANCH   5   7
ATOM      7  CA  TRP A   1      -4.775   2.977 -31.550  1.00  0.00     0.114 C 
BRANCH   7   8
ATOM      8  C   TRP A   1      -5.621   3.780 -30.540  1.00  0.00     0.189 C 
BRANCH   8   9
ATOM      9  O   TRP A   1      -5.334   3.367 -29.204  1.00  0.00    -0.399 OA
ATOM     10  H   TRP A   1      -5.932   2.617 -29.036  1.00  0.00     0.209 HD
ENDBRANCH   8   9
ENDBRANCH   7   8
BRANCH   7  11
ATOM     11  CB  TRP A   1      -5.672   1.918 -32.232  1.00  0.00     0.068 C 
BRANCH  11  12
ATOM     12  CG  TRP A   1      -4.919   0.689 -32.653  1.00  0.00    -0.028 A 
ATOM     13  CD2 TRP A   1      -5.439  -0.430 -33.382  1.00  0.00    -0.002 A 
ATOM     14  CE2 TRP A   1      -4.389  -1.327 -33.578  1.00  0.00     0.042 A 
ATOM     15  CE3 TRP A   1      -6.708  -0.759 -33.904  1.00  0.00     0.014 A 
ATOM     16  CZ2 TRP A   1      -4.540  -2.532 -34.274  1.00  0.00     0.030 A 
ATOM     17  NE1 TRP A   1      -3.278  -0.788 -32.971  1.00  0.00    -0.365 N 
ATOM     18  CH2 TRP A   1      -5.806  -2.829 -34.788  1.00  0.00     0.002 A 
ATOM     19  CZ3 TRP A   1      -6.877  -1.958 -34.605  1.00  0.00     0.001 A 
ATOM     20  HE1 TRP A   1      -2.369  -1.229 -32.945  1.00  0.00     0.165 HD
ATOM     21  CD1 TRP A   1      -3.584   0.424 -32.413  1.00  0.00     0.096 A 
ENDBRANCH  11  12
ENDBRANCH   7  11
ENDBRANCH   5   7
BRANCH   1  22
HETATM   22  C   UNK A   0      -1.097   5.446 -33.697  1.00  0.00     0.129 C 
BRANCH  22  23
HETATM   23  C   UNK A   0      -1.089   6.974 -33.606  1.00  0.00     0.058 C 
BRANCH  23  24
HETATM   24  C   UNK A   0      -1.206   7.438 -32.173  1.00  0.00    -0.056 A 
HETATM   25  C   UNK A   0      -0.352   6.926 -31.185  1.00  0.00     0.024 A 
HETATM   26  C   UNK A   0      -0.439   7.379 -29.859  1.00  0.00     0.040 A 
HETATM   27  C   UNK A   0      -1.389   8.352 -29.524  1.00  0.00     0.017 A 
HETATM   28  C   UNK A   0      -2.239   8.867 -30.505  1.00  0.00     0.002 A 
HETATM   29  C   UNK A   0      -2.147   8.414 -31.821  1.00  0.00     0.007 A 
BRANCH  26  30
HETATM   30  C   UNK A   0       0.498   6.799 -28.857  1.00  0.00     0.292 C 
HETATM   31  O   UNK A   0       0.623   5.599 -28.667  1.00  0.00    -0.259 OA
BRANCH  30  32
HETATM   32  O   UNK A   0       1.176   7.780 -28.209  1.00  0.00    -0.323 OA
HETATM   33  C   UNK A   0       1.373   7.526 -26.818  1.00  0.00     0.213 C 
ENDBRANCH  30  32
ENDBRANCH  26  30
ENDBRANCH  23  24
ENDBRANCH  22  23
ENDBRANCH   1  22
TORSDOF 10
ENDMDL
MODEL 5
REMARK VINA RESULT:      -8.6      1.220      1.525
REMARK  10 active torsions:
REMARK  status: ('A' for Active; 'I' for Inactive)
REMARK    1  A    between atoms: O_2  and  C_3 
REMARK    2  A    between atoms: C_3  and  C_4 
REMARK    3  A    between atoms: C_6  and  C_7 
REMARK    4  A    between atoms: C_7  and  C_8 
REMARK    5  A    between atoms: C_8  and  N_9 
REMARK       I    between atoms: N_9  and  C_10 
REMARK       I    between atoms: C_10  and  N_17 
REMARK    6  A    between atoms: N_17  and  CA_18 
REMARK    7  A    between atoms: CA_18  and  C_19 
REMARK    8  A    between atoms: CA_18  and  CB_21 
REMARK    9  A    between atoms: C_19  and  O_20 
REMARK   10  A    between atoms: CB_21  and  CG_22 
ROOT
HETATM    1  N   UNK A   0      -5.448   3.963 -33.994  1.00  0.00    -0.343 N 
HETATM    2  C   UNK A   0      -5.744   3.729 -32.676  1.00  0.00     0.316 C 
HETATM    3  O   UNK A   0      -5.249   4.336 -31.738  1.00  0.00    -0.248 OA
HETATM    4  H   UNK A   0      -6.162   3.686 -34.651  1.00  0.00     0.164 HD
ATOM      5  N   TRP A   1      -6.685   2.739 -32.560  1.00  0.00    -0.336 N 
ATOM      6  H   TRP A   1      -6.559   2.026 -33.267  1.00  0.00     0.164 HD
ENDROOT
BRANCH   5   7
ATOM      7  CA  TRP A   1      -7.089   2.217 -31.241  1.00  0.00     0.114 C 
BRANCH   7   8
ATOM      8  C   TRP A   1      -8.366   2.909 -30.720  1.00  0.00     0.189 C 
BRANCH   8   9
ATOM      9  O   TRP A   1      -9.441   1.975 -30.626  1.00  0.00    -0.399 OA
ATOM     10  H   TRP A   1     -10.250   2.519 -30.618  1.00  0.00     0.209 HD
ENDBRANCH   8   9
ENDBRANCH   7   8
BRANCH   7  11
ATOM     11  CB  TRP A   1      -7.330   0.691 -31.306  1.00  0.00     0.068 C 
BRANCH  11  12
ATOM     12  CG  TRP A   1      -6.138  -0.075 -31.805  1.00  0.00    -0.028 A 
ATOM     13  CD2 TRP A   1      -6.106  -0.995 -32.904  1.00  0.00    -0.002 A 
ATOM     14  CE2 TRP A   1      -4.795  -1.450 -33.031  1.00  0.00     0.042 A 
ATOM     15  CE3 TRP A   1      -7.075  -1.475 -33.811  1.00  0.00     0.014 A 
ATOM     16  CZ2 TRP A   1      -4.399  -2.356 -34.022  1.00  0.00     0.030 A 
ATOM     17  NE1 TRP A   1      -4.060  -0.852 -32.034  1.00  0.00    -0.365 N 
ATOM     18  CH2 TRP A   1      -5.376  -2.809 -34.913  1.00  0.00     0.002 A 
ATOM     19  CZ3 TRP A   1      -6.696  -2.379 -34.810  1.00  0.00     0.001 A 
ATOM     20  HE1 TRP A   1      -3.074  -1.007 -31.877  1.00  0.00     0.165 HD
ATOM     21  CD1 TRP A   1      -4.857  -0.021 -31.291  1.00  0.00     0.096 A 
ENDBRANCH  11  12
ENDBRANCH   7  11
ENDBRANCH   5   7
BRANCH   1  22
HETATM   22  C   UNK A   0      -4.592   5.070 -34.381  1.00  0.00     0.129 C 
BRANCH  22  23
HETATM   23  C   UNK A   0      -3.113   4.681 -34.460  1.00  0.00     0.058 C 
BRANCH  23  24
HETATM   24  C   UNK A   0      -2.268   5.556 -33.566  1.00  0.00    -0.056 A 
HETATM   25  C   UNK A   0      -1.451   4.988 -32.576  1.00  0.00     0.024 A 
HETATM   26  C   UNK A   0      -0.642   5.799 -31.764  1.00  0.00     0.040 A 
HETATM   27  C   UNK A   0      -0.651   7.187 -31.949  1.00  0.00     0.017 A 
HETATM   28  C   UNK A   0      -1.460   7.756 -32.935  1.00  0.00     0.002 A 
HETATM   29  C   UNK A   0      -2.262   6.947 -33.739  1.00  0.00     0.007 A 
BRANCH  26  30
HETATM   30  C   UNK A   0       0.205   5.135 -30.734  1.00  0.00     0.292 C 
HETATM   31  O   UNK A   0       1.207   4.490 -31.000  1.00  0.00    -0.259 OA
BRANCH  30  32
HETATM   32  O   UNK A   0      -0.290   5.356 -29.491  1.00  0.00    -0.323 OA
HETATM   33  C   UNK A   0       0.664   5.897 -28.575  1.00  0.00     0.213 C 
ENDBRANCH  30  32
ENDBRANCH  26  30
ENDBRANCH  23  24
ENDBRANCH  22  23
ENDBRANCH   1  22
TORSDOF 10
ENDMDL
MODEL 6
REMARK VINA RESULT:      -8.4      2.115      2.739
REMARK  10 active torsions:
REMARK  status: ('A' for Active; 'I' for Inactive)
REMARK    1  A    between atoms: O_2  and  C_3 
REMARK    2  A    between atoms: C_3  and  C_4 
REMARK    3  A    between atoms: C_6  and  C_7 
REMARK    4  A    between atoms: C_7  and  C_8 
REMARK    5  A    between atoms: C_8  and  N_9 
REMARK       I    between atoms: N_9  and  C_10 
REMARK       I    between atoms: C_10  and  N_17 
REMARK    6  A    between atoms: N_17  and  CA_18 
REMARK    7  A    between atoms: CA_18  and  C_19 
REMARK    8  A    between atoms: CA_18  and  CB_21 
REMARK    9  A    between atoms: C_19  and  O_20 
REMARK   10  A    between atoms: CB_21  and  CG_22 
ROOT
HETATM    1  N   UNK A   0      -6.014   3.665 -31.328  1.00  0.00    -0.343 N 
HETATM    2  C   UNK A   0      -6.562   2.415 -31.201  1.00  0.00     0.316 C 
HETATM    3  O   UNK A   0      -6.633   1.794 -30.151  1.00  0.00    -0.248 OA
HETATM    4  H   UNK A   0      -6.344   4.200 -32.117  1.00  0.00     0.164 HD
ATOM      5  N   TRP A   1      -7.037   1.970 -32.408  1.00  0.00    -0.336 N 
ATOM      6  H   TRP A   1      -6.447   2.276 -33.172  1.00  0.00     0.164 HD
ENDROOT
BRANCH   5   7
ATOM      7  CA  TRP A   1      -7.568   0.603 -32.565  1.00  0.00     0.114 C 
BRANCH   7   8
ATOM      8  C   TRP A   1      -9.106   0.570 -32.435  1.00  0.00     0.189 C 
BRANCH   8   9
ATOM      9  O   TRP A   1      -9.497   0.692 -31.068  1.00  0.00    -0.399 OA
ATOM     10  H   TRP A   1      -9.158  -0.112 -30.634  1.00  0.00     0.209 HD
ENDBRANCH   8   9
ENDBRANCH   7   8
BRANCH   7  11
ATOM     11  CB  TRP A   1      -7.163   0.011 -33.935  1.00  0.00     0.068 C 
BRANCH  11  12
ATOM     12  CG  TRP A   1      -5.968  -0.896 -33.855  1.00  0.00    -0.028 A 
ATOM     13  CD2 TRP A   1      -5.922  -2.288 -34.193  1.00  0.00    -0.002 A 
ATOM     14  CE2 TRP A   1      -4.613  -2.724 -33.995  1.00  0.00     0.042 A 
ATOM     15  CE3 TRP A   1      -6.876  -3.217 -34.661  1.00  0.00     0.014 A 
ATOM     16  CZ2 TRP A   1      -4.205  -4.039 -34.247  1.00  0.00     0.030 A 
ATOM     17  NE1 TRP A   1      -3.894  -1.648 -33.531  1.00  0.00    -0.365 N 
ATOM     18  CH2 TRP A   1      -5.168  -4.937 -34.717  1.00  0.00     0.002 A 
ATOM     19  CZ3 TRP A   1      -6.485  -4.536 -34.920  1.00  0.00     0.001 A 
ATOM     20  HE1 TRP A   1      -2.912  -1.675 -33.291  1.00  0.00     0.165 HD
ATOM     21  CD1 TRP A   1      -4.697  -0.542 -33.445  1.00  0.00     0.096 A 
ENDBRANCH  11  12
ENDBRANCH   7  11
ENDBRANCH   5   7
BRANCH   1  22
HETATM   22  C   UNK A   0      -5.581   4.412 -30.160  1.00  0.00     0.129 C 
BRANCH  22  23
HETATM   23  C   UNK A   0      -5.529   5.922 -30.404  1.00  0.00     0.058 C 
BRANCH  23  24
HETATM   24  C   UNK A   0      -4.110   6.397 -30.603  1.00  0.00    -0.056 A 
HETATM   25  C   UNK A   0      -3.529   6.398 -31.881  1.00  0.00     0.024 A 
HETATM   26  C   UNK A   0      -2.221   6.868 -32.072  1.00  0.00     0.040 A 
HETATM   27  C   UNK A   0      -1.490   7.340 -30.974  1.00  0.00     0.017 A 
HETATM   28  C   UNK A   0      -2.065   7.343 -29.701  1.00  0.00     0.002 A 
HETATM   29  C   UNK A   0      -3.366   6.876 -29.516  1.00  0.00     0.007 A 
BRANCH  26  30
HETATM   30  C   UNK A   0      -1.663   6.848 -33.452  1.00  0.00     0.292 C 
HETATM   31  O   UNK A   0      -1.629   7.828 -34.180  1.00  0.00    -0.259 OA
BRANCH  30  32
HETATM   32  O   UNK A   0      -1.206   5.609 -33.768  1.00  0.00    -0.323 OA
HETATM   33  C   UNK A   0      -1.847   5.028 -34.904  1.00  0.00     0.213 C 
ENDBRANCH  30  32
ENDBRANCH  26  30
ENDBRANCH  23  24
ENDBRANCH  22  23
ENDBRANCH   1  22
TORSDOF 10
ENDMDL
MODEL 7
REMARK VINA RESULT:      -8.2      2.963      9.801
REMARK  10 active torsions:
REMARK  status: ('A' for Active; 'I' for Inactive)
REMARK    1  A    between atoms: O_2  and  C_3 
REMARK    2  A    between atoms: C_3  and  C_4 
REMARK    3  A    between atoms: C_6  and  C_7 
REMARK    4  A    between atoms: C_7  and  C_8 
REMARK    5  A    between atoms: C_8  and  N_9 
REMARK       I    between atoms: N_9  and  C_10 
REMARK       I    between atoms: C_10  and  N_17 
REMARK    6  A    between atoms: N_17  and  CA_18 
REMARK    7  A    between atoms: CA_18  and  C_19 
REMARK    8  A    between atoms: CA_18  and  CB_21 
REMARK    9  A    between atoms: C_19  and  O_20 
REMARK   10  A    between atoms: CB_21  and  CG_22 
ROOT
HETATM    1  N   UNK A   0      -4.203   4.224 -31.454  1.00  0.00    -0.343 N 
HETATM    2  C   UNK A   0      -3.115   4.307 -32.285  1.00  0.00     0.316 C 
HETATM    3  O   UNK A   0      -2.806   3.457 -33.107  1.00  0.00    -0.248 OA
HETATM    4  H   UNK A   0      -4.553   5.108 -31.116  1.00  0.00     0.164 HD
ATOM      5  N   TRP A   1      -2.439   5.482 -32.082  1.00  0.00    -0.336 N 
ATOM      6  H   TRP A   1      -2.452   5.751 -31.106  1.00  0.00     0.164 HD
ENDROOT
BRANCH   5   7
ATOM      7  CA  TRP A   1      -1.164   5.762 -32.769  1.00  0.00     0.114 C 
BRANCH   7   8
ATOM      8  C   TRP A   1      -1.391   6.308 -34.194  1.00  0.00     0.189 C 
BRANCH   8   9
ATOM      9  O   TRP A   1      -1.227   5.271 -35.161  1.00  0.00    -0.399 OA
ATOM     10  H   TRP A   1      -0.361   5.445 -35.575  1.00  0.00     0.209 HD
ENDBRANCH   8   9
ENDBRANCH   7   8
BRANCH   7  11
ATOM     11  CB  TRP A   1      -0.320   6.778 -31.965  1.00  0.00     0.068 C 
BRANCH  11  12
ATOM     12  CG  TRP A   1       0.032   6.294 -30.587  1.00  0.00    -0.028 A 
ATOM     13  CD2 TRP A   1      -0.166   6.997 -29.354  1.00  0.00    -0.002 A 
ATOM     14  CE2 TRP A   1       0.277   6.168 -28.324  1.00  0.00     0.042 A 
ATOM     15  CE3 TRP A   1      -0.692   8.262 -29.017  1.00  0.00     0.014 A 
ATOM     16  CZ2 TRP A   1       0.215   6.535 -26.975  1.00  0.00     0.030 A 
ATOM     17  NE1 TRP A   1       0.750   5.015 -28.907  1.00  0.00    -0.365 N 
ATOM     18  CH2 TRP A   1      -0.318   7.790 -26.669  1.00  0.00     0.002 A 
ATOM     19  CZ3 TRP A   1      -0.764   8.644 -27.673  1.00  0.00     0.001 A 
ATOM     20  HE1 TRP A   1       1.144   4.236 -28.399  1.00  0.00     0.165 HD
ATOM     21  CD1 TRP A   1       0.605   5.079 -30.268  1.00  0.00     0.096 A 
ENDBRANCH  11  12
ENDBRANCH   7  11
ENDBRANCH   5   7
BRANCH   1  22
HETATM   22  C   UNK A   0      -5.162   3.143 -31.588  1.00  0.00     0.129 C 
BRANCH  22  23
HETATM   23  C   UNK A   0      -4.843   1.948 -30.684  1.00  0.00     0.058 C 
BRANCH  23  24
HETATM   24  C   UNK A   0      -4.526   0.716 -31.497  1.00  0.00    -0.056 A 
HETATM   25  C   UNK A   0      -5.341   0.344 -32.578  1.00  0.00     0.024 A 
HETATM   26  C   UNK A   0      -5.030  -0.783 -33.354  1.00  0.00     0.040 A 
HETATM   27  C   UNK A   0      -3.895  -1.542 -33.043  1.00  0.00     0.017 A 
HETATM   28  C   UNK A   0      -3.080  -1.175 -31.971  1.00  0.00     0.002 A 
HETATM   29  C   UNK A   0      -3.392  -0.052 -31.203  1.00  0.00     0.007 A 
BRANCH  26  30
HETATM   30  C   UNK A   0      -5.932  -1.123 -34.489  1.00  0.00     0.292 C 
HETATM   31  O   UNK A   0      -6.749  -0.345 -34.956  1.00  0.00    -0.259 OA
BRANCH  30  32
HETATM   32  O   UNK A   0      -5.709  -2.391 -34.917  1.00  0.00    -0.323 OA
HETATM   33  C   UNK A   0      -6.795  -3.285 -34.668  1.00  0.00     0.213 C 
ENDBRANCH  30  32
ENDBRANCH  26  30
ENDBRANCH  23  24
ENDBRANCH  22  23
ENDBRANCH   1  22
TORSDOF 10
ENDMDL
MODEL 8
REMARK VINA RESULT:      -8.2      2.995      9.715
REMARK  10 active torsions:
REMARK  status: ('A' for Active; 'I' for Inactive)
REMARK    1  A    between atoms: O_2  and  C_3 
REMARK    2  A    between atoms: C_3  and  C_4 
REMARK    3  A    between atoms: C_6  and  C_7 
REMARK    4  A    between atoms: C_7  and  C_8 
REMARK    5  A    between atoms: C_8  and  N_9 
REMARK       I    between atoms: N_9  and  C_10 
REMARK       I    between atoms: C_10  and  N_17 
REMARK    6  A    between atoms: N_17  and  CA_18 
REMARK    7  A    between atoms: CA_18  and  C_19 
REMARK    8  A    between atoms: CA_18  and  CB_21 
REMARK    9  A    between atoms: C_19  and  O_20 
REMARK   10  A    between atoms: CB_21  and  CG_22 
ROOT
HETATM    1  N   UNK A   0      -3.158   3.025 -31.182  1.00  0.00    -0.343 N 
HETATM    2  C   UNK A   0      -3.117   3.771 -32.332  1.00  0.00     0.316 C 
HETATM    3  O   UNK A   0      -3.857   3.606 -33.289  1.00  0.00    -0.248 OA
HETATM    4  H   UNK A   0      -2.783   3.480 -30.362  1.00  0.00     0.164 HD
ATOM      5  N   TRP A   1      -2.149   4.738 -32.247  1.00  0.00    -0.336 N 
ATOM      6  H   TRP A   1      -1.341   4.407 -31.735  1.00  0.00     0.164 HD
ENDROOT
BRANCH   5   7
ATOM      7  CA  TRP A   1      -1.823   5.599 -33.400  1.00  0.00     0.114 C 
BRANCH   7   8
ATOM      8  C   TRP A   1      -3.078   6.298 -33.964  1.00  0.00     0.189 C 
BRANCH   8   9
ATOM      9  O   TRP A   1      -3.410   5.773 -35.249  1.00  0.00    -0.399 OA
ATOM     10  H   TRP A   1      -3.639   4.838 -35.090  1.00  0.00     0.209 HD
ENDBRANCH   8   9
ENDBRANCH   7   8
BRANCH   7  11
ATOM     11  CB  TRP A   1      -0.780   6.670 -33.007  1.00  0.00     0.068 C 
BRANCH  11  12
ATOM     12  CG  TRP A   1      -1.039   7.280 -31.659  1.00  0.00    -0.028 A 
ATOM     13  CD2 TRP A   1      -0.497   6.852 -30.403  1.00  0.00    -0.002 A 
ATOM     14  CE2 TRP A   1      -0.981   7.715 -29.422  1.00  0.00     0.042 A 
ATOM     15  CE3 TRP A   1       0.373   5.811 -30.012  1.00  0.00     0.014 A 
ATOM     16  CZ2 TRP A   1      -0.635   7.598 -28.070  1.00  0.00     0.030 A 
ATOM     17  NE1 TRP A   1      -1.805   8.620 -30.049  1.00  0.00    -0.365 N 
ATOM     18  CH2 TRP A   1       0.234   6.564 -27.711  1.00  0.00     0.002 A 
ATOM     19  CZ3 TRP A   1       0.730   5.680 -28.665  1.00  0.00     0.001 A 
ATOM     20  HE1 TRP A   1      -2.305   9.362 -29.578  1.00  0.00     0.165 HD
ATOM     21  CD1 TRP A   1      -1.847   8.369 -31.395  1.00  0.00     0.096 A 
ENDBRANCH  11  12
ENDBRANCH   7  11
ENDBRANCH   5   7
BRANCH   1  22
HETATM   22  C   UNK A   0      -4.201   2.039 -30.970  1.00  0.00     0.129 C 
BRANCH  22  23
HETATM   23  C   UNK A   0      -3.759   0.617 -31.326  1.00  0.00     0.058 C 
BRANCH  23  24
HETATM   24  C   UNK A   0      -4.603   0.043 -32.438  1.00  0.00    -0.056 A 
HETATM   25  C   UNK A   0      -4.328  -1.231 -32.959  1.00  0.00     0.024 A 
HETATM   26  C   UNK A   0      -5.132  -1.779 -33.971  1.00  0.00     0.040 A 
HETATM   27  C   UNK A   0      -6.218  -1.044 -34.462  1.00  0.00     0.017 A 
HETATM   28  C   UNK A   0      -6.497   0.222 -33.945  1.00  0.00     0.002 A 
HETATM   29  C   UNK A   0      -5.696   0.762 -32.938  1.00  0.00     0.007 A 
BRANCH  26  30
HETATM   30  C   UNK A   0      -4.790  -3.137 -34.479  1.00  0.00     0.292 C 
HETATM   31  O   UNK A   0      -3.903  -3.830 -34.006  1.00  0.00    -0.259 OA
BRANCH  30  32
HETATM   32  O   UNK A   0      -5.596  -3.478 -35.516  1.00  0.00    -0.323 OA
HETATM   33  C   UNK A   0      -6.418  -4.618 -35.260  1.00  0.00     0.213 C 
ENDBRANCH  30  32
ENDBRANCH  26  30
ENDBRANCH  23  24
ENDBRANCH  22  23
ENDBRANCH   1  22
TORSDOF 10
ENDMDL
MODEL 9
REMARK VINA RESULT:      -8.0      2.805     10.084
REMARK  10 active torsions:
REMARK  status: ('A' for Active; 'I' for Inactive)
REMARK    1  A    between atoms: O_2  and  C_3 
REMARK    2  A    between atoms: C_3  and  C_4 
REMARK    3  A    between atoms: C_6  and  C_7 
REMARK    4  A    between atoms: C_7  and  C_8 
REMARK    5  A    between atoms: C_8  and  N_9 
REMARK       I    between atoms: N_9  and  C_10 
REMARK       I    between atoms: C_10  and  N_17 
REMARK    6  A    between atoms: N_17  and  CA_18 
REMARK    7  A    between atoms: CA_18  and  C_19 
REMARK    8  A    between atoms: CA_18  and  CB_21 
REMARK    9  A    between atoms: C_19  and  O_20 
REMARK   10  A    between atoms: CB_21  and  CG_22 
ROOT
HETATM    1  N   UNK A   0      -3.149   3.526 -31.142  1.00  0.00    -0.343 N 
HETATM    2  C   UNK A   0      -2.520   4.155 -32.185  1.00  0.00     0.316 C 
HETATM    3  O   UNK A   0      -2.430   3.700 -33.315  1.00  0.00    -0.248 OA
HETATM    4  H   UNK A   0      -3.476   4.135 -30.407  1.00  0.00     0.164 HD
ATOM      5  N   TRP A   1      -2.029   5.373 -31.790  1.00  0.00    -0.336 N 
ATOM      6  H   TRP A   1      -1.692   5.342 -30.836  1.00  0.00     0.164 HD
ENDROOT
BRANCH   5   7
ATOM      7  CA  TRP A   1      -1.206   6.197 -32.695  1.00  0.00     0.114 C 
BRANCH   7   8
ATOM      8  C   TRP A   1      -2.061   7.227 -33.464  1.00  0.00     0.189 C 
BRANCH   8   9
ATOM      9  O   TRP A   1      -2.653   6.628 -34.616  1.00  0.00    -0.399 OA
ATOM     10  H   TRP A   1      -3.504   7.090 -34.733  1.00  0.00     0.209 HD
ENDBRANCH   8   9
ENDBRANCH   7   8
BRANCH   7  11
ATOM     11  CB  TRP A   1      -0.102   6.941 -31.908  1.00  0.00     0.068 C 
BRANCH  11  12
ATOM     12  CG  TRP A   1       0.140   6.364 -30.543  1.00  0.00    -0.028 A 
ATOM     13  CD2 TRP A   1      -0.187   6.967 -29.285  1.00  0.00    -0.002 A 
ATOM     14  CE2 TRP A   1       0.188   6.074 -28.282  1.00  0.00     0.042 A 
ATOM     15  CE3 TRP A   1      -0.779   8.191 -28.906  1.00  0.00     0.014 A 
ATOM     16  CZ2 TRP A   1      -0.005   6.337 -26.920  1.00  0.00     0.030 A 
ATOM     17  NE1 TRP A   1       0.745   4.980 -28.902  1.00  0.00    -0.365 N 
ATOM     18  CH2 TRP A   1      -0.601   7.553 -26.574  1.00  0.00     0.002 A 
ATOM     19  CZ3 TRP A   1      -0.981   8.470 -27.550  1.00  0.00     0.001 A 
ATOM     20  HE1 TRP A   1       1.116   4.174 -28.418  1.00  0.00     0.165 HD
ATOM     21  CD1 TRP A   1       0.720   5.142 -30.262  1.00  0.00     0.096 A 
ENDBRANCH  11  12
ENDBRANCH   7  11
ENDBRANCH   5   7
BRANCH   1  22
HETATM   22  C   UNK A   0      -3.883   2.291 -31.350  1.00  0.00     0.129 C 
BRANCH  22  23
HETATM   23  C   UNK A   0      -5.383   2.517 -31.556  1.00  0.00     0.058 C 
BRANCH  23  24
HETATM   24  C   UNK A   0      -6.027   1.332 -32.235  1.00  0.00    -0.056 A 
HETATM   25  C   UNK A   0      -7.413   1.299 -32.452  1.00  0.00     0.024 A 
HETATM   26  C   UNK A   0      -8.009   0.213 -33.111  1.00  0.00     0.040 A 
HETATM   27  C   UNK A   0      -7.209  -0.847 -33.556  1.00  0.00     0.017 A 
HETATM   28  C   UNK A   0      -5.829  -0.817 -33.346  1.00  0.00     0.002 A 
HETATM   29  C   UNK A   0      -5.241   0.266 -32.691  1.00  0.00     0.007 A 
BRANCH  26  30
HETATM   30  C   UNK A   0      -9.484   0.239 -33.314  1.00  0.00     0.292 C 
HETATM   31  O   UNK A   0     -10.269  -0.406 -32.636  1.00  0.00    -0.259 OA
BRANCH  30  32
HETATM   32  O   UNK A   0      -9.814   1.070 -34.334  1.00  0.00    -0.323 OA
HETATM   33  C   UNK A   0     -10.811   2.036 -33.996  1.00  0.00     0.213 C 
ENDBRANCH  30  32
ENDBRANCH  26  30
ENDBRANCH  23  24
ENDBRANCH  22  23
ENDBRANCH   1  22
TORSDOF 10
ENDMDL
MODEL 10
REMARK VINA RESULT:      -8.0      3.310      8.724
REMARK  10 active torsions:
REMARK  status: ('A' for Active; 'I' for Inactive)
REMARK    1  A    between atoms: O_2  and  C_3 
REMARK    2  A    between atoms: C_3  and  C_4 
REMARK    3  A    between atoms: C_6  and  C_7 
REMARK    4  A    between atoms: C_7  and  C_8 
REMARK    5  A    between atoms: C_8  and  N_9 
REMARK       I    between atoms: N_9  and  C_10 
REMARK       I    between atoms: C_10  and  N_17 
REMARK    6  A    between atoms: N_17  and  CA_18 
REMARK    7  A    between atoms: CA_18  and  C_19 
REMARK    8  A    between atoms: CA_18  and  CB_21 
REMARK    9  A    between atoms: C_19  and  O_20 
REMARK   10  A    between atoms: CB_21  and  CG_22 
ROOT
HETATM    1  N   UNK A   0      -5.637   1.514 -29.853  1.00  0.00    -0.343 N 
HETATM    2  C   UNK A   0      -6.209   2.760 -29.832  1.00  0.00     0.316 C 
HETATM    3  O   UNK A   0      -7.331   3.013 -30.242  1.00  0.00    -0.248 OA
HETATM    4  H   UNK A   0      -4.905   1.366 -29.174  1.00  0.00     0.164 HD
ATOM      5  N   TRP A   1      -5.357   3.674 -29.267  1.00  0.00    -0.336 N 
ATOM      6  H   TRP A   1      -4.393   3.476 -29.505  1.00  0.00     0.164 HD
ENDROOT
BRANCH   5   7
ATOM      7  CA  TRP A   1      -5.688   5.110 -29.232  1.00  0.00     0.114 C 
BRANCH   7   8
ATOM      8  C   TRP A   1      -5.774   5.642 -27.786  1.00  0.00     0.189 C 
BRANCH   8   9
ATOM      9  O   TRP A   1      -6.526   6.855 -27.740  1.00  0.00    -0.399 OA
ATOM     10  H   TRP A   1      -6.059   7.418 -27.096  1.00  0.00     0.209 HD
ENDBRANCH   8   9
ENDBRANCH   7   8
BRANCH   7  11
ATOM     11  CB  TRP A   1      -4.638   5.934 -30.013  1.00  0.00     0.068 C 
BRANCH  11  12
ATOM     12  CG  TRP A   1      -4.793   5.827 -31.503  1.00  0.00    -0.028 A 
ATOM     13  CD2 TRP A   1      -3.755   5.583 -32.460  1.00  0.00    -0.002 A 
ATOM     14  CE2 TRP A   1      -4.349   5.535 -33.720  1.00  0.00     0.042 A 
ATOM     15  CE3 TRP A   1      -2.360   5.386 -32.368  1.00  0.00     0.014 A 
ATOM     16  CZ2 TRP A   1      -3.623   5.295 -34.893  1.00  0.00     0.030 A 
ATOM     17  NE1 TRP A   1      -5.693   5.766 -33.543  1.00  0.00    -0.365 N 
ATOM     18  CH2 TRP A   1      -2.245   5.096 -34.772  1.00  0.00     0.002 A 
ATOM     19  CZ3 TRP A   1      -1.619   5.142 -33.530  1.00  0.00     0.001 A 
ATOM     20  HE1 TRP A   1      -6.372   5.800 -34.291  1.00  0.00     0.165 HD
ATOM     21  CD1 TRP A   1      -5.973   5.941 -32.214  1.00  0.00     0.096 A 
ENDBRANCH  11  12
ENDBRANCH   7  11
ENDBRANCH   5   7
BRANCH   1  22
HETATM   22  C   UNK A   0      -6.401   0.350 -30.264  1.00  0.00     0.129 C 
BRANCH  22  23
HETATM   23  C   UNK A   0      -5.732  -0.432 -31.398  1.00  0.00     0.058 C 
BRANCH  23  24
HETATM   24  C   UNK A   0      -6.513  -0.306 -32.684  1.00  0.00    -0.056 A 
HETATM   25  C   UNK A   0      -7.685   0.464 -32.736  1.00  0.00     0.024 A 
HETATM   26  C   UNK A   0      -8.394   0.607 -33.939  1.00  0.00     0.040 A 
HETATM   27  C   UNK A   0      -7.923  -0.025 -35.097  1.00  0.00     0.017 A 
HETATM   28  C   UNK A   0      -6.756  -0.789 -35.050  1.00  0.00     0.002 A 
HETATM   29  C   UNK A   0      -6.054  -0.928 -33.853  1.00  0.00     0.007 A 
BRANCH  26  30
HETATM   30  C   UNK A   0      -9.629   1.440 -33.929  1.00  0.00     0.292 C 
HETATM   31  O   UNK A   0      -9.736   2.493 -34.537  1.00  0.00    -0.259 OA
BRANCH  30  32
HETATM   32  O   UNK A   0     -10.592   0.862 -33.168  1.00  0.00    -0.323 OA
HETATM   33  C   UNK A   0     -11.904   0.951 -33.727  1.00  0.00     0.213 C 
ENDBRANCH  30  32
ENDBRANCH  26  30
ENDBRANCH  23  24
ENDBRANCH  22  23
ENDBRANCH   1  22
TORSDOF 10
ENDMDL
