MODEL 1
REMARK VINA RESULT:      -9.9      0.000      0.000
REMARK  3 active torsions:
REMARK  status: ('A' for Active; 'I' for Inactive)
REMARK    1  A    between atoms: C_4  and  N_5 
REMARK    2  A    between atoms: N_5  and  C_6 
REMARK    3  A    between atoms: C_13  and  C_14 
ROOT
HETATM    1  C   UNL     1      -8.288   3.254 -33.334  1.00  0.00     0.741 A 
HETATM    2  N   UNL     1      -8.212   2.202 -32.502  1.00  0.00    -0.066 NA
HETATM    3  C   UNL     1      -6.991   1.736 -32.156  1.00  0.00     0.069 A 
HETATM    4  C   UNL     1      -5.832   2.316 -32.612  1.00  0.00     0.053 A 
HETATM    5  C   UNL     1      -4.511   1.814 -32.218  1.00  0.00     0.163 C 
HETATM    6  O   UNL     1      -3.498   2.401 -32.588  1.00  0.00    -0.292 OA
HETATM    7  C   UNL     1      -4.460   0.633 -31.273  1.00  0.00     0.093 C 
HETATM    8  C   UNL     1      -5.677  -0.298 -31.425  1.00  0.00     0.031 C 
HETATM    9  C   UNL     1      -6.959   0.539 -31.244  1.00  0.00     0.070 C 
HETATM   10  C   UNL     1      -5.988   3.384 -33.460  1.00  0.00     0.153 A 
HETATM   11  N   UNL     1      -7.197   3.862 -33.836  1.00  0.00    -0.073 NA
ENDROOT
BRANCH   1  12
HETATM   12  N   UNL     1      -9.496   3.769 -33.743  1.00  0.00    -0.015 N 
HETATM   13  H   UNL     1      -9.420   4.572 -34.340  1.00  0.00     0.203 HD
BRANCH  12  14
HETATM   14  C   UNL     1     -10.796   3.418 -33.445  1.00  0.00     0.742 A 
HETATM   15  N   UNL     1     -11.317   4.016 -32.362  1.00  0.00    -0.066 NA
HETATM   16  C   UNL     1     -12.582   3.700 -32.008  1.00  0.00     0.062 A 
HETATM   17  C   UNL     1     -13.110   4.409 -30.794  1.00  0.00     0.072 C 
HETATM   18  C   UNL     1     -13.357   2.776 -32.717  1.00  0.00     0.018 A 
HETATM   19  C   UNL     1     -12.719   2.212 -33.824  1.00  0.00     0.088 A 
HETATM   20  C   UNL     1     -14.682   2.388 -32.397  1.00  0.00     0.016 A 
HETATM   21  N   UNL     1     -11.472   2.529 -34.181  1.00  0.00    -0.062 NA
HETATM   22  C   UNL     1     -13.412   1.280 -34.588  1.00  0.00     0.033 A 
HETATM   23  C   UNL     1     -14.717   0.894 -34.276  1.00  0.00     0.002 A 
HETATM   24  C   UNL     1     -15.356   1.451 -33.176  1.00  0.00     0.001 A 
ENDBRANCH  12  14
ENDBRANCH   1  12
BRANCH   8  25
HETATM   25  C   UNL     1      -5.593  -1.159 -32.685  1.00  0.00    -0.053 A 
HETATM   26  C   UNL     1      -6.742  -1.298 -33.486  1.00  0.00     0.007 A 
HETATM   27  C   UNL     1      -6.730  -2.080 -34.643  1.00  0.00     0.001 A 
HETATM   28  C   UNL     1      -5.565  -2.732 -35.031  1.00  0.00     0.000 A 
HETATM   29  C   UNL     1      -4.412  -2.591 -34.267  1.00  0.00     0.001 A 
HETATM   30  C   UNL     1      -4.422  -1.808 -33.107  1.00  0.00     0.007 A 
ENDBRANCH   8  25
TORSDOF 3
ENDMDL
MODEL 2
REMARK VINA RESULT:      -9.8      4.876      8.541
REMARK  3 active torsions:
REMARK  status: ('A' for Active; 'I' for Inactive)
REMARK    1  A    between atoms: C_4  and  N_5 
REMARK    2  A    between atoms: N_5  and  C_6 
REMARK    3  A    between atoms: C_13  and  C_14 
ROOT
HETATM    1  C   UNL     1      -3.572   3.383 -31.833  1.00  0.00     0.741 A 
HETATM    2  N   UNL     1      -3.944   4.498 -31.183  1.00  0.00    -0.066 NA
HETATM    3  C   UNL     1      -3.320   5.660 -31.478  1.00  0.00     0.069 A 
HETATM    4  C   UNL     1      -2.335   5.737 -32.433  1.00  0.00     0.053 A 
HETATM    5  C   UNL     1      -1.674   7.007 -32.759  1.00  0.00     0.163 C 
HETATM    6  O   UNL     1      -0.850   7.051 -33.668  1.00  0.00    -0.292 OA
HETATM    7  C   UNL     1      -2.123   8.246 -32.014  1.00  0.00     0.093 C 
HETATM    8  C   UNL     1      -2.633   7.928 -30.596  1.00  0.00     0.031 C 
HETATM    9  C   UNL     1      -3.753   6.875 -30.702  1.00  0.00     0.070 C 
HETATM   10  C   UNL     1      -2.006   4.558 -33.054  1.00  0.00     0.153 A 
HETATM   11  N   UNL     1      -2.603   3.378 -32.768  1.00  0.00    -0.073 NA
ENDROOT
BRANCH   1  12
HETATM   12  N   UNL     1      -4.150   2.162 -31.571  1.00  0.00    -0.015 N 
HETATM   13  H   UNL     1      -4.168   1.916 -30.599  1.00  0.00     0.203 HD
BRANCH  12  14
HETATM   14  C   UNL     1      -4.665   1.190 -32.401  1.00  0.00     0.742 A 
HETATM   15  N   UNL     1      -5.767   1.544 -33.083  1.00  0.00    -0.066 NA
HETATM   16  C   UNL     1      -6.329   0.627 -33.902  1.00  0.00     0.062 A 
HETATM   17  C   UNL     1      -7.551   1.086 -34.643  1.00  0.00     0.072 C 
HETATM   18  C   UNL     1      -5.815  -0.665 -34.056  1.00  0.00     0.018 A 
HETATM   19  C   UNL     1      -4.670  -0.929 -33.301  1.00  0.00     0.088 A 
HETATM   20  C   UNL     1      -6.358  -1.679 -34.885  1.00  0.00     0.016 A 
HETATM   21  N   UNL     1      -4.108  -0.022 -32.497  1.00  0.00    -0.062 NA
HETATM   22  C   UNL     1      -4.091  -2.189 -33.388  1.00  0.00     0.033 A 
HETATM   23  C   UNL     1      -4.623  -3.192 -34.202  1.00  0.00     0.002 A 
HETATM   24  C   UNL     1      -5.762  -2.935 -34.955  1.00  0.00     0.001 A 
ENDBRANCH  12  14
ENDBRANCH   1  12
BRANCH   8  25
HETATM   25  C   UNL     1      -1.492   7.621 -29.626  1.00  0.00    -0.053 A 
HETATM   26  C   UNL     1      -1.809   7.172 -28.330  1.00  0.00     0.007 A 
HETATM   27  C   UNL     1      -0.811   6.885 -27.396  1.00  0.00     0.001 A 
HETATM   28  C   UNL     1       0.527   7.031 -27.741  1.00  0.00     0.000 A 
HETATM   29  C   UNL     1       0.865   7.452 -29.023  1.00  0.00     0.001 A 
HETATM   30  C   UNL     1      -0.134   7.740 -29.959  1.00  0.00     0.007 A 
ENDBRANCH   8  25
TORSDOF 3
ENDMDL
MODEL 3
REMARK VINA RESULT:      -9.7      0.917      2.030
REMARK  3 active torsions:
REMARK  status: ('A' for Active; 'I' for Inactive)
REMARK    1  A    between atoms: C_4  and  N_5 
REMARK    2  A    between atoms: N_5  and  C_6 
REMARK    3  A    between atoms: C_13  and  C_14 
ROOT
HETATM    1  C   UNL     1      -8.988   3.131 -33.463  1.00  0.00     0.741 A 
HETATM    2  N   UNL     1      -8.832   2.108 -32.606  1.00  0.00    -0.066 NA
HETATM    3  C   UNL     1      -7.581   1.758 -32.237  1.00  0.00     0.069 A 
HETATM    4  C   UNL     1      -6.470   2.426 -32.695  1.00  0.00     0.053 A 
HETATM    5  C   UNL     1      -5.115   2.049 -32.276  1.00  0.00     0.163 C 
HETATM    6  O   UNL     1      -4.153   2.714 -32.649  1.00  0.00    -0.292 OA
HETATM    7  C   UNL     1      -4.974   0.897 -31.303  1.00  0.00     0.093 C 
HETATM    8  C   UNL     1      -6.105  -0.138 -31.447  1.00  0.00     0.031 C 
HETATM    9  C   UNL     1      -7.456   0.588 -31.298  1.00  0.00     0.070 C 
HETATM   10  C   UNL     1      -6.708   3.458 -33.569  1.00  0.00     0.153 A 
HETATM   11  N   UNL     1      -7.949   3.821 -33.967  1.00  0.00    -0.073 NA
ENDROOT
BRANCH   1  12
HETATM   12  N   UNL     1     -10.232   3.531 -33.897  1.00  0.00    -0.015 N 
HETATM   13  H   UNL     1     -10.215   4.291 -34.550  1.00  0.00     0.203 HD
BRANCH  12  14
HETATM   14  C   UNL     1     -11.502   3.113 -33.561  1.00  0.00     0.742 A 
HETATM   15  N   UNL     1     -11.768   1.822 -33.820  1.00  0.00    -0.066 NA
HETATM   16  C   UNL     1     -13.003   1.356 -33.528  1.00  0.00     0.062 A 
HETATM   17  C   UNL     1     -13.234  -0.096 -33.831  1.00  0.00     0.072 C 
HETATM   18  C   UNL     1     -14.005   2.164 -32.981  1.00  0.00     0.018 A 
HETATM   19  C   UNL     1     -13.625   3.489 -32.754  1.00  0.00     0.088 A 
HETATM   20  C   UNL     1     -15.322   1.747 -32.662  1.00  0.00     0.016 A 
HETATM   21  N   UNL     1     -12.403   3.949 -33.033  1.00  0.00    -0.062 NA
HETATM   22  C   UNL     1     -14.558   4.365 -32.214  1.00  0.00     0.033 A 
HETATM   23  C   UNL     1     -15.857   3.960 -31.900  1.00  0.00     0.002 A 
HETATM   24  C   UNL     1     -16.241   2.645 -32.124  1.00  0.00     0.001 A 
ENDBRANCH  12  14
ENDBRANCH   1  12
BRANCH   8  25
HETATM   25  C   UNL     1      -5.930  -1.017 -32.686  1.00  0.00    -0.053 A 
HETATM   26  C   UNL     1      -4.664  -1.575 -32.945  1.00  0.00     0.007 A 
HETATM   27  C   UNL     1      -4.440  -2.377 -34.067  1.00  0.00     0.001 A 
HETATM   28  C   UNL     1      -5.480  -2.647 -34.948  1.00  0.00     0.000 A 
HETATM   29  C   UNL     1      -6.745  -2.124 -34.700  1.00  0.00     0.001 A 
HETATM   30  C   UNL     1      -6.971  -1.321 -33.577  1.00  0.00     0.007 A 
ENDBRANCH   8  25
TORSDOF 3
ENDMDL
MODEL 4
REMARK VINA RESULT:      -9.6      4.494      8.669
REMARK  3 active torsions:
REMARK  status: ('A' for Active; 'I' for Inactive)
REMARK    1  A    between atoms: C_4  and  N_5 
REMARK    2  A    between atoms: N_5  and  C_6 
REMARK    3  A    between atoms: C_13  and  C_14 
ROOT
HETATM    1  C   UNL     1      -3.875   3.176 -32.271  1.00  0.00     0.741 A 
HETATM    2  N   UNL     1      -4.772   2.819 -33.205  1.00  0.00    -0.066 NA
HETATM    3  C   UNL     1      -5.734   1.931 -32.874  1.00  0.00     0.069 A 
HETATM    4  C   UNL     1      -5.832   1.398 -31.611  1.00  0.00     0.053 A 
HETATM    5  C   UNL     1      -6.891   0.446 -31.255  1.00  0.00     0.163 C 
HETATM    6  O   UNL     1      -6.991   0.047 -30.098  1.00  0.00    -0.292 OA
HETATM    7  C   UNL     1      -7.891   0.071 -32.328  1.00  0.00     0.093 C 
HETATM    8  C   UNL     1      -7.288   0.134 -33.744  1.00  0.00     0.031 C 
HETATM    9  C   UNL     1      -6.698   1.541 -33.962  1.00  0.00     0.070 C 
HETATM   10  C   UNL     1      -4.880   1.807 -30.710  1.00  0.00     0.153 A 
HETATM   11  N   UNL     1      -3.897   2.684 -31.018  1.00  0.00    -0.073 NA
ENDROOT
BRANCH   1  12
HETATM   12  N   UNL     1      -2.857   4.062 -32.543  1.00  0.00    -0.015 N 
HETATM   13  H   UNL     1      -2.584   4.091 -33.507  1.00  0.00     0.203 HD
BRANCH  12  14
HETATM   14  C   UNL     1      -2.107   4.881 -31.726  1.00  0.00     0.742 A 
HETATM   15  N   UNL     1      -0.828   4.507 -31.558  1.00  0.00    -0.066 NA
HETATM   16  C   UNL     1      -0.045   5.262 -30.755  1.00  0.00     0.062 A 
HETATM   17  C   UNL     1       1.375   4.797 -30.615  1.00  0.00     0.072 C 
HETATM   18  C   UNL     1      -0.517   6.400 -30.093  1.00  0.00     0.018 A 
HETATM   19  C   UNL     1      -1.860   6.699 -30.335  1.00  0.00     0.088 A 
HETATM   20  C   UNL     1       0.242   7.229 -29.229  1.00  0.00     0.016 A 
HETATM   21  N   UNL     1      -2.633   5.960 -31.135  1.00  0.00    -0.062 NA
HETATM   22  C   UNL     1      -2.416   7.811 -29.717  1.00  0.00     0.033 A 
HETATM   23  C   UNL     1      -1.673   8.631 -28.863  1.00  0.00     0.002 A 
HETATM   24  C   UNL     1      -0.338   8.338 -28.618  1.00  0.00     0.001 A 
ENDBRANCH  12  14
ENDBRANCH   1  12
BRANCH   8  25
HETATM   25  C   UNL     1      -6.364  -1.050 -34.032  1.00  0.00    -0.053 A 
HETATM   26  C   UNL     1      -6.916  -2.213 -34.602  1.00  0.00     0.007 A 
HETATM   27  C   UNL     1      -6.126  -3.331 -34.879  1.00  0.00     0.001 A 
HETATM   28  C   UNL     1      -4.764  -3.306 -34.603  1.00  0.00     0.000 A 
HETATM   29  C   UNL     1      -4.193  -2.159 -34.061  1.00  0.00     0.001 A 
HETATM   30  C   UNL     1      -4.983  -1.039 -33.783  1.00  0.00     0.007 A 
ENDBRANCH   8  25
TORSDOF 3
ENDMDL
MODEL 5
REMARK VINA RESULT:      -9.3      3.807      7.952
REMARK  3 active torsions:
REMARK  status: ('A' for Active; 'I' for Inactive)
REMARK    1  A    between atoms: C_4  and  N_5 
REMARK    2  A    between atoms: N_5  and  C_6 
REMARK    3  A    between atoms: C_13  and  C_14 
ROOT
HETATM    1  C   UNL     1      -6.245   4.067 -33.181  1.00  0.00     0.741 A 
HETATM    2  N   UNL     1      -6.325   3.173 -34.181  1.00  0.00    -0.066 NA
HETATM    3  C   UNL     1      -7.006   2.025 -33.970  1.00  0.00     0.069 A 
HETATM    4  C   UNL     1      -7.631   1.755 -32.777  1.00  0.00     0.053 A 
HETATM    5  C   UNL     1      -8.382   0.512 -32.562  1.00  0.00     0.163 C 
HETATM    6  O   UNL     1      -8.987   0.338 -31.509  1.00  0.00    -0.292 OA
HETATM    7  C   UNL     1      -8.460  -0.470 -33.712  1.00  0.00     0.093 C 
HETATM    8  C   UNL     1      -7.222  -0.409 -34.626  1.00  0.00     0.031 C 
HETATM    9  C   UNL     1      -7.043   1.043 -35.111  1.00  0.00     0.070 C 
HETATM   10  C   UNL     1      -7.504   2.713 -31.802  1.00  0.00     0.153 A 
HETATM   11  N   UNL     1      -6.816   3.864 -31.979  1.00  0.00    -0.073 NA
ENDROOT
BRANCH   1  12
HETATM   12  N   UNL     1      -5.553   5.249 -33.318  1.00  0.00    -0.015 N 
HETATM   13  H   UNL     1      -6.071   5.978 -33.772  1.00  0.00     0.203 HD
BRANCH  12  14
HETATM   14  C   UNL     1      -4.261   5.603 -32.993  1.00  0.00     0.742 A 
HETATM   15  N   UNL     1      -3.355   5.420 -33.966  1.00  0.00    -0.066 NA
HETATM   16  C   UNL     1      -2.066   5.733 -33.702  1.00  0.00     0.062 A 
HETATM   17  C   UNL     1      -1.103   5.515 -34.833  1.00  0.00     0.072 C 
HETATM   18  C   UNL     1      -1.648   6.226 -32.462  1.00  0.00     0.018 A 
HETATM   19  C   UNL     1      -2.669   6.376 -31.521  1.00  0.00     0.088 A 
HETATM   20  C   UNL     1      -0.316   6.563 -32.111  1.00  0.00     0.016 A 
HETATM   21  N   UNL     1      -3.944   6.076 -31.782  1.00  0.00    -0.062 NA
HETATM   22  C   UNL     1      -2.346   6.858 -30.259  1.00  0.00     0.033 A 
HETATM   23  C   UNL     1      -1.035   7.190 -29.908  1.00  0.00     0.002 A 
HETATM   24  C   UNL     1      -0.015   7.042 -30.839  1.00  0.00     0.001 A 
ENDBRANCH  12  14
ENDBRANCH   1  12
BRANCH   8  25
HETATM   25  C   UNL     1      -6.001  -1.075 -33.991  1.00  0.00    -0.053 A 
HETATM   26  C   UNL     1      -5.559  -2.307 -34.510  1.00  0.00     0.007 A 
HETATM   27  C   UNL     1      -4.456  -2.970 -33.966  1.00  0.00     0.001 A 
HETATM   28  C   UNL     1      -3.765  -2.410 -32.899  1.00  0.00     0.000 A 
HETATM   29  C   UNL     1      -4.169  -1.182 -32.385  1.00  0.00     0.001 A 
HETATM   30  C   UNL     1      -5.274  -0.518 -32.929  1.00  0.00     0.007 A 
ENDBRANCH   8  25
TORSDOF 3
ENDMDL
MODEL 6
REMARK VINA RESULT:      -8.9      5.235      8.551
REMARK  3 active torsions:
REMARK  status: ('A' for Active; 'I' for Inactive)
REMARK    1  A    between atoms: C_4  and  N_5 
REMARK    2  A    between atoms: N_5  and  C_6 
REMARK    3  A    between atoms: C_13  and  C_14 
ROOT
HETATM    1  C   UNL     1      -4.678   4.678 -31.122  1.00  0.00     0.741 A 
HETATM    2  N   UNL     1      -4.730   5.667 -30.214  1.00  0.00    -0.066 NA
HETATM    3  C   UNL     1      -3.975   6.769 -30.413  1.00  0.00     0.069 A 
HETATM    4  C   UNL     1      -3.174   6.915 -31.519  1.00  0.00     0.053 A 
HETATM    5  C   UNL     1      -2.369   8.124 -31.735  1.00  0.00     0.163 C 
HETATM    6  O   UNL     1      -1.721   8.250 -32.771  1.00  0.00    -0.292 OA
HETATM    7  C   UNL     1      -2.457   9.223 -30.698  1.00  0.00     0.093 C 
HETATM    8  C   UNL     1      -2.759   8.681 -29.289  1.00  0.00     0.031 C 
HETATM    9  C   UNL     1      -4.047   7.837 -29.354  1.00  0.00     0.070 C 
HETATM   10  C   UNL     1      -3.169   5.864 -32.402  1.00  0.00     0.153 A 
HETATM   11  N   UNL     1      -3.903   4.741 -32.221  1.00  0.00    -0.073 NA
ENDROOT
BRANCH   1  12
HETATM   12  N   UNL     1      -5.406   3.519 -30.975  1.00  0.00    -0.015 N 
HETATM   13  H   UNL     1      -5.979   3.494 -30.153  1.00  0.00     0.203 HD
BRANCH  12  14
HETATM   14  C   UNL     1      -5.455   2.361 -31.723  1.00  0.00     0.742 A 
HETATM   15  N   UNL     1      -4.528   1.440 -31.414  1.00  0.00    -0.066 NA
HETATM   16  C   UNL     1      -4.515   0.290 -32.124  1.00  0.00     0.062 A 
HETATM   17  C   UNL     1      -3.462  -0.703 -31.725  1.00  0.00     0.072 C 
HETATM   18  C   UNL     1      -5.415   0.032 -33.163  1.00  0.00     0.018 A 
HETATM   19  C   UNL     1      -6.335   1.056 -33.402  1.00  0.00     0.088 A 
HETATM   20  C   UNL     1      -5.452  -1.143 -33.954  1.00  0.00     0.016 A 
HETATM   21  N   UNL     1      -6.356   2.189 -32.696  1.00  0.00    -0.062 NA
HETATM   22  C   UNL     1      -7.268   0.888 -34.418  1.00  0.00     0.033 A 
HETATM   23  C   UNL     1      -7.307  -0.267 -35.202  1.00  0.00     0.002 A 
HETATM   24  C   UNL     1      -6.395  -1.288 -34.969  1.00  0.00     0.001 A 
ENDBRANCH  12  14
ENDBRANCH   1  12
BRANCH   8  25
HETATM   25  C   UNL     1      -1.537   8.021 -28.649  1.00  0.00    -0.053 A 
HETATM   26  C   UNL     1      -0.259   8.347 -29.140  1.00  0.00     0.007 A 
HETATM   27  C   UNL     1       0.894   7.770 -28.604  1.00  0.00     0.001 A 
HETATM   28  C   UNL     1       0.795   6.862 -27.557  1.00  0.00     0.000 A 
HETATM   29  C   UNL     1      -0.457   6.541 -27.040  1.00  0.00     0.001 A 
HETATM   30  C   UNL     1      -1.612   7.119 -27.577  1.00  0.00     0.007 A 
ENDBRANCH   8  25
TORSDOF 3
ENDMDL
MODEL 7
REMARK VINA RESULT:      -8.7      5.066      7.726
REMARK  3 active torsions:
REMARK  status: ('A' for Active; 'I' for Inactive)
REMARK    1  A    between atoms: C_4  and  N_5 
REMARK    2  A    between atoms: N_5  and  C_6 
REMARK    3  A    between atoms: C_13  and  C_14 
ROOT
HETATM    1  C   UNL     1      -3.910   5.308 -32.459  1.00  0.00     0.741 A 
HETATM    2  N   UNL     1      -3.484   6.491 -31.985  1.00  0.00    -0.066 NA
HETATM    3  C   UNL     1      -2.235   6.573 -31.477  1.00  0.00     0.069 A 
HETATM    4  C   UNL     1      -1.386   5.493 -31.447  1.00  0.00     0.053 A 
HETATM    5  C   UNL     1      -0.025   5.595 -30.907  1.00  0.00     0.163 C 
HETATM    6  O   UNL     1       0.729   4.627 -30.963  1.00  0.00    -0.292 OA
HETATM    7  C   UNL     1       0.428   6.943 -30.390  1.00  0.00     0.093 C 
HETATM    8  C   UNL     1      -0.738   7.784 -29.837  1.00  0.00     0.031 C 
HETATM    9  C   UNL     1      -1.813   7.912 -30.933  1.00  0.00     0.070 C 
HETATM   10  C   UNL     1      -1.891   4.317 -31.946  1.00  0.00     0.153 A 
HETATM   11  N   UNL     1      -3.143   4.202 -32.447  1.00  0.00    -0.073 NA
ENDROOT
BRANCH   1  12
HETATM   12  N   UNL     1      -5.176   5.147 -32.975  1.00  0.00    -0.015 N 
HETATM   13  H   UNL     1      -5.553   5.970 -33.405  1.00  0.00     0.203 HD
BRANCH  12  14
HETATM   14  C   UNL     1      -6.045   4.076 -32.964  1.00  0.00     0.742 A 
HETATM   15  N   UNL     1      -6.863   4.013 -31.902  1.00  0.00    -0.066 NA
HETATM   16  C   UNL     1      -7.727   2.976 -31.826  1.00  0.00     0.062 A 
HETATM   17  C   UNL     1      -8.621   2.967 -30.620  1.00  0.00     0.072 C 
HETATM   18  C   UNL     1      -7.792   1.974 -32.800  1.00  0.00     0.018 A 
HETATM   19  C   UNL     1      -6.898   2.135 -33.860  1.00  0.00     0.088 A 
HETATM   20  C   UNL     1      -8.663   0.855 -32.779  1.00  0.00     0.016 A 
HETATM   21  N   UNL     1      -6.049   3.163 -33.941  1.00  0.00    -0.062 NA
HETATM   22  C   UNL     1      -6.890   1.186 -34.874  1.00  0.00     0.033 A 
HETATM   23  C   UNL     1      -7.744   0.080 -34.858  1.00  0.00     0.002 A 
HETATM   24  C   UNL     1      -8.635  -0.086 -33.806  1.00  0.00     0.001 A 
ENDBRANCH  12  14
ENDBRANCH   1  12
BRANCH   8  25
HETATM   25  C   UNL     1      -1.209   7.291 -28.468  1.00  0.00    -0.053 A 
HETATM   26  C   UNL     1      -0.285   6.634 -27.633  1.00  0.00     0.007 A 
HETATM   27  C   UNL     1      -0.658   6.152 -26.376  1.00  0.00     0.001 A 
HETATM   28  C   UNL     1      -1.959   6.326 -25.922  1.00  0.00     0.000 A 
HETATM   29  C   UNL     1      -2.883   6.992 -26.721  1.00  0.00     0.001 A 
HETATM   30  C   UNL     1      -2.511   7.475 -27.980  1.00  0.00     0.007 A 
ENDBRANCH   8  25
TORSDOF 3
ENDMDL
MODEL 8
REMARK VINA RESULT:      -8.6      2.996      8.389
REMARK  3 active torsions:
REMARK  status: ('A' for Active; 'I' for Inactive)
REMARK    1  A    between atoms: C_4  and  N_5 
REMARK    2  A    between atoms: N_5  and  C_6 
REMARK    3  A    between atoms: C_13  and  C_14 
ROOT
HETATM    1  C   UNL     1      -8.244   1.499 -34.108  1.00  0.00     0.741 A 
HETATM    2  N   UNL     1      -8.374   2.578 -33.317  1.00  0.00    -0.066 NA
HETATM    3  C   UNL     1      -9.614   2.960 -32.941  1.00  0.00     0.069 A 
HETATM    4  C   UNL     1     -10.738   2.269 -33.324  1.00  0.00     0.053 A 
HETATM    5  C   UNL     1     -12.081   2.682 -32.896  1.00  0.00     0.163 C 
HETATM    6  O   UNL     1     -13.055   1.999 -33.199  1.00  0.00    -0.292 OA
HETATM    7  C   UNL     1     -12.192   3.896 -31.999  1.00  0.00     0.093 C 
HETATM    8  C   UNL     1     -11.061   4.913 -32.241  1.00  0.00     0.031 C 
HETATM    9  C   UNL     1      -9.709   4.190 -32.079  1.00  0.00     0.070 C 
HETATM   10  C   UNL     1     -10.529   1.180 -34.133  1.00  0.00     0.153 A 
HETATM   11  N   UNL     1      -9.300   0.783 -34.538  1.00  0.00    -0.073 NA
ENDROOT
BRANCH   1  12
HETATM   12  N   UNL     1      -7.014   1.064 -34.545  1.00  0.00    -0.015 N 
HETATM   13  H   UNL     1      -6.548   1.702 -35.162  1.00  0.00     0.203 HD
BRANCH  12  14
HETATM   14  C   UNL     1      -6.324  -0.111 -34.334  1.00  0.00     0.742 A 
HETATM   15  N   UNL     1      -5.173   0.015 -33.654  1.00  0.00    -0.066 NA
HETATM   16  C   UNL     1      -4.442  -1.099 -33.428  1.00  0.00     0.062 A 
HETATM   17  C   UNL     1      -3.172  -0.894 -32.655  1.00  0.00     0.072 C 
HETATM   18  C   UNL     1      -4.833  -2.364 -33.881  1.00  0.00     0.018 A 
HETATM   19  C   UNL     1      -6.044  -2.383 -34.578  1.00  0.00     0.088 A 
HETATM   20  C   UNL     1      -4.113  -3.570 -33.693  1.00  0.00     0.016 A 
HETATM   21  N   UNL     1      -6.772  -1.284 -34.795  1.00  0.00    -0.062 NA
HETATM   22  C   UNL     1      -6.511  -3.596 -35.068  1.00  0.00     0.033 A 
HETATM   23  C   UNL     1      -5.804  -4.787 -34.887  1.00  0.00     0.002 A 
HETATM   24  C   UNL     1      -4.600  -4.774 -34.195  1.00  0.00     0.001 A 
ENDBRANCH  12  14
ENDBRANCH   1  12
BRANCH   8  25
HETATM   25  C   UNL     1     -11.263   5.708 -33.531  1.00  0.00    -0.053 A 
HETATM   26  C   UNL     1     -12.573   6.062 -33.907  1.00  0.00     0.007 A 
HETATM   27  C   UNL     1     -12.823   6.779 -35.080  1.00  0.00     0.001 A 
HETATM   28  C   UNL     1     -11.768   7.166 -35.897  1.00  0.00     0.000 A 
HETATM   29  C   UNL     1     -10.463   6.846 -35.534  1.00  0.00     0.001 A 
HETATM   30  C   UNL     1     -10.212   6.128 -34.360  1.00  0.00     0.007 A 
ENDBRANCH   8  25
TORSDOF 3
ENDMDL
MODEL 9
REMARK VINA RESULT:      -8.6      4.975      9.255
REMARK  3 active torsions:
REMARK  status: ('A' for Active; 'I' for Inactive)
REMARK    1  A    between atoms: C_4  and  N_5 
REMARK    2  A    between atoms: N_5  and  C_6 
REMARK    3  A    between atoms: C_13  and  C_14 
ROOT
HETATM    1  C   UNL     1      -4.258   4.290 -31.438  1.00  0.00     0.741 A 
HETATM    2  N   UNL     1      -5.022   3.556 -30.611  1.00  0.00    -0.066 NA
HETATM    3  C   UNL     1      -5.365   2.305 -30.986  1.00  0.00     0.069 A 
HETATM    4  C   UNL     1      -4.942   1.757 -32.174  1.00  0.00     0.053 A 
HETATM    5  C   UNL     1      -5.306   0.390 -32.566  1.00  0.00     0.163 C 
HETATM    6  O   UNL     1      -4.851  -0.091 -33.600  1.00  0.00    -0.292 OA
HETATM    7  C   UNL     1      -6.160  -0.414 -31.609  1.00  0.00     0.093 C 
HETATM    8  C   UNL     1      -7.096   0.473 -30.766  1.00  0.00     0.031 C 
HETATM    9  C   UNL     1      -6.244   1.532 -30.040  1.00  0.00     0.070 C 
HETATM   10  C   UNL     1      -4.168   2.566 -32.967  1.00  0.00     0.153 A 
HETATM   11  N   UNL     1      -3.822   3.828 -32.624  1.00  0.00    -0.073 NA
ENDROOT
BRANCH   1  12
HETATM   12  N   UNL     1      -3.886   5.579 -31.129  1.00  0.00    -0.015 N 
HETATM   13  H   UNL     1      -4.555   6.276 -31.399  1.00  0.00     0.203 HD
BRANCH  12  14
HETATM   14  C   UNL     1      -2.741   6.096 -30.562  1.00  0.00     0.742 A 
HETATM   15  N   UNL     1      -1.600   5.479 -30.911  1.00  0.00    -0.066 NA
HETATM   16  C   UNL     1      -0.444   5.929 -30.375  1.00  0.00     0.062 A 
HETATM   17  C   UNL     1       0.796   5.204 -30.811  1.00  0.00     0.072 C 
HETATM   18  C   UNL     1      -0.395   6.997 -29.473  1.00  0.00     0.018 A 
HETATM   19  C   UNL     1      -1.636   7.566 -29.177  1.00  0.00     0.088 A 
HETATM   20  C   UNL     1       0.777   7.513 -28.864  1.00  0.00     0.016 A 
HETATM   21  N   UNL     1      -2.779   7.128 -29.712  1.00  0.00    -0.062 NA
HETATM   22  C   UNL     1      -1.685   8.631 -28.288  1.00  0.00     0.033 A 
HETATM   23  C   UNL     1      -0.534   9.143 -27.683  1.00  0.00     0.002 A 
HETATM   24  C   UNL     1       0.703   8.581 -27.973  1.00  0.00     0.001 A 
ENDBRANCH  12  14
ENDBRANCH   1  12
BRANCH   8  25
HETATM   25  C   UNL     1      -8.287   0.988 -31.575  1.00  0.00    -0.053 A 
HETATM   26  C   UNL     1      -8.980   0.086 -32.405  1.00  0.00     0.007 A 
HETATM   27  C   UNL     1     -10.069   0.498 -33.175  1.00  0.00     0.001 A 
HETATM   28  C   UNL     1     -10.497   1.819 -33.124  1.00  0.00     0.000 A 
HETATM   29  C   UNL     1      -9.843   2.723 -32.293  1.00  0.00     0.001 A 
HETATM   30  C   UNL     1      -8.751   2.311 -31.521  1.00  0.00     0.007 A 
ENDBRANCH   8  25
TORSDOF 3
ENDMDL
MODEL 10
REMARK VINA RESULT:      -8.6      5.120      8.766
REMARK  3 active torsions:
REMARK  status: ('A' for Active; 'I' for Inactive)
REMARK    1  A    between atoms: C_4  and  N_5 
REMARK    2  A    between atoms: N_5  and  C_6 
REMARK    3  A    between atoms: C_13  and  C_14 
ROOT
HETATM    1  C   UNL     1      -4.055   4.283 -31.258  1.00  0.00     0.741 A 
HETATM    2  N   UNL     1      -4.860   3.423 -30.612  1.00  0.00    -0.066 NA
HETATM    3  C   UNL     1      -4.821   2.117 -30.956  1.00  0.00     0.069 A 
HETATM    4  C   UNL     1      -3.974   1.643 -31.929  1.00  0.00     0.053 A 
HETATM    5  C   UNL     1      -3.927   0.219 -32.285  1.00  0.00     0.163 C 
HETATM    6  O   UNL     1      -3.107  -0.178 -33.108  1.00  0.00    -0.292 OA
HETATM    7  C   UNL     1      -4.840  -0.725 -31.532  1.00  0.00     0.093 C 
HETATM    8  C   UNL     1      -6.136  -0.041 -31.060  1.00  0.00     0.031 C 
HETATM    9  C   UNL     1      -5.761   1.197 -30.223  1.00  0.00     0.070 C 
HETATM   10  C   UNL     1      -3.184   2.580 -32.547  1.00  0.00     0.153 A 
HETATM   11  N   UNL     1      -3.213   3.896 -32.234  1.00  0.00    -0.073 NA
ENDROOT
BRANCH   1  12
HETATM   12  N   UNL     1      -4.055   5.630 -30.973  1.00  0.00    -0.015 N 
HETATM   13  H   UNL     1      -4.724   6.162 -31.498  1.00  0.00     0.203 HD
BRANCH  12  14
HETATM   14  C   UNL     1      -3.270   6.393 -30.136  1.00  0.00     0.742 A 
HETATM   15  N   UNL     1      -3.943   7.168 -29.269  1.00  0.00    -0.066 NA
HETATM   16  C   UNL     1      -3.229   7.953 -28.432  1.00  0.00     0.062 A 
HETATM   17  C   UNL     1      -4.037   8.788 -27.482  1.00  0.00     0.072 C 
HETATM   18  C   UNL     1      -1.831   7.993 -28.442  1.00  0.00     0.018 A 
HETATM   19  C   UNL     1      -1.231   7.151 -29.382  1.00  0.00     0.088 A 
HETATM   20  C   UNL     1      -1.019   8.799 -27.603  1.00  0.00     0.016 A 
HETATM   21  N   UNL     1      -1.935   6.369 -30.204  1.00  0.00    -0.062 NA
HETATM   22  C   UNL     1       0.155   7.127 -29.466  1.00  0.00     0.033 A 
HETATM   23  C   UNL     1       0.959   7.920 -28.643  1.00  0.00     0.002 A 
HETATM   24  C   UNL     1       0.369   8.759 -27.707  1.00  0.00     0.001 A 
ENDBRANCH  12  14
ENDBRANCH   1  12
BRANCH   8  25
HETATM   25  C   UNL     1      -7.124   0.179 -32.207  1.00  0.00    -0.053 A 
HETATM   26  C   UNL     1      -8.294   0.920 -31.956  1.00  0.00     0.007 A 
HETATM   27  C   UNL     1      -9.239   1.146 -32.960  1.00  0.00     0.001 A 
HETATM   28  C   UNL     1      -9.029   0.646 -34.238  1.00  0.00     0.000 A 
HETATM   29  C   UNL     1      -7.869  -0.071 -34.515  1.00  0.00     0.001 A 
HETATM   30  C   UNL     1      -6.922  -0.298 -33.510  1.00  0.00     0.007 A 
ENDBRANCH   8  25
TORSDOF 3
ENDMDL
