MODEL 1
REMARK VINA RESULT:     -10.0      0.000      0.000
REMARK  7 active torsions:
REMARK  status: ('A' for Active; 'I' for Inactive)
REMARK    1  A    between atoms: C_5  and  C_6 
REMARK    2  A    between atoms: C_10  and  C_11 
REMARK       I    between atoms: C_11  and  N_12 
REMARK    3  A    between atoms: N_12  and  N_13 
REMARK       I    between atoms: N_13  and  C_14 
REMARK       I    between atoms: C_14  and  N_15 
REMARK    4  A    between atoms: N_15  and  C_16 
REMARK    5  A    between atoms: C_16  and  C_17 
REMARK    6  A    between atoms: C_17  and  C_18 
REMARK    7  A    between atoms: C_21  and  O_22 
ROOT
HETATM    1  C   UNL     1      -2.201   4.810 -32.370  1.00  0.00     0.288 C 
HETATM    2  N   UNL     1      -3.413   4.507 -31.791  1.00  0.00    -0.261 N 
HETATM    3  O   UNL     1      -1.918   4.466 -33.517  1.00  0.00    -0.264 OA
HETATM    4  H   UNL     1      -3.617   4.659 -30.806  1.00  0.00     0.190 HD
ENDROOT
BRANCH   2   5
HETATM    5  N   UNL     1      -4.309   3.682 -32.484  1.00  0.00    -0.249 N 
HETATM    6  C   UNL     1      -4.366   2.357 -32.115  1.00  0.00     0.335 C 
HETATM    7  N   UNL     1      -5.360   1.681 -32.779  1.00  0.00    -0.337 N 
HETATM    8  O   UNL     1      -3.593   1.856 -31.305  1.00  0.00    -0.246 OA
HETATM    9  H   UNL     1      -5.591   2.088 -33.677  1.00  0.00     0.164 HD
HETATM   10  H   UNL     1      -5.123   4.142 -32.878  1.00  0.00     0.192 HD
BRANCH   7  11
HETATM   11  C   UNL     1      -5.471   0.225 -32.687  1.00  0.00     0.086 C 
HETATM   12  C   UNL     1      -6.378  -0.184 -31.523  1.00  0.00     0.032 C 
BRANCH  11  13
HETATM   13  C   UNL     1      -6.020  -0.383 -34.000  1.00  0.00     0.063 C 
BRANCH  13  14
HETATM   14  C   UNL     1      -5.732  -1.856 -34.213  1.00  0.00    -0.056 A 
HETATM   15  C   UNL     1      -6.698  -2.737 -34.723  1.00  0.00     0.010 A 
HETATM   16  C   UNL     1      -6.407  -4.095 -34.890  1.00  0.00     0.037 A 
HETATM   17  C   UNL     1      -5.141  -4.569 -34.569  1.00  0.00     0.065 A 
HETATM   18  C   UNL     1      -4.161  -3.710 -34.092  1.00  0.00     0.037 A 
HETATM   19  C   UNL     1      -4.453  -2.356 -33.918  1.00  0.00     0.010 A 
BRANCH  17  20
HETATM   20  O   UNL     1      -4.817  -5.886 -34.710  1.00  0.00    -0.361 OA
HETATM   21  H   UNL     1      -4.589  -6.245 -33.837  1.00  0.00     0.217 HD
ENDBRANCH  17  20
ENDBRANCH  13  14
ENDBRANCH  11  13
ENDBRANCH   7  11
ENDBRANCH   2   5
BRANCH   1  22
HETATM   22  C   UNL     1      -1.292   5.556 -31.545  1.00  0.00     0.121 A 
HETATM   23  N   UNL     1      -0.332   6.365 -32.083  1.00  0.00    -0.272 N 
HETATM   24  N   UNL     1       0.426   6.997 -31.178  1.00  0.00    -0.174 NA
HETATM   25  H   UNL     1      -0.150   6.520 -33.071  1.00  0.00     0.189 HD
HETATM   26  C   UNL     1      -0.071   6.618 -29.990  1.00  0.00     0.089 A 
HETATM   27  C   UNL     1      -1.139   5.693 -30.179  1.00  0.00     0.071 A 
BRANCH  26  28
HETATM   28  C   UNL     1       0.463   7.141 -28.728  1.00  0.00    -0.006 A 
HETATM   29  C   UNL     1       1.247   8.302 -28.697  1.00  0.00     0.014 A 
HETATM   30  C   UNL     1       1.772   8.781 -27.489  1.00  0.00     0.007 A 
HETATM   31  C   UNL     1       1.527   8.104 -26.291  1.00  0.00    -0.062 A 
HETATM   32  C   UNL     1       2.074   8.613 -24.991  1.00  0.00     0.048 C 
HETATM   33  C   UNL     1       0.734   6.952 -26.314  1.00  0.00     0.007 A 
HETATM   34  C   UNL     1       0.213   6.474 -27.520  1.00  0.00     0.014 A 
ENDBRANCH  26  28
ENDBRANCH   1  22
TORSDOF 7
ENDMDL
MODEL 2
REMARK VINA RESULT:      -9.8      1.663      2.333
REMARK  7 active torsions:
REMARK  status: ('A' for Active; 'I' for Inactive)
REMARK    1  A    between atoms: C_5  and  C_6 
REMARK    2  A    between atoms: C_10  and  C_11 
REMARK       I    between atoms: C_11  and  N_12 
REMARK    3  A    between atoms: N_12  and  N_13 
REMARK       I    between atoms: N_13  and  C_14 
REMARK       I    between atoms: C_14  and  N_15 
REMARK    4  A    between atoms: N_15  and  C_16 
REMARK    5  A    between atoms: C_16  and  C_17 
REMARK    6  A    between atoms: C_17  and  C_18 
REMARK    7  A    between atoms: C_21  and  O_22 
ROOT
HETATM    1  C   UNL     1      -3.947   5.220 -34.090  1.00  0.00     0.288 C 
HETATM    2  N   UNL     1      -4.751   4.377 -33.355  1.00  0.00    -0.261 N 
HETATM    3  O   UNL     1      -4.012   5.284 -35.317  1.00  0.00    -0.264 OA
HETATM    4  H   UNL     1      -4.621   4.207 -32.360  1.00  0.00     0.190 HD
ENDROOT
BRANCH   2   5
HETATM    5  N   UNL     1      -5.587   3.478 -34.029  1.00  0.00    -0.249 N 
HETATM    6  C   UNL     1      -5.847   2.272 -33.417  1.00  0.00     0.335 C 
HETATM    7  N   UNL     1      -6.769   1.531 -34.113  1.00  0.00    -0.337 N 
HETATM    8  O   UNL     1      -5.289   1.915 -32.385  1.00  0.00    -0.246 OA
HETATM    9  H   UNL     1      -6.790   1.744 -35.103  1.00  0.00     0.164 HD
HETATM   10  H   UNL     1      -6.264   3.890 -34.662  1.00  0.00     0.192 HD
BRANCH   7  11
HETATM   11  C   UNL     1      -7.045   0.140 -33.751  1.00  0.00     0.086 C 
HETATM   12  C   UNL     1      -8.429   0.005 -33.109  1.00  0.00     0.032 C 
BRANCH  11  13
HETATM   13  C   UNL     1      -6.961  -0.791 -34.984  1.00  0.00     0.063 C 
BRANCH  13  14
HETATM   14  C   UNL     1      -6.245  -2.109 -34.765  1.00  0.00    -0.056 A 
HETATM   15  C   UNL     1      -4.936  -2.170 -34.265  1.00  0.00     0.010 A 
HETATM   16  C   UNL     1      -4.295  -3.401 -34.092  1.00  0.00     0.037 A 
HETATM   17  C   UNL     1      -4.973  -4.576 -34.398  1.00  0.00     0.065 A 
HETATM   18  C   UNL     1      -6.279  -4.540 -34.865  1.00  0.00     0.037 A 
HETATM   19  C   UNL     1      -6.916  -3.311 -35.045  1.00  0.00     0.010 A 
BRANCH  17  20
HETATM   20  O   UNL     1      -4.384  -5.796 -34.250  1.00  0.00    -0.361 OA
HETATM   21  H   UNL     1      -4.081  -6.103 -35.121  1.00  0.00     0.217 HD
ENDBRANCH  17  20
ENDBRANCH  13  14
ENDBRANCH  11  13
ENDBRANCH   7  11
ENDBRANCH   2   5
BRANCH   1  22
HETATM   22  C   UNL     1      -3.031   6.022 -33.327  1.00  0.00     0.121 A 
HETATM   23  N   UNL     1      -2.353   7.068 -33.886  1.00  0.00    -0.272 N 
HETATM   24  N   UNL     1      -1.547   7.718 -33.037  1.00  0.00    -0.174 NA
HETATM   25  H   UNL     1      -2.405   7.381 -34.851  1.00  0.00     0.189 HD
HETATM   26  C   UNL     1      -1.720   7.099 -31.857  1.00  0.00     0.089 A 
HETATM   27  C   UNL     1      -2.630   6.011 -32.005  1.00  0.00     0.071 A 
BRANCH  26  28
HETATM   28  C   UNL     1      -1.038   7.553 -30.641  1.00  0.00    -0.006 A 
HETATM   29  C   UNL     1       0.223   7.055 -30.286  1.00  0.00     0.014 A 
HETATM   30  C   UNL     1       0.856   7.478 -29.111  1.00  0.00     0.007 A 
HETATM   31  C   UNL     1       0.237   8.403 -28.265  1.00  0.00    -0.062 A 
HETATM   32  C   UNL     1       0.911   8.872 -27.009  1.00  0.00     0.048 C 
HETATM   33  C   UNL     1      -1.015   8.914 -28.620  1.00  0.00     0.007 A 
HETATM   34  C   UNL     1      -1.647   8.489 -29.793  1.00  0.00     0.014 A 
ENDBRANCH  26  28
ENDBRANCH   1  22
TORSDOF 7
ENDMDL
MODEL 3
REMARK VINA RESULT:      -9.6      1.278      1.429
REMARK  7 active torsions:
REMARK  status: ('A' for Active; 'I' for Inactive)
REMARK    1  A    between atoms: C_5  and  C_6 
REMARK    2  A    between atoms: C_10  and  C_11 
REMARK       I    between atoms: C_11  and  N_12 
REMARK    3  A    between atoms: N_12  and  N_13 
REMARK       I    between atoms: N_13  and  C_14 
REMARK       I    between atoms: C_14  and  N_15 
REMARK    4  A    between atoms: N_15  and  C_16 
REMARK    5  A    between atoms: C_16  and  C_17 
REMARK    6  A    between atoms: C_17  and  C_18 
REMARK    7  A    between atoms: C_21  and  O_22 
ROOT
HETATM    1  C   UNL     1      -1.701   4.693 -31.689  1.00  0.00     0.288 C 
HETATM    2  N   UNL     1      -2.676   3.806 -31.289  1.00  0.00    -0.261 N 
HETATM    3  O   UNL     1      -1.436   4.885 -32.874  1.00  0.00    -0.264 OA
HETATM    4  H   UNL     1      -2.819   3.530 -30.320  1.00  0.00     0.190 HD
ENDROOT
BRANCH   2   5
HETATM    5  N   UNL     1      -3.305   3.009 -32.255  1.00  0.00    -0.249 N 
HETATM    6  C   UNL     1      -4.166   2.031 -31.808  1.00  0.00     0.335 C 
HETATM    7  N   UNL     1      -4.809   1.401 -32.844  1.00  0.00    -0.337 N 
HETATM    8  O   UNL     1      -4.306   1.758 -30.621  1.00  0.00    -0.246 OA
HETATM    9  H   UNL     1      -4.288   1.423 -33.712  1.00  0.00     0.164 HD
HETATM   10  H   UNL     1      -3.440   3.437 -33.165  1.00  0.00     0.192 HD
BRANCH   7  11
HETATM   11  C   UNL     1      -5.617   0.203 -32.611  1.00  0.00     0.086 C 
HETATM   12  C   UNL     1      -6.821   0.519 -31.718  1.00  0.00     0.032 C 
BRANCH  11  13
HETATM   13  C   UNL     1      -6.115  -0.410 -33.942  1.00  0.00     0.063 C 
BRANCH  13  14
HETATM   14  C   UNL     1      -5.780  -1.872 -34.159  1.00  0.00    -0.056 A 
HETATM   15  C   UNL     1      -6.696  -2.769 -34.726  1.00  0.00     0.010 A 
HETATM   16  C   UNL     1      -6.363  -4.117 -34.895  1.00  0.00     0.037 A 
HETATM   17  C   UNL     1      -5.102  -4.564 -34.518  1.00  0.00     0.065 A 
HETATM   18  C   UNL     1      -4.169  -3.687 -33.982  1.00  0.00     0.037 A 
HETATM   19  C   UNL     1      -4.504  -2.344 -33.807  1.00  0.00     0.010 A 
BRANCH  17  20
HETATM   20  O   UNL     1      -4.738  -5.870 -34.660  1.00  0.00    -0.361 OA
HETATM   21  H   UNL     1      -4.349  -5.990 -35.541  1.00  0.00     0.217 HD
ENDBRANCH  17  20
ENDBRANCH  13  14
ENDBRANCH  11  13
ENDBRANCH   7  11
ENDBRANCH   2   5
BRANCH   1  22
HETATM   22  C   UNL     1      -1.020   5.380 -30.628  1.00  0.00     0.121 A 
HETATM   23  N   UNL     1      -0.022   4.783 -29.909  1.00  0.00    -0.272 N 
HETATM   24  N   UNL     1       0.516   5.562 -28.963  1.00  0.00    -0.174 NA
HETATM   25  H   UNL     1       0.330   3.838 -30.026  1.00  0.00     0.189 HD
HETATM   26  C   UNL     1      -0.127   6.736 -29.077  1.00  0.00     0.089 A 
HETATM   27  C   UNL     1      -1.117   6.653 -30.100  1.00  0.00     0.071 A 
BRANCH  26  28
HETATM   28  C   UNL     1       0.215   7.888 -28.236  1.00  0.00    -0.006 A 
HETATM   29  C   UNL     1       1.414   7.929 -27.512  1.00  0.00     0.014 A 
HETATM   30  C   UNL     1       1.720   9.023 -26.694  1.00  0.00     0.007 A 
HETATM   31  C   UNL     1       0.830  10.095 -26.580  1.00  0.00    -0.062 A 
HETATM   32  C   UNL     1       1.153  11.278 -25.715  1.00  0.00     0.048 C 
HETATM   33  C   UNL     1      -0.361  10.067 -27.311  1.00  0.00     0.007 A 
HETATM   34  C   UNL     1      -0.668   8.972 -28.125  1.00  0.00     0.014 A 
ENDBRANCH  26  28
ENDBRANCH   1  22
TORSDOF 7
ENDMDL
MODEL 4
REMARK VINA RESULT:      -9.0      2.754     11.631
REMARK  7 active torsions:
REMARK  status: ('A' for Active; 'I' for Inactive)
REMARK    1  A    between atoms: C_5  and  C_6 
REMARK    2  A    between atoms: C_10  and  C_11 
REMARK       I    between atoms: C_11  and  N_12 
REMARK    3  A    between atoms: N_12  and  N_13 
REMARK       I    between atoms: N_13  and  C_14 
REMARK       I    between atoms: C_14  and  N_15 
REMARK    4  A    between atoms: N_15  and  C_16 
REMARK    5  A    between atoms: C_16  and  C_17 
REMARK    6  A    between atoms: C_17  and  C_18 
REMARK    7  A    between atoms: C_21  and  O_22 
ROOT
HETATM    1  C   UNL     1      -4.701   3.826 -31.655  1.00  0.00     0.288 C 
HETATM    2  N   UNL     1      -3.779   4.249 -30.724  1.00  0.00    -0.261 N 
HETATM    3  O   UNL     1      -5.558   4.577 -32.117  1.00  0.00    -0.264 OA
HETATM    4  H   UNL     1      -3.152   3.617 -30.229  1.00  0.00     0.190 HD
ENDROOT
BRANCH   2   5
HETATM    5  N   UNL     1      -3.891   5.542 -30.195  1.00  0.00    -0.249 N 
HETATM    6  C   UNL     1      -2.834   6.401 -30.389  1.00  0.00     0.335 C 
HETATM    7  N   UNL     1      -3.110   7.667 -29.935  1.00  0.00    -0.337 N 
HETATM    8  O   UNL     1      -1.771   6.049 -30.890  1.00  0.00    -0.246 OA
HETATM    9  H   UNL     1      -3.799   7.684 -29.193  1.00  0.00     0.164 HD
HETATM   10  H   UNL     1      -4.835   5.901 -30.097  1.00  0.00     0.192 HD
BRANCH   7  11
HETATM   11  C   UNL     1      -2.062   8.686 -29.861  1.00  0.00     0.086 C 
HETATM   12  C   UNL     1      -2.293   9.785 -30.903  1.00  0.00     0.032 C 
BRANCH  11  13
HETATM   13  C   UNL     1      -1.993   9.324 -28.453  1.00  0.00     0.063 C 
BRANCH  13  14
HETATM   14  C   UNL     1      -0.764   8.978 -27.635  1.00  0.00    -0.056 A 
HETATM   15  C   UNL     1       0.274   8.187 -28.150  1.00  0.00     0.010 A 
HETATM   16  C   UNL     1       1.385   7.870 -27.363  1.00  0.00     0.037 A 
HETATM   17  C   UNL     1       1.471   8.363 -26.066  1.00  0.00     0.065 A 
HETATM   18  C   UNL     1       0.469   9.172 -25.547  1.00  0.00     0.037 A 
HETATM   19  C   UNL     1      -0.643   9.482 -26.330  1.00  0.00     0.010 A 
BRANCH  17  20
HETATM   20  O   UNL     1       2.533   8.073 -25.263  1.00  0.00    -0.361 OA
HETATM   21  H   UNL     1       2.743   7.129 -25.353  1.00  0.00     0.217 HD
ENDBRANCH  17  20
ENDBRANCH  13  14
ENDBRANCH  11  13
ENDBRANCH   7  11
ENDBRANCH   2   5
BRANCH   1  22
HETATM   22  C   UNL     1      -4.590   2.450 -32.052  1.00  0.00     0.121 A 
HETATM   23  N   UNL     1      -3.563   1.658 -31.621  1.00  0.00    -0.272 N 
HETATM   24  N   UNL     1      -3.611   0.399 -32.075  1.00  0.00    -0.174 NA
HETATM   25  H   UNL     1      -2.797   1.932 -31.013  1.00  0.00     0.189 HD
HETATM   26  C   UNL     1      -4.733   0.342 -32.811  1.00  0.00     0.089 A 
HETATM   27  C   UNL     1      -5.364   1.620 -32.840  1.00  0.00     0.071 A 
BRANCH  26  28
HETATM   28  C   UNL     1      -5.174  -0.902 -33.449  1.00  0.00    -0.006 A 
HETATM   29  C   UNL     1      -4.258  -1.901 -33.804  1.00  0.00     0.014 A 
HETATM   30  C   UNL     1      -4.687  -3.077 -34.434  1.00  0.00     0.007 A 
HETATM   31  C   UNL     1      -6.040  -3.273 -34.726  1.00  0.00    -0.062 A 
HETATM   32  C   UNL     1      -6.512  -4.532 -35.390  1.00  0.00     0.048 C 
HETATM   33  C   UNL     1      -6.961  -2.285 -34.362  1.00  0.00     0.007 A 
HETATM   34  C   UNL     1      -6.531  -1.111 -33.736  1.00  0.00     0.014 A 
ENDBRANCH  26  28
ENDBRANCH   1  22
TORSDOF 7
ENDMDL
MODEL 5
REMARK VINA RESULT:      -9.0      2.959     10.631
REMARK  7 active torsions:
REMARK  status: ('A' for Active; 'I' for Inactive)
REMARK    1  A    between atoms: C_5  and  C_6 
REMARK    2  A    between atoms: C_10  and  C_11 
REMARK       I    between atoms: C_11  and  N_12 
REMARK    3  A    between atoms: N_12  and  N_13 
REMARK       I    between atoms: N_13  and  C_14 
REMARK       I    between atoms: C_14  and  N_15 
REMARK    4  A    between atoms: N_15  and  C_16 
REMARK    5  A    between atoms: C_16  and  C_17 
REMARK    6  A    between atoms: C_17  and  C_18 
REMARK    7  A    between atoms: C_21  and  O_22 
ROOT
HETATM    1  C   UNL     1      -5.377   3.237 -30.700  1.00  0.00     0.288 C 
HETATM    2  N   UNL     1      -4.570   4.291 -31.068  1.00  0.00    -0.261 N 
HETATM    3  O   UNL     1      -5.859   3.144 -29.572  1.00  0.00    -0.264 OA
HETATM    4  H   UNL     1      -4.052   4.320 -31.944  1.00  0.00     0.190 HD
ENDROOT
BRANCH   2   5
HETATM    5  N   UNL     1      -4.189   5.226 -30.097  1.00  0.00    -0.249 N 
HETATM    6  C   UNL     1      -3.691   6.432 -30.537  1.00  0.00     0.335 C 
HETATM    7  N   UNL     1      -3.468   7.304 -29.501  1.00  0.00    -0.337 N 
HETATM    8  O   UNL     1      -3.461   6.667 -31.718  1.00  0.00    -0.246 OA
HETATM    9  H   UNL     1      -3.287   6.842 -28.619  1.00  0.00     0.164 HD
HETATM   10  H   UNL     1      -4.670   5.162 -29.206  1.00  0.00     0.192 HD
BRANCH   7  11
HETATM   11  C   UNL     1      -2.759   8.566 -29.719  1.00  0.00     0.086 C 
HETATM   12  C   UNL     1      -3.504   9.733 -29.063  1.00  0.00     0.032 C 
BRANCH  11  13
HETATM   13  C   UNL     1      -1.316   8.506 -29.166  1.00  0.00     0.063 C 
BRANCH  13  14
HETATM   14  C   UNL     1      -0.488   7.319 -29.615  1.00  0.00    -0.056 A 
HETATM   15  C   UNL     1      -0.125   7.130 -30.957  1.00  0.00     0.010 A 
HETATM   16  C   UNL     1       0.623   6.014 -31.344  1.00  0.00     0.037 A 
HETATM   17  C   UNL     1       1.030   5.095 -30.383  1.00  0.00     0.065 A 
HETATM   18  C   UNL     1       0.707   5.277 -29.046  1.00  0.00     0.037 A 
HETATM   19  C   UNL     1      -0.046   6.388 -28.661  1.00  0.00     0.010 A 
BRANCH  17  20
HETATM   20  O   UNL     1       1.754   3.990 -30.717  1.00  0.00    -0.361 OA
HETATM   21  H   UNL     1       1.321   3.548 -31.465  1.00  0.00     0.217 HD
ENDBRANCH  17  20
ENDBRANCH  13  14
ENDBRANCH  11  13
ENDBRANCH   7  11
ENDBRANCH   2   5
BRANCH   1  22
HETATM   22  C   UNL     1      -5.618   2.258 -31.723  1.00  0.00     0.121 A 
HETATM   23  N   UNL     1      -6.011   2.616 -32.981  1.00  0.00    -0.272 N 
HETATM   24  N   UNL     1      -6.184   1.585 -33.818  1.00  0.00    -0.174 NA
HETATM   25  H   UNL     1      -6.177   3.558 -33.322  1.00  0.00     0.189 HD
HETATM   26  C   UNL     1      -5.862   0.499 -33.096  1.00  0.00     0.089 A 
HETATM   27  C   UNL     1      -5.523   0.881 -31.764  1.00  0.00     0.071 A 
BRANCH  26  28
HETATM   28  C   UNL     1      -5.875  -0.847 -33.678  1.00  0.00    -0.006 A 
HETATM   29  C   UNL     1      -7.078  -1.471 -34.037  1.00  0.00     0.014 A 
HETATM   30  C   UNL     1      -7.081  -2.766 -34.572  1.00  0.00     0.007 A 
HETATM   31  C   UNL     1      -5.883  -3.462 -34.753  1.00  0.00    -0.062 A 
HETATM   32  C   UNL     1      -5.874  -4.844 -35.335  1.00  0.00     0.048 C 
HETATM   33  C   UNL     1      -4.679  -2.839 -34.410  1.00  0.00     0.007 A 
HETATM   34  C   UNL     1      -4.677  -1.548 -33.873  1.00  0.00     0.014 A 
ENDBRANCH  26  28
ENDBRANCH   1  22
TORSDOF 7
ENDMDL
MODEL 6
REMARK VINA RESULT:      -9.0      2.960     10.898
REMARK  7 active torsions:
REMARK  status: ('A' for Active; 'I' for Inactive)
REMARK    1  A    between atoms: C_5  and  C_6 
REMARK    2  A    between atoms: C_10  and  C_11 
REMARK       I    between atoms: C_11  and  N_12 
REMARK    3  A    between atoms: N_12  and  N_13 
REMARK       I    between atoms: N_13  and  C_14 
REMARK       I    between atoms: C_14  and  N_15 
REMARK    4  A    between atoms: N_15  and  C_16 
REMARK    5  A    between atoms: C_16  and  C_17 
REMARK    6  A    between atoms: C_17  and  C_18 
REMARK    7  A    between atoms: C_21  and  O_22 
ROOT
HETATM    1  C   UNL     1      -4.650   4.059 -31.685  1.00  0.00     0.288 C 
HETATM    2  N   UNL     1      -3.675   4.470 -30.803  1.00  0.00    -0.261 N 
HETATM    3  O   UNL     1      -5.559   4.802 -32.051  1.00  0.00    -0.264 OA
HETATM    4  H   UNL     1      -2.997   3.838 -30.383  1.00  0.00     0.190 HD
ENDROOT
BRANCH   2   5
HETATM    5  N   UNL     1      -3.787   5.735 -30.210  1.00  0.00    -0.249 N 
HETATM    6  C   UNL     1      -2.766   6.631 -30.429  1.00  0.00     0.335 C 
HETATM    7  N   UNL     1      -3.045   7.867 -29.901  1.00  0.00    -0.337 N 
HETATM    8  O   UNL     1      -1.729   6.331 -31.011  1.00  0.00    -0.246 OA
HETATM    9  H   UNL     1      -3.685   7.833 -29.117  1.00  0.00     0.164 HD
HETATM   10  H   UNL     1      -4.732   6.062 -30.037  1.00  0.00     0.192 HD
BRANCH   7  11
HETATM   11  C   UNL     1      -2.021   8.911 -29.846  1.00  0.00     0.086 C 
HETATM   12  C   UNL     1      -2.523  10.207 -30.490  1.00  0.00     0.032 C 
BRANCH  11  13
HETATM   13  C   UNL     1      -1.587   9.201 -28.389  1.00  0.00     0.063 C 
BRANCH  13  14
HETATM   14  C   UNL     1      -1.435   7.986 -27.494  1.00  0.00    -0.056 A 
HETATM   15  C   UNL     1      -2.405   7.637 -26.543  1.00  0.00     0.010 A 
HETATM   16  C   UNL     1      -2.226   6.521 -25.719  1.00  0.00     0.037 A 
HETATM   17  C   UNL     1      -1.086   5.738 -25.863  1.00  0.00     0.065 A 
HETATM   18  C   UNL     1      -0.129   6.048 -26.818  1.00  0.00     0.037 A 
HETATM   19  C   UNL     1      -0.303   7.166 -27.635  1.00  0.00     0.010 A 
BRANCH  17  20
HETATM   20  O   UNL     1      -0.870   4.646 -25.077  1.00  0.00    -0.361 OA
HETATM   21  H   UNL     1       0.077   4.598 -24.865  1.00  0.00     0.217 HD
ENDBRANCH  17  20
ENDBRANCH  13  14
ENDBRANCH  11  13
ENDBRANCH   7  11
ENDBRANCH   2   5
BRANCH   1  22
HETATM   22  C   UNL     1      -4.528   2.706 -32.152  1.00  0.00     0.121 A 
HETATM   23  N   UNL     1      -3.390   1.977 -31.952  1.00  0.00    -0.272 N 
HETATM   24  N   UNL     1      -3.442   0.730 -32.439  1.00  0.00    -0.174 NA
HETATM   25  H   UNL     1      -2.542   2.287 -31.486  1.00  0.00     0.189 HD
HETATM   26  C   UNL     1      -4.677   0.615 -32.955  1.00  0.00     0.089 A 
HETATM   27  C   UNL     1      -5.382   1.846 -32.814  1.00  0.00     0.071 A 
BRANCH  26  28
HETATM   28  C   UNL     1      -5.150  -0.639 -33.550  1.00  0.00    -0.006 A 
HETATM   29  C   UNL     1      -6.481  -0.792 -33.961  1.00  0.00     0.014 A 
HETATM   30  C   UNL     1      -6.929  -2.001 -34.508  1.00  0.00     0.007 A 
HETATM   31  C   UNL     1      -6.055  -3.083 -34.648  1.00  0.00    -0.062 A 
HETATM   32  C   UNL     1      -6.520  -4.379 -35.241  1.00  0.00     0.048 C 
HETATM   33  C   UNL     1      -4.722  -2.933 -34.252  1.00  0.00     0.007 A 
HETATM   34  C   UNL     1      -4.277  -1.726 -33.704  1.00  0.00     0.014 A 
ENDBRANCH  26  28
ENDBRANCH   1  22
TORSDOF 7
ENDMDL
MODEL 7
REMARK VINA RESULT:      -8.9      2.532     11.280
REMARK  7 active torsions:
REMARK  status: ('A' for Active; 'I' for Inactive)
REMARK    1  A    between atoms: C_5  and  C_6 
REMARK    2  A    between atoms: C_10  and  C_11 
REMARK       I    between atoms: C_11  and  N_12 
REMARK    3  A    between atoms: N_12  and  N_13 
REMARK       I    between atoms: N_13  and  C_14 
REMARK       I    between atoms: C_14  and  N_15 
REMARK    4  A    between atoms: N_15  and  C_16 
REMARK    5  A    between atoms: C_16  and  C_17 
REMARK    6  A    between atoms: C_17  and  C_18 
REMARK    7  A    between atoms: C_21  and  O_22 
ROOT
HETATM    1  C   UNL     1      -4.782   3.301 -31.106  1.00  0.00     0.288 C 
HETATM    2  N   UNL     1      -3.902   4.189 -31.684  1.00  0.00    -0.261 N 
HETATM    3  O   UNL     1      -5.136   3.399 -29.932  1.00  0.00    -0.264 OA
HETATM    4  H   UNL     1      -3.492   4.051 -32.605  1.00  0.00     0.190 HD
ENDROOT
BRANCH   2   5
HETATM    5  N   UNL     1      -3.299   5.166 -30.882  1.00  0.00    -0.249 N 
HETATM    6  C   UNL     1      -1.923   5.220 -30.874  1.00  0.00     0.335 C 
HETATM    7  N   UNL     1      -1.455   6.289 -30.150  1.00  0.00    -0.337 N 
HETATM    8  O   UNL     1      -1.220   4.386 -31.434  1.00  0.00    -0.246 OA
HETATM    9  H   UNL     1      -2.094   6.593 -29.427  1.00  0.00     0.164 HD
HETATM   10  H   UNL     1      -3.848   6.002 -30.712  1.00  0.00     0.192 HD
BRANCH   7  11
HETATM   11  C   UNL     1      -0.030   6.425 -29.846  1.00  0.00     0.086 C 
HETATM   12  C   UNL     1       0.762   6.820 -31.096  1.00  0.00     0.032 C 
BRANCH  11  13
HETATM   13  C   UNL     1       0.212   7.474 -28.735  1.00  0.00     0.063 C 
BRANCH  13  14
HETATM   14  C   UNL     1      -0.856   7.555 -27.663  1.00  0.00    -0.056 A 
HETATM   15  C   UNL     1      -1.064   6.518 -26.741  1.00  0.00     0.010 A 
HETATM   16  C   UNL     1      -2.071   6.615 -25.775  1.00  0.00     0.037 A 
HETATM   17  C   UNL     1      -2.856   7.760 -25.715  1.00  0.00     0.065 A 
HETATM   18  C   UNL     1      -2.648   8.810 -26.598  1.00  0.00     0.037 A 
HETATM   19  C   UNL     1      -1.648   8.711 -27.567  1.00  0.00     0.010 A 
BRANCH  17  20
HETATM   20  O   UNL     1      -3.852   7.893 -24.794  1.00  0.00    -0.361 OA
HETATM   21  H   UNL     1      -3.862   8.811 -24.477  1.00  0.00     0.217 HD
ENDBRANCH  17  20
ENDBRANCH  13  14
ENDBRANCH  11  13
ENDBRANCH   7  11
ENDBRANCH   2   5
BRANCH   1  22
HETATM   22  C   UNL     1      -5.260   2.256 -31.968  1.00  0.00     0.121 A 
HETATM   23  N   UNL     1      -6.168   2.502 -32.959  1.00  0.00    -0.272 N 
HETATM   24  N   UNL     1      -6.502   1.423 -33.679  1.00  0.00    -0.174 NA
HETATM   25  H   UNL     1      -6.594   3.395 -33.187  1.00  0.00     0.189 HD
HETATM   26  C   UNL     1      -5.762   0.426 -33.166  1.00  0.00     0.089 A 
HETATM   27  C   UNL     1      -4.985   0.907 -32.072  1.00  0.00     0.071 A 
BRANCH  26  28
HETATM   28  C   UNL     1      -5.805  -0.931 -33.723  1.00  0.00    -0.006 A 
HETATM   29  C   UNL     1      -7.016  -1.520 -34.108  1.00  0.00     0.014 A 
HETATM   30  C   UNL     1      -7.048  -2.825 -34.618  1.00  0.00     0.007 A 
HETATM   31  C   UNL     1      -5.870  -3.566 -34.746  1.00  0.00    -0.062 A 
HETATM   32  C   UNL     1      -5.891  -4.959 -35.300  1.00  0.00     0.048 C 
HETATM   33  C   UNL     1      -4.656  -2.978 -34.376  1.00  0.00     0.007 A 
HETATM   34  C   UNL     1      -4.626  -1.677 -33.864  1.00  0.00     0.014 A 
ENDBRANCH  26  28
ENDBRANCH   1  22
TORSDOF 7
ENDMDL
MODEL 8
REMARK VINA RESULT:      -8.4      1.651      2.290
REMARK  7 active torsions:
REMARK  status: ('A' for Active; 'I' for Inactive)
REMARK    1  A    between atoms: C_5  and  C_6 
REMARK    2  A    between atoms: C_10  and  C_11 
REMARK       I    between atoms: C_11  and  N_12 
REMARK    3  A    between atoms: N_12  and  N_13 
REMARK       I    between atoms: N_13  and  C_14 
REMARK       I    between atoms: C_14  and  N_15 
REMARK    4  A    between atoms: N_15  and  C_16 
REMARK    5  A    between atoms: C_16  and  C_17 
REMARK    6  A    between atoms: C_17  and  C_18 
REMARK    7  A    between atoms: C_21  and  O_22 
ROOT
HETATM    1  C   UNL     1      -1.195   5.575 -30.782  1.00  0.00     0.288 C 
HETATM    2  N   UNL     1      -2.471   5.083 -30.613  1.00  0.00    -0.261 N 
HETATM    3  O   UNL     1      -0.433   5.137 -31.642  1.00  0.00    -0.264 OA
HETATM    4  H   UNL     1      -3.067   5.332 -29.826  1.00  0.00     0.190 HD
ENDROOT
BRANCH   2   5
HETATM    5  N   UNL     1      -2.874   3.970 -31.362  1.00  0.00    -0.249 N 
HETATM    6  C   UNL     1      -4.227   3.763 -31.513  1.00  0.00     0.335 C 
HETATM    7  N   UNL     1      -4.495   2.718 -32.363  1.00  0.00    -0.337 N 
HETATM    8  O   UNL     1      -5.073   4.430 -30.928  1.00  0.00    -0.246 OA
HETATM    9  H   UNL     1      -3.752   2.032 -32.400  1.00  0.00     0.164 HD
HETATM   10  H   UNL     1      -2.222   3.653 -32.072  1.00  0.00     0.192 HD
BRANCH   7  11
HETATM   11  C   UNL     1      -5.855   2.199 -32.512  1.00  0.00     0.086 C 
HETATM   12  C   UNL     1      -6.258   2.136 -33.988  1.00  0.00     0.032 C 
BRANCH  11  13
HETATM   13  C   UNL     1      -5.995   0.792 -31.883  1.00  0.00     0.063 C 
BRANCH  13  14
HETATM   14  C   UNL     1      -5.909  -0.371 -32.851  1.00  0.00    -0.056 A 
HETATM   15  C   UNL     1      -7.052  -0.939 -33.434  1.00  0.00     0.010 A 
HETATM   16  C   UNL     1      -6.941  -2.025 -34.308  1.00  0.00     0.037 A 
HETATM   17  C   UNL     1      -5.684  -2.530 -34.620  1.00  0.00     0.065 A 
HETATM   18  C   UNL     1      -4.538  -1.964 -34.077  1.00  0.00     0.037 A 
HETATM   19  C   UNL     1      -4.649  -0.885 -33.199  1.00  0.00     0.010 A 
BRANCH  17  20
HETATM   20  O   UNL     1      -5.531  -3.590 -35.462  1.00  0.00    -0.361 OA
HETATM   21  H   UNL     1      -6.051  -3.427 -36.265  1.00  0.00     0.217 HD
ENDBRANCH  17  20
ENDBRANCH  13  14
ENDBRANCH  11  13
ENDBRANCH   7  11
ENDBRANCH   2   5
BRANCH   1  22
HETATM   22  C   UNL     1      -0.819   6.635 -29.889  1.00  0.00     0.121 A 
HETATM   23  N   UNL     1      -1.465   7.839 -29.891  1.00  0.00    -0.272 N 
HETATM   24  N   UNL     1      -0.999   8.715 -28.992  1.00  0.00    -0.174 NA
HETATM   25  H   UNL     1      -2.235   8.116 -30.493  1.00  0.00     0.189 HD
HETATM   26  C   UNL     1      -0.026   8.056 -28.343  1.00  0.00     0.089 A 
HETATM   27  C   UNL     1       0.133   6.751 -28.895  1.00  0.00     0.071 A 
BRANCH  26  28
HETATM   28  C   UNL     1       0.710   8.666 -27.230  1.00  0.00    -0.006 A 
HETATM   29  C   UNL     1       0.480   9.995 -26.849  1.00  0.00     0.014 A 
HETATM   30  C   UNL     1       1.204  10.575 -25.800  1.00  0.00     0.007 A 
HETATM   31  C   UNL     1       2.175   9.839 -25.115  1.00  0.00    -0.062 A 
HETATM   32  C   UNL     1       2.948  10.447 -23.983  1.00  0.00     0.048 C 
HETATM   33  C   UNL     1       2.399   8.508 -25.482  1.00  0.00     0.007 A 
HETATM   34  C   UNL     1       1.678   7.931 -26.532  1.00  0.00     0.014 A 
ENDBRANCH  26  28
ENDBRANCH   1  22
TORSDOF 7
ENDMDL
MODEL 9
REMARK VINA RESULT:      -8.1      6.236     11.181
REMARK  7 active torsions:
REMARK  status: ('A' for Active; 'I' for Inactive)
REMARK    1  A    between atoms: C_5  and  C_6 
REMARK    2  A    between atoms: C_10  and  C_11 
REMARK       I    between atoms: C_11  and  N_12 
REMARK    3  A    between atoms: N_12  and  N_13 
REMARK       I    between atoms: N_13  and  C_14 
REMARK       I    between atoms: C_14  and  N_15 
REMARK    4  A    between atoms: N_15  and  C_16 
REMARK    5  A    between atoms: C_16  and  C_17 
REMARK    6  A    between atoms: C_17  and  C_18 
REMARK    7  A    between atoms: C_21  and  O_22 
ROOT
HETATM    1  C   UNL     1      -9.312   2.771 -34.081  1.00  0.00     0.288 C 
HETATM    2  N   UNL     1      -9.337   1.554 -34.725  1.00  0.00    -0.261 N 
HETATM    3  O   UNL     1      -8.266   3.389 -33.888  1.00  0.00    -0.264 OA
HETATM    4  H   UNL     1     -10.165   0.964 -34.776  1.00  0.00     0.190 HD
ENDROOT
BRANCH   2   5
HETATM    5  N   UNL     1      -8.124   0.941 -35.067  1.00  0.00    -0.249 N 
HETATM    6  C   UNL     1      -7.741  -0.160 -34.336  1.00  0.00     0.335 C 
HETATM    7  N   UNL     1      -6.604  -0.741 -34.840  1.00  0.00    -0.337 N 
HETATM    8  O   UNL     1      -8.347  -0.543 -33.341  1.00  0.00    -0.246 OA
HETATM    9  H   UNL     1      -6.013  -0.093 -35.345  1.00  0.00     0.164 HD
HETATM   10  H   UNL     1      -7.831   1.046 -36.033  1.00  0.00     0.192 HD
BRANCH   7  11
HETATM   11  C   UNL     1      -5.912  -1.801 -34.106  1.00  0.00     0.086 C 
HETATM   12  C   UNL     1      -5.561  -2.969 -35.033  1.00  0.00     0.032 C 
BRANCH  11  13
HETATM   13  C   UNL     1      -4.620  -1.274 -33.437  1.00  0.00     0.063 C 
BRANCH  13  14
HETATM   14  C   UNL     1      -4.817  -0.216 -32.369  1.00  0.00    -0.056 A 
HETATM   15  C   UNL     1      -5.654  -0.423 -31.262  1.00  0.00     0.010 A 
HETATM   16  C   UNL     1      -5.830   0.580 -30.304  1.00  0.00     0.037 A 
HETATM   17  C   UNL     1      -5.150   1.785 -30.440  1.00  0.00     0.065 A 
HETATM   18  C   UNL     1      -4.294   2.000 -31.512  1.00  0.00     0.037 A 
HETATM   19  C   UNL     1      -4.124   1.001 -32.472  1.00  0.00     0.010 A 
BRANCH  17  20
HETATM   20  O   UNL     1      -5.297   2.792 -29.534  1.00  0.00    -0.361 OA
HETATM   21  H   UNL     1      -4.507   2.821 -28.970  1.00  0.00     0.217 HD
ENDBRANCH  17  20
ENDBRANCH  13  14
ENDBRANCH  11  13
ENDBRANCH   7  11
ENDBRANCH   2   5
BRANCH   1  22
HETATM   22  C   UNL     1     -10.590   3.271 -33.656  1.00  0.00     0.121 A 
HETATM   23  N   UNL     1     -10.841   4.610 -33.558  1.00  0.00    -0.272 N 
HETATM   24  N   UNL     1     -12.083   4.909 -33.156  1.00  0.00    -0.174 NA
HETATM   25  H   UNL     1     -10.193   5.367 -33.754  1.00  0.00     0.189 HD
HETATM   26  C   UNL     1     -12.692   3.721 -33.013  1.00  0.00     0.089 A 
HETATM   27  C   UNL     1     -11.777   2.665 -33.296  1.00  0.00     0.071 A 
BRANCH  26  28
HETATM   28  C   UNL     1     -14.104   3.620 -32.626  1.00  0.00    -0.006 A 
HETATM   29  C   UNL     1     -14.763   2.383 -32.599  1.00  0.00     0.014 A 
HETATM   30  C   UNL     1     -16.117   2.300 -32.251  1.00  0.00     0.007 A 
HETATM   31  C   UNL     1     -16.839   3.453 -31.928  1.00  0.00    -0.062 A 
HETATM   32  C   UNL     1     -18.286   3.375 -31.543  1.00  0.00     0.048 C 
HETATM   33  C   UNL     1     -16.183   4.688 -31.940  1.00  0.00     0.007 A 
HETATM   34  C   UNL     1     -14.832   4.770 -32.291  1.00  0.00     0.014 A 
ENDBRANCH  26  28
ENDBRANCH   1  22
TORSDOF 7
ENDMDL
MODEL 10
REMARK VINA RESULT:      -8.0      7.723     11.548
REMARK  7 active torsions:
REMARK  status: ('A' for Active; 'I' for Inactive)
REMARK    1  A    between atoms: C_5  and  C_6 
REMARK    2  A    between atoms: C_10  and  C_11 
REMARK       I    between atoms: C_11  and  N_12 
REMARK    3  A    between atoms: N_12  and  N_13 
REMARK       I    between atoms: N_13  and  C_14 
REMARK       I    between atoms: C_14  and  N_15 
REMARK    4  A    between atoms: N_15  and  C_16 
REMARK    5  A    between atoms: C_16  and  C_17 
REMARK    6  A    between atoms: C_17  and  C_18 
REMARK    7  A    between atoms: C_21  and  O_22 
ROOT
HETATM    1  C   UNL     1     -12.752   1.725 -34.283  1.00  0.00     0.288 C 
HETATM    2  N   UNL     1     -11.441   1.853 -33.880  1.00  0.00    -0.261 N 
HETATM    3  O   UNL     1     -13.067   1.118 -35.305  1.00  0.00    -0.264 OA
HETATM    4  H   UNL     1     -11.146   2.462 -33.119  1.00  0.00     0.190 HD
ENDROOT
BRANCH   2   5
HETATM    5  N   UNL     1     -10.423   1.381 -34.719  1.00  0.00    -0.249 N 
HETATM    6  C   UNL     1      -9.169   1.227 -34.172  1.00  0.00     0.335 C 
HETATM    7  N   UNL     1      -8.292   0.647 -35.055  1.00  0.00    -0.337 N 
HETATM    8  O   UNL     1      -8.888   1.595 -33.037  1.00  0.00    -0.246 OA
HETATM    9  H   UNL     1      -8.532   0.810 -36.024  1.00  0.00     0.164 HD
HETATM   10  H   UNL     1     -10.722   0.798 -35.495  1.00  0.00     0.192 HD
BRANCH   7  11
HETATM   11  C   UNL     1      -6.862   0.571 -34.753  1.00  0.00     0.086 C 
HETATM   12  C   UNL     1      -6.300   1.954 -34.411  1.00  0.00     0.032 C 
BRANCH  11  13
HETATM   13  C   UNL     1      -6.583  -0.398 -33.580  1.00  0.00     0.063 C 
BRANCH  13  14
HETATM   14  C   UNL     1      -6.177  -1.805 -33.971  1.00  0.00    -0.056 A 
HETATM   15  C   UNL     1      -7.097  -2.728 -34.490  1.00  0.00     0.010 A 
HETATM   16  C   UNL     1      -6.695  -4.025 -34.824  1.00  0.00     0.037 A 
HETATM   17  C   UNL     1      -5.365  -4.394 -34.661  1.00  0.00     0.065 A 
HETATM   18  C   UNL     1      -4.431  -3.488 -34.178  1.00  0.00     0.037 A 
HETATM   19  C   UNL     1      -4.834  -2.196 -33.838  1.00  0.00     0.010 A 
BRANCH  17  20
HETATM   20  O   UNL     1      -4.932  -5.649 -34.968  1.00  0.00    -0.361 OA
HETATM   21  H   UNL     1      -5.381  -5.944 -35.777  1.00  0.00     0.217 HD
ENDBRANCH  17  20
ENDBRANCH  13  14
ENDBRANCH  11  13
ENDBRANCH   7  11
ENDBRANCH   2   5
BRANCH   1  22
HETATM   22  C   UNL     1     -13.724   2.345 -33.426  1.00  0.00     0.121 A 
HETATM   23  N   UNL     1     -14.645   1.610 -32.735  1.00  0.00    -0.272 N 
HETATM   24  N   UNL     1     -15.472   2.338 -31.974  1.00  0.00    -0.174 NA
HETATM   25  H   UNL     1     -14.752   0.600 -32.749  1.00  0.00     0.189 HD
HETATM   26  C   UNL     1     -15.064   3.607 -32.142  1.00  0.00     0.089 A 
HETATM   27  C   UNL     1     -13.981   3.654 -33.067  1.00  0.00     0.071 A 
BRANCH  26  28
HETATM   28  C   UNL     1     -15.696   4.721 -31.427  1.00  0.00    -0.006 A 
HETATM   29  C   UNL     1     -14.930   5.660 -30.724  1.00  0.00     0.014 A 
HETATM   30  C   UNL     1     -15.544   6.708 -30.025  1.00  0.00     0.007 A 
HETATM   31  C   UNL     1     -16.936   6.832 -30.012  1.00  0.00    -0.062 A 
HETATM   32  C   UNL     1     -17.604   7.955 -29.276  1.00  0.00     0.048 C 
HETATM   33  C   UNL     1     -17.705   5.906 -30.723  1.00  0.00     0.007 A 
HETATM   34  C   UNL     1     -17.091   4.859 -31.417  1.00  0.00     0.014 A 
ENDBRANCH  26  28
ENDBRANCH   1  22
TORSDOF 7
ENDMDL
