MODEL 1
REMARK VINA RESULT:      -8.5      0.000      0.000
REMARK  5 active torsions:
REMARK  status: ('A' for Active; 'I' for Inactive)
REMARK    1  A    between atoms: C_4  and  C_5 
REMARK       I    between atoms: C_5  and  N_6 
REMARK    2  A    between atoms: N_6  and  C_7 
REMARK    3  A    between atoms: C_7  and  C_8 
REMARK    4  A    between atoms: C_8  and  C_9 
REMARK    5  A    between atoms: C_18  and  O_19 
ROOT
HETATM    1  C   UNL     1      -9.685   0.381 -32.874  1.00  0.00     0.254 C 
HETATM    2  N   UNL     1      -8.683  -0.164 -33.649  1.00  0.00    -0.356 N 
HETATM    3  O   UNL     1      -9.679   0.349 -31.645  1.00  0.00    -0.268 OA
HETATM    4  H   UNL     1      -8.584   0.171 -34.600  1.00  0.00     0.162 HD
ENDROOT
BRANCH   1   5
HETATM    5  C   UNL     1     -10.798   1.075 -33.580  1.00  0.00     0.066 A 
HETATM    6  C   UNL     1     -10.578   2.274 -34.275  1.00  0.00     0.026 A 
HETATM    7  C   UNL     1     -11.633   2.922 -34.932  1.00  0.00    -0.060 A 
HETATM    8  C   UNL     1     -11.393   4.180 -35.713  1.00  0.00     0.048 C 
HETATM    9  C   UNL     1     -12.911   2.349 -34.904  1.00  0.00     0.016 A 
HETATM   10  C   UNL     1     -13.154   1.148 -34.221  1.00  0.00    -0.027 A 
HETATM   11  C   UNL     1     -12.085   0.505 -33.582  1.00  0.00     0.087 A 
HETATM   12  C   UNL     1     -14.528   0.540 -34.255  1.00  0.00     0.051 C 
BRANCH  11  13
HETATM   13  O   UNL     1     -12.349  -0.697 -32.971  1.00  0.00    -0.359 OA
HETATM   14  H   UNL     1     -11.828  -1.392 -33.432  1.00  0.00     0.218 HD
ENDBRANCH  11  13
ENDBRANCH   1   5
BRANCH   2  15
HETATM   15  C   UNL     1      -7.502  -0.750 -33.033  1.00  0.00     0.136 C 
BRANCH  15  16
HETATM   16  C   UNL     1      -6.287  -0.855 -34.001  1.00  0.00    -0.004 C 
HETATM   17  C   UNL     1      -6.681  -0.209 -35.350  1.00  0.00     0.021 C 
HETATM   18  C   UNL     1      -5.137  -0.002 -33.413  1.00  0.00     0.021 C 
BRANCH  16  19
HETATM   19  C   UNL     1      -5.899  -2.324 -34.252  1.00  0.00    -0.046 A 
HETATM   20  C   UNL     1      -6.848  -3.236 -34.746  1.00  0.00     0.027 A 
HETATM   21  C   UNL     1      -6.482  -4.557 -34.963  1.00  0.00     0.116 A 
HETATM   22  N   UNL     1      -5.247  -5.040 -34.729  1.00  0.00    -0.273 NA
HETATM   23  C   UNL     1      -4.337  -4.160 -34.269  1.00  0.00     0.116 A 
HETATM   24  C   UNL     1      -4.610  -2.820 -34.019  1.00  0.00     0.027 A 
ENDBRANCH  16  19
ENDBRANCH  15  16
ENDBRANCH   2  15
TORSDOF 5
ENDMDL
MODEL 2
REMARK VINA RESULT:      -8.3      0.814      2.113
REMARK  5 active torsions:
REMARK  status: ('A' for Active; 'I' for Inactive)
REMARK    1  A    between atoms: C_4  and  C_5 
REMARK       I    between atoms: C_5  and  N_6 
REMARK    2  A    between atoms: N_6  and  C_7 
REMARK    3  A    between atoms: C_7  and  C_8 
REMARK    4  A    between atoms: C_8  and  C_9 
REMARK    5  A    between atoms: C_18  and  O_19 
ROOT
HETATM    1  C   UNL     1      -9.570   0.510 -32.830  1.00  0.00     0.254 C 
HETATM    2  N   UNL     1      -8.682  -0.252 -33.561  1.00  0.00    -0.356 N 
HETATM    3  O   UNL     1      -9.413   0.771 -31.640  1.00  0.00    -0.268 OA
HETATM    4  H   UNL     1      -8.694  -0.157 -34.569  1.00  0.00     0.162 HD
ENDROOT
BRANCH   1   5
HETATM    5  C   UNL     1     -10.748   1.070 -33.551  1.00  0.00     0.066 A 
HETATM    6  C   UNL     1     -11.997   0.434 -33.501  1.00  0.00     0.026 A 
HETATM    7  C   UNL     1     -13.097   0.966 -34.186  1.00  0.00    -0.060 A 
HETATM    8  C   UNL     1     -14.445   0.313 -34.100  1.00  0.00     0.048 C 
HETATM    9  C   UNL     1     -12.942   2.156 -34.910  1.00  0.00     0.016 A 
HETATM   10  C   UNL     1     -11.704   2.815 -34.968  1.00  0.00    -0.027 A 
HETATM   11  C   UNL     1     -10.618   2.276 -34.264  1.00  0.00     0.087 A 
HETATM   12  C   UNL     1     -11.590   4.114 -35.713  1.00  0.00     0.051 C 
BRANCH  11  13
HETATM   13  O   UNL     1      -9.438   2.977 -34.300  1.00  0.00    -0.359 OA
HETATM   14  H   UNL     1      -9.561   3.749 -34.898  1.00  0.00     0.218 HD
ENDBRANCH  11  13
ENDBRANCH   1   5
BRANCH   2  15
HETATM   15  C   UNL     1      -7.446  -0.732 -32.962  1.00  0.00     0.136 C 
BRANCH  15  16
HETATM   16  C   UNL     1      -6.270  -0.848 -33.976  1.00  0.00    -0.004 C 
HETATM   17  C   UNL     1      -6.714  -0.203 -35.311  1.00  0.00     0.021 C 
HETATM   18  C   UNL     1      -5.093   0.001 -33.437  1.00  0.00     0.021 C 
BRANCH  16  19
HETATM   19  C   UNL     1      -5.902  -2.319 -34.238  1.00  0.00    -0.046 A 
HETATM   20  C   UNL     1      -6.866  -3.219 -34.727  1.00  0.00     0.027 A 
HETATM   21  C   UNL     1      -6.517  -4.542 -34.953  1.00  0.00     0.116 A 
HETATM   22  N   UNL     1      -5.285  -5.041 -34.732  1.00  0.00    -0.273 NA
HETATM   23  C   UNL     1      -4.362  -4.173 -34.277  1.00  0.00     0.116 A 
HETATM   24  C   UNL     1      -4.617  -2.831 -34.018  1.00  0.00     0.027 A 
ENDBRANCH  16  19
ENDBRANCH  15  16
ENDBRANCH   2  15
TORSDOF 5
ENDMDL
MODEL 3
REMARK VINA RESULT:      -7.8      5.092      8.311
REMARK  5 active torsions:
REMARK  status: ('A' for Active; 'I' for Inactive)
REMARK    1  A    between atoms: C_4  and  C_5 
REMARK       I    between atoms: C_5  and  N_6 
REMARK    2  A    between atoms: N_6  and  C_7 
REMARK    3  A    between atoms: C_7  and  C_8 
REMARK    4  A    between atoms: C_8  and  C_9 
REMARK    5  A    between atoms: C_18  and  O_19 
ROOT
HETATM    1  C   UNL     1      -3.898   0.806 -32.053  1.00  0.00     0.254 C 
HETATM    2  N   UNL     1      -3.931   2.130 -32.440  1.00  0.00    -0.356 N 
HETATM    3  O   UNL     1      -3.358   0.420 -31.018  1.00  0.00    -0.268 OA
HETATM    4  H   UNL     1      -4.644   2.413 -33.101  1.00  0.00     0.162 HD
ENDROOT
BRANCH   1   5
HETATM    5  C   UNL     1      -4.595  -0.181 -32.924  1.00  0.00     0.066 A 
HETATM    6  C   UNL     1      -5.742   0.176 -33.649  1.00  0.00     0.026 A 
HETATM    7  C   UNL     1      -6.394  -0.761 -34.461  1.00  0.00    -0.060 A 
HETATM    8  C   UNL     1      -7.595  -0.372 -35.272  1.00  0.00     0.048 C 
HETATM    9  C   UNL     1      -5.876  -2.060 -34.558  1.00  0.00     0.016 A 
HETATM   10  C   UNL     1      -4.726  -2.438 -33.849  1.00  0.00    -0.027 A 
HETATM   11  C   UNL     1      -4.079  -1.484 -33.052  1.00  0.00     0.087 A 
HETATM   12  C   UNL     1      -4.174  -3.825 -34.017  1.00  0.00     0.051 C 
BRANCH  11  13
HETATM   13  O   UNL     1      -2.926  -1.876 -32.417  1.00  0.00    -0.359 OA
HETATM   14  H   UNL     1      -3.051  -2.799 -32.102  1.00  0.00     0.218 HD
ENDBRANCH  11  13
ENDBRANCH   1   5
BRANCH   2  15
HETATM   15  C   UNL     1      -3.380   3.169 -31.583  1.00  0.00     0.136 C 
BRANCH  15  16
HETATM   16  C   UNL     1      -3.915   4.593 -31.917  1.00  0.00    -0.004 C 
HETATM   17  C   UNL     1      -5.227   4.445 -32.722  1.00  0.00     0.021 C 
HETATM   18  C   UNL     1      -4.283   5.286 -30.582  1.00  0.00     0.021 C 
BRANCH  16  19
HETATM   19  C   UNL     1      -2.902   5.385 -32.764  1.00  0.00    -0.046 A 
HETATM   20  C   UNL     1      -2.694   6.755 -32.528  1.00  0.00     0.027 A 
HETATM   21  C   UNL     1      -1.780   7.454 -33.304  1.00  0.00     0.116 A 
HETATM   22  N   UNL     1      -1.058   6.896 -34.294  1.00  0.00    -0.273 NA
HETATM   23  C   UNL     1      -1.250   5.581 -34.508  1.00  0.00     0.116 A 
HETATM   24  C   UNL     1      -2.144   4.799 -33.786  1.00  0.00     0.027 A 
ENDBRANCH  16  19
ENDBRANCH  15  16
ENDBRANCH   2  15
TORSDOF 5
ENDMDL
MODEL 4
REMARK VINA RESULT:      -7.8      4.894      8.304
REMARK  5 active torsions:
REMARK  status: ('A' for Active; 'I' for Inactive)
REMARK    1  A    between atoms: C_4  and  C_5 
REMARK       I    between atoms: C_5  and  N_6 
REMARK    2  A    between atoms: N_6  and  C_7 
REMARK    3  A    between atoms: C_7  and  C_8 
REMARK    4  A    between atoms: C_8  and  C_9 
REMARK    5  A    between atoms: C_18  and  O_19 
ROOT
HETATM    1  C   UNL     1      -3.674   0.591 -32.029  1.00  0.00     0.254 C 
HETATM    2  N   UNL     1      -3.682   1.888 -32.500  1.00  0.00    -0.356 N 
HETATM    3  O   UNL     1      -3.193   0.272 -30.944  1.00  0.00    -0.268 OA
HETATM    4  H   UNL     1      -4.357   2.129 -33.215  1.00  0.00     0.162 HD
ENDROOT
BRANCH   1   5
HETATM    5  C   UNL     1      -4.325  -0.449 -32.873  1.00  0.00     0.066 A 
HETATM    6  C   UNL     1      -3.771  -1.732 -32.997  1.00  0.00     0.026 A 
HETATM    7  C   UNL     1      -4.389  -2.702 -33.798  1.00  0.00    -0.060 A 
HETATM    8  C   UNL     1      -3.824  -4.089 -33.899  1.00  0.00     0.048 C 
HETATM    9  C   UNL     1      -5.581  -2.383 -34.462  1.00  0.00     0.016 A 
HETATM   10  C   UNL     1      -6.158  -1.109 -34.348  1.00  0.00    -0.027 A 
HETATM   11  C   UNL     1      -5.534  -0.156 -33.531  1.00  0.00     0.087 A 
HETATM   12  C   UNL     1      -7.463  -0.821 -35.035  1.00  0.00     0.051 C 
BRANCH  11  13
HETATM   13  O   UNL     1      -6.158   1.062 -33.400  1.00  0.00    -0.359 OA
HETATM   14  H   UNL     1      -5.838   1.645 -34.124  1.00  0.00     0.218 HD
ENDBRANCH  11  13
ENDBRANCH   1   5
BRANCH   2  15
HETATM   15  C   UNL     1      -3.176   2.979 -31.681  1.00  0.00     0.136 C 
BRANCH  15  16
HETATM   16  C   UNL     1      -3.797   4.362 -32.041  1.00  0.00    -0.004 C 
HETATM   17  C   UNL     1      -5.057   4.120 -32.905  1.00  0.00     0.021 C 
HETATM   18  C   UNL     1      -4.274   5.024 -30.726  1.00  0.00     0.021 C 
BRANCH  16  19
HETATM   19  C   UNL     1      -2.807   5.226 -32.843  1.00  0.00    -0.046 A 
HETATM   20  C   UNL     1      -2.552   6.555 -32.462  1.00  0.00     0.027 A 
HETATM   21  C   UNL     1      -1.659   7.321 -33.199  1.00  0.00     0.116 A 
HETATM   22  N   UNL     1      -1.001   6.868 -34.282  1.00  0.00    -0.273 NA
HETATM   23  C   UNL     1      -1.237   5.590 -34.635  1.00  0.00     0.116 A 
HETATM   24  C   UNL     1      -2.115   4.747 -33.962  1.00  0.00     0.027 A 
ENDBRANCH  16  19
ENDBRANCH  15  16
ENDBRANCH   2  15
TORSDOF 5
ENDMDL
MODEL 5
REMARK VINA RESULT:      -7.6      4.558      7.168
REMARK  5 active torsions:
REMARK  status: ('A' for Active; 'I' for Inactive)
REMARK    1  A    between atoms: C_4  and  C_5 
REMARK       I    between atoms: C_5  and  N_6 
REMARK    2  A    between atoms: N_6  and  C_7 
REMARK    3  A    between atoms: C_7  and  C_8 
REMARK    4  A    between atoms: C_8  and  C_9 
REMARK    5  A    between atoms: C_18  and  O_19 
ROOT
HETATM    1  C   UNL     1      -3.781   2.378 -31.798  1.00  0.00     0.254 C 
HETATM    2  N   UNL     1      -5.118   2.140 -32.041  1.00  0.00    -0.356 N 
HETATM    3  O   UNL     1      -3.012   1.521 -31.371  1.00  0.00    -0.268 OA
HETATM    4  H   UNL     1      -5.602   2.763 -32.677  1.00  0.00     0.162 HD
ENDROOT
BRANCH   1   5
HETATM    5  C   UNL     1      -3.257   3.736 -32.117  1.00  0.00     0.066 A 
HETATM    6  C   UNL     1      -2.476   3.959 -33.261  1.00  0.00     0.026 A 
HETATM    7  C   UNL     1      -1.983   5.239 -33.549  1.00  0.00    -0.060 A 
HETATM    8  C   UNL     1      -1.184   5.492 -34.793  1.00  0.00     0.048 C 
HETATM    9  C   UNL     1      -2.295   6.302 -32.690  1.00  0.00     0.016 A 
HETATM   10  C   UNL     1      -3.080   6.104 -31.545  1.00  0.00    -0.027 A 
HETATM   11  C   UNL     1      -3.577   4.820 -31.280  1.00  0.00     0.087 A 
HETATM   12  C   UNL     1      -3.434   7.278 -30.676  1.00  0.00     0.051 C 
BRANCH  11  13
HETATM   13  O   UNL     1      -4.388   4.676 -30.180  1.00  0.00    -0.359 OA
HETATM   14  H   UNL     1      -5.321   4.760 -30.478  1.00  0.00     0.218 HD
ENDBRANCH  11  13
ENDBRANCH   1   5
BRANCH   2  15
HETATM   15  C   UNL     1      -5.679   0.808 -31.873  1.00  0.00     0.136 C 
BRANCH  15  16
HETATM   16  C   UNL     1      -6.546   0.345 -33.080  1.00  0.00    -0.004 C 
HETATM   17  C   UNL     1      -8.006   0.180 -32.597  1.00  0.00     0.021 C 
HETATM   18  C   UNL     1      -6.546   1.483 -34.129  1.00  0.00     0.021 C 
BRANCH  16  19
HETATM   19  C   UNL     1      -6.055  -1.005 -33.635  1.00  0.00    -0.046 A 
HETATM   20  C   UNL     1      -6.948  -1.876 -34.284  1.00  0.00     0.027 A 
HETATM   21  C   UNL     1      -6.488  -3.090 -34.774  1.00  0.00     0.116 A 
HETATM   22  N   UNL     1      -5.211  -3.504 -34.670  1.00  0.00    -0.273 NA
HETATM   23  C   UNL     1      -4.356  -2.661 -34.060  1.00  0.00     0.116 A 
HETATM   24  C   UNL     1      -4.723  -1.428 -33.535  1.00  0.00     0.027 A 
ENDBRANCH  16  19
ENDBRANCH  15  16
ENDBRANCH   2  15
TORSDOF 5
ENDMDL
MODEL 6
REMARK VINA RESULT:      -7.6      2.374      7.688
REMARK  5 active torsions:
REMARK  status: ('A' for Active; 'I' for Inactive)
REMARK    1  A    between atoms: C_4  and  C_5 
REMARK       I    between atoms: C_5  and  N_6 
REMARK    2  A    between atoms: N_6  and  C_7 
REMARK    3  A    between atoms: C_7  and  C_8 
REMARK    4  A    between atoms: C_8  and  C_9 
REMARK    5  A    between atoms: C_18  and  O_19 
ROOT
HETATM    1  C   UNL     1      -6.958   0.206 -34.601  1.00  0.00     0.254 C 
HETATM    2  N   UNL     1      -7.543   0.904 -33.564  1.00  0.00    -0.356 N 
HETATM    3  O   UNL     1      -7.133   0.486 -35.784  1.00  0.00    -0.268 OA
HETATM    4  H   UNL     1      -7.116   0.838 -32.648  1.00  0.00     0.162 HD
ENDROOT
BRANCH   1   5
HETATM    5  C   UNL     1      -6.037  -0.909 -34.244  1.00  0.00     0.066 A 
HETATM    6  C   UNL     1      -6.212  -2.193 -34.781  1.00  0.00     0.026 A 
HETATM    7  C   UNL     1      -5.343  -3.236 -34.434  1.00  0.00    -0.060 A 
HETATM    8  C   UNL     1      -5.500  -4.600 -35.040  1.00  0.00     0.048 C 
HETATM    9  C   UNL     1      -4.281  -2.979 -33.557  1.00  0.00     0.016 A 
HETATM   10  C   UNL     1      -4.081  -1.701 -33.013  1.00  0.00    -0.027 A 
HETATM   11  C   UNL     1      -4.951  -0.666 -33.382  1.00  0.00     0.087 A 
HETATM   12  C   UNL     1      -2.902  -1.454 -32.115  1.00  0.00     0.051 C 
BRANCH  11  13
HETATM   13  O   UNL     1      -4.691   0.583 -32.872  1.00  0.00    -0.359 OA
HETATM   14  H   UNL     1      -4.212   1.097 -33.560  1.00  0.00     0.218 HD
ENDBRANCH  11  13
ENDBRANCH   1   5
BRANCH   2  15
HETATM   15  C   UNL     1      -8.357   2.081 -33.826  1.00  0.00     0.136 C 
BRANCH  15  16
HETATM   16  C   UNL     1      -9.644   2.151 -32.953  1.00  0.00    -0.004 C 
HETATM   17  C   UNL     1      -9.608   0.984 -31.939  1.00  0.00     0.021 C 
HETATM   18  C   UNL     1      -9.589   3.462 -32.131  1.00  0.00     0.021 C 
BRANCH  16  19
HETATM   19  C   UNL     1     -10.912   2.016 -33.815  1.00  0.00    -0.046 A 
HETATM   20  C   UNL     1     -11.172   2.936 -34.847  1.00  0.00     0.027 A 
HETATM   21  C   UNL     1     -12.321   2.801 -35.612  1.00  0.00     0.116 A 
HETATM   22  N   UNL     1     -13.231   1.825 -35.432  1.00  0.00    -0.273 NA
HETATM   23  C   UNL     1     -12.972   0.939 -34.452  1.00  0.00     0.116 A 
HETATM   24  C   UNL     1     -11.850   0.992 -33.632  1.00  0.00     0.027 A 
ENDBRANCH  16  19
ENDBRANCH  15  16
ENDBRANCH   2  15
TORSDOF 5
ENDMDL
MODEL 7
REMARK VINA RESULT:      -7.5      5.555      8.625
REMARK  5 active torsions:
REMARK  status: ('A' for Active; 'I' for Inactive)
REMARK    1  A    between atoms: C_4  and  C_5 
REMARK       I    between atoms: C_5  and  N_6 
REMARK    2  A    between atoms: N_6  and  C_7 
REMARK    3  A    between atoms: C_7  and  C_8 
REMARK    4  A    between atoms: C_8  and  C_9 
REMARK    5  A    between atoms: C_18  and  O_19 
ROOT
HETATM    1  C   UNL     1      -3.922   0.903 -31.975  1.00  0.00     0.254 C 
HETATM    2  N   UNL     1      -3.655   2.181 -32.420  1.00  0.00    -0.356 N 
HETATM    3  O   UNL     1      -3.616   0.502 -30.855  1.00  0.00    -0.268 OA
HETATM    4  H   UNL     1      -4.204   2.537 -33.194  1.00  0.00     0.162 HD
ENDROOT
BRANCH   1   5
HETATM    5  C   UNL     1      -4.658  -0.006 -32.899  1.00  0.00     0.066 A 
HETATM    6  C   UNL     1      -5.780   0.441 -33.612  1.00  0.00     0.026 A 
HETATM    7  C   UNL     1      -6.469  -0.423 -34.473  1.00  0.00    -0.060 A 
HETATM    8  C   UNL     1      -7.643   0.062 -35.271  1.00  0.00     0.048 C 
HETATM    9  C   UNL     1      -6.012  -1.738 -34.632  1.00  0.00     0.016 A 
HETATM   10  C   UNL     1      -4.887  -2.206 -33.936  1.00  0.00    -0.027 A 
HETATM   11  C   UNL     1      -4.202  -1.323 -33.088  1.00  0.00     0.087 A 
HETATM   12  C   UNL     1      -4.399  -3.607 -34.170  1.00  0.00     0.051 C 
BRANCH  11  13
HETATM   13  O   UNL     1      -3.074  -1.800 -32.466  1.00  0.00    -0.359 OA
HETATM   14  H   UNL     1      -3.291  -1.951 -31.519  1.00  0.00     0.218 HD
ENDBRANCH  11  13
ENDBRANCH   1   5
BRANCH   2  15
HETATM   15  C   UNL     1      -3.051   3.165 -31.535  1.00  0.00     0.136 C 
BRANCH  15  16
HETATM   16  C   UNL     1      -2.836   4.553 -32.209  1.00  0.00    -0.004 C 
HETATM   17  C   UNL     1      -2.323   4.321 -33.649  1.00  0.00     0.021 C 
HETATM   18  C   UNL     1      -4.218   5.241 -32.329  1.00  0.00     0.021 C 
BRANCH  16  19
HETATM   19  C   UNL     1      -1.795   5.390 -31.443  1.00  0.00    -0.046 A 
HETATM   20  C   UNL     1      -2.205   6.320 -30.471  1.00  0.00     0.027 A 
HETATM   21  C   UNL     1      -1.253   7.068 -29.793  1.00  0.00     0.116 A 
HETATM   22  N   UNL     1       0.073   6.962 -30.005  1.00  0.00    -0.273 NA
HETATM   23  C   UNL     1       0.461   6.061 -30.927  1.00  0.00     0.116 A 
HETATM   24  C   UNL     1      -0.417   5.269 -31.658  1.00  0.00     0.027 A 
ENDBRANCH  16  19
ENDBRANCH  15  16
ENDBRANCH   2  15
TORSDOF 5
ENDMDL
MODEL 8
REMARK VINA RESULT:      -7.5      4.591      7.626
REMARK  5 active torsions:
REMARK  status: ('A' for Active; 'I' for Inactive)
REMARK    1  A    between atoms: C_4  and  C_5 
REMARK       I    between atoms: C_5  and  N_6 
REMARK    2  A    between atoms: N_6  and  C_7 
REMARK    3  A    between atoms: C_7  and  C_8 
REMARK    4  A    between atoms: C_8  and  C_9 
REMARK    5  A    between atoms: C_18  and  O_19 
ROOT
HETATM    1  C   UNL     1      -6.044   0.734 -33.680  1.00  0.00     0.254 C 
HETATM    2  N   UNL     1      -5.964   1.446 -32.501  1.00  0.00    -0.356 N 
HETATM    3  O   UNL     1      -6.478   1.210 -34.726  1.00  0.00    -0.268 OA
HETATM    4  H   UNL     1      -5.319   1.119 -31.793  1.00  0.00     0.162 HD
ENDROOT
BRANCH   1   5
HETATM    5  C   UNL     1      -5.532  -0.665 -33.672  1.00  0.00     0.066 A 
HETATM    6  C   UNL     1      -4.462  -1.040 -32.845  1.00  0.00     0.026 A 
HETATM    7  C   UNL     1      -3.984  -2.357 -32.850  1.00  0.00    -0.060 A 
HETATM    8  C   UNL     1      -2.870  -2.773 -31.935  1.00  0.00     0.048 C 
HETATM    9  C   UNL     1      -4.599  -3.305 -33.677  1.00  0.00     0.016 A 
HETATM   10  C   UNL     1      -5.675  -2.956 -34.507  1.00  0.00    -0.027 A 
HETATM   11  C   UNL     1      -6.150  -1.638 -34.480  1.00  0.00     0.087 A 
HETATM   12  C   UNL     1      -6.341  -4.013 -35.344  1.00  0.00     0.051 C 
BRANCH  11  13
HETATM   13  O   UNL     1      -7.239  -1.347 -35.265  1.00  0.00    -0.359 OA
HETATM   14  H   UNL     1      -7.002  -1.545 -36.198  1.00  0.00     0.218 HD
ENDBRANCH  11  13
ENDBRANCH   1   5
BRANCH   2  15
HETATM   15  C   UNL     1      -6.329   2.854 -32.457  1.00  0.00     0.136 C 
BRANCH  15  16
HETATM   16  C   UNL     1      -5.202   3.767 -31.891  1.00  0.00    -0.004 C 
HETATM   17  C   UNL     1      -5.861   4.991 -31.214  1.00  0.00     0.021 C 
HETATM   18  C   UNL     1      -4.467   2.980 -30.780  1.00  0.00     0.021 C 
BRANCH  16  19
HETATM   19  C   UNL     1      -4.272   4.266 -33.013  1.00  0.00    -0.046 A 
HETATM   20  C   UNL     1      -2.875   4.212 -32.855  1.00  0.00     0.027 A 
HETATM   21  C   UNL     1      -2.052   4.669 -33.874  1.00  0.00     0.116 A 
HETATM   22  N   UNL     1      -2.508   5.173 -35.037  1.00  0.00    -0.273 NA
HETATM   23  C   UNL     1      -3.846   5.209 -35.189  1.00  0.00     0.116 A 
HETATM   24  C   UNL     1      -4.750   4.778 -34.225  1.00  0.00     0.027 A 
ENDBRANCH  16  19
ENDBRANCH  15  16
ENDBRANCH   2  15
TORSDOF 5
ENDMDL
MODEL 9
REMARK VINA RESULT:      -7.5      2.292      7.622
REMARK  5 active torsions:
REMARK  status: ('A' for Active; 'I' for Inactive)
REMARK    1  A    between atoms: C_4  and  C_5 
REMARK       I    between atoms: C_5  and  N_6 
REMARK    2  A    between atoms: N_6  and  C_7 
REMARK    3  A    between atoms: C_7  and  C_8 
REMARK    4  A    between atoms: C_8  and  C_9 
REMARK    5  A    between atoms: C_18  and  O_19 
ROOT
HETATM    1  C   UNL     1      -6.954  -0.254 -34.345  1.00  0.00     0.254 C 
HETATM    2  N   UNL     1      -7.413   0.698 -33.457  1.00  0.00    -0.356 N 
HETATM    3  O   UNL     1      -7.427  -0.410 -35.468  1.00  0.00    -0.268 OA
HETATM    4  H   UNL     1      -6.793   0.986 -32.709  1.00  0.00     0.162 HD
ENDROOT
BRANCH   1   5
HETATM    5  C   UNL     1      -5.800  -1.093 -33.916  1.00  0.00     0.066 A 
HETATM    6  C   UNL     1      -4.800  -0.575 -33.080  1.00  0.00     0.026 A 
HETATM    7  C   UNL     1      -3.715  -1.370 -32.687  1.00  0.00    -0.060 A 
HETATM    8  C   UNL     1      -2.666  -0.834 -31.757  1.00  0.00     0.048 C 
HETATM    9  C   UNL     1      -3.649  -2.700 -33.124  1.00  0.00     0.016 A 
HETATM   10  C   UNL     1      -4.641  -3.242 -33.954  1.00  0.00    -0.027 A 
HETATM   11  C   UNL     1      -5.726  -2.437 -34.326  1.00  0.00     0.087 A 
HETATM   12  C   UNL     1      -4.559  -4.686 -34.361  1.00  0.00     0.051 C 
BRANCH  11  13
HETATM   13  O   UNL     1      -6.705  -3.018 -35.094  1.00  0.00    -0.359 OA
HETATM   14  H   UNL     1      -6.839  -3.937 -34.770  1.00  0.00     0.218 HD
ENDBRANCH  11  13
ENDBRANCH   1   5
BRANCH   2  15
HETATM   15  C   UNL     1      -8.453   1.637 -33.845  1.00  0.00     0.136 C 
BRANCH  15  16
HETATM   16  C   UNL     1      -9.727   1.553 -32.953  1.00  0.00    -0.004 C 
HETATM   17  C   UNL     1      -9.722   0.189 -32.224  1.00  0.00     0.021 C 
HETATM   18  C   UNL     1      -9.615   2.646 -31.862  1.00  0.00     0.021 C 
BRANCH  16  19
HETATM   19  C   UNL     1     -11.009   1.656 -33.799  1.00  0.00    -0.046 A 
HETATM   20  C   UNL     1     -11.149   2.675 -34.758  1.00  0.00     0.027 A 
HETATM   21  C   UNL     1     -12.313   2.754 -35.510  1.00  0.00     0.116 A 
HETATM   22  N   UNL     1     -13.347   1.900 -35.382  1.00  0.00    -0.273 NA
HETATM   23  C   UNL     1     -13.203   0.918 -34.472  1.00  0.00     0.116 A 
HETATM   24  C   UNL     1     -12.077   0.759 -33.672  1.00  0.00     0.027 A 
ENDBRANCH  16  19
ENDBRANCH  15  16
ENDBRANCH   2  15
TORSDOF 5
ENDMDL
MODEL 10
REMARK VINA RESULT:      -7.4      2.564      7.743
REMARK  5 active torsions:
REMARK  status: ('A' for Active; 'I' for Inactive)
REMARK    1  A    between atoms: C_4  and  C_5 
REMARK       I    between atoms: C_5  and  N_6 
REMARK    2  A    between atoms: N_6  and  C_7 
REMARK    3  A    between atoms: C_7  and  C_8 
REMARK    4  A    between atoms: C_8  and  C_9 
REMARK    5  A    between atoms: C_18  and  O_19 
ROOT
HETATM    1  C   UNL     1      -6.901   0.453 -34.243  1.00  0.00     0.254 C 
HETATM    2  N   UNL     1      -8.258   0.283 -34.419  1.00  0.00    -0.356 N 
HETATM    3  O   UNL     1      -6.362   1.557 -34.188  1.00  0.00    -0.268 OA
HETATM    4  H   UNL     1      -8.666  -0.600 -34.136  1.00  0.00     0.162 HD
ENDROOT
BRANCH   1   5
HETATM    5  C   UNL     1      -6.072  -0.772 -34.069  1.00  0.00     0.066 A 
HETATM    6  C   UNL     1      -6.359  -1.947 -34.781  1.00  0.00     0.026 A 
HETATM    7  C   UNL     1      -5.577  -3.096 -34.606  1.00  0.00    -0.060 A 
HETATM    8  C   UNL     1      -5.852  -4.341 -35.398  1.00  0.00     0.048 C 
HETATM    9  C   UNL     1      -4.489  -3.056 -33.724  1.00  0.00     0.016 A 
HETATM   10  C   UNL     1      -4.178  -1.891 -33.006  1.00  0.00    -0.027 A 
HETATM   11  C   UNL     1      -4.963  -0.746 -33.204  1.00  0.00     0.087 A 
HETATM   12  C   UNL     1      -2.975  -1.872 -32.107  1.00  0.00     0.051 C 
BRANCH  11  13
HETATM   13  O   UNL     1      -4.595   0.391 -32.527  1.00  0.00    -0.359 OA
HETATM   14  H   UNL     1      -4.028   0.122 -31.769  1.00  0.00     0.218 HD
ENDBRANCH  11  13
ENDBRANCH   1   5
BRANCH   2  15
HETATM   15  C   UNL     1      -9.151   1.431 -34.473  1.00  0.00     0.136 C 
BRANCH  15  16
HETATM   16  C   UNL     1     -10.284   1.384 -33.406  1.00  0.00    -0.004 C 
HETATM   17  C   UNL     1     -11.629   1.676 -34.111  1.00  0.00     0.021 C 
HETATM   18  C   UNL     1     -10.365  -0.063 -32.864  1.00  0.00     0.021 C 
BRANCH  16  19
HETATM   19  C   UNL     1     -10.062   2.442 -32.310  1.00  0.00    -0.046 A 
HETATM   20  C   UNL     1      -9.007   2.304 -31.391  1.00  0.00     0.027 A 
HETATM   21  C   UNL     1      -8.824   3.265 -30.407  1.00  0.00     0.116 A 
HETATM   22  N   UNL     1      -9.607   4.352 -30.267  1.00  0.00    -0.273 NA
HETATM   23  C   UNL     1     -10.608   4.488 -31.158  1.00  0.00     0.116 A 
HETATM   24  C   UNL     1     -10.871   3.578 -32.175  1.00  0.00     0.027 A 
ENDBRANCH  16  19
ENDBRANCH  15  16
ENDBRANCH   2  15
TORSDOF 5
ENDMDL
