MODEL 1
REMARK VINA RESULT:     -10.8      0.000      0.000
REMARK  6 active torsions:
REMARK  status: ('A' for Active; 'I' for Inactive)
REMARK    1  A    between atoms: C_2  and  O_3 
REMARK    2  A    between atoms: C_2  and  C_4 
REMARK    3  A    between atoms: C_6  and  N_7 
REMARK       I    between atoms: N_7  and  C_8 
REMARK    4  A    between atoms: C_8  and  C_9 
REMARK    5  A    between atoms: C_12  and  C_13 
REMARK    6  A    between atoms: C_18  and  C_19 
ROOT
HETATM    1  C   UNL     1      -5.294   1.152 -31.870  1.00  0.00     0.096 A 
HETATM    2  C   UNL     1      -6.013   0.616 -32.921  1.00  0.00     0.138 A 
HETATM    3  N   UNL     1      -7.194   0.166 -32.378  1.00  0.00    -0.240 N 
HETATM    4  C   UNL     1      -8.244  -0.499 -33.129  1.00  0.00     0.221 C 
HETATM    5  C   UNL     1      -7.985  -0.380 -34.646  1.00  0.00     0.066 C 
HETATM    6  C   UNL     1      -6.499  -0.591 -34.982  1.00  0.00     0.118 C 
HETATM    7  N   UNL     1      -5.744   0.442 -34.247  1.00  0.00    -0.365 N 
HETATM    8  N   UNL     1      -7.222   0.229 -31.037  1.00  0.00    -0.181 NA
HETATM    9  C   UNL     1      -6.075   0.841 -30.732  1.00  0.00     0.160 A 
HETATM   10  H   UNL     1      -4.775   0.512 -34.563  1.00  0.00     0.161 HD
ENDROOT
BRANCH   1  11
HETATM   11  C   UNL     1      -4.006   1.821 -31.887  1.00  0.00     0.261 C 
HETATM   12  N   UNL     1      -4.057   3.073 -32.472  1.00  0.00    -0.323 N 
HETATM   13  H   UNL     1      -4.989   3.408 -32.696  1.00  0.00     0.169 HD
HETATM   14  O   UNL     1      -3.022   1.301 -31.372  1.00  0.00    -0.267 OA
BRANCH  12  15
HETATM   15  C   UNL     1      -2.999   3.979 -32.661  1.00  0.00     0.035 A 
HETATM   16  C   UNL     1      -2.034   4.259 -31.689  1.00  0.00     0.039 A 
HETATM   17  C   UNL     1      -0.990   5.170 -31.941  1.00  0.00    -0.028 A 
HETATM   18  C   UNL     1      -0.930   5.797 -33.192  1.00  0.00     0.010 A 
HETATM   19  C   UNL     1      -1.887   5.523 -34.168  1.00  0.00     0.003 A 
HETATM   20  C   UNL     1      -2.911   4.611 -33.905  1.00  0.00     0.029 A 
BRANCH  17  21
HETATM   21  C   UNL     1       0.060   5.411 -30.879  1.00  0.00     0.147 C 
HETATM   22  C   UNL     1      -0.109   6.784 -30.237  1.00  0.00     0.044 C 
BRANCH  21  23
HETATM   23  O   UNL     1      -0.023   4.413 -29.862  1.00  0.00    -0.391 OA
HETATM   24  H   UNL     1      -0.387   4.845 -29.071  1.00  0.00     0.210 HD
ENDBRANCH  21  23
ENDBRANCH  17  21
ENDBRANCH  12  15
ENDBRANCH   1  11
BRANCH   4  25
HETATM   25  C   UNL     1      -9.603   0.080 -32.807  1.00  0.00     0.409 C 
HETATM   26  F   UNL     1     -10.516  -0.840 -32.439  1.00  0.00    -0.169 F 
HETATM   27  F   UNL     1      -9.542   1.028 -31.843  1.00  0.00    -0.169 F 
HETATM   28  F   UNL     1     -10.109   0.691 -33.914  1.00  0.00    -0.169 F 
ENDBRANCH   4  25
BRANCH   6  29
HETATM   29  C   UNL     1      -5.986  -2.010 -34.733  1.00  0.00    -0.035 A 
HETATM   30  C   UNL     1      -6.819  -3.117 -34.989  1.00  0.00     0.009 A 
HETATM   31  C   UNL     1      -6.377  -4.425 -34.769  1.00  0.00     0.001 A 
HETATM   32  C   UNL     1      -5.084  -4.658 -34.314  1.00  0.00     0.000 A 
HETATM   33  C   UNL     1      -4.231  -3.584 -34.086  1.00  0.00     0.001 A 
HETATM   34  C   UNL     1      -4.676  -2.276 -34.298  1.00  0.00     0.009 A 
ENDBRANCH   6  29
TORSDOF 6
ENDMDL
MODEL 2
REMARK VINA RESULT:     -10.3      1.457      1.596
REMARK  6 active torsions:
REMARK  status: ('A' for Active; 'I' for Inactive)
REMARK    1  A    between atoms: C_2  and  O_3 
REMARK    2  A    between atoms: C_2  and  C_4 
REMARK    3  A    between atoms: C_6  and  N_7 
REMARK       I    between atoms: N_7  and  C_8 
REMARK    4  A    between atoms: C_8  and  C_9 
REMARK    5  A    between atoms: C_12  and  C_13 
REMARK    6  A    between atoms: C_18  and  C_19 
ROOT
HETATM    1  C   UNL     1      -6.590   2.931 -32.043  1.00  0.00     0.096 A 
HETATM    2  C   UNL     1      -6.993   2.102 -33.072  1.00  0.00     0.138 A 
HETATM    3  N   UNL     1      -8.056   1.381 -32.581  1.00  0.00    -0.240 N 
HETATM    4  C   UNL     1      -8.773   0.362 -33.326  1.00  0.00     0.221 C 
HETATM    5  C   UNL     1      -8.373   0.397 -34.817  1.00  0.00     0.066 C 
HETATM    6  C   UNL     1      -6.858   0.601 -34.988  1.00  0.00     0.118 C 
HETATM    7  N   UNL     1      -6.523   1.880 -34.334  1.00  0.00    -0.365 N 
HETATM    8  N   UNL     1      -8.266   1.569 -31.268  1.00  0.00    -0.181 NA
HETATM    9  C   UNL     1      -7.386   2.522 -30.947  1.00  0.00     0.160 A 
HETATM   10  H   UNL     1      -5.583   2.202 -34.570  1.00  0.00     0.161 HD
ENDROOT
BRANCH   1  11
HETATM   11  C   UNL     1      -5.552   3.946 -32.035  1.00  0.00     0.261 C 
HETATM   12  N   UNL     1      -4.451   3.595 -32.794  1.00  0.00    -0.323 N 
HETATM   13  H   UNL     1      -4.558   2.750 -33.347  1.00  0.00     0.169 HD
HETATM   14  O   UNL     1      -5.716   5.006 -31.441  1.00  0.00    -0.267 OA
BRANCH  12  15
HETATM   15  C   UNL     1      -3.272   4.335 -32.994  1.00  0.00     0.035 A 
HETATM   16  C   UNL     1      -2.242   4.422 -32.053  1.00  0.00     0.039 A 
HETATM   17  C   UNL     1      -1.079   5.172 -32.315  1.00  0.00    -0.028 A 
HETATM   18  C   UNL     1      -0.967   5.835 -33.543  1.00  0.00     0.010 A 
HETATM   19  C   UNL     1      -1.988   5.753 -34.488  1.00  0.00     0.003 A 
HETATM   20  C   UNL     1      -3.131   4.999 -34.217  1.00  0.00     0.029 A 
BRANCH  17  21
HETATM   21  C   UNL     1       0.033   5.202 -31.289  1.00  0.00     0.147 C 
HETATM   22  C   UNL     1       0.382   6.635 -30.898  1.00  0.00     0.044 C 
BRANCH  21  23
HETATM   23  O   UNL     1      -0.351   4.484 -30.118  1.00  0.00    -0.391 OA
HETATM   24  H   UNL     1       0.203   4.813 -29.391  1.00  0.00     0.210 HD
ENDBRANCH  21  23
ENDBRANCH  17  21
ENDBRANCH  12  15
ENDBRANCH   1  11
BRANCH   4  25
HETATM   25  C   UNL     1     -10.270   0.543 -33.206  1.00  0.00     0.409 C 
HETATM   26  F   UNL     1     -10.913  -0.534 -32.717  1.00  0.00    -0.169 F 
HETATM   27  F   UNL     1     -10.598   1.615 -32.449  1.00  0.00    -0.169 F 
HETATM   28  F   UNL     1     -10.799   0.770 -34.441  1.00  0.00    -0.169 F 
ENDBRANCH   4  25
BRANCH   6  29
HETATM   29  C   UNL     1      -6.000  -0.569 -34.507  1.00  0.00    -0.035 A 
HETATM   30  C   UNL     1      -6.269  -1.876 -34.960  1.00  0.00     0.009 A 
HETATM   31  C   UNL     1      -5.502  -2.965 -34.536  1.00  0.00     0.001 A 
HETATM   32  C   UNL     1      -4.432  -2.770 -33.670  1.00  0.00     0.000 A 
HETATM   33  C   UNL     1      -4.125  -1.486 -33.234  1.00  0.00     0.001 A 
HETATM   34  C   UNL     1      -4.897  -0.398 -33.652  1.00  0.00     0.009 A 
ENDBRANCH   6  29
TORSDOF 6
ENDMDL
MODEL 3
REMARK VINA RESULT:      -9.3      4.333      8.173
REMARK  6 active torsions:
REMARK  status: ('A' for Active; 'I' for Inactive)
REMARK    1  A    between atoms: C_2  and  O_3 
REMARK    2  A    between atoms: C_2  and  C_4 
REMARK    3  A    between atoms: C_6  and  N_7 
REMARK       I    between atoms: N_7  and  C_8 
REMARK    4  A    between atoms: C_8  and  C_9 
REMARK    5  A    between atoms: C_12  and  C_13 
REMARK    6  A    between atoms: C_18  and  C_19 
ROOT
HETATM    1  C   UNL     1      -8.050   2.656 -32.534  1.00  0.00     0.096 A 
HETATM    2  C   UNL     1      -6.978   1.905 -32.092  1.00  0.00     0.138 A 
HETATM    3  N   UNL     1      -5.860   2.479 -32.653  1.00  0.00    -0.240 N 
HETATM    4  C   UNL     1      -4.506   1.986 -32.474  1.00  0.00     0.221 C 
HETATM    5  C   UNL     1      -4.458   0.922 -31.357  1.00  0.00     0.066 C 
HETATM    6  C   UNL     1      -5.657  -0.038 -31.443  1.00  0.00     0.118 C 
HETATM    7  N   UNL     1      -6.873   0.787 -31.317  1.00  0.00    -0.365 N 
HETATM    8  N   UNL     1      -6.146   3.441 -33.545  1.00  0.00    -0.181 NA
HETATM    9  C   UNL     1      -7.473   3.558 -33.459  1.00  0.00     0.160 A 
HETATM   10  H   UNL     1      -7.710   0.222 -31.158  1.00  0.00     0.161 HD
ENDROOT
BRANCH   1  11
HETATM   11  C   UNL     1      -9.457   2.531 -32.200  1.00  0.00     0.261 C 
HETATM   12  N   UNL     1     -10.216   2.033 -33.243  1.00  0.00    -0.323 N 
HETATM   13  H   UNL     1      -9.687   1.710 -34.047  1.00  0.00     0.169 HD
HETATM   14  O   UNL     1      -9.861   2.803 -31.075  1.00  0.00    -0.267 OA
BRANCH  12  15
HETATM   15  C   UNL     1     -11.602   1.799 -33.264  1.00  0.00     0.035 A 
HETATM   16  C   UNL     1     -12.552   2.723 -32.821  1.00  0.00     0.039 A 
HETATM   17  C   UNL     1     -13.929   2.434 -32.876  1.00  0.00    -0.028 A 
HETATM   18  C   UNL     1     -14.338   1.196 -33.387  1.00  0.00     0.010 A 
HETATM   19  C   UNL     1     -13.398   0.268 -33.832  1.00  0.00     0.003 A 
HETATM   20  C   UNL     1     -12.037   0.572 -33.778  1.00  0.00     0.029 A 
BRANCH  17  21
HETATM   21  C   UNL     1     -14.927   3.480 -32.430  1.00  0.00     0.147 C 
HETATM   22  C   UNL     1     -16.276   2.849 -32.100  1.00  0.00     0.044 C 
BRANCH  21  23
HETATM   23  O   UNL     1     -14.445   4.168 -31.278  1.00  0.00    -0.391 OA
HETATM   24  H   UNL     1     -14.724   3.652 -30.503  1.00  0.00     0.210 HD
ENDBRANCH  21  23
ENDBRANCH  17  21
ENDBRANCH  12  15
ENDBRANCH   1  11
BRANCH   4  25
HETATM   25  C   UNL     1      -3.552   3.110 -32.134  1.00  0.00     0.409 C 
HETATM   26  F   UNL     1      -2.792   3.514 -33.171  1.00  0.00    -0.169 F 
HETATM   27  F   UNL     1      -4.191   4.191 -31.629  1.00  0.00    -0.169 F 
HETATM   28  F   UNL     1      -2.685   2.693 -31.171  1.00  0.00    -0.169 F 
ENDBRANCH   4  25
BRANCH   6  29
HETATM   29  C   UNL     1      -5.661  -0.942 -32.676  1.00  0.00    -0.035 A 
HETATM   30  C   UNL     1      -4.491  -1.631 -33.051  1.00  0.00     0.009 A 
HETATM   31  C   UNL     1      -4.465  -2.463 -34.174  1.00  0.00     0.001 A 
HETATM   32  C   UNL     1      -5.615  -2.647 -34.933  1.00  0.00     0.000 A 
HETATM   33  C   UNL     1      -6.793  -2.004 -34.565  1.00  0.00     0.001 A 
HETATM   34  C   UNL     1      -6.816  -1.166 -33.446  1.00  0.00     0.009 A 
ENDBRANCH   6  29
TORSDOF 6
ENDMDL
MODEL 4
REMARK VINA RESULT:      -9.3      4.484      8.159
REMARK  6 active torsions:
REMARK  status: ('A' for Active; 'I' for Inactive)
REMARK    1  A    between atoms: C_2  and  O_3 
REMARK    2  A    between atoms: C_2  and  C_4 
REMARK    3  A    between atoms: C_6  and  N_7 
REMARK       I    between atoms: N_7  and  C_8 
REMARK    4  A    between atoms: C_8  and  C_9 
REMARK    5  A    between atoms: C_12  and  C_13 
REMARK    6  A    between atoms: C_18  and  C_19 
ROOT
HETATM    1  C   UNL     1      -7.803   2.815 -32.307  1.00  0.00     0.096 A 
HETATM    2  C   UNL     1      -6.706   2.076 -31.909  1.00  0.00     0.138 A 
HETATM    3  N   UNL     1      -5.625   2.627 -32.557  1.00  0.00    -0.240 N 
HETATM    4  C   UNL     1      -4.263   2.136 -32.448  1.00  0.00     0.221 C 
HETATM    5  C   UNL     1      -4.147   1.108 -31.301  1.00  0.00     0.066 C 
HETATM    6  C   UNL     1      -5.350   0.151 -31.281  1.00  0.00     0.118 C 
HETATM    7  N   UNL     1      -6.555   0.983 -31.106  1.00  0.00    -0.365 N 
HETATM    8  N   UNL     1      -5.965   3.560 -33.460  1.00  0.00    -0.181 NA
HETATM    9  C   UNL     1      -7.285   3.684 -33.296  1.00  0.00     0.160 A 
HETATM   10  H   UNL     1      -7.381   0.427 -30.876  1.00  0.00     0.161 HD
ENDROOT
BRANCH   1  11
HETATM   11  C   UNL     1      -9.187   2.706 -31.881  1.00  0.00     0.261 C 
HETATM   12  N   UNL     1     -10.083   3.101 -32.857  1.00  0.00    -0.323 N 
HETATM   13  H   UNL     1      -9.675   3.294 -33.767  1.00  0.00     0.169 HD
HETATM   14  O   UNL     1      -9.469   2.251 -30.779  1.00  0.00    -0.267 OA
BRANCH  12  15
HETATM   15  C   UNL     1     -11.486   3.132 -32.776  1.00  0.00     0.035 A 
HETATM   16  C   UNL     1     -12.322   2.231 -33.440  1.00  0.00     0.039 A 
HETATM   17  C   UNL     1     -13.723   2.306 -33.311  1.00  0.00    -0.028 A 
HETATM   18  C   UNL     1     -14.272   3.307 -32.500  1.00  0.00     0.010 A 
HETATM   19  C   UNL     1     -13.446   4.210 -31.833  1.00  0.00     0.003 A 
HETATM   20  C   UNL     1     -12.060   4.117 -31.964  1.00  0.00     0.029 A 
BRANCH  17  21
HETATM   21  C   UNL     1     -14.590   1.282 -34.010  1.00  0.00     0.147 C 
HETATM   22  C   UNL     1     -14.156  -0.138 -33.662  1.00  0.00     0.044 C 
BRANCH  21  23
HETATM   23  O   UNL     1     -15.957   1.451 -33.637  1.00  0.00    -0.391 OA
HETATM   24  H   UNL     1     -16.051   1.091 -32.740  1.00  0.00     0.210 HD
ENDBRANCH  21  23
ENDBRANCH  17  21
ENDBRANCH  12  15
ENDBRANCH   1  11
BRANCH   4  25
HETATM   25  C   UNL     1      -3.289   3.267 -32.205  1.00  0.00     0.409 C 
HETATM   26  F   UNL     1      -2.452   3.055 -31.170  1.00  0.00    -0.169 F 
HETATM   27  F   UNL     1      -2.546   3.549 -33.301  1.00  0.00    -0.169 F 
HETATM   28  F   UNL     1      -3.978   4.403 -31.906  1.00  0.00    -0.169 F 
ENDBRANCH   4  25
BRANCH   6  29
HETATM   29  C   UNL     1      -5.432  -0.793 -32.481  1.00  0.00    -0.035 A 
HETATM   30  C   UNL     1      -6.646  -0.944 -33.180  1.00  0.00     0.009 A 
HETATM   31  C   UNL     1      -6.750  -1.802 -34.279  1.00  0.00     0.001 A 
HETATM   32  C   UNL     1      -5.637  -2.508 -34.721  1.00  0.00     0.000 A 
HETATM   33  C   UNL     1      -4.419  -2.351 -34.069  1.00  0.00     0.001 A 
HETATM   34  C   UNL     1      -4.317  -1.500 -32.965  1.00  0.00     0.009 A 
ENDBRANCH   6  29
TORSDOF 6
ENDMDL
MODEL 5
REMARK VINA RESULT:      -9.0      2.934      7.482
REMARK  6 active torsions:
REMARK  status: ('A' for Active; 'I' for Inactive)
REMARK    1  A    between atoms: C_2  and  O_3 
REMARK    2  A    between atoms: C_2  and  C_4 
REMARK    3  A    between atoms: C_6  and  N_7 
REMARK       I    between atoms: N_7  and  C_8 
REMARK    4  A    between atoms: C_8  and  C_9 
REMARK    5  A    between atoms: C_12  and  C_13 
REMARK    6  A    between atoms: C_18  and  C_19 
ROOT
HETATM    1  C   UNL     1      -6.962   1.989 -33.453  1.00  0.00     0.096 A 
HETATM    2  C   UNL     1      -6.331   2.451 -32.314  1.00  0.00     0.138 A 
HETATM    3  N   UNL     1      -7.011   3.588 -31.942  1.00  0.00    -0.240 N 
HETATM    4  C   UNL     1      -6.663   4.418 -30.802  1.00  0.00     0.221 C 
HETATM    5  C   UNL     1      -5.620   3.707 -29.912  1.00  0.00     0.066 C 
HETATM    6  C   UNL     1      -4.541   3.009 -30.757  1.00  0.00     0.118 C 
HETATM    7  N   UNL     1      -5.237   2.032 -31.614  1.00  0.00    -0.365 N 
HETATM    8  N   UNL     1      -7.929   3.978 -32.840  1.00  0.00    -0.181 NA
HETATM    9  C   UNL     1      -7.909   2.998 -33.748  1.00  0.00     0.160 A 
HETATM   10  H   UNL     1      -4.591   1.379 -32.062  1.00  0.00     0.161 HD
ENDROOT
BRANCH   1  11
HETATM   11  C   UNL     1      -6.696   0.790 -34.227  1.00  0.00     0.261 C 
HETATM   12  N   UNL     1      -6.425  -0.311 -33.437  1.00  0.00    -0.323 N 
HETATM   13  H   UNL     1      -6.566  -0.175 -32.441  1.00  0.00     0.169 HD
HETATM   14  O   UNL     1      -6.772   0.805 -35.450  1.00  0.00    -0.267 OA
BRANCH  12  15
HETATM   15  C   UNL     1      -6.117  -1.617 -33.857  1.00  0.00     0.035 A 
HETATM   16  C   UNL     1      -4.923  -2.272 -33.543  1.00  0.00     0.039 A 
HETATM   17  C   UNL     1      -4.675  -3.586 -33.985  1.00  0.00    -0.028 A 
HETATM   18  C   UNL     1      -5.651  -4.234 -34.752  1.00  0.00     0.010 A 
HETATM   19  C   UNL     1      -6.846  -3.590 -35.070  1.00  0.00     0.003 A 
HETATM   20  C   UNL     1      -7.080  -2.290 -34.617  1.00  0.00     0.029 A 
BRANCH  17  21
HETATM   21  C   UNL     1      -3.390  -4.276 -33.584  1.00  0.00     0.147 C 
HETATM   22  C   UNL     1      -2.995  -3.918 -32.155  1.00  0.00     0.044 C 
BRANCH  21  23
HETATM   23  O   UNL     1      -3.534  -5.692 -33.682  1.00  0.00    -0.391 OA
HETATM   24  H   UNL     1      -4.326  -5.859 -34.220  1.00  0.00     0.210 HD
ENDBRANCH  21  23
ENDBRANCH  17  21
ENDBRANCH  12  15
ENDBRANCH   1  11
BRANCH   4  25
HETATM   25  C   UNL     1      -7.882   4.753 -29.973  1.00  0.00     0.409 C 
HETATM   26  F   UNL     1      -8.827   3.793 -29.978  1.00  0.00    -0.169 F 
HETATM   27  F   UNL     1      -7.568   5.032 -28.686  1.00  0.00    -0.169 F 
HETATM   28  F   UNL     1      -8.477   5.871 -30.473  1.00  0.00    -0.169 F 
ENDBRANCH   4  25
BRANCH   6  29
HETATM   29  C   UNL     1      -3.629   3.958 -31.534  1.00  0.00    -0.035 A 
HETATM   30  C   UNL     1      -3.058   3.549 -32.755  1.00  0.00     0.009 A 
HETATM   31  C   UNL     1      -2.219   4.395 -33.485  1.00  0.00     0.001 A 
HETATM   32  C   UNL     1      -1.952   5.680 -33.026  1.00  0.00     0.000 A 
HETATM   33  C   UNL     1      -2.530   6.121 -31.840  1.00  0.00     0.001 A 
HETATM   34  C   UNL     1      -3.363   5.271 -31.106  1.00  0.00     0.009 A 
ENDBRANCH   6  29
TORSDOF 6
ENDMDL
MODEL 6
REMARK VINA RESULT:      -9.0      4.189      6.747
REMARK  6 active torsions:
REMARK  status: ('A' for Active; 'I' for Inactive)
REMARK    1  A    between atoms: C_2  and  O_3 
REMARK    2  A    between atoms: C_2  and  C_4 
REMARK    3  A    between atoms: C_6  and  N_7 
REMARK       I    between atoms: N_7  and  C_8 
REMARK    4  A    between atoms: C_8  and  C_9 
REMARK    5  A    between atoms: C_12  and  C_13 
REMARK    6  A    between atoms: C_18  and  C_19 
ROOT
HETATM    1  C   UNL     1      -8.596   3.023 -33.031  1.00  0.00     0.096 A 
HETATM    2  C   UNL     1      -9.749   3.305 -33.739  1.00  0.00     0.138 A 
HETATM    3  N   UNL     1     -10.518   4.087 -32.909  1.00  0.00    -0.240 N 
HETATM    4  C   UNL     1     -11.838   4.591 -33.245  1.00  0.00     0.221 C 
HETATM    5  C   UNL     1     -12.137   4.374 -34.744  1.00  0.00     0.066 C 
HETATM    6  C   UNL     1     -11.661   2.990 -35.218  1.00  0.00     0.118 C 
HETATM    7  N   UNL     1     -10.208   2.930 -34.968  1.00  0.00    -0.365 N 
HETATM    8  N   UNL     1     -10.019   4.198 -31.668  1.00  0.00    -0.181 NA
HETATM    9  C   UNL     1      -8.845   3.566 -31.749  1.00  0.00     0.160 A 
HETATM   10  H   UNL     1      -9.767   2.135 -35.434  1.00  0.00     0.161 HD
ENDROOT
BRANCH   1  11
HETATM   11  C   UNL     1      -7.418   2.288 -33.453  1.00  0.00     0.261 C 
HETATM   12  N   UNL     1      -7.465   0.951 -33.104  1.00  0.00    -0.323 N 
HETATM   13  H   UNL     1      -8.349   0.635 -32.718  1.00  0.00     0.169 HD
HETATM   14  O   UNL     1      -6.531   2.839 -34.095  1.00  0.00    -0.267 OA
BRANCH  12  15
HETATM   15  C   UNL     1      -6.493  -0.037 -33.346  1.00  0.00     0.035 A 
HETATM   16  C   UNL     1      -5.255  -0.082 -32.700  1.00  0.00     0.039 A 
HETATM   17  C   UNL     1      -4.326  -1.104 -32.978  1.00  0.00    -0.028 A 
HETATM   18  C   UNL     1      -4.663  -2.083 -33.920  1.00  0.00     0.010 A 
HETATM   19  C   UNL     1      -5.896  -2.047 -34.570  1.00  0.00     0.003 A 
HETATM   20  C   UNL     1      -6.810  -1.033 -34.277  1.00  0.00     0.029 A 
BRANCH  17  21
HETATM   21  C   UNL     1      -3.016  -1.143 -32.222  1.00  0.00     0.147 C 
HETATM   22  C   UNL     1      -2.952  -0.040 -31.171  1.00  0.00     0.044 C 
BRANCH  21  23
HETATM   23  O   UNL     1      -2.851  -2.405 -31.578  1.00  0.00    -0.391 OA
HETATM   24  H   UNL     1      -1.904  -2.499 -31.379  1.00  0.00     0.210 HD
ENDBRANCH  21  23
ENDBRANCH  17  21
ENDBRANCH  12  15
ENDBRANCH   1  11
BRANCH   4  25
HETATM   25  C   UNL     1     -11.965   6.062 -32.919  1.00  0.00     0.409 C 
HETATM   26  F   UNL     1     -12.388   6.309 -31.664  1.00  0.00    -0.169 F 
HETATM   27  F   UNL     1     -10.806   6.734 -33.116  1.00  0.00    -0.169 F 
HETATM   28  F   UNL     1     -12.884   6.633 -33.746  1.00  0.00    -0.169 F 
ENDBRANCH   4  25
BRANCH   6  29
HETATM   29  C   UNL     1     -12.429   1.813 -34.617  1.00  0.00    -0.035 A 
HETATM   30  C   UNL     1     -13.829   1.739 -34.755  1.00  0.00     0.009 A 
HETATM   31  C   UNL     1     -14.558   0.675 -34.214  1.00  0.00     0.001 A 
HETATM   32  C   UNL     1     -13.902  -0.353 -33.547  1.00  0.00     0.000 A 
HETATM   33  C   UNL     1     -12.516  -0.321 -33.427  1.00  0.00     0.001 A 
HETATM   34  C   UNL     1     -11.789   0.747 -33.961  1.00  0.00     0.009 A 
ENDBRANCH   6  29
TORSDOF 6
ENDMDL
MODEL 7
REMARK VINA RESULT:      -8.9      4.322      8.676
REMARK  6 active torsions:
REMARK  status: ('A' for Active; 'I' for Inactive)
REMARK    1  A    between atoms: C_2  and  O_3 
REMARK    2  A    between atoms: C_2  and  C_4 
REMARK    3  A    between atoms: C_6  and  N_7 
REMARK       I    between atoms: N_7  and  C_8 
REMARK    4  A    between atoms: C_8  and  C_9 
REMARK    5  A    between atoms: C_12  and  C_13 
REMARK    6  A    between atoms: C_18  and  C_19 
ROOT
HETATM    1  C   UNL     1      -4.387   2.431 -32.354  1.00  0.00     0.096 A 
HETATM    2  C   UNL     1      -4.539   3.804 -32.392  1.00  0.00     0.138 A 
HETATM    3  N   UNL     1      -3.390   4.324 -31.842  1.00  0.00    -0.240 N 
HETATM    4  C   UNL     1      -3.136   5.742 -31.657  1.00  0.00     0.221 C 
HETATM    5  C   UNL     1      -4.188   6.584 -32.410  1.00  0.00     0.066 C 
HETATM    6  C   UNL     1      -5.599   5.993 -32.252  1.00  0.00     0.118 C 
HETATM    7  N   UNL     1      -5.551   4.623 -32.796  1.00  0.00    -0.365 N 
HETATM    8  N   UNL     1      -2.583   3.391 -31.312  1.00  0.00    -0.181 NA
HETATM    9  C   UNL     1      -3.182   2.243 -31.638  1.00  0.00     0.160 A 
HETATM   10  H   UNL     1      -6.483   4.224 -32.923  1.00  0.00     0.161 HD
ENDROOT
BRANCH   1  11
HETATM   11  C   UNL     1      -5.271   1.397 -32.860  1.00  0.00     0.261 C 
HETATM   12  N   UNL     1      -4.604   0.229 -33.182  1.00  0.00    -0.323 N 
HETATM   13  H   UNL     1      -3.625   0.201 -32.913  1.00  0.00     0.169 HD
HETATM   14  O   UNL     1      -6.481   1.581 -32.922  1.00  0.00    -0.267 OA
BRANCH  12  15
HETATM   15  C   UNL     1      -5.148  -0.958 -33.704  1.00  0.00     0.035 A 
HETATM   16  C   UNL     1      -4.422  -2.140 -33.864  1.00  0.00     0.039 A 
HETATM   17  C   UNL     1      -5.026  -3.301 -34.384  1.00  0.00    -0.028 A 
HETATM   18  C   UNL     1      -6.379  -3.254 -34.742  1.00  0.00     0.010 A 
HETATM   19  C   UNL     1      -7.113  -2.079 -34.585  1.00  0.00     0.003 A 
HETATM   20  C   UNL     1      -6.501  -0.940 -34.060  1.00  0.00     0.029 A 
BRANCH  17  21
HETATM   21  C   UNL     1      -4.216  -4.574 -34.498  1.00  0.00     0.147 C 
HETATM   22  C   UNL     1      -3.404  -4.826 -33.232  1.00  0.00     0.044 C 
BRANCH  21  23
HETATM   23  O   UNL     1      -5.074  -5.691 -34.726  1.00  0.00    -0.391 OA
HETATM   24  H   UNL     1      -5.530  -5.529 -35.568  1.00  0.00     0.210 HD
ENDBRANCH  21  23
ENDBRANCH  17  21
ENDBRANCH  12  15
ENDBRANCH   1  11
BRANCH   4  25
HETATM   25  C   UNL     1      -1.754   6.121 -32.140  1.00  0.00     0.409 C 
HETATM   26  F   UNL     1      -1.274   5.317 -33.109  1.00  0.00    -0.169 F 
HETATM   27  F   UNL     1      -1.697   7.399 -32.582  1.00  0.00    -0.169 F 
HETATM   28  F   UNL     1      -0.872   6.033 -31.106  1.00  0.00    -0.169 F 
ENDBRANCH   4  25
BRANCH   6  29
HETATM   29  C   UNL     1      -6.164   6.065 -30.833  1.00  0.00    -0.035 A 
HETATM   30  C   UNL     1      -6.940   5.004 -30.327  1.00  0.00     0.009 A 
HETATM   31  C   UNL     1      -7.470   5.043 -29.033  1.00  0.00     0.001 A 
HETATM   32  C   UNL     1      -7.214   6.131 -28.207  1.00  0.00     0.000 A 
HETATM   33  C   UNL     1      -6.423   7.177 -28.671  1.00  0.00     0.001 A 
HETATM   34  C   UNL     1      -5.899   7.141 -29.967  1.00  0.00     0.009 A 
ENDBRANCH   6  29
TORSDOF 6
ENDMDL
MODEL 8
REMARK VINA RESULT:      -8.9      2.234      2.862
REMARK  6 active torsions:
REMARK  status: ('A' for Active; 'I' for Inactive)
REMARK    1  A    between atoms: C_2  and  O_3 
REMARK    2  A    between atoms: C_2  and  C_4 
REMARK    3  A    between atoms: C_6  and  N_7 
REMARK       I    between atoms: N_7  and  C_8 
REMARK    4  A    between atoms: C_8  and  C_9 
REMARK    5  A    between atoms: C_12  and  C_13 
REMARK    6  A    between atoms: C_18  and  C_19 
ROOT
HETATM    1  C   UNL     1      -6.480   2.909 -32.035  1.00  0.00     0.096 A 
HETATM    2  C   UNL     1      -6.915   2.112 -33.076  1.00  0.00     0.138 A 
HETATM    3  N   UNL     1      -8.003   1.422 -32.594  1.00  0.00    -0.240 N 
HETATM    4  C   UNL     1      -8.758   0.441 -33.354  1.00  0.00     0.221 C 
HETATM    5  C   UNL     1      -8.360   0.487 -34.845  1.00  0.00     0.066 C 
HETATM    6  C   UNL     1      -6.839   0.639 -35.017  1.00  0.00     0.118 C 
HETATM    7  N   UNL     1      -6.457   1.895 -34.343  1.00  0.00    -0.365 N 
HETATM    8  N   UNL     1      -8.203   1.596 -31.278  1.00  0.00    -0.181 NA
HETATM    9  C   UNL     1      -7.288   2.510 -30.944  1.00  0.00     0.160 A 
HETATM   10  H   UNL     1      -5.506   2.186 -34.576  1.00  0.00     0.161 HD
ENDROOT
BRANCH   1  11
HETATM   11  C   UNL     1      -5.406   3.885 -32.013  1.00  0.00     0.261 C 
HETATM   12  N   UNL     1      -5.357   4.605 -30.833  1.00  0.00    -0.323 N 
HETATM   13  H   UNL     1      -5.984   4.282 -30.103  1.00  0.00     0.169 HD
HETATM   14  O   UNL     1      -4.623   3.977 -32.952  1.00  0.00    -0.267 OA
BRANCH  12  15
HETATM   15  C   UNL     1      -4.457   5.628 -30.486  1.00  0.00     0.035 A 
HETATM   16  C   UNL     1      -3.384   6.023 -31.289  1.00  0.00     0.039 A 
HETATM   17  C   UNL     1      -2.521   7.062 -30.892  1.00  0.00    -0.028 A 
HETATM   18  C   UNL     1      -2.755   7.701 -29.668  1.00  0.00     0.010 A 
HETATM   19  C   UNL     1      -3.823   7.315 -28.860  1.00  0.00     0.003 A 
HETATM   20  C   UNL     1      -4.675   6.288 -29.272  1.00  0.00     0.029 A 
BRANCH  17  21
HETATM   21  C   UNL     1      -1.399   7.491 -31.812  1.00  0.00     0.147 C 
HETATM   22  C   UNL     1      -0.893   6.319 -32.646  1.00  0.00     0.044 C 
BRANCH  21  23
HETATM   23  O   UNL     1      -1.843   8.525 -32.689  1.00  0.00    -0.391 OA
HETATM   24  H   UNL     1      -2.801   8.617 -32.555  1.00  0.00     0.210 HD
ENDBRANCH  21  23
ENDBRANCH  17  21
ENDBRANCH  12  15
ENDBRANCH   1  11
BRANCH   4  25
HETATM   25  C   UNL     1     -10.246   0.675 -33.227  1.00  0.00     0.409 C 
HETATM   26  F   UNL     1     -10.571   1.701 -32.417  1.00  0.00    -0.169 F 
HETATM   27  F   UNL     1     -10.839   0.877 -34.427  1.00  0.00    -0.169 F 
HETATM   28  F   UNL     1     -10.835  -0.430 -32.691  1.00  0.00    -0.169 F 
ENDBRANCH   4  25
BRANCH   6  29
HETATM   29  C   UNL     1      -6.023  -0.569 -34.558  1.00  0.00    -0.035 A 
HETATM   30  C   UNL     1      -4.959  -0.401 -33.651  1.00  0.00     0.009 A 
HETATM   31  C   UNL     1      -4.195  -1.488 -33.216  1.00  0.00     0.001 A 
HETATM   32  C   UNL     1      -4.494  -2.772 -33.657  1.00  0.00     0.000 A 
HETATM   33  C   UNL     1      -5.561  -2.970 -34.526  1.00  0.00     0.001 A 
HETATM   34  C   UNL     1      -6.320  -1.882 -34.967  1.00  0.00     0.009 A 
ENDBRANCH   6  29
TORSDOF 6
ENDMDL
MODEL 9
REMARK VINA RESULT:      -8.8      4.393      7.003
REMARK  6 active torsions:
REMARK  status: ('A' for Active; 'I' for Inactive)
REMARK    1  A    between atoms: C_2  and  O_3 
REMARK    2  A    between atoms: C_2  and  C_4 
REMARK    3  A    between atoms: C_6  and  N_7 
REMARK       I    between atoms: N_7  and  C_8 
REMARK    4  A    between atoms: C_8  and  C_9 
REMARK    5  A    between atoms: C_12  and  C_13 
REMARK    6  A    between atoms: C_18  and  C_19 
ROOT
HETATM    1  C   UNL     1      -8.280   2.441 -32.378  1.00  0.00     0.096 A 
HETATM    2  C   UNL     1      -9.365   2.970 -33.050  1.00  0.00     0.138 A 
HETATM    3  N   UNL     1     -10.099   3.648 -32.105  1.00  0.00    -0.240 N 
HETATM    4  C   UNL     1     -11.348   4.339 -32.374  1.00  0.00     0.221 C 
HETATM    5  C   UNL     1     -11.590   4.451 -33.895  1.00  0.00     0.066 C 
HETATM    6  C   UNL     1     -11.220   3.146 -34.620  1.00  0.00     0.118 C 
HETATM    7  N   UNL     1      -9.794   2.892 -34.343  1.00  0.00    -0.365 N 
HETATM    8  N   UNL     1      -9.654   3.464 -30.852  1.00  0.00    -0.181 NA
HETATM    9  C   UNL     1      -8.542   2.744 -31.021  1.00  0.00     0.160 A 
HETATM   10  H   UNL     1      -9.406   2.163 -34.944  1.00  0.00     0.161 HD
ENDROOT
BRANCH   1  11
HETATM   11  C   UNL     1      -7.155   1.687 -32.901  1.00  0.00     0.261 C 
HETATM   12  N   UNL     1      -6.696   0.725 -32.021  1.00  0.00    -0.323 N 
HETATM   13  H   UNL     1      -7.268   0.587 -31.194  1.00  0.00     0.169 HD
HETATM   14  O   UNL     1      -6.735   1.893 -34.035  1.00  0.00    -0.267 OA
BRANCH  12  15
HETATM   15  C   UNL     1      -5.624  -0.167 -32.203  1.00  0.00     0.035 A 
HETATM   16  C   UNL     1      -5.603  -1.167 -33.179  1.00  0.00     0.039 A 
HETATM   17  C   UNL     1      -4.495  -2.024 -33.320  1.00  0.00    -0.028 A 
HETATM   18  C   UNL     1      -3.403  -1.860 -32.459  1.00  0.00     0.010 A 
HETATM   19  C   UNL     1      -3.414  -0.865 -31.483  1.00  0.00     0.003 A 
HETATM   20  C   UNL     1      -4.516  -0.017 -31.362  1.00  0.00     0.029 A 
BRANCH  17  21
HETATM   21  C   UNL     1      -4.493  -3.063 -34.420  1.00  0.00     0.147 C 
HETATM   22  C   UNL     1      -3.805  -4.346 -33.965  1.00  0.00     0.044 C 
BRANCH  21  23
HETATM   23  O   UNL     1      -5.828  -3.370 -34.817  1.00  0.00    -0.391 OA
HETATM   24  H   UNL     1      -6.126  -4.109 -34.259  1.00  0.00     0.210 HD
ENDBRANCH  21  23
ENDBRANCH  17  21
ENDBRANCH  12  15
ENDBRANCH   1  11
BRANCH   4  25
HETATM   25  C   UNL     1     -11.354   5.723 -31.764  1.00  0.00     0.409 C 
HETATM   26  F   UNL     1     -10.130   6.277 -31.655  1.00  0.00    -0.169 F 
HETATM   27  F   UNL     1     -12.150   6.581 -32.444  1.00  0.00    -0.169 F 
HETATM   28  F   UNL     1     -11.853   5.659 -30.499  1.00  0.00    -0.169 F 
ENDBRANCH   4  25
BRANCH   6  29
HETATM   29  C   UNL     1     -12.124   1.957 -34.291  1.00  0.00    -0.035 A 
HETATM   30  C   UNL     1     -13.496   2.003 -34.608  1.00  0.00     0.009 A 
HETATM   31  C   UNL     1     -14.346   0.932 -34.317  1.00  0.00     0.001 A 
HETATM   32  C   UNL     1     -13.840  -0.220 -33.727  1.00  0.00     0.000 A 
HETATM   33  C   UNL     1     -12.482  -0.304 -33.435  1.00  0.00     0.001 A 
HETATM   34  C   UNL     1     -11.634   0.770 -33.719  1.00  0.00     0.009 A 
ENDBRANCH   6  29
TORSDOF 6
ENDMDL
MODEL 10
REMARK VINA RESULT:      -8.8      2.053      2.678
REMARK  6 active torsions:
REMARK  status: ('A' for Active; 'I' for Inactive)
REMARK    1  A    between atoms: C_2  and  O_3 
REMARK    2  A    between atoms: C_2  and  C_4 
REMARK    3  A    between atoms: C_6  and  N_7 
REMARK       I    between atoms: N_7  and  C_8 
REMARK    4  A    between atoms: C_8  and  C_9 
REMARK    5  A    between atoms: C_12  and  C_13 
REMARK    6  A    between atoms: C_18  and  C_19 
ROOT
HETATM    1  C   UNL     1      -5.757   3.440 -31.592  1.00  0.00     0.096 A 
HETATM    2  C   UNL     1      -6.074   2.380 -32.420  1.00  0.00     0.138 A 
HETATM    3  N   UNL     1      -7.073   1.685 -31.777  1.00  0.00    -0.240 N 
HETATM    4  C   UNL     1      -7.688   0.472 -32.284  1.00  0.00     0.221 C 
HETATM    5  C   UNL     1      -7.279   0.229 -33.753  1.00  0.00     0.066 C 
HETATM    6  C   UNL     1      -5.787   0.528 -33.978  1.00  0.00     0.118 C 
HETATM    7  N   UNL     1      -5.575   1.941 -33.611  1.00  0.00    -0.365 N 
HETATM    8  N   UNL     1      -7.311   2.126 -30.531  1.00  0.00    -0.181 NA
HETATM    9  C   UNL     1      -6.524   3.200 -30.427  1.00  0.00     0.160 A 
HETATM   10  H   UNL     1      -4.665   2.289 -33.918  1.00  0.00     0.161 HD
ENDROOT
BRANCH   1  11
HETATM   11  C   UNL     1      -4.815   4.522 -31.808  1.00  0.00     0.261 C 
HETATM   12  N   UNL     1      -3.620   4.337 -31.137  1.00  0.00    -0.323 N 
HETATM   13  H   UNL     1      -3.510   3.432 -30.691  1.00  0.00     0.169 HD
HETATM   14  O   UNL     1      -5.088   5.450 -32.561  1.00  0.00    -0.267 OA
BRANCH  12  15
HETATM   15  C   UNL     1      -2.503   5.191 -31.118  1.00  0.00     0.035 A 
HETATM   16  C   UNL     1      -2.225   6.083 -30.079  1.00  0.00     0.039 A 
HETATM   17  C   UNL     1      -1.083   6.906 -30.112  1.00  0.00    -0.028 A 
HETATM   18  C   UNL     1      -0.220   6.817 -31.212  1.00  0.00     0.010 A 
HETATM   19  C   UNL     1      -0.488   5.930 -32.253  1.00  0.00     0.003 A 
HETATM   20  C   UNL     1      -1.620   5.115 -32.201  1.00  0.00     0.029 A 
BRANCH  17  21
HETATM   21  C   UNL     1      -0.794   7.825 -28.946  1.00  0.00     0.147 C 
HETATM   22  C   UNL     1       0.705   7.932 -28.686  1.00  0.00     0.044 C 
BRANCH  21  23
HETATM   23  O   UNL     1      -1.313   9.129 -29.199  1.00  0.00    -0.391 OA
HETATM   24  H   UNL     1      -1.962   9.316 -28.500  1.00  0.00     0.210 HD
ENDBRANCH  21  23
ENDBRANCH  17  21
ENDBRANCH  12  15
ENDBRANCH   1  11
BRANCH   4  25
HETATM   25  C   UNL     1      -9.196   0.539 -32.190  1.00  0.00     0.409 C 
HETATM   26  F   UNL     1      -9.693   1.789 -32.268  1.00  0.00    -0.169 F 
HETATM   27  F   UNL     1      -9.804  -0.219 -33.133  1.00  0.00    -0.169 F 
HETATM   28  F   UNL     1      -9.598   0.047 -30.986  1.00  0.00    -0.169 F 
ENDBRANCH   4  25
BRANCH   6  29
HETATM   29  C   UNL     1      -4.832  -0.434 -33.270  1.00  0.00    -0.035 A 
HETATM   30  C   UNL     1      -4.798  -1.793 -33.636  1.00  0.00     0.009 A 
HETATM   31  C   UNL     1      -3.935  -2.695 -33.005  1.00  0.00     0.001 A 
HETATM   32  C   UNL     1      -3.069  -2.253 -32.012  1.00  0.00     0.000 A 
HETATM   33  C   UNL     1      -3.059  -0.909 -31.655  1.00  0.00     0.001 A 
HETATM   34  C   UNL     1      -3.927  -0.009 -32.281  1.00  0.00     0.009 A 
ENDBRANCH   6  29
TORSDOF 6
ENDMDL
