MODEL 1
REMARK VINA RESULT:      -9.4      0.000      0.000
REMARK  6 active torsions:
REMARK  status: ('A' for Active; 'I' for Inactive)
REMARK    1  A    between atoms: O_2  and  C_3 
REMARK    2  A    between atoms: C_5  and  C_6 
REMARK    3  A    between atoms: N_8  and  C_9 
REMARK    4  A    between atoms: C_16  and  C_17 
REMARK       I    between atoms: C_17  and  N_18 
REMARK    5  A    between atoms: N_18  and  N_19 
REMARK       I    between atoms: N_19  and  C_20 
REMARK    6  A    between atoms: C_20  and  C_21 
ROOT
HETATM    1  C   UNL     1      -6.231   1.520 -33.231  1.00  0.00     0.105 A 
HETATM    2  N   UNL     1      -6.468   0.366 -33.874  1.00  0.00    -0.166 NA
HETATM    3  N   UNL     1      -5.557  -0.516 -33.412  1.00  0.00    -0.244 N 
HETATM    4  C   UNL     1      -4.727   0.068 -32.486  1.00  0.00     0.138 A 
HETATM    5  C   UNL     1      -5.117   1.391 -32.347  1.00  0.00     0.082 A 
ENDROOT
BRANCH   5   6
HETATM    6  C   UNL     1      -4.473   2.392 -31.511  1.00  0.00     0.274 C 
HETATM    7  N   UNL     1      -3.314   2.928 -32.042  1.00  0.00    -0.263 N 
HETATM    8  H   UNL     1      -2.843   2.525 -32.848  1.00  0.00     0.190 HD
HETATM    9  O   UNL     1      -4.904   2.746 -30.416  1.00  0.00    -0.266 OA
BRANCH   7  10
HETATM   10  N   UNL     1      -2.543   3.786 -31.247  1.00  0.00    -0.262 N 
HETATM   11  C   UNL     1      -1.690   4.671 -31.874  1.00  0.00     0.286 C 
HETATM   12  O   UNL     1      -1.655   4.768 -33.101  1.00  0.00    -0.264 OA
HETATM   13  H   UNL     1      -2.524   3.598 -30.248  1.00  0.00     0.190 HD
BRANCH  11  14
HETATM   14  C   UNL     1      -0.849   5.460 -31.005  1.00  0.00     0.102 A 
HETATM   15  N   UNL     1      -0.329   4.934 -29.839  1.00  0.00    -0.361 N 
HETATM   16  H   UNL     1      -0.500   3.985 -29.528  1.00  0.00     0.165 HD
HETATM   17  C   UNL     1       0.434   5.868 -29.194  1.00  0.00     0.088 A 
HETATM   18  C   UNL     1       0.413   7.020 -29.944  1.00  0.00     0.019 A 
HETATM   19  C   UNL     1      -0.393   6.767 -31.082  1.00  0.00     0.036 A 
ENDBRANCH  11  14
ENDBRANCH   7  10
ENDBRANCH   5   6
BRANCH   1  20
HETATM   20  C   UNL     1      -7.097   2.674 -33.495  1.00  0.00    -0.002 A 
HETATM   21  C   UNL     1      -8.474   2.527 -33.703  1.00  0.00     0.050 A 
HETATM   22  C   UNL     1      -9.288   3.635 -33.971  1.00  0.00     0.069 A 
HETATM   23  C   UNL     1      -8.715   4.904 -34.057  1.00  0.00     0.037 A 
HETATM   24  C   UNL     1      -7.340   5.064 -33.871  1.00  0.00     0.004 A 
HETATM   25  C   UNL     1      -6.537   3.957 -33.593  1.00  0.00     0.014 A 
BRANCH  22  26
HETATM   26  O   UNL     1     -10.614   3.342 -34.139  1.00  0.00    -0.356 OA
HETATM   27  C   UNL     1     -11.109   2.200 -33.450  1.00  0.00     0.210 C 
ENDBRANCH  22  26
ENDBRANCH   1  20
BRANCH   3  28
HETATM   28  C   UNL     1      -5.532  -1.859 -33.887  1.00  0.00     0.058 A 
HETATM   29  C   UNL     1      -6.705  -2.426 -34.408  1.00  0.00     0.031 A 
HETATM   30  C   UNL     1      -6.703  -3.741 -34.881  1.00  0.00     0.002 A 
HETATM   31  C   UNL     1      -5.534  -4.498 -34.835  1.00  0.00     0.000 A 
HETATM   32  C   UNL     1      -4.365  -3.943 -34.317  1.00  0.00     0.002 A 
HETATM   33  C   UNL     1      -4.359  -2.626 -33.843  1.00  0.00     0.031 A 
ENDBRANCH   3  28
TORSDOF 6
ENDMDL
MODEL 2
REMARK VINA RESULT:      -9.3      2.444      5.763
REMARK  6 active torsions:
REMARK  status: ('A' for Active; 'I' for Inactive)
REMARK    1  A    between atoms: O_2  and  C_3 
REMARK    2  A    between atoms: C_5  and  C_6 
REMARK    3  A    between atoms: N_8  and  C_9 
REMARK    4  A    between atoms: C_16  and  C_17 
REMARK       I    between atoms: C_17  and  N_18 
REMARK    5  A    between atoms: N_18  and  N_19 
REMARK       I    between atoms: N_19  and  C_20 
REMARK    6  A    between atoms: C_20  and  C_21 
ROOT
HETATM    1  C   UNL     1      -7.639   0.411 -33.464  1.00  0.00     0.105 A 
HETATM    2  N   UNL     1      -8.891   0.062 -33.804  1.00  0.00    -0.166 NA
HETATM    3  N   UNL     1      -9.647   1.166 -33.638  1.00  0.00    -0.244 N 
HETATM    4  C   UNL     1      -8.893   2.219 -33.180  1.00  0.00     0.138 A 
HETATM    5  C   UNL     1      -7.589   1.772 -33.039  1.00  0.00     0.082 A 
ENDROOT
BRANCH   5   6
HETATM    6  C   UNL     1      -6.468   2.544 -32.525  1.00  0.00     0.274 C 
HETATM    7  N   UNL     1      -5.811   3.308 -33.472  1.00  0.00    -0.263 N 
HETATM    8  H   UNL     1      -5.965   3.194 -34.471  1.00  0.00     0.190 HD
HETATM    9  O   UNL     1      -6.113   2.533 -31.348  1.00  0.00    -0.266 OA
BRANCH   7  10
HETATM   10  N   UNL     1      -4.630   3.967 -33.106  1.00  0.00    -0.262 N 
HETATM   11  C   UNL     1      -4.090   4.883 -33.985  1.00  0.00     0.286 C 
HETATM   12  O   UNL     1      -4.663   5.181 -35.033  1.00  0.00    -0.264 OA
HETATM   13  H   UNL     1      -4.139   3.614 -32.289  1.00  0.00     0.190 HD
BRANCH  11  14
HETATM   14  C   UNL     1      -2.822   5.457 -33.599  1.00  0.00     0.102 A 
HETATM   15  N   UNL     1      -2.431   6.701 -34.052  1.00  0.00    -0.361 N 
HETATM   16  H   UNL     1      -2.993   7.275 -34.668  1.00  0.00     0.165 HD
HETATM   17  C   UNL     1      -1.201   7.025 -33.548  1.00  0.00     0.088 A 
HETATM   18  C   UNL     1      -0.782   5.983 -32.757  1.00  0.00     0.019 A 
HETATM   19  C   UNL     1      -1.798   4.995 -32.787  1.00  0.00     0.036 A 
ENDBRANCH  11  14
ENDBRANCH   7  10
ENDBRANCH   5   6
BRANCH   1  20
HETATM   20  C   UNL     1      -6.566  -0.583 -33.579  1.00  0.00    -0.002 A 
HETATM   21  C   UNL     1      -5.461  -0.572 -32.719  1.00  0.00     0.050 A 
HETATM   22  C   UNL     1      -4.435  -1.517 -32.850  1.00  0.00     0.069 A 
HETATM   23  C   UNL     1      -4.501  -2.469 -33.867  1.00  0.00     0.037 A 
HETATM   24  C   UNL     1      -5.588  -2.480 -34.744  1.00  0.00     0.004 A 
HETATM   25  C   UNL     1      -6.613  -1.543 -34.601  1.00  0.00     0.014 A 
BRANCH  22  26
HETATM   26  O   UNL     1      -3.426  -1.393 -31.933  1.00  0.00    -0.356 OA
HETATM   27  C   UNL     1      -3.412  -0.203 -31.154  1.00  0.00     0.210 C 
ENDBRANCH  22  26
ENDBRANCH   1  20
BRANCH   3  28
HETATM   28  C   UNL     1     -11.043   1.147 -33.921  1.00  0.00     0.058 A 
HETATM   29  C   UNL     1     -11.601   2.170 -34.703  1.00  0.00     0.031 A 
HETATM   30  C   UNL     1     -12.967   2.170 -34.994  1.00  0.00     0.002 A 
HETATM   31  C   UNL     1     -13.786   1.155 -34.504  1.00  0.00     0.000 A 
HETATM   32  C   UNL     1     -13.240   0.136 -33.724  1.00  0.00     0.002 A 
HETATM   33  C   UNL     1     -11.872   0.128 -33.431  1.00  0.00     0.031 A 
ENDBRANCH   3  28
TORSDOF 6
ENDMDL
MODEL 3
REMARK VINA RESULT:      -9.3      0.992      1.688
REMARK  6 active torsions:
REMARK  status: ('A' for Active; 'I' for Inactive)
REMARK    1  A    between atoms: O_2  and  C_3 
REMARK    2  A    between atoms: C_5  and  C_6 
REMARK    3  A    between atoms: N_8  and  C_9 
REMARK    4  A    between atoms: C_16  and  C_17 
REMARK       I    between atoms: C_17  and  N_18 
REMARK    5  A    between atoms: N_18  and  N_19 
REMARK       I    between atoms: N_19  and  C_20 
REMARK    6  A    between atoms: C_20  and  C_21 
ROOT
HETATM    1  C   UNL     1      -6.785   1.256 -32.865  1.00  0.00     0.105 A 
HETATM    2  N   UNL     1      -7.009   0.081 -33.474  1.00  0.00    -0.166 NA
HETATM    3  N   UNL     1      -5.879  -0.642 -33.326  1.00  0.00    -0.244 N 
HETATM    4  C   UNL     1      -4.924   0.068 -32.638  1.00  0.00     0.138 A 
HETATM    5  C   UNL     1      -5.462   1.308 -32.331  1.00  0.00     0.082 A 
ENDROOT
BRANCH   5   6
HETATM    6  C   UNL     1      -4.774   2.398 -31.656  1.00  0.00     0.274 C 
HETATM    7  N   UNL     1      -3.507   2.666 -32.138  1.00  0.00    -0.263 N 
HETATM    8  H   UNL     1      -3.016   2.038 -32.771  1.00  0.00     0.190 HD
HETATM    9  O   UNL     1      -5.260   3.042 -30.729  1.00  0.00    -0.266 OA
BRANCH   7  10
HETATM   10  N   UNL     1      -2.709   3.595 -31.457  1.00  0.00    -0.262 N 
HETATM   11  C   UNL     1      -1.948   4.475 -32.199  1.00  0.00     0.286 C 
HETATM   12  O   UNL     1      -2.018   4.505 -33.428  1.00  0.00    -0.264 OA
HETATM   13  H   UNL     1      -2.599   3.463 -30.455  1.00  0.00     0.190 HD
BRANCH  11  14
HETATM   14  C   UNL     1      -1.071   5.341 -31.446  1.00  0.00     0.102 A 
HETATM   15  N   UNL     1      -0.727   5.053 -30.140  1.00  0.00    -0.361 N 
HETATM   16  H   UNL     1      -1.060   4.237 -29.640  1.00  0.00     0.165 HD
HETATM   17  C   UNL     1       0.110   6.014 -29.645  1.00  0.00     0.088 A 
HETATM   18  C   UNL     1       0.318   6.943 -30.637  1.00  0.00     0.019 A 
HETATM   19  C   UNL     1      -0.424   6.523 -31.770  1.00  0.00     0.036 A 
ENDBRANCH  11  14
ENDBRANCH   7  10
ENDBRANCH   5   6
BRANCH   1  20
HETATM   20  C   UNL     1      -7.860   2.253 -32.823  1.00  0.00    -0.002 A 
HETATM   21  C   UNL     1      -7.872   3.356 -33.686  1.00  0.00     0.050 A 
HETATM   22  C   UNL     1      -8.896   4.310 -33.626  1.00  0.00     0.069 A 
HETATM   23  C   UNL     1      -9.907   4.174 -32.674  1.00  0.00     0.037 A 
HETATM   24  C   UNL     1      -9.898   3.090 -31.795  1.00  0.00     0.004 A 
HETATM   25  C   UNL     1      -8.881   2.137 -31.869  1.00  0.00     0.014 A 
BRANCH  22  26
HETATM   26  O   UNL     1      -8.785   5.325 -34.537  1.00  0.00    -0.356 OA
HETATM   27  C   UNL     1      -9.976   5.712 -35.211  1.00  0.00     0.210 C 
ENDBRANCH  22  26
ENDBRANCH   1  20
BRANCH   3  28
HETATM   28  C   UNL     1      -5.777  -1.960 -33.856  1.00  0.00     0.058 A 
HETATM   29  C   UNL     1      -4.545  -2.630 -33.801  1.00  0.00     0.031 A 
HETATM   30  C   UNL     1      -4.423  -3.924 -34.313  1.00  0.00     0.002 A 
HETATM   31  C   UNL     1      -5.525  -4.555 -34.886  1.00  0.00     0.000 A 
HETATM   32  C   UNL     1      -6.752  -3.896 -34.947  1.00  0.00     0.002 A 
HETATM   33  C   UNL     1      -6.882  -2.601 -34.434  1.00  0.00     0.031 A 
ENDBRANCH   3  28
TORSDOF 6
ENDMDL
MODEL 4
REMARK VINA RESULT:      -9.1      2.485      8.713
REMARK  6 active torsions:
REMARK  status: ('A' for Active; 'I' for Inactive)
REMARK    1  A    between atoms: O_2  and  C_3 
REMARK    2  A    between atoms: C_5  and  C_6 
REMARK    3  A    between atoms: N_8  and  C_9 
REMARK    4  A    between atoms: C_16  and  C_17 
REMARK       I    between atoms: C_17  and  N_18 
REMARK    5  A    between atoms: N_18  and  N_19 
REMARK       I    between atoms: N_19  and  C_20 
REMARK    6  A    between atoms: C_20  and  C_21 
ROOT
HETATM    1  C   UNL     1      -4.514   0.955 -32.524  1.00  0.00     0.105 A 
HETATM    2  N   UNL     1      -3.493   1.826 -32.478  1.00  0.00    -0.166 NA
HETATM    3  N   UNL     1      -4.045   3.042 -32.283  1.00  0.00    -0.244 N 
HETATM    4  C   UNL     1      -5.415   2.960 -32.220  1.00  0.00     0.138 A 
HETATM    5  C   UNL     1      -5.764   1.629 -32.385  1.00  0.00     0.082 A 
ENDROOT
BRANCH   5   6
HETATM    6  C   UNL     1      -7.118   1.098 -32.442  1.00  0.00     0.274 C 
HETATM    7  N   UNL     1      -7.670   1.063 -33.709  1.00  0.00    -0.263 N 
HETATM    8  H   UNL     1      -7.253   1.543 -34.503  1.00  0.00     0.190 HD
HETATM    9  O   UNL     1      -7.741   0.709 -31.457  1.00  0.00    -0.266 OA
BRANCH   7  10
HETATM   10  N   UNL     1      -9.019   0.710 -33.847  1.00  0.00    -0.262 N 
HETATM   11  C   UNL     1      -9.929   1.702 -34.151  1.00  0.00     0.286 C 
HETATM   12  O   UNL     1      -9.567   2.858 -34.376  1.00  0.00    -0.264 OA
HETATM   13  H   UNL     1      -9.285  -0.224 -33.548  1.00  0.00     0.190 HD
BRANCH  11  14
HETATM   14  C   UNL     1     -11.315   1.299 -34.183  1.00  0.00     0.102 A 
HETATM   15  N   UNL     1     -11.790   0.300 -33.356  1.00  0.00    -0.361 N 
HETATM   16  H   UNL     1     -11.211  -0.201 -32.693  1.00  0.00     0.165 HD
HETATM   17  C   UNL     1     -13.127   0.103 -33.567  1.00  0.00     0.088 A 
HETATM   18  C   UNL     1     -13.533   0.982 -34.544  1.00  0.00     0.019 A 
HETATM   19  C   UNL     1     -12.397   1.734 -34.933  1.00  0.00     0.036 A 
ENDBRANCH  11  14
ENDBRANCH   7  10
ENDBRANCH   5   6
BRANCH   1  20
HETATM   20  C   UNL     1      -4.225  -0.474 -32.689  1.00  0.00    -0.002 A 
HETATM   21  C   UNL     1      -4.832  -1.234 -33.696  1.00  0.00     0.050 A 
HETATM   22  C   UNL     1      -4.560  -2.601 -33.834  1.00  0.00     0.069 A 
HETATM   23  C   UNL     1      -3.689  -3.222 -32.938  1.00  0.00     0.037 A 
HETATM   24  C   UNL     1      -3.091  -2.481 -31.918  1.00  0.00     0.004 A 
HETATM   25  C   UNL     1      -3.357  -1.117 -31.794  1.00  0.00     0.014 A 
BRANCH  22  26
HETATM   26  O   UNL     1      -5.215  -3.212 -34.869  1.00  0.00    -0.356 OA
HETATM   27  C   UNL     1      -6.637  -3.200 -34.822  1.00  0.00     0.210 C 
ENDBRANCH  22  26
ENDBRANCH   1  20
BRANCH   3  28
HETATM   28  C   UNL     1      -3.231   4.206 -32.177  1.00  0.00     0.058 A 
HETATM   29  C   UNL     1      -2.167   4.385 -33.075  1.00  0.00     0.031 A 
HETATM   30  C   UNL     1      -1.357   5.521 -32.991  1.00  0.00     0.002 A 
HETATM   31  C   UNL     1      -1.600   6.481 -32.011  1.00  0.00     0.000 A 
HETATM   32  C   UNL     1      -2.653   6.309 -31.114  1.00  0.00     0.002 A 
HETATM   33  C   UNL     1      -3.470   5.176 -31.194  1.00  0.00     0.031 A 
ENDBRANCH   3  28
TORSDOF 6
ENDMDL
MODEL 5
REMARK VINA RESULT:      -9.1      2.884      9.067
REMARK  6 active torsions:
REMARK  status: ('A' for Active; 'I' for Inactive)
REMARK    1  A    between atoms: O_2  and  C_3 
REMARK    2  A    between atoms: C_5  and  C_6 
REMARK    3  A    between atoms: N_8  and  C_9 
REMARK    4  A    between atoms: C_16  and  C_17 
REMARK       I    between atoms: C_17  and  N_18 
REMARK    5  A    between atoms: N_18  and  N_19 
REMARK       I    between atoms: N_19  and  C_20 
REMARK    6  A    between atoms: C_20  and  C_21 
ROOT
HETATM    1  C   UNL     1      -5.907   0.660 -32.804  1.00  0.00     0.105 A 
HETATM    2  N   UNL     1      -4.823   1.446 -32.707  1.00  0.00    -0.166 NA
HETATM    3  N   UNL     1      -5.226   2.567 -32.072  1.00  0.00    -0.244 N 
HETATM    4  C   UNL     1      -6.566   2.512 -31.775  1.00  0.00     0.138 A 
HETATM    5  C   UNL     1      -7.052   1.302 -32.242  1.00  0.00     0.082 A 
ENDROOT
BRANCH   5   6
HETATM    6  C   UNL     1      -8.435   0.854 -32.189  1.00  0.00     0.274 C 
HETATM    7  N   UNL     1      -9.201   1.217 -33.282  1.00  0.00    -0.263 N 
HETATM    8  H   UNL     1      -8.889   1.900 -33.968  1.00  0.00     0.190 HD
HETATM    9  O   UNL     1      -8.908   0.207 -31.257  1.00  0.00    -0.266 OA
BRANCH   7  10
HETATM   10  N   UNL     1     -10.579   0.963 -33.253  1.00  0.00    -0.262 N 
HETATM   11  C   UNL     1     -11.424   1.861 -33.871  1.00  0.00     0.286 C 
HETATM   12  O   UNL     1     -10.987   2.824 -34.502  1.00  0.00    -0.264 OA
HETATM   13  H   UNL     1     -10.899   0.223 -32.634  1.00  0.00     0.190 HD
BRANCH  11  14
HETATM   14  C   UNL     1     -12.837   1.602 -33.724  1.00  0.00     0.102 A 
HETATM   15  N   UNL     1     -13.559   2.136 -32.676  1.00  0.00    -0.361 N 
HETATM   16  H   UNL     1     -13.154   2.729 -31.961  1.00  0.00     0.165 HD
HETATM   17  C   UNL     1     -14.869   1.752 -32.755  1.00  0.00     0.088 A 
HETATM   18  C   UNL     1     -15.008   0.956 -33.868  1.00  0.00     0.019 A 
HETATM   19  C   UNL     1     -13.733   0.859 -34.479  1.00  0.00     0.036 A 
ENDBRANCH  11  14
ENDBRANCH   7  10
ENDBRANCH   5   6
BRANCH   1  20
HETATM   20  C   UNL     1      -5.774  -0.663 -33.421  1.00  0.00    -0.002 A 
HETATM   21  C   UNL     1      -4.729  -1.531 -33.081  1.00  0.00     0.050 A 
HETATM   22  C   UNL     1      -4.604  -2.786 -33.689  1.00  0.00     0.069 A 
HETATM   23  C   UNL     1      -5.520  -3.171 -34.667  1.00  0.00     0.037 A 
HETATM   24  C   UNL     1      -6.557  -2.309 -35.031  1.00  0.00     0.004 A 
HETATM   25  C   UNL     1      -6.683  -1.065 -34.412  1.00  0.00     0.014 A 
BRANCH  22  26
HETATM   26  O   UNL     1      -3.542  -3.530 -33.249  1.00  0.00    -0.356 OA
HETATM   27  C   UNL     1      -3.067  -3.253 -31.937  1.00  0.00     0.210 C 
ENDBRANCH  22  26
ENDBRANCH   1  20
BRANCH   3  28
HETATM   28  C   UNL     1      -4.310   3.622 -31.796  1.00  0.00     0.058 A 
HETATM   29  C   UNL     1      -2.962   3.474 -32.159  1.00  0.00     0.031 A 
HETATM   30  C   UNL     1      -2.046   4.497 -31.900  1.00  0.00     0.002 A 
HETATM   31  C   UNL     1      -2.466   5.669 -31.274  1.00  0.00     0.000 A 
HETATM   32  C   UNL     1      -3.802   5.822 -30.908  1.00  0.00     0.002 A 
HETATM   33  C   UNL     1      -4.726   4.803 -31.167  1.00  0.00     0.031 A 
ENDBRANCH   3  28
TORSDOF 6
ENDMDL
MODEL 6
REMARK VINA RESULT:      -8.8      2.623      7.480
REMARK  6 active torsions:
REMARK  status: ('A' for Active; 'I' for Inactive)
REMARK    1  A    between atoms: O_2  and  C_3 
REMARK    2  A    between atoms: C_5  and  C_6 
REMARK    3  A    between atoms: N_8  and  C_9 
REMARK    4  A    between atoms: C_16  and  C_17 
REMARK       I    between atoms: C_17  and  N_18 
REMARK    5  A    between atoms: N_18  and  N_19 
REMARK       I    between atoms: N_19  and  C_20 
REMARK    6  A    between atoms: C_20  and  C_21 
ROOT
HETATM    1  C   UNL     1      -6.020   1.056 -33.223  1.00  0.00     0.105 A 
HETATM    2  N   UNL     1      -5.367  -0.035 -33.654  1.00  0.00    -0.166 NA
HETATM    3  N   UNL     1      -6.273  -1.036 -33.664  1.00  0.00    -0.244 N 
HETATM    4  C   UNL     1      -7.500  -0.597 -33.228  1.00  0.00     0.138 A 
HETATM    5  C   UNL     1      -7.380   0.748 -32.918  1.00  0.00     0.082 A 
ENDROOT
BRANCH   5   6
HETATM    6  C   UNL     1      -8.424   1.597 -32.366  1.00  0.00     0.274 C 
HETATM    7  N   UNL     1      -9.660   1.460 -32.972  1.00  0.00    -0.263 N 
HETATM    8  H   UNL     1      -9.788   0.961 -33.849  1.00  0.00     0.190 HD
HETATM    9  O   UNL     1      -8.246   2.383 -31.438  1.00  0.00    -0.266 OA
BRANCH   7  10
HETATM   10  N   UNL     1     -10.689   2.341 -32.611  1.00  0.00    -0.262 N 
HETATM   11  C   UNL     1     -11.948   2.128 -33.134  1.00  0.00     0.286 C 
HETATM   12  O   UNL     1     -12.192   1.147 -33.839  1.00  0.00    -0.264 OA
HETATM   13  H   UNL     1     -10.420   3.189 -32.121  1.00  0.00     0.190 HD
BRANCH  11  14
HETATM   14  C   UNL     1     -12.943   3.122 -32.808  1.00  0.00     0.102 A 
HETATM   15  N   UNL     1     -13.902   2.887 -31.843  1.00  0.00    -0.361 N 
HETATM   16  H   UNL     1     -13.967   2.024 -31.317  1.00  0.00     0.165 HD
HETATM   17  C   UNL     1     -14.723   3.973 -31.714  1.00  0.00     0.088 A 
HETATM   18  C   UNL     1     -14.298   4.931 -32.604  1.00  0.00     0.019 A 
HETATM   19  C   UNL     1     -13.180   4.399 -33.293  1.00  0.00     0.036 A 
ENDBRANCH  11  14
ENDBRANCH   7  10
ENDBRANCH   5   6
BRANCH   1  20
HETATM   20  C   UNL     1      -5.300   2.331 -33.141  1.00  0.00    -0.002 A 
HETATM   21  C   UNL     1      -4.131   2.467 -32.382  1.00  0.00     0.050 A 
HETATM   22  C   UNL     1      -3.461   3.694 -32.299  1.00  0.00     0.069 A 
HETATM   23  C   UNL     1      -3.978   4.806 -32.963  1.00  0.00     0.037 A 
HETATM   24  C   UNL     1      -5.153   4.691 -33.708  1.00  0.00     0.004 A 
HETATM   25  C   UNL     1      -5.809   3.462 -33.797  1.00  0.00     0.014 A 
BRANCH  22  26
HETATM   26  O   UNL     1      -2.327   3.674 -31.532  1.00  0.00    -0.356 OA
HETATM   27  C   UNL     1      -1.647   4.912 -31.365  1.00  0.00     0.210 C 
ENDBRANCH  22  26
ENDBRANCH   1  20
BRANCH   3  28
HETATM   28  C   UNL     1      -5.909  -2.348 -34.081  1.00  0.00     0.058 A 
HETATM   29  C   UNL     1      -4.593  -2.792 -33.883  1.00  0.00     0.031 A 
HETATM   30  C   UNL     1      -4.214  -4.077 -34.283  1.00  0.00     0.002 A 
HETATM   31  C   UNL     1      -5.143  -4.922 -34.886  1.00  0.00     0.000 A 
HETATM   32  C   UNL     1      -6.452  -4.487 -35.089  1.00  0.00     0.002 A 
HETATM   33  C   UNL     1      -6.838  -3.204 -34.689  1.00  0.00     0.031 A 
ENDBRANCH   3  28
TORSDOF 6
ENDMDL
MODEL 7
REMARK VINA RESULT:      -8.8      1.842      5.164
REMARK  6 active torsions:
REMARK  status: ('A' for Active; 'I' for Inactive)
REMARK    1  A    between atoms: O_2  and  C_3 
REMARK    2  A    between atoms: C_5  and  C_6 
REMARK    3  A    between atoms: N_8  and  C_9 
REMARK    4  A    between atoms: C_16  and  C_17 
REMARK       I    between atoms: C_17  and  N_18 
REMARK    5  A    between atoms: N_18  and  N_19 
REMARK       I    between atoms: N_19  and  C_20 
REMARK    6  A    between atoms: C_20  and  C_21 
ROOT
HETATM    1  C   UNL     1      -6.385   0.743 -32.594  1.00  0.00     0.105 A 
HETATM    2  N   UNL     1      -7.582   0.453 -33.131  1.00  0.00    -0.166 NA
HETATM    3  N   UNL     1      -8.313   1.585 -33.051  1.00  0.00    -0.244 N 
HETATM    4  C   UNL     1      -7.599   2.595 -32.452  1.00  0.00     0.138 A 
HETATM    5  C   UNL     1      -6.350   2.091 -32.127  1.00  0.00     0.082 A 
ENDROOT
BRANCH   5   6
HETATM    6  C   UNL     1      -5.294   2.805 -31.426  1.00  0.00     0.274 C 
HETATM    7  N   UNL     1      -4.300   3.312 -32.242  1.00  0.00    -0.263 N 
HETATM    8  H   UNL     1      -4.205   3.046 -33.220  1.00  0.00     0.190 HD
HETATM    9  O   UNL     1      -5.265   2.955 -30.206  1.00  0.00    -0.266 OA
BRANCH   7  10
HETATM   10  N   UNL     1      -3.166   3.883 -31.649  1.00  0.00    -0.262 N 
HETATM   11  C   UNL     1      -2.645   5.033 -32.203  1.00  0.00     0.286 C 
HETATM   12  O   UNL     1      -3.198   5.598 -33.148  1.00  0.00    -0.264 OA
HETATM   13  H   UNL     1      -2.684   3.328 -30.946  1.00  0.00     0.190 HD
BRANCH  11  14
HETATM   14  C   UNL     1      -1.420   5.520 -31.612  1.00  0.00     0.102 A 
HETATM   15  N   UNL     1      -0.907   4.957 -30.460  1.00  0.00    -0.361 N 
HETATM   16  H   UNL     1      -1.346   4.188 -29.969  1.00  0.00     0.165 HD
HETATM   17  C   UNL     1       0.254   5.584 -30.100  1.00  0.00     0.088 A 
HETATM   18  C   UNL     1       0.506   6.568 -31.027  1.00  0.00     0.019 A 
HETATM   19  C   UNL     1      -0.545   6.531 -31.977  1.00  0.00     0.036 A 
ENDBRANCH  11  14
ENDBRANCH   7  10
ENDBRANCH   5   6
BRANCH   1  20
HETATM   20  C   UNL     1      -5.345  -0.291 -32.572  1.00  0.00    -0.002 A 
HETATM   21  C   UNL     1      -5.333  -1.340 -33.501  1.00  0.00     0.050 A 
HETATM   22  C   UNL     1      -4.343  -2.330 -33.460  1.00  0.00     0.069 A 
HETATM   23  C   UNL     1      -3.368  -2.287 -32.464  1.00  0.00     0.037 A 
HETATM   24  C   UNL     1      -3.378  -1.258 -31.520  1.00  0.00     0.004 A 
HETATM   25  C   UNL     1      -4.360  -0.268 -31.574  1.00  0.00     0.014 A 
BRANCH  22  26
HETATM   26  O   UNL     1      -4.450  -3.283 -34.436  1.00  0.00    -0.356 OA
HETATM   27  C   UNL     1      -5.635  -3.264 -35.222  1.00  0.00     0.210 C 
ENDBRANCH  22  26
ENDBRANCH   1  20
BRANCH   3  28
HETATM   28  C   UNL     1      -9.649   1.629 -33.544  1.00  0.00     0.058 A 
HETATM   29  C   UNL     1     -10.049   2.706 -34.350  1.00  0.00     0.031 A 
HETATM   30  C   UNL     1     -11.353   2.770 -34.846  1.00  0.00     0.002 A 
HETATM   31  C   UNL     1     -12.267   1.764 -34.538  1.00  0.00     0.000 A 
HETATM   32  C   UNL     1     -11.879   0.692 -33.736  1.00  0.00     0.002 A 
HETATM   33  C   UNL     1     -10.573   0.620 -33.238  1.00  0.00     0.031 A 
ENDBRANCH   3  28
TORSDOF 6
ENDMDL
MODEL 8
REMARK VINA RESULT:      -8.7      4.090      4.886
REMARK  6 active torsions:
REMARK  status: ('A' for Active; 'I' for Inactive)
REMARK    1  A    between atoms: O_2  and  C_3 
REMARK    2  A    between atoms: C_5  and  C_6 
REMARK    3  A    between atoms: N_8  and  C_9 
REMARK    4  A    between atoms: C_16  and  C_17 
REMARK       I    between atoms: C_17  and  N_18 
REMARK    5  A    between atoms: N_18  and  N_19 
REMARK       I    between atoms: N_19  and  C_20 
REMARK    6  A    between atoms: C_20  and  C_21 
ROOT
HETATM    1  C   UNL     1      -8.152   0.341 -33.375  1.00  0.00     0.105 A 
HETATM    2  N   UNL     1      -7.862  -0.797 -34.027  1.00  0.00    -0.166 NA
HETATM    3  N   UNL     1      -6.696  -1.239 -33.511  1.00  0.00    -0.244 N 
HETATM    4  C   UNL     1      -6.228  -0.385 -32.542  1.00  0.00     0.138 A 
HETATM    5  C   UNL     1      -7.131   0.660 -32.430  1.00  0.00     0.082 A 
ENDROOT
BRANCH   5   6
HETATM    6  C   UNL     1      -6.998   1.820 -31.562  1.00  0.00     0.274 C 
HETATM    7  N   UNL     1      -8.015   1.969 -30.638  1.00  0.00    -0.263 N 
HETATM    8  H   UNL     1      -8.880   1.435 -30.683  1.00  0.00     0.190 HD
HETATM    9  O   UNL     1      -6.066   2.619 -31.629  1.00  0.00    -0.266 OA
BRANCH   7  10
HETATM   10  N   UNL     1      -8.055   3.134 -29.861  1.00  0.00    -0.262 N 
HETATM   11  C   UNL     1      -8.884   4.162 -30.261  1.00  0.00     0.286 C 
HETATM   12  O   UNL     1      -9.633   4.041 -31.230  1.00  0.00    -0.264 OA
HETATM   13  H   UNL     1      -7.346   3.232 -29.138  1.00  0.00     0.190 HD
BRANCH  11  14
HETATM   14  C   UNL     1      -8.809   5.374 -29.479  1.00  0.00     0.102 A 
HETATM   15  N   UNL     1      -9.795   6.337 -29.554  1.00  0.00    -0.361 N 
HETATM   16  H   UNL     1     -10.612   6.258 -30.148  1.00  0.00     0.165 HD
HETATM   17  C   UNL     1      -9.502   7.383 -28.723  1.00  0.00     0.088 A 
HETATM   18  C   UNL     1      -8.312   7.103 -28.096  1.00  0.00     0.019 A 
HETATM   19  C   UNL     1      -7.873   5.841 -28.569  1.00  0.00     0.036 A 
ENDBRANCH  11  14
ENDBRANCH   7  10
ENDBRANCH   5   6
BRANCH   1  20
HETATM   20  C   UNL     1      -9.398   1.046 -33.693  1.00  0.00    -0.002 A 
HETATM   21  C   UNL     1      -9.394   2.306 -34.304  1.00  0.00     0.050 A 
HETATM   22  C   UNL     1     -10.590   2.976 -34.588  1.00  0.00     0.069 A 
HETATM   23  C   UNL     1     -11.807   2.392 -34.235  1.00  0.00     0.037 A 
HETATM   24  C   UNL     1     -11.826   1.145 -33.608  1.00  0.00     0.004 A 
HETATM   25  C   UNL     1     -10.631   0.477 -33.339  1.00  0.00     0.014 A 
BRANCH  22  26
HETATM   26  O   UNL     1     -10.432   4.192 -35.197  1.00  0.00    -0.356 OA
HETATM   27  C   UNL     1     -11.065   5.304 -34.577  1.00  0.00     0.210 C 
ENDBRANCH  22  26
ENDBRANCH   1  20
BRANCH   3  28
HETATM   28  C   UNL     1      -6.099  -2.445 -33.978  1.00  0.00     0.058 A 
HETATM   29  C   UNL     1      -6.901  -3.411 -34.606  1.00  0.00     0.031 A 
HETATM   30  C   UNL     1      -6.336  -4.600 -35.075  1.00  0.00     0.002 A 
HETATM   31  C   UNL     1      -4.972  -4.835 -34.916  1.00  0.00     0.000 A 
HETATM   32  C   UNL     1      -4.169  -3.882 -34.291  1.00  0.00     0.002 A 
HETATM   33  C   UNL     1      -4.727  -2.688 -33.822  1.00  0.00     0.031 A 
ENDBRANCH   3  28
TORSDOF 6
ENDMDL
MODEL 9
REMARK VINA RESULT:      -8.7      2.560      8.870
REMARK  6 active torsions:
REMARK  status: ('A' for Active; 'I' for Inactive)
REMARK    1  A    between atoms: O_2  and  C_3 
REMARK    2  A    between atoms: C_5  and  C_6 
REMARK    3  A    between atoms: N_8  and  C_9 
REMARK    4  A    between atoms: C_16  and  C_17 
REMARK       I    between atoms: C_17  and  N_18 
REMARK    5  A    between atoms: N_18  and  N_19 
REMARK       I    between atoms: N_19  and  C_20 
REMARK    6  A    between atoms: C_20  and  C_21 
ROOT
HETATM    1  C   UNL     1      -5.776   2.201 -33.104  1.00  0.00     0.105 A 
HETATM    2  N   UNL     1      -4.560   2.631 -32.729  1.00  0.00    -0.166 NA
HETATM    3  N   UNL     1      -4.737   3.872 -32.230  1.00  0.00    -0.244 N 
HETATM    4  C   UNL     1      -6.057   4.248 -32.296  1.00  0.00     0.138 A 
HETATM    5  C   UNL     1      -6.765   3.203 -32.868  1.00  0.00     0.082 A 
ENDROOT
BRANCH   5   6
HETATM    6  C   UNL     1      -8.186   3.198 -33.178  1.00  0.00     0.274 C 
HETATM    7  N   UNL     1      -8.951   2.382 -32.365  1.00  0.00    -0.263 N 
HETATM    8  H   UNL     1      -8.542   1.696 -31.735  1.00  0.00     0.190 HD
HETATM    9  O   UNL     1      -8.689   3.855 -34.087  1.00  0.00    -0.266 OA
BRANCH   7  10
HETATM   10  N   UNL     1     -10.304   2.194 -32.680  1.00  0.00    -0.262 N 
HETATM   11  C   UNL     1     -10.692   0.980 -33.207  1.00  0.00     0.286 C 
HETATM   12  O   UNL     1      -9.894   0.050 -33.330  1.00  0.00    -0.264 OA
HETATM   13  H   UNL     1     -10.900   3.017 -32.664  1.00  0.00     0.190 HD
BRANCH  11  14
HETATM   14  C   UNL     1     -12.077   0.878 -33.604  1.00  0.00     0.102 A 
HETATM   15  N   UNL     1     -12.871  -0.166 -33.174  1.00  0.00    -0.361 N 
HETATM   16  H   UNL     1     -12.541  -0.908 -32.568  1.00  0.00     0.165 HD
HETATM   17  C   UNL     1     -14.136  -0.040 -33.678  1.00  0.00     0.088 A 
HETATM   18  C   UNL     1     -14.172   1.098 -34.447  1.00  0.00     0.019 A 
HETATM   19  C   UNL     1     -12.879   1.678 -34.403  1.00  0.00     0.036 A 
ENDBRANCH  11  14
ENDBRANCH   7  10
ENDBRANCH   5   6
BRANCH   1  20
HETATM   20  C   UNL     1      -5.915   0.849 -33.656  1.00  0.00    -0.002 A 
HETATM   21  C   UNL     1      -5.101  -0.207 -33.225  1.00  0.00     0.050 A 
HETATM   22  C   UNL     1      -5.233  -1.490 -33.772  1.00  0.00     0.069 A 
HETATM   23  C   UNL     1      -6.172  -1.715 -34.778  1.00  0.00     0.037 A 
HETATM   24  C   UNL     1      -6.977  -0.668 -35.230  1.00  0.00     0.004 A 
HETATM   25  C   UNL     1      -6.849   0.605 -34.673  1.00  0.00     0.014 A 
BRANCH  22  26
HETATM   26  O   UNL     1      -4.381  -2.424 -33.247  1.00  0.00    -0.356 OA
HETATM   27  C   UNL     1      -4.157  -3.593 -34.024  1.00  0.00     0.210 C 
ENDBRANCH  22  26
ENDBRANCH   1  20
BRANCH   3  28
HETATM   28  C   UNL     1      -3.636   4.623 -31.728  1.00  0.00     0.058 A 
HETATM   29  C   UNL     1      -3.877   5.696 -30.855  1.00  0.00     0.031 A 
HETATM   30  C   UNL     1      -2.812   6.446 -30.349  1.00  0.00     0.002 A 
HETATM   31  C   UNL     1      -1.503   6.135 -30.714  1.00  0.00     0.000 A 
HETATM   32  C   UNL     1      -1.256   5.073 -31.583  1.00  0.00     0.002 A 
HETATM   33  C   UNL     1      -2.318   4.316 -32.091  1.00  0.00     0.031 A 
ENDBRANCH   3  28
TORSDOF 6
ENDMDL
MODEL 10
REMARK VINA RESULT:      -8.6      2.186      5.736
REMARK  6 active torsions:
REMARK  status: ('A' for Active; 'I' for Inactive)
REMARK    1  A    between atoms: O_2  and  C_3 
REMARK    2  A    between atoms: C_5  and  C_6 
REMARK    3  A    between atoms: N_8  and  C_9 
REMARK    4  A    between atoms: C_16  and  C_17 
REMARK       I    between atoms: C_17  and  N_18 
REMARK    5  A    between atoms: N_18  and  N_19 
REMARK       I    between atoms: N_19  and  C_20 
REMARK    6  A    between atoms: C_20  and  C_21 
ROOT
HETATM    1  C   UNL     1      -7.520   0.518 -33.840  1.00  0.00     0.105 A 
HETATM    2  N   UNL     1      -8.812   0.182 -33.980  1.00  0.00    -0.166 NA
HETATM    3  N   UNL     1      -9.506   1.339 -33.957  1.00  0.00    -0.244 N 
HETATM    4  C   UNL     1      -8.669   2.415 -33.788  1.00  0.00     0.138 A 
HETATM    5  C   UNL     1      -7.374   1.930 -33.693  1.00  0.00     0.082 A 
ENDROOT
BRANCH   5   6
HETATM    6  C   UNL     1      -6.177   2.721 -33.452  1.00  0.00     0.274 C 
HETATM    7  N   UNL     1      -5.703   2.668 -32.154  1.00  0.00    -0.263 N 
HETATM    8  H   UNL     1      -6.244   2.275 -31.388  1.00  0.00     0.190 HD
HETATM    9  O   UNL     1      -5.617   3.392 -34.316  1.00  0.00    -0.266 OA
BRANCH   7  10
HETATM   10  N   UNL     1      -4.646   3.512 -31.788  1.00  0.00    -0.262 N 
HETATM   11  C   UNL     1      -4.941   4.677 -31.111  1.00  0.00     0.286 C 
HETATM   12  O   UNL     1      -6.093   4.942 -30.763  1.00  0.00    -0.264 OA
HETATM   13  H   UNL     1      -3.733   3.309 -32.187  1.00  0.00     0.190 HD
BRANCH  11  14
HETATM   14  C   UNL     1      -3.825   5.554 -30.848  1.00  0.00     0.102 A 
HETATM   15  N   UNL     1      -2.527   5.082 -30.846  1.00  0.00    -0.361 N 
HETATM   16  H   UNL     1      -2.282   4.115 -31.025  1.00  0.00     0.165 HD
HETATM   17  C   UNL     1      -1.652   6.097 -30.576  1.00  0.00     0.088 A 
HETATM   18  C   UNL     1      -2.383   7.248 -30.398  1.00  0.00     0.019 A 
HETATM   19  C   UNL     1      -3.749   6.910 -30.568  1.00  0.00     0.036 A 
ENDBRANCH  11  14
ENDBRANCH   7  10
ENDBRANCH   5   6
BRANCH   1  20
HETATM   20  C   UNL     1      -6.503  -0.539 -33.866  1.00  0.00    -0.002 A 
HETATM   21  C   UNL     1      -5.421  -0.539 -32.976  1.00  0.00     0.050 A 
HETATM   22  C   UNL     1      -4.448  -1.545 -33.021  1.00  0.00     0.069 A 
HETATM   23  C   UNL     1      -4.541  -2.549 -33.984  1.00  0.00     0.037 A 
HETATM   24  C   UNL     1      -5.603  -2.552 -34.891  1.00  0.00     0.004 A 
HETATM   25  C   UNL     1      -6.576  -1.553 -34.832  1.00  0.00     0.014 A 
BRANCH  22  26
HETATM   26  O   UNL     1      -3.458  -1.423 -32.084  1.00  0.00    -0.356 OA
HETATM   27  C   UNL     1      -3.529  -0.295 -31.221  1.00  0.00     0.210 C 
ENDBRANCH  22  26
ENDBRANCH   1  20
BRANCH   3  28
HETATM   28  C   UNL     1     -10.924   1.345 -34.091  1.00  0.00     0.058 A 
HETATM   29  C   UNL     1     -11.678   0.336 -33.471  1.00  0.00     0.031 A 
HETATM   30  C   UNL     1     -13.070   0.323 -33.587  1.00  0.00     0.002 A 
HETATM   31  C   UNL     1     -13.718   1.312 -34.324  1.00  0.00     0.000 A 
HETATM   32  C   UNL     1     -12.977   2.316 -34.945  1.00  0.00     0.002 A 
HETATM   33  C   UNL     1     -11.583   2.337 -34.831  1.00  0.00     0.031 A 
ENDBRANCH   3  28
TORSDOF 6
ENDMDL
