MODEL 1
REMARK VINA RESULT:      -7.8      0.000      0.000
REMARK  6 active torsions:
REMARK  status: ('A' for Active; 'I' for Inactive)
REMARK    1  A    between atoms: C_2  and  N_3 
REMARK    2  A    between atoms: C_2  and  C_21 
REMARK    3  A    between atoms: N_3  and  C_6 
REMARK    4  A    between atoms: C_6  and  C_7 
REMARK       I    between atoms: C_7  and  N_8 
REMARK    5  A    between atoms: N_8  and  C_9 
REMARK    6  A    between atoms: C_16  and  C_17 
REMARK       I    between atoms: C_17  and  N_18 
ROOT
HETATM    1  C   UNL     1      -4.956   1.411 -31.465  1.00  0.00     0.248 C 
HETATM    2  N   UNL     1      -5.006   1.056 -32.791  1.00  0.00    -0.319 N 
HETATM    3  O   UNL     1      -4.988   0.691 -30.468  1.00  0.00    -0.271 OA
HETATM    4  H   UNL     1      -4.842   1.759 -33.515  1.00  0.00     0.169 HD
ENDROOT
BRANCH   2   5
HETATM    5  C   UNL     1      -5.130  -0.226 -33.312  1.00  0.00     0.093 A 
HETATM    6  S   UNL     1      -3.832  -1.337 -33.269  1.00  0.00    -0.075 SA
HETATM    7  C   UNL     1      -4.775  -2.501 -33.998  1.00  0.00    -0.008 A 
HETATM    8  C   UNL     1      -6.050  -2.096 -34.287  1.00  0.00    -0.026 A 
HETATM    9  C   UNL     1      -4.466  -3.897 -34.387  1.00  0.00     0.047 C 
HETATM   10  C   UNL     1      -6.805  -3.203 -34.936  1.00  0.00     0.041 C 
HETATM   11  C   UNL     1      -6.292  -0.747 -33.895  1.00  0.00     0.072 A 
HETATM   12  C   UNL     1      -5.893  -4.442 -34.682  1.00  0.00     0.010 C 
BRANCH  11  13
HETATM   13  C   UNL     1      -7.497   0.073 -34.033  1.00  0.00     0.252 C 
HETATM   14  N   UNL     1      -7.971   0.290 -35.289  1.00  0.00    -0.366 N 
HETATM   15  H   UNL     1      -7.501  -0.015 -36.126  1.00  0.00     0.159 HD
HETATM   16  H   UNL     1      -8.778   0.892 -35.394  1.00  0.00     0.159 HD
HETATM   17  O   UNL     1      -8.053   0.579 -33.057  1.00  0.00    -0.268 OA
ENDBRANCH  11  13
ENDBRANCH   2   5
BRANCH   1  18
HETATM   18  C   UNL     1      -4.749   2.908 -31.239  1.00  0.00     0.335 C 
BRANCH  18  19
HETATM   19  N   UNL     1      -3.278   3.190 -31.159  1.00  0.00    -0.057 N 
HETATM   20  H   UNL     1      -2.771   2.304 -30.997  1.00  0.00     0.278 HD
HETATM   21  H   UNL     1      -3.101   3.707 -30.281  1.00  0.00     0.278 HD
BRANCH  19  22
HETATM   22  C   UNL     1      -2.645   3.858 -32.334  1.00  0.00     0.239 C 
HETATM   23  C   UNL     1      -3.732   4.577 -33.124  1.00  0.00     0.047 C 
BRANCH  22  24
HETATM   24  C   UNL     1      -1.574   4.795 -31.885  1.00  0.00     0.082 A 
HETATM   25  O   UNL     1      -0.808   4.373 -30.831  1.00  0.00    -0.325 OA
HETATM   26  C   UNL     1       0.108   5.347 -30.592  1.00  0.00     0.142 A 
HETATM   27  C   UNL     1      -0.045   6.379 -31.487  1.00  0.00     0.027 A 
HETATM   28  C   UNL     1      -1.129   6.024 -32.326  1.00  0.00     0.037 A 
ENDBRANCH  22  24
ENDBRANCH  19  22
ENDBRANCH  18  19
ENDBRANCH   1  18
TORSDOF 6
ENDMDL
MODEL 2
REMARK VINA RESULT:      -7.6      1.801      2.173
REMARK  6 active torsions:
REMARK  status: ('A' for Active; 'I' for Inactive)
REMARK    1  A    between atoms: C_2  and  N_3 
REMARK    2  A    between atoms: C_2  and  C_21 
REMARK    3  A    between atoms: N_3  and  C_6 
REMARK    4  A    between atoms: C_6  and  C_7 
REMARK       I    between atoms: C_7  and  N_8 
REMARK    5  A    between atoms: N_8  and  C_9 
REMARK    6  A    between atoms: C_16  and  C_17 
REMARK       I    between atoms: C_17  and  N_18 
ROOT
HETATM    1  C   UNL     1      -6.221   1.186 -31.484  1.00  0.00     0.248 C 
HETATM    2  N   UNL     1      -5.695   0.852 -32.708  1.00  0.00    -0.319 N 
HETATM    3  O   UNL     1      -6.705   0.452 -30.623  1.00  0.00    -0.271 OA
HETATM    4  H   UNL     1      -5.213   1.560 -33.268  1.00  0.00     0.169 HD
ENDROOT
BRANCH   2   5
HETATM    5  C   UNL     1      -5.610  -0.417 -33.269  1.00  0.00     0.093 A 
HETATM    6  S   UNL     1      -4.191  -1.359 -33.133  1.00  0.00    -0.075 SA
HETATM    7  C   UNL     1      -4.912  -2.606 -33.971  1.00  0.00    -0.008 A 
HETATM    8  C   UNL     1      -6.198  -2.352 -34.365  1.00  0.00    -0.026 A 
HETATM    9  C   UNL     1      -4.396  -3.938 -34.362  1.00  0.00     0.047 C 
HETATM   10  C   UNL     1      -6.748  -3.521 -35.105  1.00  0.00     0.041 C 
HETATM   11  C   UNL     1      -6.642  -1.057 -33.966  1.00  0.00     0.072 A 
HETATM   12  C   UNL     1      -5.711  -4.645 -34.798  1.00  0.00     0.010 C 
BRANCH  11  13
HETATM   13  C   UNL     1      -7.924  -0.389 -34.193  1.00  0.00     0.252 C 
HETATM   14  N   UNL     1      -8.139   0.162 -35.418  1.00  0.00    -0.366 N 
HETATM   15  H   UNL     1      -7.442   0.203 -36.144  1.00  0.00     0.159 HD
HETATM   16  H   UNL     1      -9.005   0.663 -35.568  1.00  0.00     0.159 HD
HETATM   17  O   UNL     1      -8.774  -0.296 -33.307  1.00  0.00    -0.268 OA
ENDBRANCH  11  13
ENDBRANCH   2   5
BRANCH   1  18
HETATM   18  C   UNL     1      -6.097   2.671 -31.148  1.00  0.00     0.335 C 
BRANCH  18  19
HETATM   19  N   UNL     1      -5.377   3.365 -32.266  1.00  0.00    -0.057 N 
HETATM   20  H   UNL     1      -5.980   4.115 -32.644  1.00  0.00     0.278 HD
HETATM   21  H   UNL     1      -5.321   2.709 -33.063  1.00  0.00     0.278 HD
BRANCH  19  22
HETATM   22  C   UNL     1      -4.052   3.973 -31.953  1.00  0.00     0.239 C 
HETATM   23  C   UNL     1      -3.194   2.926 -31.253  1.00  0.00     0.047 C 
BRANCH  22  24
HETATM   24  C   UNL     1      -3.403   4.480 -33.197  1.00  0.00     0.082 A 
HETATM   25  O   UNL     1      -4.248   4.940 -34.172  1.00  0.00    -0.325 OA
HETATM   26  C   UNL     1      -3.472   5.367 -35.201  1.00  0.00     0.142 A 
HETATM   27  C   UNL     1      -2.141   5.205 -34.897  1.00  0.00     0.027 A 
HETATM   28  C   UNL     1      -2.093   4.634 -33.601  1.00  0.00     0.037 A 
ENDBRANCH  22  24
ENDBRANCH  19  22
ENDBRANCH  18  19
ENDBRANCH   1  18
TORSDOF 6
ENDMDL
MODEL 3
REMARK VINA RESULT:      -7.5      1.682      2.631
REMARK  6 active torsions:
REMARK  status: ('A' for Active; 'I' for Inactive)
REMARK    1  A    between atoms: C_2  and  N_3 
REMARK    2  A    between atoms: C_2  and  C_21 
REMARK    3  A    between atoms: N_3  and  C_6 
REMARK    4  A    between atoms: C_6  and  C_7 
REMARK       I    between atoms: C_7  and  N_8 
REMARK    5  A    between atoms: N_8  and  C_9 
REMARK    6  A    between atoms: C_16  and  C_17 
REMARK       I    between atoms: C_17  and  N_18 
ROOT
HETATM    1  C   UNL     1      -5.243   2.536 -31.339  1.00  0.00     0.248 C 
HETATM    2  N   UNL     1      -4.530   1.851 -32.292  1.00  0.00    -0.319 N 
HETATM    3  O   UNL     1      -6.281   2.209 -30.765  1.00  0.00    -0.271 OA
HETATM    4  H   UNL     1      -3.613   2.194 -32.589  1.00  0.00     0.169 HD
ENDROOT
BRANCH   2   5
HETATM    5  C   UNL     1      -4.841   0.615 -32.847  1.00  0.00     0.093 A 
HETATM    6  S   UNL     1      -6.173   0.420 -33.899  1.00  0.00    -0.075 SA
HETATM    7  C   UNL     1      -5.813  -1.195 -34.092  1.00  0.00    -0.008 A 
HETATM    8  C   UNL     1      -4.717  -1.617 -33.389  1.00  0.00    -0.026 A 
HETATM    9  C   UNL     1      -6.479  -2.250 -34.892  1.00  0.00     0.047 C 
HETATM   10  C   UNL     1      -4.483  -3.068 -33.626  1.00  0.00     0.041 C 
HETATM   11  C   UNL     1      -4.118  -0.565 -32.635  1.00  0.00     0.072 A 
HETATM   12  C   UNL     1      -5.405  -3.374 -34.846  1.00  0.00     0.010 C 
BRANCH  11  13
HETATM   13  C   UNL     1      -2.956  -0.586 -31.746  1.00  0.00     0.252 C 
HETATM   14  N   UNL     1      -2.304  -1.770 -31.589  1.00  0.00    -0.366 N 
HETATM   15  H   UNL     1      -2.619  -2.640 -31.987  1.00  0.00     0.159 HD
HETATM   16  H   UNL     1      -1.526  -1.801 -30.943  1.00  0.00     0.159 HD
HETATM   17  O   UNL     1      -2.588   0.417 -31.133  1.00  0.00    -0.268 OA
ENDBRANCH  11  13
ENDBRANCH   2   5
BRANCH   1  18
HETATM   18  C   UNL     1      -4.583   3.842 -30.901  1.00  0.00     0.335 C 
BRANCH  18  19
HETATM   19  N   UNL     1      -3.099   3.721 -31.077  1.00  0.00    -0.057 N 
HETATM   20  H   UNL     1      -2.862   2.737 -31.290  1.00  0.00     0.278 HD
HETATM   21  H   UNL     1      -2.657   3.855 -30.151  1.00  0.00     0.278 HD
BRANCH  19  22
HETATM   22  C   UNL     1      -2.462   4.571 -32.124  1.00  0.00     0.239 C 
HETATM   23  C   UNL     1      -3.490   5.582 -32.616  1.00  0.00     0.047 C 
BRANCH  22  24
HETATM   24  C   UNL     1      -1.242   5.238 -31.583  1.00  0.00     0.082 A 
HETATM   25  O   UNL     1      -0.535   4.533 -30.645  1.00  0.00    -0.325 OA
HETATM   26  C   UNL     1       0.533   5.295 -30.298  1.00  0.00     0.142 A 
HETATM   27  C   UNL     1       0.535   6.471 -31.010  1.00  0.00     0.027 A 
HETATM   28  C   UNL     1      -0.609   6.436 -31.844  1.00  0.00     0.037 A 
ENDBRANCH  22  24
ENDBRANCH  19  22
ENDBRANCH  18  19
ENDBRANCH   1  18
TORSDOF 6
ENDMDL
MODEL 4
REMARK VINA RESULT:      -7.5      1.948      3.248
REMARK  6 active torsions:
REMARK  status: ('A' for Active; 'I' for Inactive)
REMARK    1  A    between atoms: C_2  and  N_3 
REMARK    2  A    between atoms: C_2  and  C_21 
REMARK    3  A    between atoms: N_3  and  C_6 
REMARK    4  A    between atoms: C_6  and  C_7 
REMARK       I    between atoms: C_7  and  N_8 
REMARK    5  A    between atoms: N_8  and  C_9 
REMARK    6  A    between atoms: C_16  and  C_17 
REMARK       I    between atoms: C_17  and  N_18 
ROOT
HETATM    1  C   UNL     1      -5.461   2.635 -31.139  1.00  0.00     0.248 C 
HETATM    2  N   UNL     1      -4.735   2.052 -32.149  1.00  0.00    -0.319 N 
HETATM    3  O   UNL     1      -6.445   2.201 -30.543  1.00  0.00    -0.271 OA
HETATM    4  H   UNL     1      -3.861   2.480 -32.464  1.00  0.00     0.169 HD
ENDROOT
BRANCH   2   5
HETATM    5  C   UNL     1      -4.972   0.822 -32.752  1.00  0.00     0.093 A 
HETATM    6  S   UNL     1      -6.299   0.583 -33.801  1.00  0.00    -0.075 SA
HETATM    7  C   UNL     1      -5.838  -0.996 -34.061  1.00  0.00    -0.008 A 
HETATM    8  C   UNL     1      -4.710  -1.374 -33.385  1.00  0.00    -0.026 A 
HETATM    9  C   UNL     1      -6.443  -2.059 -34.898  1.00  0.00     0.047 C 
HETATM   10  C   UNL     1      -4.385  -2.796 -33.682  1.00  0.00     0.041 C 
HETATM   11  C   UNL     1      -4.172  -0.316 -32.594  1.00  0.00     0.072 A 
HETATM   12  C   UNL     1      -5.298  -3.112 -34.907  1.00  0.00     0.010 C 
BRANCH  11  13
HETATM   13  C   UNL     1      -3.001  -0.298 -31.716  1.00  0.00     0.252 C 
HETATM   14  N   UNL     1      -2.284  -1.447 -31.598  1.00  0.00    -0.366 N 
HETATM   15  H   UNL     1      -2.554  -2.322 -32.018  1.00  0.00     0.159 HD
HETATM   16  H   UNL     1      -1.499  -1.453 -30.959  1.00  0.00     0.159 HD
HETATM   17  O   UNL     1      -2.684   0.707 -31.078  1.00  0.00    -0.268 OA
ENDBRANCH  11  13
ENDBRANCH   2   5
BRANCH   1  18
HETATM   18  C   UNL     1      -4.886   3.968 -30.663  1.00  0.00     0.335 C 
BRANCH  18  19
HETATM   19  N   UNL     1      -3.405   3.972 -30.898  1.00  0.00    -0.057 N 
HETATM   20  H   UNL     1      -3.164   3.213 -31.557  1.00  0.00     0.278 HD
HETATM   21  H   UNL     1      -2.944   3.659 -30.027  1.00  0.00     0.278 HD
BRANCH  19  22
HETATM   22  C   UNL     1      -2.799   5.230 -31.425  1.00  0.00     0.239 C 
HETATM   23  C   UNL     1      -1.364   5.320 -30.924  1.00  0.00     0.047 C 
BRANCH  22  24
HETATM   24  C   UNL     1      -2.870   5.258 -32.915  1.00  0.00     0.082 A 
HETATM   25  O   UNL     1      -1.704   4.984 -33.579  1.00  0.00    -0.325 OA
HETATM   26  C   UNL     1      -1.980   5.041 -34.906  1.00  0.00     0.142 A 
HETATM   27  C   UNL     1      -3.309   5.331 -35.108  1.00  0.00     0.027 A 
HETATM   28  C   UNL     1      -3.888   5.468 -33.822  1.00  0.00     0.037 A 
ENDBRANCH  22  24
ENDBRANCH  19  22
ENDBRANCH  18  19
ENDBRANCH   1  18
TORSDOF 6
ENDMDL
MODEL 5
REMARK VINA RESULT:      -7.1      2.654      3.900
REMARK  6 active torsions:
REMARK  status: ('A' for Active; 'I' for Inactive)
REMARK    1  A    between atoms: C_2  and  N_3 
REMARK    2  A    between atoms: C_2  and  C_21 
REMARK    3  A    between atoms: N_3  and  C_6 
REMARK    4  A    between atoms: C_6  and  C_7 
REMARK       I    between atoms: C_7  and  N_8 
REMARK    5  A    between atoms: N_8  and  C_9 
REMARK    6  A    between atoms: C_16  and  C_17 
REMARK       I    between atoms: C_17  and  N_18 
ROOT
HETATM    1  C   UNL     1      -3.196   4.230 -32.363  1.00  0.00     0.248 C 
HETATM    2  N   UNL     1      -4.415   3.691 -32.033  1.00  0.00    -0.319 N 
HETATM    3  O   UNL     1      -2.454   3.949 -33.303  1.00  0.00    -0.271 OA
HETATM    4  H   UNL     1      -4.977   4.114 -31.290  1.00  0.00     0.169 HD
ENDROOT
BRANCH   2   5
HETATM    5  C   UNL     1      -5.087   2.668 -32.691  1.00  0.00     0.093 A 
HETATM    6  S   UNL     1      -6.131   2.987 -34.006  1.00  0.00    -0.075 SA
HETATM    7  C   UNL     1      -6.440   1.360 -34.185  1.00  0.00    -0.008 A 
HETATM    8  C   UNL     1      -5.788   0.559 -33.286  1.00  0.00    -0.026 A 
HETATM    9  C   UNL     1      -7.301   0.635 -35.149  1.00  0.00     0.047 C 
HETATM   10  C   UNL     1      -6.132  -0.869 -33.528  1.00  0.00     0.041 C 
HETATM   11  C   UNL     1      -4.978   1.307 -32.382  1.00  0.00     0.072 A 
HETATM   12  C   UNL     1      -6.823  -0.828 -34.926  1.00  0.00     0.010 C 
BRANCH  11  13
HETATM   13  C   UNL     1      -4.140   0.852 -31.271  1.00  0.00     0.252 C 
HETATM   14  N   UNL     1      -4.761   0.264 -30.214  1.00  0.00    -0.366 N 
HETATM   15  H   UNL     1      -5.761   0.192 -30.119  1.00  0.00     0.159 HD
HETATM   16  H   UNL     1      -4.192  -0.013 -29.424  1.00  0.00     0.159 HD
HETATM   17  O   UNL     1      -2.920   1.018 -31.268  1.00  0.00    -0.268 OA
ENDBRANCH  11  13
ENDBRANCH   2   5
BRANCH   1  18
HETATM   18  C   UNL     1      -2.775   5.391 -31.462  1.00  0.00     0.335 C 
BRANCH  18  19
HETATM   19  N   UNL     1      -1.575   4.977 -30.664  1.00  0.00    -0.057 N 
HETATM   20  H   UNL     1      -1.390   3.973 -30.825  1.00  0.00     0.278 HD
HETATM   21  H   UNL     1      -1.837   4.993 -29.664  1.00  0.00     0.278 HD
BRANCH  19  22
HETATM   22  C   UNL     1      -0.300   5.711 -30.915  1.00  0.00     0.239 C 
HETATM   23  C   UNL     1      -0.527   6.696 -32.056  1.00  0.00     0.047 C 
BRANCH  22  24
HETATM   24  C   UNL     1       0.160   6.397 -29.673  1.00  0.00     0.082 A 
HETATM   25  O   UNL     1       0.282   5.609 -28.560  1.00  0.00    -0.325 OA
HETATM   26  C   UNL     1       0.723   6.408 -27.555  1.00  0.00     0.142 A 
HETATM   27  C   UNL     1       0.903   7.694 -28.007  1.00  0.00     0.027 A 
HETATM   28  C   UNL     1       0.542   7.689 -29.377  1.00  0.00     0.037 A 
ENDBRANCH  22  24
ENDBRANCH  19  22
ENDBRANCH  18  19
ENDBRANCH   1  18
TORSDOF 6
ENDMDL
MODEL 6
REMARK VINA RESULT:      -6.9      3.695      7.480
REMARK  6 active torsions:
REMARK  status: ('A' for Active; 'I' for Inactive)
REMARK    1  A    between atoms: C_2  and  N_3 
REMARK    2  A    between atoms: C_2  and  C_21 
REMARK    3  A    between atoms: N_3  and  C_6 
REMARK    4  A    between atoms: C_6  and  C_7 
REMARK       I    between atoms: C_7  and  N_8 
REMARK    5  A    between atoms: N_8  and  C_9 
REMARK    6  A    between atoms: C_16  and  C_17 
REMARK       I    between atoms: C_17  and  N_18 
ROOT
HETATM    1  C   UNL     1      -8.796   1.248 -32.358  1.00  0.00     0.248 C 
HETATM    2  N   UNL     1      -7.679   1.177 -33.155  1.00  0.00    -0.319 N 
HETATM    3  O   UNL     1      -9.345   0.355 -31.713  1.00  0.00    -0.271 OA
HETATM    4  H   UNL     1      -7.265   2.034 -33.531  1.00  0.00     0.169 HD
ENDROOT
BRANCH   2   5
HETATM    5  C   UNL     1      -6.916   0.050 -33.433  1.00  0.00     0.093 A 
HETATM    6  S   UNL     1      -7.371  -1.057 -34.652  1.00  0.00    -0.075 SA
HETATM    7  C   UNL     1      -6.015  -1.978 -34.354  1.00  0.00    -0.008 A 
HETATM    8  C   UNL     1      -5.210  -1.492 -33.358  1.00  0.00    -0.026 A 
HETATM    9  C   UNL     1      -5.534  -3.231 -34.983  1.00  0.00     0.047 C 
HETATM   10  C   UNL     1      -4.033  -2.384 -33.170  1.00  0.00     0.041 C 
HETATM   11  C   UNL     1      -5.720  -0.289 -32.788  1.00  0.00     0.072 A 
HETATM   12  C   UNL     1      -4.079  -3.293 -34.436  1.00  0.00     0.010 C 
BRANCH  11  13
HETATM   13  C   UNL     1      -5.189   0.538 -31.704  1.00  0.00     0.252 C 
HETATM   14  N   UNL     1      -3.959   1.091 -31.878  1.00  0.00    -0.366 N 
HETATM   15  H   UNL     1      -3.367   0.904 -32.671  1.00  0.00     0.159 HD
HETATM   16  H   UNL     1      -3.568   1.629 -31.115  1.00  0.00     0.159 HD
HETATM   17  O   UNL     1      -5.810   0.710 -30.654  1.00  0.00    -0.268 OA
ENDBRANCH  11  13
ENDBRANCH   2   5
BRANCH   1  18
HETATM   18  C   UNL     1      -9.358   2.661 -32.214  1.00  0.00     0.335 C 
BRANCH  18  19
HETATM   19  N   UNL     1     -10.853   2.584 -32.121  1.00  0.00    -0.057 N 
HETATM   20  H   UNL     1     -11.178   3.211 -31.366  1.00  0.00     0.278 HD
HETATM   21  H   UNL     1     -11.100   1.650 -31.752  1.00  0.00     0.278 HD
BRANCH  19  22
HETATM   22  C   UNL     1     -11.633   2.921 -33.347  1.00  0.00     0.239 C 
HETATM   23  C   UNL     1     -10.657   3.114 -34.501  1.00  0.00     0.047 C 
BRANCH  22  24
HETATM   24  C   UNL     1     -12.633   1.852 -33.638  1.00  0.00     0.082 A 
HETATM   25  O   UNL     1     -12.212   0.564 -33.443  1.00  0.00    -0.325 OA
HETATM   26  C   UNL     1     -13.260  -0.245 -33.742  1.00  0.00     0.142 A 
HETATM   27  C   UNL     1     -14.354   0.502 -34.110  1.00  0.00     0.027 A 
HETATM   28  C   UNL     1     -13.952   1.859 -34.040  1.00  0.00     0.037 A 
ENDBRANCH  22  24
ENDBRANCH  19  22
ENDBRANCH  18  19
ENDBRANCH   1  18
TORSDOF 6
ENDMDL
MODEL 7
REMARK VINA RESULT:      -6.8      2.471      7.848
REMARK  6 active torsions:
REMARK  status: ('A' for Active; 'I' for Inactive)
REMARK    1  A    between atoms: C_2  and  N_3 
REMARK    2  A    between atoms: C_2  and  C_21 
REMARK    3  A    between atoms: N_3  and  C_6 
REMARK    4  A    between atoms: C_6  and  C_7 
REMARK       I    between atoms: C_7  and  N_8 
REMARK    5  A    between atoms: N_8  and  C_9 
REMARK    6  A    between atoms: C_16  and  C_17 
REMARK       I    between atoms: C_17  and  N_18 
ROOT
HETATM    1  C   UNL     1      -6.086   1.881 -32.056  1.00  0.00     0.248 C 
HETATM    2  N   UNL     1      -5.266   2.629 -32.864  1.00  0.00    -0.319 N 
HETATM    3  O   UNL     1      -6.278   1.979 -30.844  1.00  0.00    -0.271 OA
HETATM    4  H   UNL     1      -5.305   2.512 -33.880  1.00  0.00     0.169 HD
ENDROOT
BRANCH   2   5
HETATM    5  C   UNL     1      -4.434   3.674 -32.481  1.00  0.00     0.093 A 
HETATM    6  S   UNL     1      -2.952   3.386 -31.681  1.00  0.00    -0.075 SA
HETATM    7  C   UNL     1      -2.632   5.021 -31.638  1.00  0.00    -0.008 A 
HETATM    8  C   UNL     1      -3.604   5.802 -32.205  1.00  0.00    -0.026 A 
HETATM    9  C   UNL     1      -1.477   5.770 -31.091  1.00  0.00     0.047 C 
HETATM   10  C   UNL     1      -3.225   7.238 -32.113  1.00  0.00     0.041 C 
HETATM   11  C   UNL     1      -4.691   5.031 -32.712  1.00  0.00     0.072 A 
HETATM   12  C   UNL     1      -1.719   7.176 -31.710  1.00  0.00     0.010 C 
BRANCH  11  13
HETATM   13  C   UNL     1      -5.925   5.462 -33.370  1.00  0.00     0.252 C 
HETATM   14  N   UNL     1      -6.574   6.537 -32.849  1.00  0.00    -0.366 N 
HETATM   15  H   UNL     1      -6.298   7.002 -31.999  1.00  0.00     0.159 HD
HETATM   16  H   UNL     1      -7.451   6.813 -33.273  1.00  0.00     0.159 HD
HETATM   17  O   UNL     1      -6.386   4.863 -34.343  1.00  0.00    -0.268 OA
ENDBRANCH  11  13
ENDBRANCH   2   5
BRANCH   1  18
HETATM   18  C   UNL     1      -6.919   0.848 -32.814  1.00  0.00     0.335 C 
BRANCH  18  19
HETATM   19  N   UNL     1      -6.261  -0.494 -32.691  1.00  0.00    -0.057 N 
HETATM   20  H   UNL     1      -6.989  -1.218 -32.571  1.00  0.00     0.278 HD
HETATM   21  H   UNL     1      -5.771  -0.525 -31.781  1.00  0.00     0.278 HD
BRANCH  19  22
HETATM   22  C   UNL     1      -5.379  -0.929 -33.812  1.00  0.00     0.239 C 
HETATM   23  C   UNL     1      -3.931  -0.845 -33.347  1.00  0.00     0.047 C 
BRANCH  22  24
HETATM   24  C   UNL     1      -5.741  -2.307 -34.255  1.00  0.00     0.082 A 
HETATM   25  O   UNL     1      -4.716  -3.216 -34.294  1.00  0.00    -0.325 OA
HETATM   26  C   UNL     1      -5.249  -4.397 -34.699  1.00  0.00     0.142 A 
HETATM   27  C   UNL     1      -6.602  -4.267 -34.905  1.00  0.00     0.027 A 
HETATM   28  C   UNL     1      -6.923  -2.918 -34.615  1.00  0.00     0.037 A 
ENDBRANCH  22  24
ENDBRANCH  19  22
ENDBRANCH  18  19
ENDBRANCH   1  18
TORSDOF 6
ENDMDL
MODEL 8
REMARK VINA RESULT:      -6.8      2.327      8.064
REMARK  6 active torsions:
REMARK  status: ('A' for Active; 'I' for Inactive)
REMARK    1  A    between atoms: C_2  and  N_3 
REMARK    2  A    between atoms: C_2  and  C_21 
REMARK    3  A    between atoms: N_3  and  C_6 
REMARK    4  A    between atoms: C_6  and  C_7 
REMARK       I    between atoms: C_7  and  N_8 
REMARK    5  A    between atoms: N_8  and  C_9 
REMARK    6  A    between atoms: C_16  and  C_17 
REMARK       I    between atoms: C_17  and  N_18 
ROOT
HETATM    1  C   UNL     1      -3.974   1.642 -31.871  1.00  0.00     0.248 C 
HETATM    2  N   UNL     1      -4.362   2.852 -32.390  1.00  0.00    -0.319 N 
HETATM    3  O   UNL     1      -2.966   1.364 -31.223  1.00  0.00    -0.271 OA
HETATM    4  H   UNL     1      -5.293   2.958 -32.801  1.00  0.00     0.169 HD
ENDROOT
BRANCH   2   5
HETATM    5  C   UNL     1      -3.673   4.057 -32.316  1.00  0.00     0.093 A 
HETATM    6  S   UNL     1      -2.332   4.381 -33.324  1.00  0.00    -0.075 SA
HETATM    7  C   UNL     1      -2.167   5.898 -32.654  1.00  0.00    -0.008 A 
HETATM    8  C   UNL     1      -3.087   6.190 -31.683  1.00  0.00    -0.026 A 
HETATM    9  C   UNL     1      -1.195   6.981 -32.932  1.00  0.00     0.047 C 
HETATM   10  C   UNL     1      -2.853   7.560 -31.151  1.00  0.00     0.041 C 
HETATM   11  C   UNL     1      -3.994   5.114 -31.456  1.00  0.00     0.072 A 
HETATM   12  C   UNL     1      -1.865   8.173 -32.190  1.00  0.00     0.010 C 
BRANCH  11  13
HETATM   13  C   UNL     1      -5.104   5.002 -30.508  1.00  0.00     0.252 C 
HETATM   14  N   UNL     1      -4.836   5.223 -29.194  1.00  0.00    -0.366 N 
HETATM   15  H   UNL     1      -3.910   5.383 -28.830  1.00  0.00     0.159 HD
HETATM   16  H   UNL     1      -5.589   5.105 -28.529  1.00  0.00     0.159 HD
HETATM   17  O   UNL     1      -6.240   4.691 -30.872  1.00  0.00    -0.268 OA
ENDBRANCH  11  13
ENDBRANCH   2   5
BRANCH   1  18
HETATM   18  C   UNL     1      -5.002   0.529 -32.077  1.00  0.00     0.335 C 
BRANCH  18  19
HETATM   19  N   UNL     1      -5.181   0.298 -33.548  1.00  0.00    -0.057 N 
HETATM   20  H   UNL     1      -4.366  -0.225 -33.910  1.00  0.00     0.278 HD
HETATM   21  H   UNL     1      -5.086   1.210 -34.027  1.00  0.00     0.278 HD
BRANCH  19  22
HETATM   22  C   UNL     1      -6.409  -0.431 -33.981  1.00  0.00     0.239 C 
HETATM   23  C   UNL     1      -7.014   0.309 -35.168  1.00  0.00     0.047 C 
BRANCH  22  24
HETATM   24  C   UNL     1      -6.082  -1.847 -34.318  1.00  0.00     0.082 A 
HETATM   25  O   UNL     1      -4.758  -2.191 -34.255  1.00  0.00    -0.325 OA
HETATM   26  C   UNL     1      -4.675  -3.508 -34.575  1.00  0.00     0.142 A 
HETATM   27  C   UNL     1      -5.925  -4.021 -34.825  1.00  0.00     0.027 A 
HETATM   28  C   UNL     1      -6.838  -2.950 -34.656  1.00  0.00     0.037 A 
ENDBRANCH  22  24
ENDBRANCH  19  22
ENDBRANCH  18  19
ENDBRANCH   1  18
TORSDOF 6
ENDMDL
MODEL 9
REMARK VINA RESULT:      -6.8      2.692      8.036
REMARK  6 active torsions:
REMARK  status: ('A' for Active; 'I' for Inactive)
REMARK    1  A    between atoms: C_2  and  N_3 
REMARK    2  A    between atoms: C_2  and  C_21 
REMARK    3  A    between atoms: N_3  and  C_6 
REMARK    4  A    between atoms: C_6  and  C_7 
REMARK       I    between atoms: C_7  and  N_8 
REMARK    5  A    between atoms: N_8  and  C_9 
REMARK    6  A    between atoms: C_16  and  C_17 
REMARK       I    between atoms: C_17  and  N_18 
ROOT
HETATM    1  C   UNL     1      -5.223   2.935 -32.953  1.00  0.00     0.248 C 
HETATM    2  N   UNL     1      -5.029   4.290 -33.060  1.00  0.00    -0.319 N 
HETATM    3  O   UNL     1      -4.535   2.098 -32.369  1.00  0.00    -0.271 OA
HETATM    4  H   UNL     1      -5.756   4.879 -33.474  1.00  0.00     0.169 HD
ENDROOT
BRANCH   2   5
HETATM    5  C   UNL     1      -3.976   5.032 -32.538  1.00  0.00     0.093 A 
HETATM    6  S   UNL     1      -3.896   5.422 -30.877  1.00  0.00    -0.075 SA
HETATM    7  C   UNL     1      -2.446   6.209 -31.109  1.00  0.00    -0.008 A 
HETATM    8  C   UNL     1      -1.999   6.201 -32.403  1.00  0.00    -0.026 A 
HETATM    9  C   UNL     1      -1.561   6.915 -30.153  1.00  0.00     0.047 C 
HETATM   10  C   UNL     1      -0.704   6.928 -32.503  1.00  0.00     0.041 C 
HETATM   11  C   UNL     1      -2.889   5.512 -33.279  1.00  0.00     0.072 A 
HETATM   12  C   UNL     1      -0.274   7.079 -31.011  1.00  0.00     0.010 C 
BRANCH  11  13
HETATM   13  C   UNL     1      -2.802   5.286 -34.722  1.00  0.00     0.252 C 
HETATM   14  N   UNL     1      -1.604   4.887 -35.227  1.00  0.00    -0.366 N 
HETATM   15  H   UNL     1      -0.762   4.813 -34.679  1.00  0.00     0.159 HD
HETATM   16  H   UNL     1      -1.526   4.771 -36.229  1.00  0.00     0.159 HD
HETATM   17  O   UNL     1      -3.764   5.475 -35.468  1.00  0.00    -0.268 OA
ENDBRANCH  11  13
ENDBRANCH   2   5
BRANCH   1  18
HETATM   18  C   UNL     1      -6.524   2.449 -33.590  1.00  0.00     0.335 C 
BRANCH  18  19
HETATM   19  N   UNL     1      -7.383   1.826 -32.530  1.00  0.00    -0.057 N 
HETATM   20  H   UNL     1      -8.102   2.507 -32.233  1.00  0.00     0.278 HD
HETATM   21  H   UNL     1      -6.810   1.727 -31.675  1.00  0.00     0.278 HD
BRANCH  19  22
HETATM   22  C   UNL     1      -8.087   0.558 -32.877  1.00  0.00     0.239 C 
HETATM   23  C   UNL     1      -9.274   0.894 -33.771  1.00  0.00     0.047 C 
BRANCH  22  24
HETATM   24  C   UNL     1      -7.147  -0.396 -33.537  1.00  0.00     0.082 A 
HETATM   25  O   UNL     1      -6.102  -0.838 -32.771  1.00  0.00    -0.325 OA
HETATM   26  C   UNL     1      -5.384  -1.698 -33.538  1.00  0.00     0.142 A 
HETATM   27  C   UNL     1      -5.961  -1.830 -34.779  1.00  0.00     0.027 A 
HETATM   28  C   UNL     1      -7.103  -0.991 -34.780  1.00  0.00     0.037 A 
ENDBRANCH  22  24
ENDBRANCH  19  22
ENDBRANCH  18  19
ENDBRANCH   1  18
TORSDOF 6
ENDMDL
MODEL 10
REMARK VINA RESULT:      -6.8      2.026      2.814
REMARK  6 active torsions:
REMARK  status: ('A' for Active; 'I' for Inactive)
REMARK    1  A    between atoms: C_2  and  N_3 
REMARK    2  A    between atoms: C_2  and  C_21 
REMARK    3  A    between atoms: N_3  and  C_6 
REMARK    4  A    between atoms: C_6  and  C_7 
REMARK       I    between atoms: C_7  and  N_8 
REMARK    5  A    between atoms: N_8  and  C_9 
REMARK    6  A    between atoms: C_16  and  C_17 
REMARK       I    between atoms: C_17  and  N_18 
ROOT
HETATM    1  C   UNL     1      -3.027   3.423 -32.316  1.00  0.00     0.248 C 
HETATM    2  N   UNL     1      -3.883   2.460 -31.841  1.00  0.00    -0.319 N 
HETATM    3  O   UNL     1      -2.546   3.545 -33.441  1.00  0.00    -0.271 OA
HETATM    4  H   UNL     1      -4.300   2.559 -30.912  1.00  0.00     0.169 HD
ENDROOT
BRANCH   2   5
HETATM    5  C   UNL     1      -4.391   1.370 -32.539  1.00  0.00     0.093 A 
HETATM    6  S   UNL     1      -3.546  -0.113 -32.615  1.00  0.00    -0.075 SA
HETATM    7  C   UNL     1      -4.768  -0.789 -33.523  1.00  0.00    -0.008 A 
HETATM    8  C   UNL     1      -5.811   0.058 -33.786  1.00  0.00    -0.026 A 
HETATM    9  C   UNL     1      -4.916  -2.148 -34.094  1.00  0.00     0.047 C 
HETATM   10  C   UNL     1      -6.845  -0.638 -34.601  1.00  0.00     0.041 C 
HETATM   11  C   UNL     1      -5.616   1.351 -33.217  1.00  0.00     0.072 A 
HETATM   12  C   UNL     1      -6.418  -2.135 -34.497  1.00  0.00     0.010 C 
BRANCH  11  13
HETATM   13  C   UNL     1      -6.465   2.542 -33.271  1.00  0.00     0.252 C 
HETATM   14  N   UNL     1      -7.675   2.481 -32.655  1.00  0.00    -0.366 N 
HETATM   15  H   UNL     1      -8.049   1.646 -32.234  1.00  0.00     0.159 HD
HETATM   16  H   UNL     1      -8.285   3.285 -32.726  1.00  0.00     0.159 HD
HETATM   17  O   UNL     1      -6.120   3.559 -33.875  1.00  0.00    -0.268 OA
ENDBRANCH  11  13
ENDBRANCH   2   5
BRANCH   1  18
HETATM   18  C   UNL     1      -2.717   4.521 -31.300  1.00  0.00     0.335 C 
BRANCH  18  19
HETATM   19  N   UNL     1      -2.741   5.849 -31.996  1.00  0.00    -0.057 N 
HETATM   20  H   UNL     1      -3.295   6.517 -31.434  1.00  0.00     0.278 HD
HETATM   21  H   UNL     1      -3.318   5.751 -32.849  1.00  0.00     0.278 HD
BRANCH  19  22
HETATM   22  C   UNL     1      -1.427   6.494 -32.286  1.00  0.00     0.239 C 
HETATM   23  C   UNL     1      -1.655   7.630 -33.275  1.00  0.00     0.047 C 
BRANCH  22  24
HETATM   24  C   UNL     1      -0.793   6.975 -31.024  1.00  0.00     0.082 A 
HETATM   25  O   UNL     1      -1.583   7.739 -30.206  1.00  0.00    -0.325 OA
HETATM   26  C   UNL     1      -0.836   8.057 -29.118  1.00  0.00     0.142 A 
HETATM   27  C   UNL     1       0.416   7.496 -29.214  1.00  0.00     0.027 A 
HETATM   28  C   UNL     1       0.445   6.794 -30.444  1.00  0.00     0.037 A 
ENDBRANCH  22  24
ENDBRANCH  19  22
ENDBRANCH  18  19
ENDBRANCH   1  18
TORSDOF 6
ENDMDL
