MODEL 1
REMARK VINA RESULT:     -10.7      0.000      0.000
REMARK  6 active torsions:
REMARK  status: ('A' for Active; 'I' for Inactive)
REMARK    1  A    between atoms: O_2  and  C_3 
REMARK    2  A    between atoms: C_6  and  N_7 
REMARK    3  A    between atoms: C_16  and  C_17 
REMARK    4  A    between atoms: C_17  and  C_18 
REMARK    5  A    between atoms: C_26  and  C_27 
REMARK    6  A    between atoms: C_26  and  C_31 
ROOT
HETATM    1  N   UNL     1      -8.877   1.968 -32.032  1.00  0.00    -0.249 N 
HETATM    2  C   UNL     1      -9.064   2.689 -30.841  1.00  0.00     0.335 C 
HETATM    3  O   UNL     1     -10.109   3.221 -30.478  1.00  0.00    -0.246 OA
HETATM    4  N   UNL     1      -7.951   2.840 -30.060  1.00  0.00    -0.274 N 
HETATM    5  C   UNL     1      -6.685   2.569 -30.452  1.00  0.00     0.262 C 
HETATM    6  O   UNL     1      -5.699   3.005 -29.884  1.00  0.00    -0.267 OA
HETATM    7  C   UNL     1      -6.534   1.692 -31.612  1.00  0.00     0.101 C 
HETATM    8  C   UNL     1      -7.626   1.437 -32.346  1.00  0.00     0.132 C 
HETATM    9  N   UNL     1      -7.520   0.573 -33.418  1.00  0.00    -0.331 N 
HETATM   10  C   UNL     1      -6.374   0.075 -33.831  1.00  0.00     0.084 C 
HETATM   11  N   UNL     1      -5.248   0.308 -33.193  1.00  0.00    -0.351 N 
HETATM   12  H   UNL     1      -4.375  -0.075 -33.568  1.00  0.00     0.162 HD
HETATM   13  C   UNL     1      -5.168   1.099 -31.876  1.00  0.00     0.264 C 
HETATM   14  H   UNL     1      -8.069   3.460 -29.265  1.00  0.00     0.173 HD
HETATM   15  H   UNL     1      -8.356   0.327 -33.941  1.00  0.00     0.168 HD
ENDROOT
BRANCH   1  16
HETATM   16  C   UNL     1     -10.020   1.817 -32.891  1.00  0.00     0.045 A 
HETATM   17  C   UNL     1     -10.776   0.635 -32.879  1.00  0.00     0.033 A 
HETATM   18  C   UNL     1     -11.933   0.530 -33.655  1.00  0.00     0.039 A 
HETATM   19  C   UNL     1     -12.353   1.591 -34.459  1.00  0.00     0.068 A 
HETATM   20  C   UNL     1     -11.584   2.752 -34.508  1.00  0.00     0.039 A 
HETATM   21  C   UNL     1     -10.422   2.861 -33.735  1.00  0.00     0.033 A 
BRANCH  19  22
HETATM   22  O   UNL     1     -13.515   1.365 -35.140  1.00  0.00    -0.356 OA
HETATM   23  C   UNL     1     -14.622   0.880 -34.388  1.00  0.00     0.210 C 
ENDBRANCH  19  22
ENDBRANCH   1  16
BRANCH  13  24
HETATM   24  C   UNL     1      -4.745   0.109 -30.786  1.00  0.00     0.426 C 
HETATM   25  F   UNL     1      -5.134  -1.141 -31.157  1.00  0.00    -0.168 F 
HETATM   26  F   UNL     1      -3.398   0.070 -30.679  1.00  0.00    -0.168 F 
HETATM   27  F   UNL     1      -5.263   0.339 -29.574  1.00  0.00    -0.168 F 
ENDBRANCH  13  24
BRANCH  13  28
HETATM   28  C   UNL     1      -4.010   2.094 -32.019  1.00  0.00     0.426 C 
HETATM   29  F   UNL     1      -4.440   3.219 -32.639  1.00  0.00    -0.168 F 
HETATM   30  F   UNL     1      -3.385   2.436 -30.888  1.00  0.00    -0.168 F 
HETATM   31  F   UNL     1      -3.073   1.547 -32.844  1.00  0.00    -0.168 F 
ENDBRANCH  13  28
BRANCH  10  32
HETATM   32  C   UNL     1      -6.358  -0.762 -35.068  1.00  0.00     0.114 C 
BRANCH  32  33
HETATM   33  C   UNL     1      -5.924  -2.178 -34.780  1.00  0.00    -0.051 A 
HETATM   34  C   UNL     1      -4.601  -2.450 -34.400  1.00  0.00     0.007 A 
HETATM   35  C   UNL     1      -4.187  -3.762 -34.174  1.00  0.00     0.001 A 
HETATM   36  C   UNL     1      -5.086  -4.814 -34.327  1.00  0.00     0.000 A 
HETATM   37  C   UNL     1      -6.402  -4.557 -34.703  1.00  0.00     0.001 A 
HETATM   38  C   UNL     1      -6.823  -3.245 -34.929  1.00  0.00     0.007 A 
ENDBRANCH  32  33
ENDBRANCH  10  32
TORSDOF 6
ENDMDL
MODEL 2
REMARK VINA RESULT:     -10.1      3.262      6.552
REMARK  6 active torsions:
REMARK  status: ('A' for Active; 'I' for Inactive)
REMARK    1  A    between atoms: O_2  and  C_3 
REMARK    2  A    between atoms: C_6  and  N_7 
REMARK    3  A    between atoms: C_16  and  C_17 
REMARK    4  A    between atoms: C_17  and  C_18 
REMARK    5  A    between atoms: C_26  and  C_27 
REMARK    6  A    between atoms: C_26  and  C_31 
ROOT
HETATM    1  N   UNL     1      -5.076   3.935 -33.067  1.00  0.00    -0.249 N 
HETATM    2  C   UNL     1      -5.930   4.899 -33.626  1.00  0.00     0.335 C 
HETATM    3  O   UNL     1      -5.653   6.078 -33.825  1.00  0.00    -0.246 OA
HETATM    4  N   UNL     1      -7.196   4.469 -33.918  1.00  0.00    -0.274 N 
HETATM    5  C   UNL     1      -7.736   3.302 -33.499  1.00  0.00     0.262 C 
HETATM    6  O   UNL     1      -8.935   3.084 -33.485  1.00  0.00    -0.267 OA
HETATM    7  C   UNL     1      -6.799   2.268 -33.061  1.00  0.00     0.101 C 
HETATM    8  C   UNL     1      -5.524   2.629 -32.862  1.00  0.00     0.132 C 
HETATM    9  N   UNL     1      -4.609   1.662 -32.496  1.00  0.00    -0.331 N 
HETATM   10  C   UNL     1      -4.945   0.420 -32.217  1.00  0.00     0.084 C 
HETATM   11  N   UNL     1      -6.182  -0.006 -32.346  1.00  0.00    -0.351 N 
HETATM   12  H   UNL     1      -6.405  -0.973 -32.088  1.00  0.00     0.162 HD
HETATM   13  C   UNL     1      -7.324   0.859 -32.908  1.00  0.00     0.264 C 
HETATM   14  H   UNL     1      -7.837   5.200 -34.210  1.00  0.00     0.173 HD
HETATM   15  H   UNL     1      -3.629   1.917 -32.403  1.00  0.00     0.168 HD
ENDROOT
BRANCH   1  16
HETATM   16  C   UNL     1      -3.748   4.361 -32.720  1.00  0.00     0.045 A 
HETATM   17  C   UNL     1      -3.403   4.627 -31.386  1.00  0.00     0.033 A 
HETATM   18  C   UNL     1      -2.088   4.956 -31.048  1.00  0.00     0.039 A 
HETATM   19  C   UNL     1      -1.098   5.036 -32.029  1.00  0.00     0.068 A 
HETATM   20  C   UNL     1      -1.441   4.814 -33.361  1.00  0.00     0.039 A 
HETATM   21  C   UNL     1      -2.759   4.486 -33.704  1.00  0.00     0.033 A 
BRANCH  19  22
HETATM   22  O   UNL     1       0.148   5.338 -31.558  1.00  0.00    -0.356 OA
HETATM   23  C   UNL     1       0.344   5.258 -30.150  1.00  0.00     0.210 C 
ENDBRANCH  19  22
ENDBRANCH   1  16
BRANCH  13  24
HETATM   24  C   UNL     1      -7.731   0.243 -34.250  1.00  0.00     0.426 C 
HETATM   25  F   UNL     1      -6.784   0.550 -35.178  1.00  0.00    -0.168 F 
HETATM   26  F   UNL     1      -7.754  -1.107 -34.164  1.00  0.00    -0.168 F 
HETATM   27  F   UNL     1      -8.906   0.659 -34.736  1.00  0.00    -0.168 F 
ENDBRANCH  13  24
BRANCH  13  28
HETATM   28  C   UNL     1      -8.526   0.678 -31.974  1.00  0.00     0.426 C 
HETATM   29  F   UNL     1      -8.609   1.724 -31.117  1.00  0.00    -0.168 F 
HETATM   30  F   UNL     1      -9.712   0.510 -32.568  1.00  0.00    -0.168 F 
HETATM   31  F   UNL     1      -8.308  -0.424 -31.201  1.00  0.00    -0.168 F 
ENDBRANCH  13  28
BRANCH  10  32
HETATM   32  C   UNL     1      -3.892  -0.517 -31.724  1.00  0.00     0.114 C 
BRANCH  32  33
HETATM   33  C   UNL     1      -3.851  -1.789 -32.534  1.00  0.00    -0.051 A 
HETATM   34  C   UNL     1      -4.439  -1.836 -33.808  1.00  0.00     0.007 A 
HETATM   35  C   UNL     1      -4.439  -3.022 -34.541  1.00  0.00     0.001 A 
HETATM   36  C   UNL     1      -3.856  -4.171 -34.011  1.00  0.00     0.000 A 
HETATM   37  C   UNL     1      -3.269  -4.135 -32.750  1.00  0.00     0.001 A 
HETATM   38  C   UNL     1      -3.264  -2.950 -32.011  1.00  0.00     0.007 A 
ENDBRANCH  32  33
ENDBRANCH  10  32
TORSDOF 6
ENDMDL
MODEL 3
REMARK VINA RESULT:      -9.4      3.450      6.446
REMARK  6 active torsions:
REMARK  status: ('A' for Active; 'I' for Inactive)
REMARK    1  A    between atoms: O_2  and  C_3 
REMARK    2  A    between atoms: C_6  and  N_7 
REMARK    3  A    between atoms: C_16  and  C_17 
REMARK    4  A    between atoms: C_17  and  C_18 
REMARK    5  A    between atoms: C_26  and  C_27 
REMARK    6  A    between atoms: C_26  and  C_31 
ROOT
HETATM    1  N   UNL     1      -7.111   1.516 -32.154  1.00  0.00    -0.249 N 
HETATM    2  C   UNL     1      -8.348   1.395 -31.502  1.00  0.00     0.335 C 
HETATM    3  O   UNL     1      -9.117   0.441 -31.587  1.00  0.00    -0.246 OA
HETATM    4  N   UNL     1      -8.731   2.474 -30.753  1.00  0.00    -0.274 N 
HETATM    5  C   UNL     1      -8.145   3.693 -30.791  1.00  0.00     0.262 C 
HETATM    6  O   UNL     1      -8.680   4.708 -30.382  1.00  0.00    -0.267 OA
HETATM    7  C   UNL     1      -6.792   3.750 -31.345  1.00  0.00     0.101 C 
HETATM    8  C   UNL     1      -6.342   2.671 -32.000  1.00  0.00     0.132 C 
HETATM    9  N   UNL     1      -5.052   2.681 -32.490  1.00  0.00    -0.331 N 
HETATM   10  C   UNL     1      -4.274   3.743 -32.451  1.00  0.00     0.084 C 
HETATM   11  N   UNL     1      -4.654   4.857 -31.863  1.00  0.00    -0.351 N 
HETATM   12  H   UNL     1      -4.029   5.668 -31.884  1.00  0.00     0.162 HD
HETATM   13  C   UNL     1      -5.983   5.003 -31.101  1.00  0.00     0.264 C 
HETATM   14  H   UNL     1      -9.676   2.424 -30.385  1.00  0.00     0.173 HD
HETATM   15  H   UNL     1      -4.683   1.844 -32.933  1.00  0.00     0.168 HD
ENDROOT
BRANCH   1  16
HETATM   16  C   UNL     1      -6.692   0.412 -32.974  1.00  0.00     0.045 A 
HETATM   17  C   UNL     1      -5.877  -0.603 -32.451  1.00  0.00     0.033 A 
HETATM   18  C   UNL     1      -5.546  -1.714 -33.230  1.00  0.00     0.039 A 
HETATM   19  C   UNL     1      -6.010  -1.831 -34.541  1.00  0.00     0.068 A 
HETATM   20  C   UNL     1      -6.785  -0.807 -35.081  1.00  0.00     0.039 A 
HETATM   21  C   UNL     1      -7.117   0.310 -34.305  1.00  0.00     0.033 A 
BRANCH  19  22
HETATM   22  O   UNL     1      -5.637  -2.980 -35.178  1.00  0.00    -0.356 OA
HETATM   23  C   UNL     1      -6.485  -4.113 -35.019  1.00  0.00     0.210 C 
ENDBRANCH  19  22
ENDBRANCH   1  16
BRANCH  13  24
HETATM   24  C   UNL     1      -5.631   5.188 -29.622  1.00  0.00     0.426 C 
HETATM   25  F   UNL     1      -5.395   3.965 -29.073  1.00  0.00    -0.168 F 
HETATM   26  F   UNL     1      -4.481   5.889 -29.493  1.00  0.00    -0.168 F 
HETATM   27  F   UNL     1      -6.575   5.777 -28.879  1.00  0.00    -0.168 F 
ENDBRANCH  13  24
BRANCH  13  28
HETATM   28  C   UNL     1      -6.618   6.323 -31.556  1.00  0.00     0.426 C 
HETATM   29  F   UNL     1      -7.367   6.119 -32.665  1.00  0.00    -0.168 F 
HETATM   30  F   UNL     1      -7.358   6.963 -30.645  1.00  0.00    -0.168 F 
HETATM   31  F   UNL     1      -5.620   7.174 -31.929  1.00  0.00    -0.168 F 
ENDBRANCH  13  28
BRANCH  10  32
HETATM   32  C   UNL     1      -2.935   3.678 -33.108  1.00  0.00     0.114 C 
BRANCH  32  33
HETATM   33  C   UNL     1      -2.056   4.835 -32.703  1.00  0.00    -0.051 A 
HETATM   34  C   UNL     1      -1.833   5.899 -33.590  1.00  0.00     0.007 A 
HETATM   35  C   UNL     1      -0.987   6.949 -33.234  1.00  0.00     0.001 A 
HETATM   36  C   UNL     1      -0.356   6.947 -31.993  1.00  0.00     0.000 A 
HETATM   37  C   UNL     1      -0.570   5.898 -31.104  1.00  0.00     0.001 A 
HETATM   38  C   UNL     1      -1.417   4.844 -31.455  1.00  0.00     0.007 A 
ENDBRANCH  32  33
ENDBRANCH  10  32
TORSDOF 6
ENDMDL
MODEL 4
REMARK VINA RESULT:      -9.2      6.698      9.068
REMARK  6 active torsions:
REMARK  status: ('A' for Active; 'I' for Inactive)
REMARK    1  A    between atoms: O_2  and  C_3 
REMARK    2  A    between atoms: C_6  and  N_7 
REMARK    3  A    between atoms: C_16  and  C_17 
REMARK    4  A    between atoms: C_17  and  C_18 
REMARK    5  A    between atoms: C_26  and  C_27 
REMARK    6  A    between atoms: C_26  and  C_31 
ROOT
HETATM    1  N   UNL     1      -3.882   6.888 -28.787  1.00  0.00    -0.249 N 
HETATM    2  C   UNL     1      -4.637   7.006 -27.609  1.00  0.00     0.335 C 
HETATM    3  O   UNL     1      -5.847   6.821 -27.508  1.00  0.00    -0.246 OA
HETATM    4  N   UNL     1      -3.947   7.415 -26.501  1.00  0.00    -0.274 N 
HETATM    5  C   UNL     1      -2.695   7.929 -26.512  1.00  0.00     0.262 C 
HETATM    6  O   UNL     1      -2.228   8.577 -25.593  1.00  0.00    -0.267 OA
HETATM    7  C   UNL     1      -1.888   7.656 -27.701  1.00  0.00     0.101 C 
HETATM    8  C   UNL     1      -2.513   7.157 -28.776  1.00  0.00     0.132 C 
HETATM    9  N   UNL     1      -1.765   6.846 -29.895  1.00  0.00    -0.331 N 
HETATM   10  C   UNL     1      -0.482   7.122 -30.004  1.00  0.00     0.084 C 
HETATM   11  N   UNL     1       0.198   7.650 -29.011  1.00  0.00    -0.351 N 
HETATM   12  H   UNL     1       1.187   7.877 -29.151  1.00  0.00     0.162 HD
HETATM   13  C   UNL     1      -0.400   7.913 -27.618  1.00  0.00     0.264 C 
HETATM   14  H   UNL     1      -4.522   7.610 -25.688  1.00  0.00     0.173 HD
HETATM   15  H   UNL     1      -2.222   6.409 -30.691  1.00  0.00     0.168 HD
ENDROOT
BRANCH   1  16
HETATM   16  C   UNL     1      -4.583   6.489 -29.977  1.00  0.00     0.045 A 
HETATM   17  C   UNL     1      -5.059   7.446 -30.885  1.00  0.00     0.033 A 
HETATM   18  C   UNL     1      -5.663   7.046 -32.080  1.00  0.00     0.039 A 
HETATM   19  C   UNL     1      -5.811   5.692 -32.387  1.00  0.00     0.068 A 
HETATM   20  C   UNL     1      -5.378   4.736 -31.471  1.00  0.00     0.039 A 
HETATM   21  C   UNL     1      -4.775   5.132 -30.270  1.00  0.00     0.033 A 
BRANCH  19  22
HETATM   22  O   UNL     1      -6.389   5.442 -33.598  1.00  0.00    -0.356 OA
HETATM   23  C   UNL     1      -7.758   5.049 -33.594  1.00  0.00     0.210 C 
ENDBRANCH  19  22
ENDBRANCH   1  16
BRANCH  13  24
HETATM   24  C   UNL     1       0.300   6.961 -26.644  1.00  0.00     0.426 C 
HETATM   25  F   UNL     1       1.485   6.572 -27.190  1.00  0.00    -0.168 F 
HETATM   26  F   UNL     1       0.605   7.601 -25.493  1.00  0.00    -0.168 F 
HETATM   27  F   UNL     1      -0.379   5.848 -26.346  1.00  0.00    -0.168 F 
ENDBRANCH  13  24
BRANCH  13  28
HETATM   28  C   UNL     1       0.024   9.329 -27.207  1.00  0.00     0.426 C 
HETATM   29  F   UNL     1      -0.717  10.246 -27.874  1.00  0.00    -0.168 F 
HETATM   30  F   UNL     1      -0.026   9.602 -25.900  1.00  0.00    -0.168 F 
HETATM   31  F   UNL     1       1.312   9.525 -27.608  1.00  0.00    -0.168 F 
ENDBRANCH  13  28
BRANCH  10  32
HETATM   32  C   UNL     1       0.206   6.842 -31.300  1.00  0.00     0.114 C 
BRANCH  32  33
HETATM   33  C   UNL     1      -0.761   6.364 -32.354  1.00  0.00    -0.051 A 
HETATM   34  C   UNL     1      -1.342   7.277 -33.248  1.00  0.00     0.007 A 
HETATM   35  C   UNL     1      -2.267   6.844 -34.197  1.00  0.00     0.001 A 
HETATM   36  C   UNL     1      -2.624   5.499 -34.262  1.00  0.00     0.000 A 
HETATM   37  C   UNL     1      -2.053   4.584 -33.381  1.00  0.00     0.001 A 
HETATM   38  C   UNL     1      -1.125   5.011 -32.430  1.00  0.00     0.007 A 
ENDBRANCH  32  33
ENDBRANCH  10  32
TORSDOF 6
ENDMDL
MODEL 5
REMARK VINA RESULT:      -9.1      2.399      3.275
REMARK  6 active torsions:
REMARK  status: ('A' for Active; 'I' for Inactive)
REMARK    1  A    between atoms: O_2  and  C_3 
REMARK    2  A    between atoms: C_6  and  N_7 
REMARK    3  A    between atoms: C_16  and  C_17 
REMARK    4  A    between atoms: C_17  and  C_18 
REMARK    5  A    between atoms: C_26  and  C_27 
REMARK    6  A    between atoms: C_26  and  C_31 
ROOT
HETATM    1  N   UNL     1      -9.541   4.518 -33.365  1.00  0.00    -0.249 N 
HETATM    2  C   UNL     1      -9.521   5.908 -33.565  1.00  0.00     0.335 C 
HETATM    3  O   UNL     1     -10.418   6.576 -34.070  1.00  0.00    -0.246 OA
HETATM    4  N   UNL     1      -8.362   6.541 -33.204  1.00  0.00    -0.274 N 
HETATM    5  C   UNL     1      -7.197   5.920 -32.909  1.00  0.00     0.262 C 
HETATM    6  O   UNL     1      -6.117   6.483 -32.911  1.00  0.00    -0.267 OA
HETATM    7  C   UNL     1      -7.283   4.502 -32.562  1.00  0.00     0.101 C 
HETATM    8  C   UNL     1      -8.438   3.869 -32.808  1.00  0.00     0.132 C 
HETATM    9  N   UNL     1      -8.561   2.543 -32.444  1.00  0.00    -0.331 N 
HETATM   10  C   UNL     1      -7.560   1.829 -31.973  1.00  0.00     0.084 C 
HETATM   11  N   UNL     1      -6.380   2.362 -31.741  1.00  0.00    -0.351 N 
HETATM   12  H   UNL     1      -5.621   1.762 -31.403  1.00  0.00     0.162 HD
HETATM   13  C   UNL     1      -6.078   3.861 -31.910  1.00  0.00     0.264 C 
HETATM   14  H   UNL     1      -8.314   7.521 -33.461  1.00  0.00     0.173 HD
HETATM   15  H   UNL     1      -9.454   2.075 -32.571  1.00  0.00     0.168 HD
ENDROOT
BRANCH   1  16
HETATM   16  C   UNL     1     -10.731   3.817 -33.762  1.00  0.00     0.045 A 
HETATM   17  C   UNL     1     -10.888   3.354 -35.077  1.00  0.00     0.033 A 
HETATM   18  C   UNL     1     -12.010   2.600 -35.431  1.00  0.00     0.039 A 
HETATM   19  C   UNL     1     -12.996   2.302 -34.489  1.00  0.00     0.068 A 
HETATM   20  C   UNL     1     -12.868   2.794 -33.192  1.00  0.00     0.039 A 
HETATM   21  C   UNL     1     -11.747   3.553 -32.833  1.00  0.00     0.033 A 
BRANCH  19  22
HETATM   22  O   UNL     1     -14.021   1.533 -34.961  1.00  0.00    -0.356 OA
HETATM   23  C   UNL     1     -14.865   0.915 -33.995  1.00  0.00     0.210 C 
ENDBRANCH  19  22
ENDBRANCH   1  16
BRANCH  13  24
HETATM   24  C   UNL     1      -5.809   4.423 -30.510  1.00  0.00     0.426 C 
HETATM   25  F   UNL     1      -7.000   4.739 -29.931  1.00  0.00    -0.168 F 
HETATM   26  F   UNL     1      -5.243   3.480 -29.723  1.00  0.00    -0.168 F 
HETATM   27  F   UNL     1      -5.049   5.523 -30.473  1.00  0.00    -0.168 F 
ENDBRANCH  13  24
BRANCH  13  28
HETATM   28  C   UNL     1      -4.753   3.969 -32.673  1.00  0.00     0.426 C 
HETATM   29  F   UNL     1      -4.983   3.947 -34.008  1.00  0.00    -0.168 F 
HETATM   30  F   UNL     1      -3.992   5.030 -32.384  1.00  0.00    -0.168 F 
HETATM   31  F   UNL     1      -4.009   2.859 -32.403  1.00  0.00    -0.168 F 
ENDBRANCH  13  28
BRANCH  10  32
HETATM   32  C   UNL     1      -7.773   0.374 -31.715  1.00  0.00     0.114 C 
BRANCH  32  33
HETATM   33  C   UNL     1      -6.944  -0.485 -32.636  1.00  0.00    -0.051 A 
HETATM   34  C   UNL     1      -5.612  -0.789 -32.314  1.00  0.00     0.007 A 
HETATM   35  C   UNL     1      -4.831  -1.548 -33.184  1.00  0.00     0.001 A 
HETATM   36  C   UNL     1      -5.369  -2.009 -34.384  1.00  0.00     0.000 A 
HETATM   37  C   UNL     1      -6.689  -1.715 -34.714  1.00  0.00     0.001 A 
HETATM   38  C   UNL     1      -7.477  -0.956 -33.845  1.00  0.00     0.007 A 
ENDBRANCH  32  33
ENDBRANCH  10  32
TORSDOF 6
ENDMDL
MODEL 6
REMARK VINA RESULT:      -9.0      4.497      6.021
REMARK  6 active torsions:
REMARK  status: ('A' for Active; 'I' for Inactive)
REMARK    1  A    between atoms: O_2  and  C_3 
REMARK    2  A    between atoms: C_6  and  N_7 
REMARK    3  A    between atoms: C_16  and  C_17 
REMARK    4  A    between atoms: C_17  and  C_18 
REMARK    5  A    between atoms: C_26  and  C_27 
REMARK    6  A    between atoms: C_26  and  C_31 
ROOT
HETATM    1  N   UNL     1      -5.391   6.333 -31.243  1.00  0.00    -0.249 N 
HETATM    2  C   UNL     1      -5.383   7.704 -30.942  1.00  0.00     0.335 C 
HETATM    3  O   UNL     1      -6.340   8.358 -30.537  1.00  0.00    -0.246 OA
HETATM    4  N   UNL     1      -4.204   8.356 -31.182  1.00  0.00    -0.274 N 
HETATM    5  C   UNL     1      -3.166   7.850 -31.887  1.00  0.00     0.262 C 
HETATM    6  O   UNL     1      -2.280   8.536 -32.362  1.00  0.00    -0.267 OA
HETATM    7  C   UNL     1      -3.136   6.397 -32.051  1.00  0.00     0.101 C 
HETATM    8  C   UNL     1      -4.241   5.711 -31.730  1.00  0.00     0.132 C 
HETATM    9  N   UNL     1      -4.221   4.334 -31.830  1.00  0.00    -0.331 N 
HETATM   10  C   UNL     1      -3.208   3.662 -32.337  1.00  0.00     0.084 C 
HETATM   11  N   UNL     1      -2.102   4.263 -32.716  1.00  0.00    -0.351 N 
HETATM   12  H   UNL     1      -1.351   3.705 -33.135  1.00  0.00     0.162 HD
HETATM   13  C   UNL     1      -1.846   5.768 -32.529  1.00  0.00     0.264 C 
HETATM   14  H   UNL     1      -4.245   9.364 -31.073  1.00  0.00     0.173 HD
HETATM   15  H   UNL     1      -5.034   3.803 -31.529  1.00  0.00     0.168 HD
ENDROOT
BRANCH   1  16
HETATM   16  C   UNL     1      -6.624   5.624 -31.032  1.00  0.00     0.045 A 
HETATM   17  C   UNL     1      -6.875   4.966 -29.819  1.00  0.00     0.033 A 
HETATM   18  C   UNL     1      -8.110   4.353 -29.591  1.00  0.00     0.039 A 
HETATM   19  C   UNL     1      -9.108   4.374 -30.566  1.00  0.00     0.068 A 
HETATM   20  C   UNL     1      -8.851   4.988 -31.790  1.00  0.00     0.039 A 
HETATM   21  C   UNL     1      -7.613   5.602 -32.023  1.00  0.00     0.033 A 
BRANCH  19  22
HETATM   22  O   UNL     1     -10.274   3.763 -30.201  1.00  0.00    -0.356 OA
HETATM   23  C   UNL     1     -11.474   4.256 -30.788  1.00  0.00     0.210 C 
ENDBRANCH  19  22
ENDBRANCH   1  16
BRANCH  13  24
HETATM   24  C   UNL     1      -0.718   5.905 -31.501  1.00  0.00     0.426 C 
HETATM   25  F   UNL     1      -1.228   5.671 -30.260  1.00  0.00    -0.168 F 
HETATM   26  F   UNL     1       0.227   4.960 -31.707  1.00  0.00    -0.168 F 
HETATM   27  F   UNL     1      -0.123   7.102 -31.462  1.00  0.00    -0.168 F 
ENDBRANCH  13  24
BRANCH  13  28
HETATM   28  C   UNL     1      -1.281   6.296 -33.853  1.00  0.00     0.426 C 
HETATM   29  F   UNL     1      -2.284   6.776 -34.627  1.00  0.00    -0.168 F 
HETATM   30  F   UNL     1      -0.327   7.227 -33.756  1.00  0.00    -0.168 F 
HETATM   31  F   UNL     1      -0.747   5.247 -34.541  1.00  0.00    -0.168 F 
ENDBRANCH  13  28
BRANCH  10  32
HETATM   32  C   UNL     1      -3.336   2.183 -32.500  1.00  0.00     0.114 C 
BRANCH  32  33
HETATM   33  C   UNL     1      -4.685   1.684 -32.046  1.00  0.00    -0.051 A 
HETATM   34  C   UNL     1      -5.818   1.878 -32.849  1.00  0.00     0.007 A 
HETATM   35  C   UNL     1      -7.073   1.455 -32.413  1.00  0.00     0.001 A 
HETATM   36  C   UNL     1      -7.210   0.838 -31.171  1.00  0.00     0.000 A 
HETATM   37  C   UNL     1      -6.092   0.640 -30.366  1.00  0.00     0.001 A 
HETATM   38  C   UNL     1      -4.832   1.060 -30.799  1.00  0.00     0.007 A 
ENDBRANCH  32  33
ENDBRANCH  10  32
TORSDOF 6
ENDMDL
MODEL 7
REMARK VINA RESULT:      -9.0      3.450      6.549
REMARK  6 active torsions:
REMARK  status: ('A' for Active; 'I' for Inactive)
REMARK    1  A    between atoms: O_2  and  C_3 
REMARK    2  A    between atoms: C_6  and  N_7 
REMARK    3  A    between atoms: C_16  and  C_17 
REMARK    4  A    between atoms: C_17  and  C_18 
REMARK    5  A    between atoms: C_26  and  C_27 
REMARK    6  A    between atoms: C_26  and  C_31 
ROOT
HETATM    1  N   UNL     1      -5.592   4.573 -32.738  1.00  0.00    -0.249 N 
HETATM    2  C   UNL     1      -6.308   5.736 -33.064  1.00  0.00     0.335 C 
HETATM    3  O   UNL     1      -5.843   6.869 -33.145  1.00  0.00    -0.246 OA
HETATM    4  N   UNL     1      -7.653   5.569 -33.251  1.00  0.00    -0.274 N 
HETATM    5  C   UNL     1      -8.352   4.459 -32.919  1.00  0.00     0.262 C 
HETATM    6  O   UNL     1      -9.562   4.443 -32.787  1.00  0.00    -0.267 OA
HETATM    7  C   UNL     1      -7.578   3.232 -32.733  1.00  0.00     0.101 C 
HETATM    8  C   UNL     1      -6.246   3.344 -32.647  1.00  0.00     0.132 C 
HETATM    9  N   UNL     1      -5.489   2.196 -32.519  1.00  0.00    -0.331 N 
HETATM   10  C   UNL     1      -6.016   1.000 -32.360  1.00  0.00     0.084 C 
HETATM   11  N   UNL     1      -7.316   0.807 -32.391  1.00  0.00    -0.351 N 
HETATM   12  H   UNL     1      -7.683  -0.136 -32.231  1.00  0.00     0.162 HD
HETATM   13  C   UNL     1      -8.332   1.922 -32.696  1.00  0.00     0.264 C 
HETATM   14  H   UNL     1      -8.177   6.430 -33.369  1.00  0.00     0.173 HD
HETATM   15  H   UNL     1      -4.475   2.268 -32.516  1.00  0.00     0.168 HD
ENDROOT
BRANCH   1  16
HETATM   16  C   UNL     1      -4.180   4.718 -32.505  1.00  0.00     0.045 A 
HETATM   17  C   UNL     1      -3.694   5.073 -31.238  1.00  0.00     0.033 A 
HETATM   18  C   UNL     1      -2.319   5.128 -30.999  1.00  0.00     0.039 A 
HETATM   19  C   UNL     1      -1.406   4.839 -32.015  1.00  0.00     0.068 A 
HETATM   20  C   UNL     1      -1.881   4.526 -33.287  1.00  0.00     0.039 A 
HETATM   21  C   UNL     1      -3.259   4.473 -33.531  1.00  0.00     0.033 A 
BRANCH  19  22
HETATM   22  O   UNL     1      -0.095   4.901 -31.638  1.00  0.00    -0.356 OA
HETATM   23  C   UNL     1       0.172   5.216 -30.275  1.00  0.00     0.210 C 
ENDBRANCH  19  22
ENDBRANCH   1  16
BRANCH  13  24
HETATM   24  C   UNL     1      -8.974   1.583 -34.045  1.00  0.00     0.426 C 
HETATM   25  F   UNL     1      -9.959   2.488 -34.299  1.00  0.00    -0.168 F 
HETATM   26  F   UNL     1      -8.072   1.714 -35.045  1.00  0.00    -0.168 F 
HETATM   27  F   UNL     1      -9.526   0.368 -34.125  1.00  0.00    -0.168 F 
ENDBRANCH  13  24
BRANCH  13  28
HETATM   28  C   UNL     1      -9.450   1.809 -31.653  1.00  0.00     0.426 C 
HETATM   29  F   UNL     1      -9.106   2.484 -30.530  1.00  0.00    -0.168 F 
HETATM   30  F   UNL     1     -10.663   2.210 -32.045  1.00  0.00    -0.168 F 
HETATM   31  F   UNL     1      -9.562   0.501 -31.283  1.00  0.00    -0.168 F 
ENDBRANCH  13  28
BRANCH  10  32
HETATM   32  C   UNL     1      -5.106  -0.161 -32.122  1.00  0.00     0.114 C 
BRANCH  32  33
HETATM   33  C   UNL     1      -5.305  -1.248 -33.148  1.00  0.00    -0.051 A 
HETATM   34  C   UNL     1      -4.223  -2.045 -33.552  1.00  0.00     0.007 A 
HETATM   35  C   UNL     1      -4.395  -3.023 -34.532  1.00  0.00     0.001 A 
HETATM   36  C   UNL     1      -5.644  -3.213 -35.118  1.00  0.00     0.000 A 
HETATM   37  C   UNL     1      -6.725  -2.428 -34.724  1.00  0.00     0.001 A 
HETATM   38  C   UNL     1      -6.559  -1.449 -33.742  1.00  0.00     0.007 A 
ENDBRANCH  32  33
ENDBRANCH  10  32
TORSDOF 6
ENDMDL
MODEL 8
REMARK VINA RESULT:      -9.0      3.864      6.959
REMARK  6 active torsions:
REMARK  status: ('A' for Active; 'I' for Inactive)
REMARK    1  A    between atoms: O_2  and  C_3 
REMARK    2  A    between atoms: C_6  and  N_7 
REMARK    3  A    between atoms: C_16  and  C_17 
REMARK    4  A    between atoms: C_17  and  C_18 
REMARK    5  A    between atoms: C_26  and  C_27 
REMARK    6  A    between atoms: C_26  and  C_31 
ROOT
HETATM    1  N   UNL     1      -8.909   1.116 -33.145  1.00  0.00    -0.249 N 
HETATM    2  C   UNL     1     -10.139   0.469 -32.943  1.00  0.00     0.335 C 
HETATM    3  O   UNL     1     -10.294  -0.727 -32.715  1.00  0.00    -0.246 OA
HETATM    4  N   UNL     1     -11.250   1.257 -33.069  1.00  0.00    -0.274 N 
HETATM    5  C   UNL     1     -11.263   2.504 -33.593  1.00  0.00     0.262 C 
HETATM    6  O   UNL     1     -12.273   3.054 -33.994  1.00  0.00    -0.267 OA
HETATM    7  C   UNL     1      -9.978   3.202 -33.649  1.00  0.00     0.101 C 
HETATM    8  C   UNL     1      -8.869   2.482 -33.430  1.00  0.00     0.132 C 
HETATM    9  N   UNL     1      -7.648   3.126 -33.429  1.00  0.00    -0.331 N 
HETATM   10  C   UNL     1      -7.502   4.394 -33.750  1.00  0.00     0.084 C 
HETATM   11  N   UNL     1      -8.535   5.162 -34.020  1.00  0.00    -0.351 N 
HETATM   12  H   UNL     1      -8.372   6.136 -34.295  1.00  0.00     0.162 HD
HETATM   13  C   UNL     1      -9.995   4.691 -33.906  1.00  0.00     0.264 C 
HETATM   14  H   UNL     1     -12.133   0.757 -33.038  1.00  0.00     0.173 HD
HETATM   15  H   UNL     1      -6.809   2.598 -33.203  1.00  0.00     0.168 HD
ENDROOT
BRANCH   1  16
HETATM   16  C   UNL     1      -7.722   0.311 -33.050  1.00  0.00     0.045 A 
HETATM   17  C   UNL     1      -7.228  -0.375 -34.168  1.00  0.00     0.033 A 
HETATM   18  C   UNL     1      -6.027  -1.086 -34.088  1.00  0.00     0.039 A 
HETATM   19  C   UNL     1      -5.305  -1.133 -32.894  1.00  0.00     0.068 A 
HETATM   20  C   UNL     1      -5.811  -0.488 -31.767  1.00  0.00     0.039 A 
HETATM   21  C   UNL     1      -7.016   0.222 -31.843  1.00  0.00     0.033 A 
BRANCH  19  22
HETATM   22  O   UNL     1      -4.136  -1.836 -32.963  1.00  0.00    -0.356 OA
HETATM   23  C   UNL     1      -3.192  -1.625 -31.918  1.00  0.00     0.210 C 
ENDBRANCH  19  22
ENDBRANCH   1  16
BRANCH  13  24
HETATM   24  C   UNL     1     -10.627   5.473 -32.751  1.00  0.00     0.426 C 
HETATM   25  F   UNL     1     -10.189   4.944 -31.575  1.00  0.00    -0.168 F 
HETATM   26  F   UNL     1     -10.212   6.759 -32.766  1.00  0.00    -0.168 F 
HETATM   27  F   UNL     1     -11.964   5.456 -32.714  1.00  0.00    -0.168 F 
ENDBRANCH  13  24
BRANCH  13  28
HETATM   28  C   UNL     1     -10.716   5.155 -35.178  1.00  0.00     0.426 C 
HETATM   29  F   UNL     1     -10.665   4.183 -36.120  1.00  0.00    -0.168 F 
HETATM   30  F   UNL     1     -11.986   5.542 -35.025  1.00  0.00    -0.168 F 
HETATM   31  F   UNL     1     -10.035   6.215 -35.697  1.00  0.00    -0.168 F 
ENDBRANCH  13  28
BRANCH  10  32
HETATM   32  C   UNL     1      -6.123   4.963 -33.824  1.00  0.00     0.114 C 
BRANCH  32  33
HETATM   33  C   UNL     1      -5.166   4.231 -32.917  1.00  0.00    -0.051 A 
HETATM   34  C   UNL     1      -3.885   3.884 -33.372  1.00  0.00     0.007 A 
HETATM   35  C   UNL     1      -3.014   3.170 -32.550  1.00  0.00     0.001 A 
HETATM   36  C   UNL     1      -3.412   2.795 -31.268  1.00  0.00     0.000 A 
HETATM   37  C   UNL     1      -4.681   3.135 -30.806  1.00  0.00     0.001 A 
HETATM   38  C   UNL     1      -5.557   3.851 -31.625  1.00  0.00     0.007 A 
ENDBRANCH  32  33
ENDBRANCH  10  32
TORSDOF 6
ENDMDL
MODEL 9
REMARK VINA RESULT:      -9.0      4.233      6.852
REMARK  6 active torsions:
REMARK  status: ('A' for Active; 'I' for Inactive)
REMARK    1  A    between atoms: O_2  and  C_3 
REMARK    2  A    between atoms: C_6  and  N_7 
REMARK    3  A    between atoms: C_16  and  C_17 
REMARK    4  A    between atoms: C_17  and  C_18 
REMARK    5  A    between atoms: C_26  and  C_27 
REMARK    6  A    between atoms: C_26  and  C_31 
ROOT
HETATM    1  N   UNL     1      -7.685   4.428 -32.772  1.00  0.00    -0.249 N 
HETATM    2  C   UNL     1      -7.700   5.824 -32.921  1.00  0.00     0.335 C 
HETATM    3  O   UNL     1      -6.756   6.581 -32.711  1.00  0.00    -0.246 OA
HETATM    4  N   UNL     1      -8.902   6.368 -33.283  1.00  0.00    -0.274 N 
HETATM    5  C   UNL     1     -10.086   5.713 -33.269  1.00  0.00     0.262 C 
HETATM    6  O   UNL     1     -11.165   6.277 -33.275  1.00  0.00    -0.267 OA
HETATM    7  C   UNL     1     -10.024   4.251 -33.263  1.00  0.00     0.101 C 
HETATM    8  C   UNL     1      -8.838   3.680 -33.012  1.00  0.00     0.132 C 
HETATM    9  N   UNL     1      -8.743   2.303 -33.049  1.00  0.00    -0.331 N 
HETATM   10  C   UNL     1      -9.784   1.512 -33.203  1.00  0.00     0.084 C 
HETATM   11  N   UNL     1     -10.990   1.991 -33.413  1.00  0.00    -0.351 N 
HETATM   12  H   UNL     1     -11.777   1.340 -33.496  1.00  0.00     0.162 HD
HETATM   13  C   UNL     1     -11.290   3.490 -33.584  1.00  0.00     0.264 C 
HETATM   14  H   UNL     1      -8.932   7.382 -33.272  1.00  0.00     0.173 HD
HETATM   15  H   UNL     1      -7.834   1.865 -32.921  1.00  0.00     0.168 HD
ENDROOT
BRANCH   1  16
HETATM   16  C   UNL     1      -6.444   3.827 -32.363  1.00  0.00     0.045 A 
HETATM   17  C   UNL     1      -6.170   3.596 -31.007  1.00  0.00     0.033 A 
HETATM   18  C   UNL     1      -5.001   2.934 -30.625  1.00  0.00     0.039 A 
HETATM   19  C   UNL     1      -4.082   2.499 -31.582  1.00  0.00     0.068 A 
HETATM   20  C   UNL     1      -4.327   2.761 -32.928  1.00  0.00     0.039 A 
HETATM   21  C   UNL     1      -5.497   3.427 -33.315  1.00  0.00     0.033 A 
BRANCH  19  22
HETATM   22  O   UNL     1      -2.999   1.841 -31.074  1.00  0.00    -0.356 OA
HETATM   23  C   UNL     1      -3.050   0.418 -31.071  1.00  0.00     0.210 C 
ENDBRANCH  19  22
ENDBRANCH   1  16
BRANCH  13  24
HETATM   24  C   UNL     1     -11.737   3.693 -35.035  1.00  0.00     0.426 C 
HETATM   25  F   UNL     1     -10.633   3.872 -35.811  1.00  0.00    -0.168 F 
HETATM   26  F   UNL     1     -12.352   2.583 -35.501  1.00  0.00    -0.168 F 
HETATM   27  F   UNL     1     -12.538   4.744 -35.244  1.00  0.00    -0.168 F 
ENDBRANCH  13  24
BRANCH  13  28
HETATM   28  C   UNL     1     -12.513   3.806 -32.714  1.00  0.00     0.426 C 
HETATM   29  F   UNL     1     -12.127   4.034 -31.436  1.00  0.00    -0.168 F 
HETATM   30  F   UNL     1     -13.278   4.823 -33.123  1.00  0.00    -0.168 F 
HETATM   31  F   UNL     1     -13.309   2.700 -32.674  1.00  0.00    -0.168 F 
ENDBRANCH  13  28
BRANCH  10  32
HETATM   32  C   UNL     1      -9.584   0.035 -33.117  1.00  0.00     0.114 C 
BRANCH  32  33
HETATM   33  C   UNL     1      -8.148  -0.351 -33.375  1.00  0.00    -0.051 A 
HETATM   34  C   UNL     1      -7.218  -0.359 -32.325  1.00  0.00     0.007 A 
HETATM   35  C   UNL     1      -5.882  -0.675 -32.568  1.00  0.00     0.001 A 
HETATM   36  C   UNL     1      -5.461  -0.983 -33.860  1.00  0.00     0.000 A 
HETATM   37  C   UNL     1      -6.375  -0.979 -34.910  1.00  0.00     0.001 A 
HETATM   38  C   UNL     1      -7.715  -0.665 -34.672  1.00  0.00     0.007 A 
ENDBRANCH  32  33
ENDBRANCH  10  32
TORSDOF 6
ENDMDL
MODEL 10
REMARK VINA RESULT:      -8.8      6.836     10.387
REMARK  6 active torsions:
REMARK  status: ('A' for Active; 'I' for Inactive)
REMARK    1  A    between atoms: O_2  and  C_3 
REMARK    2  A    between atoms: C_6  and  N_7 
REMARK    3  A    between atoms: C_16  and  C_17 
REMARK    4  A    between atoms: C_17  and  C_18 
REMARK    5  A    between atoms: C_26  and  C_27 
REMARK    6  A    between atoms: C_26  and  C_31 
ROOT
HETATM    1  N   UNL     1      -4.134   7.710 -29.554  1.00  0.00    -0.249 N 
HETATM    2  C   UNL     1      -5.330   8.193 -30.109  1.00  0.00     0.335 C 
HETATM    3  O   UNL     1      -6.181   8.854 -29.522  1.00  0.00    -0.246 OA
HETATM    4  N   UNL     1      -5.566   7.834 -31.409  1.00  0.00    -0.274 N 
HETATM    5  C   UNL     1      -4.881   6.886 -32.090  1.00  0.00     0.262 C 
HETATM    6  O   UNL     1      -5.297   6.356 -33.104  1.00  0.00    -0.267 OA
HETATM    7  C   UNL     1      -3.570   6.518 -31.556  1.00  0.00     0.101 C 
HETATM    8  C   UNL     1      -3.260   6.939 -30.322  1.00  0.00     0.132 C 
HETATM    9  N   UNL     1      -2.010   6.646 -29.814  1.00  0.00    -0.331 N 
HETATM   10  C   UNL     1      -1.144   5.872 -30.433  1.00  0.00     0.084 C 
HETATM   11  N   UNL     1      -1.385   5.384 -31.630  1.00  0.00    -0.351 N 
HETATM   12  H   UNL     1      -0.696   4.761 -32.061  1.00  0.00     0.162 HD
HETATM   13  C   UNL     1      -2.641   5.729 -32.450  1.00  0.00     0.264 C 
HETATM   14  H   UNL     1      -6.484   8.087 -31.761  1.00  0.00     0.173 HD
HETATM   15  H   UNL     1      -1.746   7.014 -28.903  1.00  0.00     0.168 HD
ENDROOT
BRANCH   1  16
HETATM   16  C   UNL     1      -3.869   8.043 -28.181  1.00  0.00     0.045 A 
HETATM   17  C   UNL     1      -4.359   7.242 -27.140  1.00  0.00     0.033 A 
HETATM   18  C   UNL     1      -4.025   7.525 -25.813  1.00  0.00     0.039 A 
HETATM   19  C   UNL     1      -3.208   8.612 -25.500  1.00  0.00     0.068 A 
HETATM   20  C   UNL     1      -2.751   9.438 -26.525  1.00  0.00     0.039 A 
HETATM   21  C   UNL     1      -3.086   9.159 -27.856  1.00  0.00     0.033 A 
BRANCH  19  22
HETATM   22  O   UNL     1      -2.936   8.756 -24.169  1.00  0.00    -0.356 OA
HETATM   23  C   UNL     1      -1.865   9.626 -23.817  1.00  0.00     0.210 C 
ENDBRANCH  19  22
ENDBRANCH   1  16
BRANCH  13  24
HETATM   24  C   UNL     1      -2.173   6.541 -33.661  1.00  0.00     0.426 C 
HETATM   25  F   UNL     1      -2.015   7.839 -33.283  1.00  0.00    -0.168 F 
HETATM   26  F   UNL     1      -0.957   6.116 -34.075  1.00  0.00    -0.168 F 
HETATM   27  F   UNL     1      -3.006   6.535 -34.708  1.00  0.00    -0.168 F 
ENDBRANCH  13  24
BRANCH  13  28
HETATM   28  C   UNL     1      -3.189   4.410 -33.007  1.00  0.00     0.426 C 
HETATM   29  F   UNL     1      -2.175   3.538 -33.220  1.00  0.00    -0.168 F 
HETATM   30  F   UNL     1      -4.130   3.808 -32.273  1.00  0.00    -0.168 F 
HETATM   31  F   UNL     1      -3.735   4.655 -34.232  1.00  0.00    -0.168 F 
ENDBRANCH  13  28
BRANCH  10  32
HETATM   32  C   UNL     1       0.137   5.531 -29.744  1.00  0.00     0.114 C 
BRANCH  32  33
HETATM   33  C   UNL     1       0.421   6.467 -28.596  1.00  0.00    -0.051 A 
HETATM   34  C   UNL     1       0.013   6.135 -27.295  1.00  0.00     0.007 A 
HETATM   35  C   UNL     1       0.237   7.018 -26.239  1.00  0.00     0.001 A 
HETATM   36  C   UNL     1       0.868   8.239 -26.470  1.00  0.00     0.000 A 
HETATM   37  C   UNL     1       1.278   8.577 -27.757  1.00  0.00     0.001 A 
HETATM   38  C   UNL     1       1.057   7.697 -28.818  1.00  0.00     0.007 A 
ENDBRANCH  32  33
ENDBRANCH  10  32
TORSDOF 6
ENDMDL
