MODEL 1
REMARK VINA RESULT:      -9.6      0.000      0.000
REMARK  2 active torsions:
REMARK  status: ('A' for Active; 'I' for Inactive)
REMARK    1  A    between atoms: C_4  and  C_5 
REMARK       I    between atoms: N_12  and  C_13 
REMARK    2  A    between atoms: C_13  and  C_14 
ROOT
HETATM    1  C   UNL     1      -1.463   7.132 -31.935  1.00  0.00     0.097 A 
HETATM    2  N   UNL     1      -1.324   8.046 -32.916  1.00  0.00    -0.173 NA
HETATM    3  N   UNL     1      -1.863   7.482 -34.007  1.00  0.00    -0.281 N 
HETATM    4  H   UNL     1      -1.867   8.016 -34.870  1.00  0.00     0.189 HD
HETATM    5  C   UNL     1      -2.348   6.241 -33.769  1.00  0.00     0.039 A 
HETATM    6  C   UNL     1      -2.111   5.964 -32.443  1.00  0.00     0.015 A 
HETATM    7  C   UNL     1      -2.507   4.688 -31.794  1.00  0.00     0.168 C 
HETATM    8  N   UNL     1      -3.291   3.822 -32.706  1.00  0.00    -0.347 N 
HETATM    9  C   UNL     1      -3.793   2.669 -32.101  1.00  0.00     0.226 C 
HETATM   10  O   UNL     1      -3.703   2.497 -30.882  1.00  0.00    -0.273 OA
HETATM   11  C   UNL     1      -2.998   3.912 -34.159  1.00  0.00     0.132 C 
HETATM   12  C   UNL     1      -3.039   5.349 -34.718  1.00  0.00     0.079 C 
ENDROOT
BRANCH   9  13
HETATM   13  C   UNL     1      -4.485   1.634 -32.972  1.00  0.00     0.106 C 
HETATM   14  C   UNL     1      -5.976   1.581 -32.664  1.00  0.00     0.190 C 
HETATM   15  O   UNL     1      -6.677   0.741 -33.591  1.00  0.00    -0.350 OA
HETATM   16  C   UNL     1      -6.095  -0.482 -33.805  1.00  0.00     0.075 A 
HETATM   17  C   UNL     1      -4.778  -0.787 -33.436  1.00  0.00    -0.024 A 
HETATM   18  C   UNL     1      -6.878  -1.428 -34.465  1.00  0.00     0.037 A 
HETATM   19  C   UNL     1      -3.925   0.230 -32.732  1.00  0.00     0.057 C 
HETATM   20  C   UNL     1      -4.271  -2.065 -33.704  1.00  0.00     0.010 A 
HETATM   21  C   UNL     1      -5.059  -3.014 -34.356  1.00  0.00     0.001 A 
HETATM   22  C   UNL     1      -6.361  -2.695 -34.739  1.00  0.00     0.003 A 
ENDBRANCH   9  13
BRANCH   1  23
HETATM   23  C   UNL     1      -1.000   7.429 -30.572  1.00  0.00    -0.005 A 
HETATM   24  C   UNL     1       0.286   7.028 -30.172  1.00  0.00     0.014 A 
HETATM   25  C   UNL     1       0.761   7.309 -28.887  1.00  0.00     0.001 A 
HETATM   26  C   UNL     1      -0.044   7.994 -27.982  1.00  0.00     0.000 A 
HETATM   27  C   UNL     1      -1.327   8.388 -28.359  1.00  0.00     0.001 A 
HETATM   28  C   UNL     1      -1.804   8.101 -29.642  1.00  0.00     0.014 A 
ENDBRANCH   1  23
TORSDOF 2
ENDMDL
MODEL 2
REMARK VINA RESULT:      -9.3      1.462      1.511
REMARK  2 active torsions:
REMARK  status: ('A' for Active; 'I' for Inactive)
REMARK    1  A    between atoms: C_4  and  C_5 
REMARK       I    between atoms: N_12  and  C_13 
REMARK    2  A    between atoms: C_13  and  C_14 
ROOT
HETATM    1  C   UNL     1      -2.868   6.859 -30.877  1.00  0.00     0.097 A 
HETATM    2  N   UNL     1      -3.574   7.956 -31.217  1.00  0.00    -0.173 NA
HETATM    3  N   UNL     1      -4.555   7.513 -32.016  1.00  0.00    -0.281 N 
HETATM    4  H   UNL     1      -5.217   8.190 -32.382  1.00  0.00     0.189 HD
HETATM    5  C   UNL     1      -4.514   6.173 -32.203  1.00  0.00     0.039 A 
HETATM    6  C   UNL     1      -3.436   5.701 -31.490  1.00  0.00     0.015 A 
HETATM    7  C   UNL     1      -3.060   4.265 -31.441  1.00  0.00     0.168 C 
HETATM    8  N   UNL     1      -4.049   3.408 -32.135  1.00  0.00    -0.347 N 
HETATM    9  C   UNL     1      -3.804   2.039 -32.006  1.00  0.00     0.226 C 
HETATM   10  O   UNL     1      -2.925   1.618 -31.248  1.00  0.00    -0.273 OA
HETATM   11  C   UNL     1      -4.775   3.994 -33.290  1.00  0.00     0.132 C 
HETATM   12  C   UNL     1      -5.452   5.345 -32.983  1.00  0.00     0.079 C 
ENDROOT
BRANCH   9  13
HETATM   13  C   UNL     1      -4.665   1.069 -32.797  1.00  0.00     0.106 C 
HETATM   14  C   UNL     1      -5.961   0.771 -32.055  1.00  0.00     0.190 C 
HETATM   15  O   UNL     1      -6.863  -0.001 -32.859  1.00  0.00    -0.350 OA
HETATM   16  C   UNL     1      -6.294  -1.087 -33.472  1.00  0.00     0.075 A 
HETATM   17  C   UNL     1      -4.910  -1.268 -33.597  1.00  0.00    -0.024 A 
HETATM   18  C   UNL     1      -7.176  -2.016 -34.022  1.00  0.00     0.037 A 
HETATM   19  C   UNL     1      -3.952  -0.267 -33.015  1.00  0.00     0.057 C 
HETATM   20  C   UNL     1      -4.424  -2.410 -34.247  1.00  0.00     0.010 A 
HETATM   21  C   UNL     1      -5.310  -3.343 -34.789  1.00  0.00     0.001 A 
HETATM   22  C   UNL     1      -6.684  -3.145 -34.679  1.00  0.00     0.003 A 
ENDBRANCH   9  13
BRANCH   1  23
HETATM   23  C   UNL     1      -1.714   6.969 -29.972  1.00  0.00    -0.005 A 
HETATM   24  C   UNL     1      -0.413   6.962 -30.501  1.00  0.00     0.014 A 
HETATM   25  C   UNL     1       0.704   7.080 -29.667  1.00  0.00     0.001 A 
HETATM   26  C   UNL     1       0.535   7.205 -28.291  1.00  0.00     0.000 A 
HETATM   27  C   UNL     1      -0.749   7.202 -27.749  1.00  0.00     0.001 A 
HETATM   28  C   UNL     1      -1.865   7.078 -28.584  1.00  0.00     0.014 A 
ENDBRANCH   1  23
TORSDOF 2
ENDMDL
MODEL 3
REMARK VINA RESULT:      -9.2      2.393      9.229
REMARK  2 active torsions:
REMARK  status: ('A' for Active; 'I' for Inactive)
REMARK    1  A    between atoms: C_4  and  C_5 
REMARK       I    between atoms: N_12  and  C_13 
REMARK    2  A    between atoms: C_13  and  C_14 
ROOT
HETATM    1  C   UNL     1      -6.730  -0.842 -34.527  1.00  0.00     0.097 A 
HETATM    2  N   UNL     1      -7.889  -0.695 -35.199  1.00  0.00    -0.173 NA
HETATM    3  N   UNL     1      -8.202   0.604 -35.088  1.00  0.00    -0.281 N 
HETATM    4  H   UNL     1      -9.050   0.933 -35.537  1.00  0.00     0.189 HD
HETATM    5  C   UNL     1      -7.288   1.303 -34.374  1.00  0.00     0.039 A 
HETATM    6  C   UNL     1      -6.316   0.412 -33.984  1.00  0.00     0.015 A 
HETATM    7  C   UNL     1      -5.129   0.804 -33.180  1.00  0.00     0.168 C 
HETATM    8  N   UNL     1      -5.061   2.269 -32.969  1.00  0.00    -0.347 N 
HETATM    9  C   UNL     1      -3.896   2.695 -32.328  1.00  0.00     0.226 C 
HETATM   10  O   UNL     1      -2.965   1.914 -32.112  1.00  0.00    -0.273 OA
HETATM   11  C   UNL     1      -6.344   3.013 -32.896  1.00  0.00     0.132 C 
HETATM   12  C   UNL     1      -7.288   2.750 -34.087  1.00  0.00     0.079 C 
ENDROOT
BRANCH   9  13
HETATM   13  C   UNL     1      -3.782   4.156 -31.925  1.00  0.00     0.106 C 
HETATM   14  C   UNL     1      -3.853   5.059 -33.150  1.00  0.00     0.190 C 
HETATM   15  O   UNL     1      -3.923   6.443 -32.782  1.00  0.00    -0.350 OA
HETATM   16  C   UNL     1      -3.005   6.830 -31.840  1.00  0.00     0.075 A 
HETATM   17  C   UNL     1      -2.281   5.928 -31.050  1.00  0.00    -0.024 A 
HETATM   18  C   UNL     1      -2.847   8.204 -31.664  1.00  0.00     0.037 A 
HETATM   19  C   UNL     1      -2.451   4.446 -31.228  1.00  0.00     0.057 C 
HETATM   20  C   UNL     1      -1.368   6.422 -30.109  1.00  0.00     0.010 A 
HETATM   21  C   UNL     1      -1.204   7.798 -29.940  1.00  0.00     0.001 A 
HETATM   22  C   UNL     1      -1.945   8.688 -30.715  1.00  0.00     0.003 A 
ENDBRANCH   9  13
BRANCH   1  23
HETATM   23  C   UNL     1      -6.071  -2.154 -34.462  1.00  0.00    -0.005 A 
HETATM   24  C   UNL     1      -6.795  -3.313 -34.787  1.00  0.00     0.014 A 
HETATM   25  C   UNL     1      -6.191  -4.574 -34.750  1.00  0.00     0.001 A 
HETATM   26  C   UNL     1      -4.854  -4.695 -34.384  1.00  0.00     0.000 A 
HETATM   27  C   UNL     1      -4.125  -3.557 -34.046  1.00  0.00     0.001 A 
HETATM   28  C   UNL     1      -4.731  -2.296 -34.078  1.00  0.00     0.014 A 
ENDBRANCH   1  23
TORSDOF 2
ENDMDL
MODEL 4
REMARK VINA RESULT:      -8.7      6.161      7.815
REMARK  2 active torsions:
REMARK  status: ('A' for Active; 'I' for Inactive)
REMARK    1  A    between atoms: C_4  and  C_5 
REMARK       I    between atoms: N_12  and  C_13 
REMARK    2  A    between atoms: C_13  and  C_14 
ROOT
HETATM    1  C   UNL     1     -10.022   4.551 -32.549  1.00  0.00     0.097 A 
HETATM    2  N   UNL     1      -9.976   5.154 -31.344  1.00  0.00    -0.173 NA
HETATM    3  N   UNL     1      -9.196   4.371 -30.585  1.00  0.00    -0.281 N 
HETATM    4  H   UNL     1      -9.022   4.653 -29.626  1.00  0.00     0.189 HD
HETATM    5  C   UNL     1      -8.733   3.288 -31.253  1.00  0.00     0.039 A 
HETATM    6  C   UNL     1      -9.243   3.355 -32.528  1.00  0.00     0.015 A 
HETATM    7  C   UNL     1      -8.954   2.340 -33.574  1.00  0.00     0.168 C 
HETATM    8  N   UNL     1      -7.963   1.338 -33.116  1.00  0.00    -0.347 N 
HETATM    9  C   UNL     1      -7.566   0.438 -34.107  1.00  0.00     0.226 C 
HETATM   10  O   UNL     1      -7.913   0.591 -35.282  1.00  0.00    -0.273 OA
HETATM   11  C   UNL     1      -7.938   1.009 -31.668  1.00  0.00     0.132 C 
HETATM   12  C   UNL     1      -7.824   2.243 -30.749  1.00  0.00     0.079 C 
ENDROOT
BRANCH   9  13
HETATM   13  C   UNL     1      -6.669  -0.724 -33.717  1.00  0.00     0.106 C 
HETATM   14  C   UNL     1      -5.203  -0.314 -33.776  1.00  0.00     0.190 C 
HETATM   15  O   UNL     1      -4.348  -1.336 -33.245  1.00  0.00    -0.350 OA
HETATM   16  C   UNL     1      -4.608  -2.598 -33.715  1.00  0.00     0.075 A 
HETATM   17  C   UNL     1      -5.788  -2.946 -34.385  1.00  0.00    -0.024 A 
HETATM   18  C   UNL     1      -3.636  -3.563 -33.454  1.00  0.00     0.037 A 
HETATM   19  C   UNL     1      -6.843  -1.913 -34.663  1.00  0.00     0.057 C 
HETATM   20  C   UNL     1      -5.963  -4.265 -34.823  1.00  0.00     0.010 A 
HETATM   21  C   UNL     1      -4.986  -5.229 -34.568  1.00  0.00     0.001 A 
HETATM   22  C   UNL     1      -3.824  -4.878 -33.882  1.00  0.00     0.003 A 
ENDBRANCH   9  13
BRANCH   1  23
HETATM   23  C   UNL     1     -10.780   5.157 -33.653  1.00  0.00    -0.005 A 
HETATM   24  C   UNL     1     -12.063   4.676 -33.964  1.00  0.00     0.014 A 
HETATM   25  C   UNL     1     -12.813   5.242 -34.998  1.00  0.00     0.001 A 
HETATM   26  C   UNL     1     -12.291   6.297 -35.741  1.00  0.00     0.000 A 
HETATM   27  C   UNL     1     -11.016   6.779 -35.455  1.00  0.00     0.001 A 
HETATM   28  C   UNL     1     -10.262   6.208 -34.423  1.00  0.00     0.014 A 
ENDBRANCH   1  23
TORSDOF 2
ENDMDL
MODEL 5
REMARK VINA RESULT:      -8.7      5.260      9.468
REMARK  2 active torsions:
REMARK  status: ('A' for Active; 'I' for Inactive)
REMARK    1  A    between atoms: C_4  and  C_5 
REMARK       I    between atoms: N_12  and  C_13 
REMARK    2  A    between atoms: C_13  and  C_14 
ROOT
HETATM    1  C   UNL     1      -5.134  -0.785 -33.572  1.00  0.00     0.097 A 
HETATM    2  N   UNL     1      -3.967  -0.405 -33.012  1.00  0.00    -0.173 NA
HETATM    3  N   UNL     1      -4.129   0.888 -32.698  1.00  0.00    -0.281 N 
HETATM    4  H   UNL     1      -3.358   1.373 -32.251  1.00  0.00     0.189 HD
HETATM    5  C   UNL     1      -5.355   1.359 -33.029  1.00  0.00     0.039 A 
HETATM    6  C   UNL     1      -6.043   0.316 -33.603  1.00  0.00     0.015 A 
HETATM    7  C   UNL     1      -7.440   0.437 -34.096  1.00  0.00     0.168 C 
HETATM    8  N   UNL     1      -8.028   1.759 -33.779  1.00  0.00    -0.347 N 
HETATM    9  C   UNL     1      -9.379   1.873 -34.111  1.00  0.00     0.226 C 
HETATM   10  O   UNL     1     -10.027   0.893 -34.488  1.00  0.00    -0.273 OA
HETATM   11  C   UNL     1      -7.108   2.923 -33.719  1.00  0.00     0.132 C 
HETATM   12  C   UNL     1      -5.891   2.712 -32.795  1.00  0.00     0.079 C 
ENDROOT
BRANCH   9  13
HETATM   13  C   UNL     1     -10.050   3.229 -33.969  1.00  0.00     0.106 C 
HETATM   14  C   UNL     1     -10.672   3.380 -32.587  1.00  0.00     0.190 C 
HETATM   15  O   UNL     1     -11.157   4.711 -32.369  1.00  0.00    -0.350 OA
HETATM   16  C   UNL     1     -11.913   5.218 -33.394  1.00  0.00     0.075 A 
HETATM   17  C   UNL     1     -11.953   4.657 -34.677  1.00  0.00    -0.024 A 
HETATM   18  C   UNL     1     -12.634   6.378 -33.112  1.00  0.00     0.037 A 
HETATM   19  C   UNL     1     -11.173   3.411 -34.992  1.00  0.00     0.057 C 
HETATM   20  C   UNL     1     -12.754   5.252 -35.661  1.00  0.00     0.010 A 
HETATM   21  C   UNL     1     -13.481   6.408 -35.374  1.00  0.00     0.001 A 
HETATM   22  C   UNL     1     -13.419   6.972 -34.101  1.00  0.00     0.003 A 
ENDBRANCH   9  13
BRANCH   1  23
HETATM   23  C   UNL     1      -5.325  -2.172 -34.020  1.00  0.00    -0.005 A 
HETATM   24  C   UNL     1      -4.281  -3.100 -33.873  1.00  0.00     0.014 A 
HETATM   25  C   UNL     1      -4.439  -4.430 -34.276  1.00  0.00     0.001 A 
HETATM   26  C   UNL     1      -5.642  -4.851 -34.833  1.00  0.00     0.000 A 
HETATM   27  C   UNL     1      -6.684  -3.940 -34.997  1.00  0.00     0.001 A 
HETATM   28  C   UNL     1      -6.524  -2.608 -34.599  1.00  0.00     0.014 A 
ENDBRANCH   1  23
TORSDOF 2
ENDMDL
MODEL 6
REMARK VINA RESULT:      -8.4      2.659      9.354
REMARK  2 active torsions:
REMARK  status: ('A' for Active; 'I' for Inactive)
REMARK    1  A    between atoms: C_4  and  C_5 
REMARK       I    between atoms: N_12  and  C_13 
REMARK    2  A    between atoms: C_13  and  C_14 
ROOT
HETATM    1  C   UNL     1      -7.147   0.485 -32.044  1.00  0.00     0.097 A 
HETATM    2  N   UNL     1      -8.414   0.326 -31.609  1.00  0.00    -0.173 NA
HETATM    3  N   UNL     1      -8.693   1.439 -30.915  1.00  0.00    -0.281 N 
HETATM    4  H   UNL     1      -9.616   1.526 -30.501  1.00  0.00     0.189 HD
HETATM    5  C   UNL     1      -7.659   2.313 -30.887  1.00  0.00     0.039 A 
HETATM    6  C   UNL     1      -6.632   1.741 -31.600  1.00  0.00     0.015 A 
HETATM    7  C   UNL     1      -5.317   2.402 -31.804  1.00  0.00     0.168 C 
HETATM    8  N   UNL     1      -5.300   3.782 -31.264  1.00  0.00    -0.347 N 
HETATM    9  C   UNL     1      -4.128   4.487 -31.545  1.00  0.00     0.226 C 
HETATM   10  O   UNL     1      -3.273   4.024 -32.305  1.00  0.00    -0.273 OA
HETATM   11  C   UNL     1      -6.153   4.067 -30.082  1.00  0.00     0.132 C 
HETATM   12  C   UNL     1      -7.626   3.645 -30.257  1.00  0.00     0.079 C 
ENDROOT
BRANCH   9  13
HETATM   13  C   UNL     1      -3.936   5.857 -30.916  1.00  0.00     0.106 C 
HETATM   14  C   UNL     1      -4.085   6.954 -31.961  1.00  0.00     0.190 C 
HETATM   15  O   UNL     1      -4.082   8.257 -31.363  1.00  0.00    -0.350 OA
HETATM   16  C   UNL     1      -3.074   8.465 -30.457  1.00  0.00     0.075 A 
HETATM   17  C   UNL     1      -2.312   7.432 -29.897  1.00  0.00    -0.024 A 
HETATM   18  C   UNL     1      -2.860   9.787 -30.069  1.00  0.00     0.037 A 
HETATM   19  C   UNL     1      -2.542   6.004 -30.303  1.00  0.00     0.057 C 
HETATM   20  C   UNL     1      -1.307   7.746 -28.972  1.00  0.00     0.010 A 
HETATM   21  C   UNL     1      -1.088   9.072 -28.592  1.00  0.00     0.001 A 
HETATM   22  C   UNL     1      -1.866  10.091 -29.138  1.00  0.00     0.003 A 
ENDBRANCH   9  13
BRANCH   1  23
HETATM   23  C   UNL     1      -6.512  -0.548 -32.874  1.00  0.00    -0.005 A 
HETATM   24  C   UNL     1      -7.263  -1.203 -33.864  1.00  0.00     0.014 A 
HETATM   25  C   UNL     1      -6.682  -2.180 -34.679  1.00  0.00     0.001 A 
HETATM   26  C   UNL     1      -5.343  -2.518 -34.514  1.00  0.00     0.000 A 
HETATM   27  C   UNL     1      -4.587  -1.888 -33.528  1.00  0.00     0.001 A 
HETATM   28  C   UNL     1      -5.170  -0.914 -32.709  1.00  0.00     0.014 A 
ENDBRANCH   1  23
TORSDOF 2
ENDMDL
MODEL 7
REMARK VINA RESULT:      -8.4      5.445      6.603
REMARK  2 active torsions:
REMARK  status: ('A' for Active; 'I' for Inactive)
REMARK    1  A    between atoms: C_4  and  C_5 
REMARK       I    between atoms: N_12  and  C_13 
REMARK    2  A    between atoms: C_13  and  C_14 
ROOT
HETATM    1  C   UNL     1      -8.413   4.950 -30.504  1.00  0.00     0.097 A 
HETATM    2  N   UNL     1      -7.916   5.334 -29.311  1.00  0.00    -0.173 NA
HETATM    3  N   UNL     1      -7.113   4.334 -28.922  1.00  0.00    -0.281 N 
HETATM    4  H   UNL     1      -6.625   4.427 -28.037  1.00  0.00     0.189 HD
HETATM    5  C   UNL     1      -7.068   3.319 -29.817  1.00  0.00     0.039 A 
HETATM    6  C   UNL     1      -7.896   3.666 -30.859  1.00  0.00     0.015 A 
HETATM    7  C   UNL     1      -8.110   2.805 -32.050  1.00  0.00     0.168 C 
HETATM    8  N   UNL     1      -7.235   1.609 -32.034  1.00  0.00    -0.347 N 
HETATM    9  C   UNL     1      -7.309   0.836 -33.194  1.00  0.00     0.226 C 
HETATM   10  O   UNL     1      -7.940   1.227 -34.181  1.00  0.00    -0.273 OA
HETATM   11  C   UNL     1      -6.862   1.048 -30.711  1.00  0.00     0.132 C 
HETATM   12  C   UNL     1      -6.264   2.086 -29.738  1.00  0.00     0.079 C 
ENDROOT
BRANCH   9  13
HETATM   13  C   UNL     1      -6.570  -0.491 -33.232  1.00  0.00     0.106 C 
HETATM   14  C   UNL     1      -5.118  -0.286 -33.641  1.00  0.00     0.190 C 
HETATM   15  O   UNL     1      -4.359  -1.496 -33.515  1.00  0.00    -0.350 OA
HETATM   16  C   UNL     1      -4.955  -2.603 -34.061  1.00  0.00     0.075 A 
HETATM   17  C   UNL     1      -6.309  -2.657 -34.416  1.00  0.00    -0.024 A 
HETATM   18  C   UNL     1      -4.143  -3.726 -34.216  1.00  0.00     0.037 A 
HETATM   19  C   UNL     1      -7.193  -1.453 -34.245  1.00  0.00     0.057 C 
HETATM   20  C   UNL     1      -6.828  -3.838 -34.963  1.00  0.00     0.010 A 
HETATM   21  C   UNL     1      -6.011  -4.958 -35.125  1.00  0.00     0.001 A 
HETATM   22  C   UNL     1      -4.670  -4.903 -34.749  1.00  0.00     0.003 A 
ENDBRANCH   9  13
BRANCH   1  23
HETATM   23  C   UNL     1      -9.325   5.830 -31.246  1.00  0.00    -0.005 A 
HETATM   24  C   UNL     1      -8.907   6.403 -32.459  1.00  0.00     0.014 A 
HETATM   25  C   UNL     1      -9.757   7.233 -33.196  1.00  0.00     0.001 A 
HETATM   26  C   UNL     1     -11.040   7.505 -32.729  1.00  0.00     0.000 A 
HETATM   27  C   UNL     1     -11.467   6.956 -31.522  1.00  0.00     0.001 A 
HETATM   28  C   UNL     1     -10.613   6.130 -30.782  1.00  0.00     0.014 A 
ENDBRANCH   1  23
TORSDOF 2
ENDMDL
MODEL 8
REMARK VINA RESULT:      -8.4      2.945      9.089
REMARK  2 active torsions:
REMARK  status: ('A' for Active; 'I' for Inactive)
REMARK    1  A    between atoms: C_4  and  C_5 
REMARK       I    between atoms: N_12  and  C_13 
REMARK    2  A    between atoms: C_13  and  C_14 
ROOT
HETATM    1  C   UNL     1      -5.868  -1.273 -34.279  1.00  0.00     0.097 A 
HETATM    2  N   UNL     1      -6.880  -1.305 -35.171  1.00  0.00    -0.173 NA
HETATM    3  N   UNL     1      -7.344  -0.049 -35.226  1.00  0.00    -0.281 N 
HETATM    4  H   UNL     1      -8.116   0.150 -35.855  1.00  0.00     0.189 HD
HETATM    5  C   UNL     1      -6.672   0.796 -34.409  1.00  0.00     0.039 A 
HETATM    6  C   UNL     1      -5.708   0.052 -33.769  1.00  0.00     0.015 A 
HETATM    7  C   UNL     1      -4.754   0.629 -32.787  1.00  0.00     0.168 C 
HETATM    8  N   UNL     1      -4.885   2.101 -32.685  1.00  0.00    -0.347 N 
HETATM    9  C   UNL     1      -3.924   2.701 -31.869  1.00  0.00     0.226 C 
HETATM   10  O   UNL     1      -2.977   2.051 -31.417  1.00  0.00    -0.273 OA
HETATM   11  C   UNL     1      -6.229   2.689 -32.920  1.00  0.00     0.132 C 
HETATM   12  C   UNL     1      -6.882   2.245 -34.245  1.00  0.00     0.079 C 
ENDROOT
BRANCH   9  13
HETATM   13  C   UNL     1      -4.049   4.186 -31.571  1.00  0.00     0.106 C 
HETATM   14  C   UNL     1      -2.674   4.815 -31.391  1.00  0.00     0.190 C 
HETATM   15  O   UNL     1      -2.757   6.242 -31.283  1.00  0.00    -0.350 OA
HETATM   16  C   UNL     1      -3.710   6.693 -30.406  1.00  0.00     0.075 A 
HETATM   17  C   UNL     1      -4.740   5.888 -29.903  1.00  0.00    -0.024 A 
HETATM   18  C   UNL     1      -3.636   8.041 -30.057  1.00  0.00     0.037 A 
HETATM   19  C   UNL     1      -4.832   4.437 -30.281  1.00  0.00     0.057 C 
HETATM   20  C   UNL     1      -5.671   6.443 -29.015  1.00  0.00     0.010 A 
HETATM   21  C   UNL     1      -5.590   7.790 -28.659  1.00  0.00     0.001 A 
HETATM   22  C   UNL     1      -4.575   8.589 -29.182  1.00  0.00     0.003 A 
ENDBRANCH   9  13
BRANCH   1  23
HETATM   23  C   UNL     1      -5.100  -2.490 -33.984  1.00  0.00    -0.005 A 
HETATM   24  C   UNL     1      -4.076  -2.451 -33.023  1.00  0.00     0.014 A 
HETATM   25  C   UNL     1      -3.337  -3.596 -32.710  1.00  0.00     0.001 A 
HETATM   26  C   UNL     1      -3.611  -4.798 -33.355  1.00  0.00     0.000 A 
HETATM   27  C   UNL     1      -4.615  -4.852 -34.320  1.00  0.00     0.001 A 
HETATM   28  C   UNL     1      -5.350  -3.705 -34.637  1.00  0.00     0.014 A 
ENDBRANCH   1  23
TORSDOF 2
ENDMDL
MODEL 9
REMARK VINA RESULT:      -8.2      4.438      5.824
REMARK  2 active torsions:
REMARK  status: ('A' for Active; 'I' for Inactive)
REMARK    1  A    between atoms: C_4  and  C_5 
REMARK       I    between atoms: N_12  and  C_13 
REMARK    2  A    between atoms: C_13  and  C_14 
ROOT
HETATM    1  C   UNL     1      -8.571   4.636 -31.029  1.00  0.00     0.097 A 
HETATM    2  N   UNL     1      -9.810   4.544 -30.507  1.00  0.00    -0.173 NA
HETATM    3  N   UNL     1     -10.109   3.237 -30.532  1.00  0.00    -0.281 N 
HETATM    4  H   UNL     1     -11.011   2.944 -30.170  1.00  0.00     0.189 HD
HETATM    5  C   UNL     1      -9.111   2.480 -31.046  1.00  0.00     0.039 A 
HETATM    6  C   UNL     1      -8.092   3.339 -31.388  1.00  0.00     0.015 A 
HETATM    7  C   UNL     1      -6.810   2.883 -31.984  1.00  0.00     0.168 C 
HETATM    8  N   UNL     1      -6.718   1.406 -32.040  1.00  0.00    -0.347 N 
HETATM    9  C   UNL     1      -5.480   0.930 -32.475  1.00  0.00     0.226 C 
HETATM   10  O   UNL     1      -4.526   1.696 -32.640  1.00  0.00    -0.273 OA
HETATM   11  C   UNL     1      -7.983   0.645 -32.211  1.00  0.00     0.132 C 
HETATM   12  C   UNL     1      -9.077   1.014 -31.188  1.00  0.00     0.079 C 
ENDROOT
BRANCH   9  13
HETATM   13  C   UNL     1      -5.318  -0.561 -32.715  1.00  0.00     0.106 C 
HETATM   14  C   UNL     1      -3.863  -0.903 -33.010  1.00  0.00     0.190 C 
HETATM   15  O   UNL     1      -3.656  -2.321 -33.067  1.00  0.00    -0.350 OA
HETATM   16  C   UNL     1      -4.568  -3.001 -33.832  1.00  0.00     0.075 A 
HETATM   17  C   UNL     1      -5.785  -2.451 -34.256  1.00  0.00    -0.024 A 
HETATM   18  C   UNL     1      -4.246  -4.320 -34.146  1.00  0.00     0.037 A 
HETATM   19  C   UNL     1      -6.144  -1.032 -33.914  1.00  0.00     0.057 C 
HETATM   20  C   UNL     1      -6.655  -3.228 -35.030  1.00  0.00     0.010 A 
HETATM   21  C   UNL     1      -6.326  -4.547 -35.352  1.00  0.00     0.001 A 
HETATM   22  C   UNL     1      -5.124  -5.093 -34.907  1.00  0.00     0.003 A 
ENDBRANCH   9  13
BRANCH   1  23
HETATM   23  C   UNL     1      -7.905   5.942 -31.133  1.00  0.00    -0.005 A 
HETATM   24  C   UNL     1      -6.802   6.228 -30.311  1.00  0.00     0.014 A 
HETATM   25  C   UNL     1      -6.138   7.456 -30.397  1.00  0.00     0.001 A 
HETATM   26  C   UNL     1      -6.570   8.418 -31.305  1.00  0.00     0.000 A 
HETATM   27  C   UNL     1      -7.669   8.156 -32.119  1.00  0.00     0.001 A 
HETATM   28  C   UNL     1      -8.337   6.929 -32.029  1.00  0.00     0.014 A 
ENDBRANCH   1  23
TORSDOF 2
ENDMDL
MODEL 10
REMARK VINA RESULT:      -8.1     17.896     19.901
REMARK  2 active torsions:
REMARK  status: ('A' for Active; 'I' for Inactive)
REMARK    1  A    between atoms: C_4  and  C_5 
REMARK       I    between atoms: N_12  and  C_13 
REMARK    2  A    between atoms: C_13  and  C_14 
ROOT
HETATM    1  C   UNL     1      -6.883 -12.887 -38.889  1.00  0.00     0.097 A 
HETATM    2  N   UNL     1      -5.984 -12.270 -39.683  1.00  0.00    -0.173 NA
HETATM    3  N   UNL     1      -4.850 -12.230 -38.970  1.00  0.00    -0.281 N 
HETATM    4  H   UNL     1      -4.031 -11.806 -39.394  1.00  0.00     0.189 HD
HETATM    5  C   UNL     1      -4.978 -12.800 -37.748  1.00  0.00     0.039 A 
HETATM    6  C   UNL     1      -6.278 -13.237 -37.644  1.00  0.00     0.015 A 
HETATM    7  C   UNL     1      -6.810 -13.927 -36.441  1.00  0.00     0.168 C 
HETATM    8  N   UNL     1      -5.750 -14.195 -35.441  1.00  0.00    -0.347 N 
HETATM    9  C   UNL     1      -6.178 -14.954 -34.350  1.00  0.00     0.226 C 
HETATM   10  O   UNL     1      -7.301 -15.466 -34.331  1.00  0.00    -0.273 OA
HETATM   11  C   UNL     1      -4.619 -13.236 -35.365  1.00  0.00     0.132 C 
HETATM   12  C   UNL     1      -3.934 -12.969 -36.721  1.00  0.00     0.079 C 
ENDROOT
BRANCH   9  13
HETATM   13  C   UNL     1      -5.219 -15.165 -33.190  1.00  0.00     0.106 C 
HETATM   14  C   UNL     1      -4.129 -16.158 -33.568  1.00  0.00     0.190 C 
HETATM   15  O   UNL     1      -3.117 -16.241 -32.557  1.00  0.00    -0.350 OA
HETATM   16  C   UNL     1      -3.596 -16.379 -31.280  1.00  0.00     0.075 A 
HETATM   17  C   UNL     1      -4.928 -16.132 -30.923  1.00  0.00    -0.024 A 
HETATM   18  C   UNL     1      -2.665 -16.746 -30.309  1.00  0.00     0.037 A 
HETATM   19  C   UNL     1      -5.937 -15.728 -31.962  1.00  0.00     0.057 C 
HETATM   20  C   UNL     1      -5.322 -16.295 -29.588  1.00  0.00     0.010 A 
HETATM   21  C   UNL     1      -4.390 -16.671 -28.619  1.00  0.00     0.001 A 
HETATM   22  C   UNL     1      -3.062 -16.894 -28.979  1.00  0.00     0.003 A 
ENDBRANCH   9  13
BRANCH   1  23
HETATM   23  C   UNL     1      -8.252 -13.130 -39.368  1.00  0.00    -0.005 A 
HETATM   24  C   UNL     1      -9.050 -12.047 -39.773  1.00  0.00     0.014 A 
HETATM   25  C   UNL     1     -10.350 -12.248 -40.246  1.00  0.00     0.001 A 
HETATM   26  C   UNL     1     -10.873 -13.536 -40.319  1.00  0.00     0.000 A 
HETATM   27  C   UNL     1     -10.100 -14.620 -39.910  1.00  0.00     0.001 A 
HETATM   28  C   UNL     1      -8.800 -14.418 -39.431  1.00  0.00     0.014 A 
ENDBRANCH   1  23
TORSDOF 2
ENDMDL
