MODEL 1
REMARK VINA RESULT:     -10.1      0.000      0.000
REMARK  3 active torsions:
REMARK  status: ('A' for Active; 'I' for Inactive)
REMARK    1  A    between atoms: C_2  and  N_3 
REMARK    2  A    between atoms: C_8  and  C_9 
REMARK       I    between atoms: C_9  and  N_10 
REMARK    3  A    between atoms: N_10  and  C_11 
ROOT
HETATM    1  C   UNL     1      -8.308   0.478 -32.828  1.00  0.00     0.036 A 
HETATM    2  C   UNL     1      -7.626  -0.617 -33.356  1.00  0.00     0.049 A 
HETATM    3  C   UNL     1      -6.224  -0.719 -33.273  1.00  0.00     0.061 A 
HETATM    4  C   UNL     1      -5.492   0.283 -32.625  1.00  0.00     0.050 A 
HETATM    5  N   UNL     1      -4.111   0.258 -32.359  1.00  0.00    -0.324 N 
HETATM    6  C   UNL     1      -3.310  -0.831 -32.137  1.00  0.00     0.245 C 
HETATM    7  O   UNL     1      -2.164  -0.631 -31.725  1.00  0.00    -0.271 OA
HETATM    8  C   UNL     1      -3.933  -2.224 -32.216  1.00  0.00     0.180 C 
HETATM    9  N   UNL     1      -4.497  -2.451 -33.536  1.00  0.00    -0.334 N 
HETATM   10  C   UNL     1      -5.619  -1.839 -34.036  1.00  0.00     0.256 C 
HETATM   11  O   UNL     1      -6.140  -2.189 -35.093  1.00  0.00    -0.267 OA
HETATM   12  C   UNL     1      -2.904  -3.349 -32.045  1.00  0.00     0.037 C 
HETATM   13  C   UNL     1      -3.408  -4.440 -32.981  1.00  0.00     0.022 C 
HETATM   14  C   UNL     1      -3.951  -3.644 -34.156  1.00  0.00     0.127 C 
HETATM   15  C   UNL     1      -6.173   1.428 -32.181  1.00  0.00     0.033 A 
HETATM   16  C   UNL     1      -7.566   1.525 -32.282  1.00  0.00     0.032 A 
HETATM   17  H   UNL     1      -3.659   1.122 -32.080  1.00  0.00     0.169 HD
ENDROOT
BRANCH   1  18
HETATM   18  N   UNL     1      -9.714   0.597 -32.838  1.00  0.00    -0.323 N 
HETATM   19  C   UNL     1     -10.448   1.434 -33.666  1.00  0.00     0.256 C 
HETATM   20  O   UNL     1      -9.984   2.140 -34.555  1.00  0.00    -0.267 OA
HETATM   21  H   UNL     1     -10.216  -0.016 -32.213  1.00  0.00     0.169 HD
BRANCH  19  22
HETATM   22  C   UNL     1     -11.927   1.464 -33.455  1.00  0.00     0.034 A 
HETATM   23  C   UNL     1     -12.776   0.412 -33.807  1.00  0.00     0.018 A 
HETATM   24  C   UNL     1     -14.158   0.507 -33.580  1.00  0.00     0.015 A 
HETATM   25  C   UNL     1     -14.696   1.675 -33.005  1.00  0.00    -0.008 A 
HETATM   26  C   UNL     1     -13.839   2.728 -32.679  1.00  0.00     0.045 A 
HETATM   27  C   UNL     1     -16.009   2.078 -32.645  1.00  0.00     0.031 A 
HETATM   28  N   UNL     1     -14.616   3.745 -32.149  1.00  0.00    -0.352 N 
HETATM   29  C   UNL     1     -12.454   2.641 -32.896  1.00  0.00     0.047 A 
HETATM   30  C   UNL     1     -15.929   3.343 -32.109  1.00  0.00     0.092 A 
BRANCH  28  31
HETATM   31  C   UNL     1     -14.101   5.023 -31.653  1.00  0.00     0.081 C 
HETATM   32  C   UNL     1     -13.612   4.882 -30.213  1.00  0.00     0.032 C 
HETATM   33  C   UNL     1     -15.101   6.174 -31.789  1.00  0.00     0.032 C 
ENDBRANCH  28  31
ENDBRANCH  19  22
ENDBRANCH   1  18
TORSDOF 3
ENDMDL
MODEL 2
REMARK VINA RESULT:      -9.6      5.456      9.463
REMARK  3 active torsions:
REMARK  status: ('A' for Active; 'I' for Inactive)
REMARK    1  A    between atoms: C_2  and  N_3 
REMARK    2  A    between atoms: C_8  and  C_9 
REMARK       I    between atoms: C_9  and  N_10 
REMARK    3  A    between atoms: N_10  and  C_11 
ROOT
HETATM    1  C   UNL     1      -4.092   4.286 -32.718  1.00  0.00     0.036 A 
HETATM    2  C   UNL     1      -2.918   4.277 -31.967  1.00  0.00     0.049 A 
HETATM    3  C   UNL     1      -2.364   5.466 -31.457  1.00  0.00     0.061 A 
HETATM    4  C   UNL     1      -3.012   6.687 -31.681  1.00  0.00     0.050 A 
HETATM    5  N   UNL     1      -2.648   7.930 -31.134  1.00  0.00    -0.324 N 
HETATM    6  C   UNL     1      -2.030   8.182 -29.937  1.00  0.00     0.245 C 
HETATM    7  O   UNL     1      -1.976   9.352 -29.550  1.00  0.00    -0.271 OA
HETATM    8  C   UNL     1      -1.627   6.997 -29.060  1.00  0.00     0.180 C 
HETATM    9  N   UNL     1      -0.701   6.134 -29.772  1.00  0.00    -0.334 N 
HETATM   10  C   UNL     1      -1.021   5.331 -30.838  1.00  0.00     0.256 C 
HETATM   11  O   UNL     1      -0.236   4.504 -31.296  1.00  0.00    -0.267 OA
HETATM   12  C   UNL     1      -0.860   7.420 -27.801  1.00  0.00     0.037 C 
HETATM   13  C   UNL     1       0.153   6.299 -27.605  1.00  0.00     0.022 C 
HETATM   14  C   UNL     1       0.533   5.945 -29.033  1.00  0.00     0.127 C 
HETATM   15  C   UNL     1      -4.140   6.702 -32.518  1.00  0.00     0.033 A 
HETATM   16  C   UNL     1      -4.674   5.514 -33.032  1.00  0.00     0.032 A 
HETATM   17  H   UNL     1      -3.055   8.769 -31.532  1.00  0.00     0.169 HD
ENDROOT
BRANCH   1  18
HETATM   18  N   UNL     1      -4.714   3.115 -33.204  1.00  0.00    -0.323 N 
HETATM   19  C   UNL     1      -5.125   2.040 -32.431  1.00  0.00     0.256 C 
HETATM   20  O   UNL     1      -5.069   1.979 -31.207  1.00  0.00    -0.267 OA
HETATM   21  H   UNL     1      -4.907   3.093 -34.194  1.00  0.00     0.169 HD
BRANCH  19  22
HETATM   22  C   UNL     1      -5.690   0.863 -33.159  1.00  0.00     0.034 A 
HETATM   23  C   UNL     1      -6.923   0.884 -33.815  1.00  0.00     0.018 A 
HETATM   24  C   UNL     1      -7.394  -0.259 -34.480  1.00  0.00     0.015 A 
HETATM   25  C   UNL     1      -6.626  -1.440 -34.478  1.00  0.00    -0.008 A 
HETATM   26  C   UNL     1      -5.406  -1.454 -33.799  1.00  0.00     0.045 A 
HETATM   27  C   UNL     1      -6.804  -2.729 -35.045  1.00  0.00     0.031 A 
HETATM   28  N   UNL     1      -4.868  -2.722 -33.941  1.00  0.00    -0.352 N 
HETATM   29  C   UNL     1      -4.922  -0.314 -33.136  1.00  0.00     0.047 A 
HETATM   30  C   UNL     1      -5.705  -3.489 -34.714  1.00  0.00     0.092 A 
BRANCH  28  31
HETATM   31  C   UNL     1      -3.576  -3.151 -33.401  1.00  0.00     0.081 C 
HETATM   32  C   UNL     1      -3.391  -4.656 -33.584  1.00  0.00     0.032 C 
HETATM   33  C   UNL     1      -3.361  -2.739 -31.942  1.00  0.00     0.032 C 
ENDBRANCH  28  31
ENDBRANCH  19  22
ENDBRANCH   1  18
TORSDOF 3
ENDMDL
MODEL 3
REMARK VINA RESULT:      -9.5      5.313      9.045
REMARK  3 active torsions:
REMARK  status: ('A' for Active; 'I' for Inactive)
REMARK    1  A    between atoms: C_2  and  N_3 
REMARK    2  A    between atoms: C_8  and  C_9 
REMARK       I    between atoms: C_9  and  N_10 
REMARK    3  A    between atoms: N_10  and  C_11 
ROOT
HETATM    1  C   UNL     1      -4.876   2.925 -31.855  1.00  0.00     0.036 A 
HETATM    2  C   UNL     1      -3.814   3.710 -32.300  1.00  0.00     0.049 A 
HETATM    3  C   UNL     1      -3.446   4.893 -31.632  1.00  0.00     0.061 A 
HETATM    4  C   UNL     1      -4.138   5.285 -30.479  1.00  0.00     0.050 A 
HETATM    5  N   UNL     1      -3.807   6.366 -29.644  1.00  0.00    -0.324 N 
HETATM    6  C   UNL     1      -2.569   6.899 -29.395  1.00  0.00     0.245 C 
HETATM    7  O   UNL     1      -2.466   7.718 -28.478  1.00  0.00    -0.271 OA
HETATM    8  C   UNL     1      -1.361   6.308 -30.121  1.00  0.00     0.180 C 
HETATM    9  N   UNL     1      -1.527   6.430 -31.559  1.00  0.00    -0.334 N 
HETATM   10  C   UNL     1      -2.424   5.722 -32.319  1.00  0.00     0.256 C 
HETATM   11  O   UNL     1      -2.408   5.750 -33.548  1.00  0.00    -0.267 OA
HETATM   12  C   UNL     1      -0.059   7.063 -29.824  1.00  0.00     0.037 C 
HETATM   13  C   UNL     1       0.698   7.004 -31.145  1.00  0.00     0.022 C 
HETATM   14  C   UNL     1      -0.416   7.136 -32.170  1.00  0.00     0.127 C 
HETATM   15  C   UNL     1      -5.265   4.544 -30.092  1.00  0.00     0.033 A 
HETATM   16  C   UNL     1      -5.631   3.376 -30.772  1.00  0.00     0.032 A 
HETATM   17  H   UNL     1      -4.495   6.680 -28.968  1.00  0.00     0.169 HD
ENDROOT
BRANCH   1  18
HETATM   18  N   UNL     1      -5.247   1.704 -32.458  1.00  0.00    -0.323 N 
HETATM   19  C   UNL     1      -5.952   1.570 -33.644  1.00  0.00     0.256 C 
HETATM   20  O   UNL     1      -6.295   2.493 -34.376  1.00  0.00    -0.267 OA
HETATM   21  H   UNL     1      -4.929   0.865 -31.995  1.00  0.00     0.169 HD
BRANCH  19  22
HETATM   22  C   UNL     1      -6.312   0.182 -34.064  1.00  0.00     0.034 A 
HETATM   23  C   UNL     1      -7.528  -0.150 -34.664  1.00  0.00     0.018 A 
HETATM   24  C   UNL     1      -7.801  -1.477 -35.034  1.00  0.00     0.015 A 
HETATM   25  C   UNL     1      -6.847  -2.485 -34.787  1.00  0.00    -0.008 A 
HETATM   26  C   UNL     1      -5.645  -2.143 -34.165  1.00  0.00     0.045 A 
HETATM   27  C   UNL     1      -6.807  -3.881 -35.037  1.00  0.00     0.031 A 
HETATM   28  N   UNL     1      -4.905  -3.305 -34.031  1.00  0.00    -0.352 N 
HETATM   29  C   UNL     1      -5.360  -0.818 -33.797  1.00  0.00     0.047 A 
HETATM   30  C   UNL     1      -5.600  -4.356 -34.578  1.00  0.00     0.092 A 
BRANCH  28  31
HETATM   31  C   UNL     1      -3.562  -3.383 -33.451  1.00  0.00     0.081 C 
HETATM   32  C   UNL     1      -3.090  -4.833 -33.382  1.00  0.00     0.032 C 
HETATM   33  C   UNL     1      -3.450  -2.697 -32.086  1.00  0.00     0.032 C 
ENDBRANCH  28  31
ENDBRANCH  19  22
ENDBRANCH   1  18
TORSDOF 3
ENDMDL
MODEL 4
REMARK VINA RESULT:      -9.3      6.218     10.244
REMARK  3 active torsions:
REMARK  status: ('A' for Active; 'I' for Inactive)
REMARK    1  A    between atoms: C_2  and  N_3 
REMARK    2  A    between atoms: C_8  and  C_9 
REMARK       I    between atoms: C_9  and  N_10 
REMARK    3  A    between atoms: N_10  and  C_11 
ROOT
HETATM    1  C   UNL     1      -4.942   4.359 -31.134  1.00  0.00     0.036 A 
HETATM    2  C   UNL     1      -4.927   2.995 -31.425  1.00  0.00     0.049 A 
HETATM    3  C   UNL     1      -6.059   2.344 -31.950  1.00  0.00     0.061 A 
HETATM    4  C   UNL     1      -7.222   3.077 -32.215  1.00  0.00     0.050 A 
HETATM    5  N   UNL     1      -8.379   2.592 -32.848  1.00  0.00    -0.324 N 
HETATM    6  C   UNL     1      -8.479   1.601 -33.790  1.00  0.00     0.245 C 
HETATM    7  O   UNL     1      -9.559   1.459 -34.368  1.00  0.00    -0.271 OA
HETATM    8  C   UNL     1      -7.207   0.868 -34.216  1.00  0.00     0.180 C 
HETATM    9  N   UNL     1      -6.591   0.220 -33.070  1.00  0.00    -0.334 N 
HETATM   10  C   UNL     1      -5.962   0.865 -32.035  1.00  0.00     0.256 C 
HETATM   11  O   UNL     1      -5.320   0.260 -31.179  1.00  0.00    -0.267 OA
HETATM   12  C   UNL     1      -7.479  -0.278 -35.198  1.00  0.00     0.037 C 
HETATM   13  C   UNL     1      -6.458  -1.338 -34.805  1.00  0.00     0.022 C 
HETATM   14  C   UNL     1      -6.408  -1.202 -33.292  1.00  0.00     0.127 C 
HETATM   15  C   UNL     1      -7.263   4.427 -31.832  1.00  0.00     0.033 A 
HETATM   16  C   UNL     1      -6.135   5.061 -31.296  1.00  0.00     0.032 A 
HETATM   17  H   UNL     1      -9.226   3.146 -32.794  1.00  0.00     0.169 HD
ENDROOT
BRANCH   1  18
HETATM   18  N   UNL     1      -3.816   5.065 -30.659  1.00  0.00    -0.323 N 
HETATM   19  C   UNL     1      -2.808   5.602 -31.445  1.00  0.00     0.256 C 
HETATM   20  O   UNL     1      -2.784   5.598 -32.672  1.00  0.00    -0.267 OA
HETATM   21  H   UNL     1      -3.778   5.222 -29.663  1.00  0.00     0.169 HD
BRANCH  19  22
HETATM   22  C   UNL     1      -1.663   6.243 -30.730  1.00  0.00     0.034 A 
HETATM   23  C   UNL     1      -0.372   6.318 -31.257  1.00  0.00     0.018 A 
HETATM   24  C   UNL     1       0.658   6.936 -30.530  1.00  0.00     0.015 A 
HETATM   25  C   UNL     1       0.393   7.475 -29.256  1.00  0.00    -0.008 A 
HETATM   26  C   UNL     1      -0.897   7.373 -28.732  1.00  0.00     0.045 A 
HETATM   27  C   UNL     1       1.183   8.154 -28.292  1.00  0.00     0.031 A 
HETATM   28  N   UNL     1      -0.882   7.963 -27.479  1.00  0.00    -0.352 N 
HETATM   29  C   UNL     1      -1.936   6.763 -29.453  1.00  0.00     0.047 A 
HETATM   30  C   UNL     1       0.374   8.455 -27.220  1.00  0.00     0.092 A 
BRANCH  28  31
HETATM   31  C   UNL     1      -2.045   8.093 -26.598  1.00  0.00     0.081 C 
HETATM   32  C   UNL     1      -1.942   9.363 -25.757  1.00  0.00     0.032 C 
HETATM   33  C   UNL     1      -2.282   6.862 -25.718  1.00  0.00     0.032 C 
ENDBRANCH  28  31
ENDBRANCH  19  22
ENDBRANCH   1  18
TORSDOF 3
ENDMDL
MODEL 5
REMARK VINA RESULT:      -9.2      5.943     10.367
REMARK  3 active torsions:
REMARK  status: ('A' for Active; 'I' for Inactive)
REMARK    1  A    between atoms: C_2  and  N_3 
REMARK    2  A    between atoms: C_8  and  C_9 
REMARK       I    between atoms: C_9  and  N_10 
REMARK    3  A    between atoms: N_10  and  C_11 
ROOT
HETATM    1  C   UNL     1      -3.796   3.158 -31.834  1.00  0.00     0.036 A 
HETATM    2  C   UNL     1      -5.038   3.495 -32.371  1.00  0.00     0.049 A 
HETATM    3  C   UNL     1      -5.888   2.518 -32.922  1.00  0.00     0.061 A 
HETATM    4  C   UNL     1      -5.499   1.172 -32.912  1.00  0.00     0.050 A 
HETATM    5  N   UNL     1      -6.289   0.080 -33.312  1.00  0.00    -0.324 N 
HETATM    6  C   UNL     1      -7.653  -0.045 -33.258  1.00  0.00     0.245 C 
HETATM    7  O   UNL     1      -8.140  -1.158 -33.471  1.00  0.00    -0.271 OA
HETATM    8  C   UNL     1      -8.475   1.137 -32.746  1.00  0.00     0.180 C 
HETATM    9  N   UNL     1      -8.249   2.307 -33.577  1.00  0.00    -0.334 N 
HETATM   10  C   UNL     1      -7.089   3.038 -33.623  1.00  0.00     0.256 C 
HETATM   11  O   UNL     1      -7.011   4.109 -34.221  1.00  0.00    -0.267 OA
HETATM   12  C   UNL     1      -9.987   0.895 -32.834  1.00  0.00     0.037 C 
HETATM   13  C   UNL     1     -10.550   2.268 -33.179  1.00  0.00     0.022 C 
HETATM   14  C   UNL     1      -9.492   2.834 -34.111  1.00  0.00     0.127 C 
HETATM   15  C   UNL     1      -4.210   0.852 -32.458  1.00  0.00     0.033 A 
HETATM   16  C   UNL     1      -3.366   1.835 -31.925  1.00  0.00     0.032 A 
HETATM   17  H   UNL     1      -5.835  -0.814 -33.461  1.00  0.00     0.169 HD
ENDROOT
BRANCH   1  18
HETATM   18  N   UNL     1      -2.934   4.094 -31.221  1.00  0.00    -0.323 N 
HETATM   19  C   UNL     1      -1.998   4.878 -31.876  1.00  0.00     0.256 C 
HETATM   20  O   UNL     1      -1.830   4.922 -33.091  1.00  0.00    -0.267 OA
HETATM   21  H   UNL     1      -3.051   4.220 -30.227  1.00  0.00     0.169 HD
BRANCH  19  22
HETATM   22  C   UNL     1      -1.130   5.746 -31.024  1.00  0.00     0.034 A 
HETATM   23  C   UNL     1       0.184   6.085 -31.357  1.00  0.00     0.018 A 
HETATM   24  C   UNL     1       0.944   6.906 -30.510  1.00  0.00     0.015 A 
HETATM   25  C   UNL     1       0.384   7.384 -29.308  1.00  0.00    -0.008 A 
HETATM   26  C   UNL     1      -0.922   7.019 -28.976  1.00  0.00     0.045 A 
HETATM   27  C   UNL     1       0.865   8.216 -28.263  1.00  0.00     0.031 A 
HETATM   28  N   UNL     1      -1.217   7.605 -27.756  1.00  0.00    -0.352 N 
HETATM   29  C   UNL     1      -1.693   6.204 -29.820  1.00  0.00     0.047 A 
HETATM   30  C   UNL     1      -0.142   8.348 -27.334  1.00  0.00     0.092 A 
BRANCH  28  31
HETATM   31  C   UNL     1      -2.502   7.495 -27.062  1.00  0.00     0.081 C 
HETATM   32  C   UNL     1      -3.298   8.791 -27.198  1.00  0.00     0.032 C 
HETATM   33  C   UNL     1      -2.365   7.080 -25.594  1.00  0.00     0.032 C 
ENDBRANCH  28  31
ENDBRANCH  19  22
ENDBRANCH   1  18
TORSDOF 3
ENDMDL
MODEL 6
REMARK VINA RESULT:      -9.0      2.059      9.864
REMARK  3 active torsions:
REMARK  status: ('A' for Active; 'I' for Inactive)
REMARK    1  A    between atoms: C_2  and  N_3 
REMARK    2  A    between atoms: C_8  and  C_9 
REMARK       I    between atoms: C_9  and  N_10 
REMARK    3  A    between atoms: N_10  and  C_11 
ROOT
HETATM    1  C   UNL     1     -10.902   0.465 -33.258  1.00  0.00     0.036 A 
HETATM    2  C   UNL     1     -11.307   1.799 -33.255  1.00  0.00     0.049 A 
HETATM    3  C   UNL     1     -12.666   2.154 -33.340  1.00  0.00     0.061 A 
HETATM    4  C   UNL     1     -13.643   1.153 -33.403  1.00  0.00     0.050 A 
HETATM    5  N   UNL     1     -15.035   1.352 -33.368  1.00  0.00    -0.324 N 
HETATM    6  C   UNL     1     -15.733   2.355 -32.748  1.00  0.00     0.245 C 
HETATM    7  O   UNL     1     -16.958   2.242 -32.667  1.00  0.00    -0.271 OA
HETATM    8  C   UNL     1     -14.949   3.448 -32.020  1.00  0.00     0.180 C 
HETATM    9  N   UNL     1     -14.066   4.137 -32.946  1.00  0.00    -0.334 N 
HETATM   10  C   UNL     1     -12.937   3.603 -33.515  1.00  0.00     0.256 C 
HETATM   11  O   UNL     1     -12.144   4.284 -34.161  1.00  0.00    -0.267 OA
HETATM   12  C   UNL     1     -15.850   4.556 -31.460  1.00  0.00     0.037 C 
HETATM   13  C   UNL     1     -15.015   5.818 -31.632  1.00  0.00     0.022 C 
HETATM   14  C   UNL     1     -14.307   5.568 -32.953  1.00  0.00     0.127 C 
HETATM   15  C   UNL     1     -13.226  -0.184 -33.502  1.00  0.00     0.033 A 
HETATM   16  C   UNL     1     -11.870  -0.525 -33.431  1.00  0.00     0.032 A 
HETATM   17  H   UNL     1     -15.638   0.582 -33.632  1.00  0.00     0.169 HD
ENDROOT
BRANCH   1  18
HETATM   18  N   UNL     1      -9.557   0.059 -33.119  1.00  0.00    -0.323 N 
HETATM   19  C   UNL     1      -8.590   0.115 -34.111  1.00  0.00     0.256 C 
HETATM   20  O   UNL     1      -8.747   0.589 -35.232  1.00  0.00    -0.267 OA
HETATM   21  H   UNL     1      -9.281  -0.258 -32.201  1.00  0.00     0.169 HD
BRANCH  19  22
HETATM   22  C   UNL     1      -7.245  -0.443 -33.775  1.00  0.00     0.034 A 
HETATM   23  C   UNL     1      -6.681  -1.538 -34.432  1.00  0.00     0.018 A 
HETATM   24  C   UNL     1      -5.411  -2.011 -34.065  1.00  0.00     0.015 A 
HETATM   25  C   UNL     1      -4.704  -1.385 -33.019  1.00  0.00    -0.008 A 
HETATM   26  C   UNL     1      -5.290  -0.306 -32.355  1.00  0.00     0.045 A 
HETATM   27  C   UNL     1      -3.434  -1.603 -32.424  1.00  0.00     0.031 A 
HETATM   28  N   UNL     1      -4.403   0.108 -31.376  1.00  0.00    -0.352 N 
HETATM   29  C   UNL     1      -6.557   0.179 -32.718  1.00  0.00     0.047 A 
HETATM   30  C   UNL     1      -3.268  -0.665 -31.431  1.00  0.00     0.092 A 
BRANCH  28  31
HETATM   31  C   UNL     1      -4.621   1.236 -30.468  1.00  0.00     0.081 C 
HETATM   32  C   UNL     1      -5.937   1.069 -29.712  1.00  0.00     0.032 C 
HETATM   33  C   UNL     1      -4.550   2.598 -31.164  1.00  0.00     0.032 C 
ENDBRANCH  28  31
ENDBRANCH  19  22
ENDBRANCH   1  18
TORSDOF 3
ENDMDL
MODEL 7
REMARK VINA RESULT:      -8.8      4.307      6.080
REMARK  3 active torsions:
REMARK  status: ('A' for Active; 'I' for Inactive)
REMARK    1  A    between atoms: C_2  and  N_3 
REMARK    2  A    between atoms: C_8  and  C_9 
REMARK       I    between atoms: C_9  and  N_10 
REMARK    3  A    between atoms: N_10  and  C_11 
ROOT
HETATM    1  C   UNL     1      -5.819   2.825 -32.117  1.00  0.00     0.036 A 
HETATM    2  C   UNL     1      -5.520   4.145 -31.781  1.00  0.00     0.049 A 
HETATM    3  C   UNL     1      -4.215   4.534 -31.425  1.00  0.00     0.061 A 
HETATM    4  C   UNL     1      -3.182   3.589 -31.432  1.00  0.00     0.050 A 
HETATM    5  N   UNL     1      -1.817   3.854 -31.221  1.00  0.00    -0.324 N 
HETATM    6  C   UNL     1      -1.121   4.999 -31.508  1.00  0.00     0.245 C 
HETATM    7  O   UNL     1       0.110   4.962 -31.431  1.00  0.00    -0.271 OA
HETATM    8  C   UNL     1      -1.881   6.187 -32.097  1.00  0.00     0.180 C 
HETATM    9  N   UNL     1      -2.929   6.617 -31.187  1.00  0.00    -0.334 N 
HETATM   10  C   UNL     1      -4.080   5.921 -30.914  1.00  0.00     0.256 C 
HETATM   11  O   UNL     1      -5.002   6.408 -30.262  1.00  0.00    -0.267 OA
HETATM   12  C   UNL     1      -1.000   7.430 -32.275  1.00  0.00     0.037 C 
HETATM   13  C   UNL     1      -1.944   8.585 -31.966  1.00  0.00     0.022 C 
HETATM   14  C   UNL     1      -2.801   8.022 -30.845  1.00  0.00     0.127 C 
HETATM   15  C   UNL     1      -3.506   2.245 -31.677  1.00  0.00     0.033 A 
HETATM   16  C   UNL     1      -4.812   1.867 -32.015  1.00  0.00     0.032 A 
HETATM   17  H   UNL     1      -1.198   3.072 -31.038  1.00  0.00     0.169 HD
ENDROOT
BRANCH   1  18
HETATM   18  N   UNL     1      -7.099   2.399 -32.532  1.00  0.00    -0.323 N 
HETATM   19  C   UNL     1      -8.178   2.151 -31.698  1.00  0.00     0.256 C 
HETATM   20  O   UNL     1      -8.196   2.331 -30.485  1.00  0.00    -0.267 OA
HETATM   21  H   UNL     1      -7.237   2.313 -33.528  1.00  0.00     0.169 HD
BRANCH  19  22
HETATM   22  C   UNL     1      -9.422   1.628 -32.340  1.00  0.00     0.034 A 
HETATM   23  C   UNL     1      -9.701   0.267 -32.482  1.00  0.00     0.018 A 
HETATM   24  C   UNL     1     -10.891  -0.156 -33.096  1.00  0.00     0.015 A 
HETATM   25  C   UNL     1     -11.806   0.798 -33.585  1.00  0.00    -0.008 A 
HETATM   26  C   UNL     1     -11.503   2.155 -33.458  1.00  0.00     0.045 A 
HETATM   27  C   UNL     1     -13.066   0.709 -34.230  1.00  0.00     0.031 A 
HETATM   28  N   UNL     1     -12.548   2.866 -34.024  1.00  0.00    -0.352 N 
HETATM   29  C   UNL     1     -10.319   2.588 -32.839  1.00  0.00     0.047 A 
HETATM   30  C   UNL     1     -13.506   1.990 -34.473  1.00  0.00     0.092 A 
BRANCH  28  31
HETATM   31  C   UNL     1     -12.640   4.327 -34.074  1.00  0.00     0.081 C 
HETATM   32  C   UNL     1     -13.792   4.823 -33.203  1.00  0.00     0.032 C 
HETATM   33  C   UNL     1     -12.742   4.880 -35.498  1.00  0.00     0.032 C 
ENDBRANCH  28  31
ENDBRANCH  19  22
ENDBRANCH   1  18
TORSDOF 3
ENDMDL
MODEL 8
REMARK VINA RESULT:      -8.8      5.414      9.626
REMARK  3 active torsions:
REMARK  status: ('A' for Active; 'I' for Inactive)
REMARK    1  A    between atoms: C_2  and  N_3 
REMARK    2  A    between atoms: C_8  and  C_9 
REMARK       I    between atoms: C_9  and  N_10 
REMARK    3  A    between atoms: N_10  and  C_11 
ROOT
HETATM    1  C   UNL     1      -5.919   3.945 -30.722  1.00  0.00     0.036 A 
HETATM    2  C   UNL     1      -4.837   4.812 -30.580  1.00  0.00     0.049 A 
HETATM    3  C   UNL     1      -4.891   5.918 -29.710  1.00  0.00     0.061 A 
HETATM    4  C   UNL     1      -6.043   6.146 -28.947  1.00  0.00     0.050 A 
HETATM    5  N   UNL     1      -6.196   7.129 -27.953  1.00  0.00    -0.324 N 
HETATM    6  C   UNL     1      -5.235   7.667 -27.137  1.00  0.00     0.245 C 
HETATM    7  O   UNL     1      -5.606   8.373 -26.196  1.00  0.00    -0.271 OA
HETATM    8  C   UNL     1      -3.788   7.208 -27.312  1.00  0.00     0.180 C 
HETATM    9  N   UNL     1      -3.325   7.497 -28.659  1.00  0.00    -0.334 N 
HETATM   10  C   UNL     1      -3.744   6.856 -29.798  1.00  0.00     0.256 C 
HETATM   11  O   UNL     1      -3.201   7.032 -30.886  1.00  0.00    -0.267 OA
HETATM   12  C   UNL     1      -2.808   7.963 -26.404  1.00  0.00     0.037 C 
HETATM   13  C   UNL     1      -1.553   8.088 -27.257  1.00  0.00     0.022 C 
HETATM   14  C   UNL     1      -2.120   8.306 -28.650  1.00  0.00     0.127 C 
HETATM   15  C   UNL     1      -7.162   5.327 -29.165  1.00  0.00     0.033 A 
HETATM   16  C   UNL     1      -7.102   4.238 -30.044  1.00  0.00     0.032 A 
HETATM   17  H   UNL     1      -7.131   7.337 -27.622  1.00  0.00     0.169 HD
ENDROOT
BRANCH   1  18
HETATM   18  N   UNL     1      -5.891   2.794 -31.538  1.00  0.00    -0.323 N 
HETATM   19  C   UNL     1      -6.327   2.726 -32.853  1.00  0.00     0.256 C 
HETATM   20  O   UNL     1      -6.736   3.673 -33.517  1.00  0.00    -0.267 OA
HETATM   21  H   UNL     1      -5.478   1.970 -31.130  1.00  0.00     0.169 HD
BRANCH  19  22
HETATM   22  C   UNL     1      -6.283   1.385 -33.510  1.00  0.00     0.034 A 
HETATM   23  C   UNL     1      -7.070   1.041 -34.612  1.00  0.00     0.018 A 
HETATM   24  C   UNL     1      -6.978  -0.239 -35.181  1.00  0.00     0.015 A 
HETATM   25  C   UNL     1      -6.096  -1.190 -34.630  1.00  0.00    -0.008 A 
HETATM   26  C   UNL     1      -5.333  -0.841 -33.514  1.00  0.00     0.045 A 
HETATM   27  C   UNL     1      -5.766  -2.530 -34.961  1.00  0.00     0.031 A 
HETATM   28  N   UNL     1      -4.572  -1.947 -33.173  1.00  0.00    -0.352 N 
HETATM   29  C   UNL     1      -5.412   0.439 -32.942  1.00  0.00     0.047 A 
HETATM   30  C   UNL     1      -4.818  -2.964 -34.062  1.00  0.00     0.092 A 
BRANCH  28  31
HETATM   31  C   UNL     1      -3.609  -1.994 -32.070  1.00  0.00     0.081 C 
HETATM   32  C   UNL     1      -2.552  -0.904 -32.233  1.00  0.00     0.032 C 
HETATM   33  C   UNL     1      -2.962  -3.370 -31.887  1.00  0.00     0.032 C 
ENDBRANCH  28  31
ENDBRANCH  19  22
ENDBRANCH   1  18
TORSDOF 3
ENDMDL
MODEL 9
REMARK VINA RESULT:      -8.7      1.887     10.508
REMARK  3 active torsions:
REMARK  status: ('A' for Active; 'I' for Inactive)
REMARK    1  A    between atoms: C_2  and  N_3 
REMARK    2  A    between atoms: C_8  and  C_9 
REMARK       I    between atoms: C_9  and  N_10 
REMARK    3  A    between atoms: N_10  and  C_11 
ROOT
HETATM    1  C   UNL     1     -10.644   1.429 -33.022  1.00  0.00     0.036 A 
HETATM    2  C   UNL     1     -11.288   2.664 -32.954  1.00  0.00     0.049 A 
HETATM    3  C   UNL     1     -12.673   2.784 -33.174  1.00  0.00     0.061 A 
HETATM    4  C   UNL     1     -13.435   1.640 -33.442  1.00  0.00     0.050 A 
HETATM    5  N   UNL     1     -14.835   1.588 -33.561  1.00  0.00    -0.324 N 
HETATM    6  C   UNL     1     -15.769   2.382 -32.947  1.00  0.00     0.245 C 
HETATM    7  O   UNL     1     -16.953   2.049 -33.027  1.00  0.00    -0.271 OA
HETATM    8  C   UNL     1     -15.282   3.510 -32.037  1.00  0.00     0.180 C 
HETATM    9  N   UNL     1     -14.450   4.438 -32.785  1.00  0.00    -0.334 N 
HETATM   10  C   UNL     1     -13.189   4.173 -33.255  1.00  0.00     0.256 C 
HETATM   11  O   UNL     1     -12.472   5.047 -33.738  1.00  0.00    -0.267 OA
HETATM   12  C   UNL     1     -16.427   4.378 -31.498  1.00  0.00     0.037 C 
HETATM   13  C   UNL     1     -15.828   5.777 -31.457  1.00  0.00     0.022 C 
HETATM   14  C   UNL     1     -14.951   5.798 -32.697  1.00  0.00     0.127 C 
HETATM   15  C   UNL     1     -12.769   0.415 -33.604  1.00  0.00     0.033 A 
HETATM   16  C   UNL     1     -11.388   0.310 -33.397  1.00  0.00     0.032 A 
HETATM   17  H   UNL     1     -15.254   0.757 -33.963  1.00  0.00     0.169 HD
ENDROOT
BRANCH   1  18
HETATM   18  N   UNL     1      -9.270   1.252 -32.755  1.00  0.00    -0.323 N 
HETATM   19  C   UNL     1      -8.307   0.889 -33.684  1.00  0.00     0.256 C 
HETATM   20  O   UNL     1      -8.499   0.735 -34.886  1.00  0.00    -0.267 OA
HETATM   21  H   UNL     1      -8.971   1.452 -31.812  1.00  0.00     0.169 HD
BRANCH  19  22
HETATM   22  C   UNL     1      -6.920   0.677 -33.171  1.00  0.00     0.034 A 
HETATM   23  C   UNL     1      -6.187   1.662 -32.505  1.00  0.00     0.018 A 
HETATM   24  C   UNL     1      -4.887   1.395 -32.048  1.00  0.00     0.015 A 
HETATM   25  C   UNL     1      -4.310   0.129 -32.272  1.00  0.00    -0.008 A 
HETATM   26  C   UNL     1      -5.045  -0.839 -32.960  1.00  0.00     0.045 A 
HETATM   27  C   UNL     1      -3.058  -0.452 -31.942  1.00  0.00     0.031 A 
HETATM   28  N   UNL     1      -4.251  -1.970 -33.053  1.00  0.00    -0.352 N 
HETATM   29  C   UNL     1      -6.348  -0.584 -33.415  1.00  0.00     0.047 A 
HETATM   30  C   UNL     1      -3.054  -1.743 -32.419  1.00  0.00     0.092 A 
BRANCH  28  31
HETATM   31  C   UNL     1      -4.657  -3.230 -33.680  1.00  0.00     0.081 C 
HETATM   32  C   UNL     1      -3.597  -4.306 -33.458  1.00  0.00     0.032 C 
HETATM   33  C   UNL     1      -5.001  -3.087 -35.165  1.00  0.00     0.032 C 
ENDBRANCH  28  31
ENDBRANCH  19  22
ENDBRANCH   1  18
TORSDOF 3
ENDMDL
MODEL 10
REMARK VINA RESULT:      -8.6      6.453      9.695
REMARK  3 active torsions:
REMARK  status: ('A' for Active; 'I' for Inactive)
REMARK    1  A    between atoms: C_2  and  N_3 
REMARK    2  A    between atoms: C_8  and  C_9 
REMARK       I    between atoms: C_9  and  N_10 
REMARK    3  A    between atoms: N_10  and  C_11 
ROOT
HETATM    1  C   UNL     1      -5.685   4.028 -29.789  1.00  0.00     0.036 A 
HETATM    2  C   UNL     1      -5.264   2.846 -30.397  1.00  0.00     0.049 A 
HETATM    3  C   UNL     1      -6.185   1.871 -30.823  1.00  0.00     0.061 A 
HETATM    4  C   UNL     1      -7.558   2.094 -30.662  1.00  0.00     0.050 A 
HETATM    5  N   UNL     1      -8.592   1.273 -31.145  1.00  0.00    -0.324 N 
HETATM    6  C   UNL     1      -8.590   0.474 -32.258  1.00  0.00     0.245 C 
HETATM    7  O   UNL     1      -9.663  -0.014 -32.622  1.00  0.00    -0.271 OA
HETATM    8  C   UNL     1      -7.315   0.393 -33.097  1.00  0.00     0.180 C 
HETATM    9  N   UNL     1      -6.211  -0.102 -32.292  1.00  0.00    -0.334 N 
HETATM   10  C   UNL     1      -5.592   0.589 -31.281  1.00  0.00     0.256 C 
HETATM   11  O   UNL     1      -4.562   0.185 -30.745  1.00  0.00    -0.267 OA
HETATM   12  C   UNL     1      -7.422  -0.612 -34.252  1.00  0.00     0.037 C 
HETATM   13  C   UNL     1      -6.022  -1.205 -34.341  1.00  0.00     0.022 C 
HETATM   14  C   UNL     1      -5.600  -1.278 -32.883  1.00  0.00     0.127 C 
HETATM   15  C   UNL     1      -7.971   3.239 -29.963  1.00  0.00     0.033 A 
HETATM   16  C   UNL     1      -7.045   4.196 -29.531  1.00  0.00     0.032 A 
HETATM   17  H   UNL     1      -9.529   1.419 -30.788  1.00  0.00     0.169 HD
ENDROOT
BRANCH   1  18
HETATM   18  N   UNL     1      -4.803   5.057 -29.396  1.00  0.00    -0.323 N 
HETATM   19  C   UNL     1      -4.319   6.064 -30.217  1.00  0.00     0.256 C 
HETATM   20  O   UNL     1      -4.640   6.244 -31.387  1.00  0.00    -0.267 OA
HETATM   21  H   UNL     1      -4.546   5.073 -28.420  1.00  0.00     0.169 HD
BRANCH  19  22
HETATM   22  C   UNL     1      -3.329   7.008 -29.616  1.00  0.00     0.034 A 
HETATM   23  C   UNL     1      -2.252   7.548 -30.323  1.00  0.00     0.018 A 
HETATM   24  C   UNL     1      -1.360   8.432 -29.695  1.00  0.00     0.015 A 
HETATM   25  C   UNL     1      -1.543   8.768 -28.339  1.00  0.00    -0.008 A 
HETATM   26  C   UNL     1      -2.610   8.203 -27.638  1.00  0.00     0.045 A 
HETATM   27  C   UNL     1      -0.848   9.612 -27.434  1.00  0.00     0.031 A 
HETATM   28  N   UNL     1      -2.552   8.684 -26.340  1.00  0.00    -0.352 N 
HETATM   29  C   UNL     1      -3.512   7.324 -28.258  1.00  0.00     0.047 A 
HETATM   30  C   UNL     1      -1.496   9.555 -26.222  1.00  0.00     0.092 A 
BRANCH  28  31
HETATM   31  C   UNL     1      -3.510   8.358 -25.281  1.00  0.00     0.081 C 
HETATM   32  C   UNL     1      -4.750   9.243 -25.388  1.00  0.00     0.032 C 
HETATM   33  C   UNL     1      -2.905   8.418 -23.876  1.00  0.00     0.032 C 
ENDBRANCH  28  31
ENDBRANCH  19  22
ENDBRANCH   1  18
TORSDOF 3
ENDMDL
