MODEL 1
REMARK VINA RESULT:      -9.9      0.000      0.000
REMARK  3 active torsions:
REMARK  status: ('A' for Active; 'I' for Inactive)
REMARK    1  A    between atoms: N_5  and  C_6 
REMARK    2  A    between atoms: C_7  and  C_8 
REMARK       I    between atoms: C_8  and  N_9 
REMARK    3  A    between atoms: N_9  and  N_10 
ROOT
HETATM    1  C   UNL     1      -8.215   3.267 -32.898  1.00  0.00     0.056 C 
HETATM    2  C   UNL     1      -7.004   2.393 -32.624  1.00  0.00     0.158 C 
HETATM    3  C   UNL     1      -6.844   1.262 -33.641  1.00  0.00     0.267 C 
HETATM    4  O   UNL     1      -6.778   1.443 -34.854  1.00  0.00    -0.269 OA
HETATM    5  N   UNL     1      -6.607   0.093 -32.947  1.00  0.00    -0.230 N 
HETATM    6  C   UNL     1      -6.622   0.339 -31.590  1.00  0.00     0.333 C 
HETATM    7  O   UNL     1      -6.289  -0.422 -30.692  1.00  0.00    -0.246 OA
HETATM    8  N   UNL     1      -7.090   1.641 -31.380  1.00  0.00    -0.309 N 
HETATM    9  C   UNL     1      -6.840   2.338 -30.114  1.00  0.00     0.134 C 
HETATM   10  C   UNL     1      -5.421   2.949 -30.050  1.00  0.00     0.061 C 
HETATM   11  C   UNL     1      -4.977   3.414 -31.403  1.00  0.00    -0.018 A 
HETATM   12  C   UNL     1      -5.712   3.162 -32.548  1.00  0.00     0.055 A 
HETATM   13  N   UNL     1      -4.993   3.608 -33.626  1.00  0.00    -0.356 N 
HETATM   14  H   UNL     1      -5.262   3.505 -34.599  1.00  0.00     0.166 HD
HETATM   15  C   UNL     1      -3.767   4.074 -33.203  1.00  0.00     0.043 A 
HETATM   16  C   UNL     1      -3.745   3.998 -31.806  1.00  0.00    -0.001 A 
HETATM   17  C   UNL     1      -2.672   4.525 -33.949  1.00  0.00     0.030 A 
HETATM   18  C   UNL     1      -1.526   4.914 -33.250  1.00  0.00     0.002 A 
HETATM   19  C   UNL     1      -1.483   4.865 -31.858  1.00  0.00     0.001 A 
HETATM   20  C   UNL     1      -2.584   4.409 -31.124  1.00  0.00     0.014 A 
ENDROOT
BRANCH   5  21
HETATM   21  C   UNL     1      -6.034  -1.043 -33.575  1.00  0.00     0.063 A 
HETATM   22  C   UNL     1      -4.694  -1.430 -33.363  1.00  0.00     0.060 A 
HETATM   23  C   UNL     1      -4.238  -2.678 -33.819  1.00  0.00     0.019 A 
HETATM   24  C   UNL     1      -5.090  -3.524 -34.526  1.00  0.00     0.001 A 
HETATM   25  C   UNL     1      -6.394  -3.122 -34.799  1.00  0.00     0.002 A 
HETATM   26  C   UNL     1      -6.861  -1.890 -34.333  1.00  0.00     0.031 A 
BRANCH  22  27
HETATM   27  C   UNL     1      -3.665  -0.534 -32.769  1.00  0.00     0.268 C 
HETATM   28  N   UNL     1      -3.181  -0.921 -31.522  1.00  0.00    -0.290 N 
HETATM   29  H   UNL     1      -3.620  -1.682 -31.007  1.00  0.00     0.183 HD
HETATM   30  O   UNL     1      -3.348   0.518 -33.318  1.00  0.00    -0.266 OA
BRANCH  28  31
HETATM   31  N   UNL     1      -2.285  -0.072 -30.839  1.00  0.00    -0.247 NA
HETATM   32  H   UNL     1      -2.295   0.829 -31.335  1.00  0.00     0.143 HD
HETATM   33  H   UNL     1      -1.339  -0.419 -31.035  1.00  0.00     0.143 HD
ENDBRANCH  28  31
ENDBRANCH  22  27
ENDBRANCH   5  21
TORSDOF 3
ENDMDL
MODEL 2
REMARK VINA RESULT:      -9.3      2.433      5.353
REMARK  3 active torsions:
REMARK  status: ('A' for Active; 'I' for Inactive)
REMARK    1  A    between atoms: N_5  and  C_6 
REMARK    2  A    between atoms: C_7  and  C_8 
REMARK       I    between atoms: C_8  and  N_9 
REMARK    3  A    between atoms: N_9  and  N_10 
ROOT
HETATM    1  C   UNL     1      -8.079   2.979 -30.406  1.00  0.00     0.056 C 
HETATM    2  C   UNL     1      -7.999   2.475 -31.836  1.00  0.00     0.158 C 
HETATM    3  C   UNL     1      -7.329   1.103 -31.947  1.00  0.00     0.267 C 
HETATM    4  O   UNL     1      -7.709   0.111 -31.331  1.00  0.00    -0.269 OA
HETATM    5  N   UNL     1      -6.398   1.162 -32.964  1.00  0.00    -0.230 N 
HETATM    6  C   UNL     1      -6.374   2.431 -33.507  1.00  0.00     0.333 C 
HETATM    7  O   UNL     1      -5.795   2.793 -34.522  1.00  0.00    -0.246 OA
HETATM    8  N   UNL     1      -7.139   3.275 -32.696  1.00  0.00    -0.309 N 
HETATM    9  C   UNL     1      -7.643   4.556 -33.205  1.00  0.00     0.134 C 
HETATM   10  C   UNL     1      -8.922   4.386 -34.057  1.00  0.00     0.061 C 
HETATM   11  C   UNL     1      -9.765   3.261 -33.540  1.00  0.00    -0.018 A 
HETATM   12  C   UNL     1      -9.334   2.419 -32.530  1.00  0.00     0.055 A 
HETATM   13  N   UNL     1     -10.270   1.433 -32.364  1.00  0.00    -0.356 N 
HETATM   14  H   UNL     1     -10.192   0.644 -31.731  1.00  0.00     0.166 HD
HETATM   15  C   UNL     1     -11.266   1.578 -33.307  1.00  0.00     0.043 A 
HETATM   16  C   UNL     1     -10.992   2.741 -34.035  1.00  0.00    -0.001 A 
HETATM   17  C   UNL     1     -12.363   0.756 -33.587  1.00  0.00     0.030 A 
HETATM   18  C   UNL     1     -13.207   1.135 -34.635  1.00  0.00     0.002 A 
HETATM   19  C   UNL     1     -12.969   2.297 -35.365  1.00  0.00     0.001 A 
HETATM   20  C   UNL     1     -11.865   3.108 -35.076  1.00  0.00     0.014 A 
ENDROOT
BRANCH   5  21
HETATM   21  C   UNL     1      -5.893  -0.011 -33.581  1.00  0.00     0.063 A 
HETATM   22  C   UNL     1      -4.660  -0.589 -33.214  1.00  0.00     0.060 A 
HETATM   23  C   UNL     1      -4.309  -1.865 -33.685  1.00  0.00     0.019 A 
HETATM   24  C   UNL     1      -5.153  -2.551 -34.556  1.00  0.00     0.001 A 
HETATM   25  C   UNL     1      -6.340  -1.961 -34.977  1.00  0.00     0.002 A 
HETATM   26  C   UNL     1      -6.705  -0.699 -34.499  1.00  0.00     0.031 A 
BRANCH  22  27
HETATM   27  C   UNL     1      -3.619   0.127 -32.427  1.00  0.00     0.268 C 
HETATM   28  N   UNL     1      -2.952  -0.641 -31.476  1.00  0.00    -0.290 N 
HETATM   29  H   UNL     1      -3.272  -1.581 -31.249  1.00  0.00     0.183 HD
HETATM   30  O   UNL     1      -3.442   1.335 -32.562  1.00  0.00    -0.266 OA
BRANCH  28  31
HETATM   31  N   UNL     1      -2.029  -0.016 -30.612  1.00  0.00    -0.247 NA
HETATM   32  H   UNL     1      -1.610  -0.760 -30.039  1.00  0.00     0.143 HD
HETATM   33  H   UNL     1      -2.578   0.510 -29.921  1.00  0.00     0.143 HD
ENDBRANCH  28  31
ENDBRANCH  22  27
ENDBRANCH   5  21
TORSDOF 3
ENDMDL
MODEL 3
REMARK VINA RESULT:      -9.1      2.501      6.239
REMARK  3 active torsions:
REMARK  status: ('A' for Active; 'I' for Inactive)
REMARK    1  A    between atoms: N_5  and  C_6 
REMARK    2  A    between atoms: C_7  and  C_8 
REMARK       I    between atoms: C_8  and  N_9 
REMARK    3  A    between atoms: N_9  and  N_10 
ROOT
HETATM    1  C   UNL     1      -6.675   2.729 -30.062  1.00  0.00     0.056 C 
HETATM    2  C   UNL     1      -6.161   2.839 -31.486  1.00  0.00     0.158 C 
HETATM    3  C   UNL     1      -4.820   3.571 -31.581  1.00  0.00     0.267 C 
HETATM    4  O   UNL     1      -3.818   3.235 -30.956  1.00  0.00    -0.269 OA
HETATM    5  N   UNL     1      -4.912   4.503 -32.595  1.00  0.00    -0.230 N 
HETATM    6  C   UNL     1      -6.175   4.471 -33.150  1.00  0.00     0.333 C 
HETATM    7  O   UNL     1      -6.554   5.037 -34.167  1.00  0.00    -0.246 OA
HETATM    8  N   UNL     1      -6.992   3.664 -32.351  1.00  0.00    -0.309 N 
HETATM    9  C   UNL     1      -8.243   3.105 -32.875  1.00  0.00     0.134 C 
HETATM   10  C   UNL     1      -8.006   1.838 -33.730  1.00  0.00     0.061 C 
HETATM   11  C   UNL     1      -6.849   1.046 -33.205  1.00  0.00    -0.018 A 
HETATM   12  C   UNL     1      -6.037   1.511 -32.185  1.00  0.00     0.055 A 
HETATM   13  N   UNL     1      -5.011   0.620 -32.013  1.00  0.00    -0.356 N 
HETATM   14  H   UNL     1      -4.233   0.731 -31.371  1.00  0.00     0.166 HD
HETATM   15  C   UNL     1      -5.101  -0.377 -32.961  1.00  0.00     0.043 A 
HETATM   16  C   UNL     1      -6.268  -0.154 -33.699  1.00  0.00    -0.001 A 
HETATM   17  C   UNL     1      -4.227  -1.435 -33.237  1.00  0.00     0.030 A 
HETATM   18  C   UNL     1      -4.556  -2.291 -34.292  1.00  0.00     0.002 A 
HETATM   19  C   UNL     1      -5.721  -2.103 -35.033  1.00  0.00     0.001 A 
HETATM   20  C   UNL     1      -6.585  -1.039 -34.748  1.00  0.00     0.014 A 
ENDROOT
BRANCH   5  21
HETATM   21  C   UNL     1      -3.757   5.063 -33.198  1.00  0.00     0.063 A 
HETATM   22  C   UNL     1      -2.916   5.973 -32.524  1.00  0.00     0.060 A 
HETATM   23  C   UNL     1      -1.671   6.324 -33.070  1.00  0.00     0.019 A 
HETATM   24  C   UNL     1      -1.275   5.814 -34.305  1.00  0.00     0.001 A 
HETATM   25  C   UNL     1      -2.126   4.969 -35.009  1.00  0.00     0.002 A 
HETATM   26  C   UNL     1      -3.360   4.601 -34.465  1.00  0.00     0.031 A 
BRANCH  22  27
HETATM   27  C   UNL     1      -3.316   6.699 -31.288  1.00  0.00     0.268 C 
HETATM   28  N   UNL     1      -2.873   6.138 -30.092  1.00  0.00    -0.290 N 
HETATM   29  H   UNL     1      -2.436   5.218 -30.080  1.00  0.00     0.183 HD
HETATM   30  O   UNL     1      -4.064   7.672 -31.337  1.00  0.00    -0.266 OA
BRANCH  28  31
HETATM   31  N   UNL     1      -3.298   6.699 -28.870  1.00  0.00    -0.247 NA
HETATM   32  H   UNL     1      -4.314   6.835 -28.945  1.00  0.00     0.143 HD
HETATM   33  H   UNL     1      -2.949   7.664 -28.849  1.00  0.00     0.143 HD
ENDBRANCH  28  31
ENDBRANCH  22  27
ENDBRANCH   5  21
TORSDOF 3
ENDMDL
MODEL 4
REMARK VINA RESULT:      -9.1      2.877      6.385
REMARK  3 active torsions:
REMARK  status: ('A' for Active; 'I' for Inactive)
REMARK    1  A    between atoms: N_5  and  C_6 
REMARK    2  A    between atoms: C_7  and  C_8 
REMARK       I    between atoms: C_8  and  N_9 
REMARK    3  A    between atoms: N_9  and  N_10 
ROOT
HETATM    1  C   UNL     1      -4.869   5.198 -33.807  1.00  0.00     0.056 C 
HETATM    2  C   UNL     1      -5.904   4.419 -33.014  1.00  0.00     0.158 C 
HETATM    3  C   UNL     1      -7.310   5.013 -33.125  1.00  0.00     0.267 C 
HETATM    4  O   UNL     1      -7.881   5.212 -34.194  1.00  0.00    -0.269 OA
HETATM    5  N   UNL     1      -7.843   5.089 -31.854  1.00  0.00    -0.230 N 
HETATM    6  C   UNL     1      -6.926   4.633 -30.930  1.00  0.00     0.333 C 
HETATM    7  O   UNL     1      -7.117   4.406 -29.743  1.00  0.00    -0.246 OA
HETATM    8  N   UNL     1      -5.696   4.459 -31.574  1.00  0.00    -0.309 N 
HETATM    9  C   UNL     1      -4.650   3.615 -30.986  1.00  0.00     0.134 C 
HETATM   10  C   UNL     1      -4.888   2.111 -31.258  1.00  0.00     0.061 C 
HETATM   11  C   UNL     1      -5.526   1.904 -32.598  1.00  0.00    -0.018 A 
HETATM   12  C   UNL     1      -5.966   2.959 -33.377  1.00  0.00     0.055 A 
HETATM   13  N   UNL     1      -6.600   2.444 -34.478  1.00  0.00    -0.356 N 
HETATM   14  H   UNL     1      -7.071   2.986 -35.195  1.00  0.00     0.166 HD
HETATM   15  C   UNL     1      -6.646   1.070 -34.383  1.00  0.00     0.043 A 
HETATM   16  C   UNL     1      -5.946   0.702 -33.230  1.00  0.00    -0.001 A 
HETATM   17  C   UNL     1      -7.279   0.134 -35.211  1.00  0.00     0.030 A 
HETATM   18  C   UNL     1      -7.188  -1.214 -34.854  1.00  0.00     0.002 A 
HETATM   19  C   UNL     1      -6.482  -1.611 -33.720  1.00  0.00     0.001 A 
HETATM   20  C   UNL     1      -5.857  -0.664 -32.899  1.00  0.00     0.014 A 
ENDROOT
BRANCH   5  21
HETATM   21  C   UNL     1      -9.239   5.219 -31.639  1.00  0.00     0.063 A 
HETATM   22  C   UNL     1     -10.092   4.103 -31.507  1.00  0.00     0.060 A 
HETATM   23  C   UNL     1     -11.416   4.272 -31.071  1.00  0.00     0.019 A 
HETATM   24  C   UNL     1     -11.915   5.547 -30.811  1.00  0.00     0.001 A 
HETATM   25  C   UNL     1     -11.102   6.660 -31.004  1.00  0.00     0.002 A 
HETATM   26  C   UNL     1      -9.778   6.499 -31.420  1.00  0.00     0.031 A 
BRANCH  22  27
HETATM   27  C   UNL     1      -9.709   2.724 -31.917  1.00  0.00     0.268 C 
HETATM   28  N   UNL     1      -9.486   1.828 -30.875  1.00  0.00    -0.290 N 
HETATM   29  H   UNL     1      -9.447   2.153 -29.910  1.00  0.00     0.183 HD
HETATM   30  O   UNL     1      -9.520   2.444 -33.098  1.00  0.00    -0.266 OA
BRANCH  28  31
HETATM   31  N   UNL     1      -9.013   0.533 -31.171  1.00  0.00    -0.247 NA
HETATM   32  H   UNL     1      -9.169   0.384 -32.176  1.00  0.00     0.143 HD
HETATM   33  H   UNL     1      -9.673  -0.128 -30.746  1.00  0.00     0.143 HD
ENDBRANCH  28  31
ENDBRANCH  22  27
ENDBRANCH   5  21
TORSDOF 3
ENDMDL
MODEL 5
REMARK VINA RESULT:      -9.0      2.852      6.173
REMARK  3 active torsions:
REMARK  status: ('A' for Active; 'I' for Inactive)
REMARK    1  A    between atoms: N_5  and  C_6 
REMARK    2  A    between atoms: C_7  and  C_8 
REMARK       I    between atoms: C_8  and  N_9 
REMARK    3  A    between atoms: N_9  and  N_10 
ROOT
HETATM    1  C   UNL     1      -5.746   0.806 -29.609  1.00  0.00     0.056 C 
HETATM    2  C   UNL     1      -5.966   1.972 -30.556  1.00  0.00     0.158 C 
HETATM    3  C   UNL     1      -4.835   2.134 -31.574  1.00  0.00     0.267 C 
HETATM    4  O   UNL     1      -4.467   1.238 -32.329  1.00  0.00    -0.269 OA
HETATM    5  N   UNL     1      -4.472   3.465 -31.603  1.00  0.00    -0.230 N 
HETATM    6  C   UNL     1      -5.228   4.179 -30.696  1.00  0.00     0.333 C 
HETATM    7  O   UNL     1      -5.290   5.395 -30.573  1.00  0.00    -0.246 OA
HETATM    8  N   UNL     1      -5.944   3.274 -29.905  1.00  0.00    -0.309 N 
HETATM    9  C   UNL     1      -7.122   3.705 -29.144  1.00  0.00     0.134 C 
HETATM   10  C   UNL     1      -8.392   3.781 -30.024  1.00  0.00     0.061 C 
HETATM   11  C   UNL     1      -8.377   2.719 -31.080  1.00  0.00    -0.018 A 
HETATM   12  C   UNL     1      -7.277   1.908 -31.295  1.00  0.00     0.055 A 
HETATM   13  N   UNL     1      -7.527   1.127 -32.393  1.00  0.00    -0.356 N 
HETATM   14  H   UNL     1      -6.874   0.475 -32.816  1.00  0.00     0.166 HD
HETATM   15  C   UNL     1      -8.743   1.476 -32.940  1.00  0.00     0.043 A 
HETATM   16  C   UNL     1      -9.315   2.449 -32.113  1.00  0.00    -0.001 A 
HETATM   17  C   UNL     1      -9.361   1.029 -34.114  1.00  0.00     0.030 A 
HETATM   18  C   UNL     1     -10.598   1.586 -34.449  1.00  0.00     0.002 A 
HETATM   19  C   UNL     1     -11.199   2.544 -33.635  1.00  0.00     0.001 A 
HETATM   20  C   UNL     1     -10.569   2.984 -32.466  1.00  0.00     0.014 A 
ENDROOT
BRANCH   5  21
HETATM   21  C   UNL     1      -3.748   4.017 -32.691  1.00  0.00     0.063 A 
HETATM   22  C   UNL     1      -4.385   4.584 -33.815  1.00  0.00     0.060 A 
HETATM   23  C   UNL     1      -3.641   5.317 -34.754  1.00  0.00     0.019 A 
HETATM   24  C   UNL     1      -2.261   5.451 -34.610  1.00  0.00     0.001 A 
HETATM   25  C   UNL     1      -1.615   4.839 -33.542  1.00  0.00     0.002 A 
HETATM   26  C   UNL     1      -2.350   4.122 -32.593  1.00  0.00     0.031 A 
BRANCH  22  27
HETATM   27  C   UNL     1      -5.818   4.359 -34.147  1.00  0.00     0.268 C 
HETATM   28  N   UNL     1      -6.660   5.448 -33.938  1.00  0.00    -0.290 N 
HETATM   29  H   UNL     1      -6.326   6.279 -33.453  1.00  0.00     0.183 HD
HETATM   30  O   UNL     1      -6.222   3.252 -34.492  1.00  0.00    -0.266 OA
BRANCH  28  31
HETATM   31  N   UNL     1      -8.050   5.288 -34.122  1.00  0.00    -0.247 NA
HETATM   32  H   UNL     1      -8.427   4.938 -33.232  1.00  0.00     0.143 HD
HETATM   33  H   UNL     1      -8.176   4.483 -34.746  1.00  0.00     0.143 HD
ENDBRANCH  28  31
ENDBRANCH  22  27
ENDBRANCH   5  21
TORSDOF 3
ENDMDL
MODEL 6
REMARK VINA RESULT:      -8.8      2.100      3.411
REMARK  3 active torsions:
REMARK  status: ('A' for Active; 'I' for Inactive)
REMARK    1  A    between atoms: N_5  and  C_6 
REMARK    2  A    between atoms: C_7  and  C_8 
REMARK       I    between atoms: C_8  and  N_9 
REMARK    3  A    between atoms: N_9  and  N_10 
ROOT
HETATM    1  C   UNL     1      -7.938   5.430 -32.712  1.00  0.00     0.056 C 
HETATM    2  C   UNL     1      -6.863   4.386 -32.463  1.00  0.00     0.158 C 
HETATM    3  C   UNL     1      -7.107   3.085 -33.230  1.00  0.00     0.267 C 
HETATM    4  O   UNL     1      -7.259   3.033 -34.448  1.00  0.00    -0.269 OA
HETATM    5  N   UNL     1      -6.937   2.033 -32.353  1.00  0.00    -0.230 N 
HETATM    6  C   UNL     1      -6.633   2.512 -31.095  1.00  0.00     0.333 C 
HETATM    7  O   UNL     1      -6.259   1.868 -30.125  1.00  0.00    -0.246 OA
HETATM    8  N   UNL     1      -6.820   3.899 -31.092  1.00  0.00    -0.309 N 
HETATM    9  C   UNL     1      -6.203   4.741 -30.060  1.00  0.00     0.134 C 
HETATM   10  C   UNL     1      -4.718   5.046 -30.364  1.00  0.00     0.061 C 
HETATM   11  C   UNL     1      -4.486   5.164 -31.839  1.00  0.00    -0.018 A 
HETATM   12  C   UNL     1      -5.470   4.873 -32.767  1.00  0.00     0.055 A 
HETATM   13  N   UNL     1      -4.921   4.963 -34.019  1.00  0.00    -0.356 N 
HETATM   14  H   UNL     1      -5.396   4.748 -34.890  1.00  0.00     0.166 HD
HETATM   15  C   UNL     1      -3.573   5.232 -33.913  1.00  0.00     0.043 A 
HETATM   16  C   UNL     1      -3.281   5.400 -32.555  1.00  0.00    -0.001 A 
HETATM   17  C   UNL     1      -2.592   5.309 -34.909  1.00  0.00     0.030 A 
HETATM   18  C   UNL     1      -1.279   5.569 -34.507  1.00  0.00     0.002 A 
HETATM   19  C   UNL     1      -0.962   5.758 -33.164  1.00  0.00     0.001 A 
HETATM   20  C   UNL     1      -1.953   5.676 -32.178  1.00  0.00     0.014 A 
ENDROOT
BRANCH   5  21
HETATM   21  C   UNL     1      -6.705   0.711 -32.812  1.00  0.00     0.063 A 
HETATM   22  C   UNL     1      -7.690  -0.041 -33.486  1.00  0.00     0.060 A 
HETATM   23  C   UNL     1      -7.349  -1.247 -34.119  1.00  0.00     0.019 A 
HETATM   24  C   UNL     1      -6.046  -1.737 -34.048  1.00  0.00     0.001 A 
HETATM   25  C   UNL     1      -5.083  -1.037 -33.328  1.00  0.00     0.002 A 
HETATM   26  C   UNL     1      -5.410   0.173 -32.709  1.00  0.00     0.031 A 
BRANCH  22  27
HETATM   27  C   UNL     1      -9.136   0.309 -33.480  1.00  0.00     0.268 C 
HETATM   28  N   UNL     1      -9.598   0.976 -34.612  1.00  0.00    -0.290 N 
HETATM   29  H   UNL     1      -8.945   1.321 -35.313  1.00  0.00     0.183 HD
HETATM   30  O   UNL     1      -9.836   0.095 -32.493  1.00  0.00    -0.266 OA
BRANCH  28  31
HETATM   31  N   UNL     1     -10.929   1.442 -34.641  1.00  0.00    -0.247 NA
HETATM   32  H   UNL     1     -10.893   2.453 -34.456  1.00  0.00     0.143 HD
HETATM   33  H   UNL     1     -11.388   1.081 -33.797  1.00  0.00     0.143 HD
ENDBRANCH  28  31
ENDBRANCH  22  27
ENDBRANCH   5  21
TORSDOF 3
ENDMDL
MODEL 7
REMARK VINA RESULT:      -8.7      6.761      9.921
REMARK  3 active torsions:
REMARK  status: ('A' for Active; 'I' for Inactive)
REMARK    1  A    between atoms: N_5  and  C_6 
REMARK    2  A    between atoms: C_7  and  C_8 
REMARK       I    between atoms: C_8  and  N_9 
REMARK    3  A    between atoms: N_9  and  N_10 
ROOT
HETATM    1  C   UNL     1      -4.901   7.946 -27.850  1.00  0.00     0.056 C 
HETATM    2  C   UNL     1      -3.469   8.281 -28.228  1.00  0.00     0.158 C 
HETATM    3  C   UNL     1      -2.458   7.855 -27.161  1.00  0.00     0.267 C 
HETATM    4  O   UNL     1      -2.364   6.707 -26.734  1.00  0.00    -0.269 OA
HETATM    5  N   UNL     1      -1.599   8.912 -26.939  1.00  0.00    -0.230 N 
HETATM    6  C   UNL     1      -1.960   9.986 -27.727  1.00  0.00     0.333 C 
HETATM    7  O   UNL     1      -1.331  11.019 -27.908  1.00  0.00    -0.246 OA
HETATM    8  N   UNL     1      -3.200   9.709 -28.313  1.00  0.00    -0.309 N 
HETATM    9  C   UNL     1      -3.655  10.445 -29.498  1.00  0.00     0.134 C 
HETATM   10  C   UNL     1      -3.032   9.897 -30.804  1.00  0.00     0.061 C 
HETATM   11  C   UNL     1      -2.832   8.415 -30.721  1.00  0.00    -0.018 A 
HETATM   12  C   UNL     1      -3.046   7.705 -29.553  1.00  0.00     0.055 A 
HETATM   13  N   UNL     1      -2.669   6.405 -29.766  1.00  0.00    -0.356 N 
HETATM   14  H   UNL     1      -2.664   5.669 -29.067  1.00  0.00     0.166 HD
HETATM   15  C   UNL     1      -2.140   6.279 -31.032  1.00  0.00     0.043 A 
HETATM   16  C   UNL     1      -2.264   7.519 -31.668  1.00  0.00    -0.001 A 
HETATM   17  C   UNL     1      -1.536   5.176 -31.648  1.00  0.00     0.030 A 
HETATM   18  C   UNL     1      -1.052   5.342 -32.948  1.00  0.00     0.002 A 
HETATM   19  C   UNL     1      -1.178   6.561 -33.611  1.00  0.00     0.001 A 
HETATM   20  C   UNL     1      -1.781   7.657 -32.983  1.00  0.00     0.014 A 
ENDROOT
BRANCH   5  21
HETATM   21  C   UNL     1      -0.336   8.729 -26.320  1.00  0.00     0.063 A 
HETATM   22  C   UNL     1       0.732   8.066 -26.959  1.00  0.00     0.060 A 
HETATM   23  C   UNL     1       2.022   8.107 -26.407  1.00  0.00     0.019 A 
HETATM   24  C   UNL     1       2.251   8.762 -25.198  1.00  0.00     0.001 A 
HETATM   25  C   UNL     1       1.191   9.361 -24.526  1.00  0.00     0.002 A 
HETATM   26  C   UNL     1      -0.093   9.340 -25.077  1.00  0.00     0.031 A 
BRANCH  22  27
HETATM   27  C   UNL     1       0.561   7.202 -28.159  1.00  0.00     0.268 C 
HETATM   28  N   UNL     1       0.401   5.843 -27.903  1.00  0.00    -0.290 N 
HETATM   29  H   UNL     1       0.543   5.471 -26.965  1.00  0.00     0.183 HD
HETATM   30  O   UNL     1       0.651   7.667 -29.293  1.00  0.00    -0.266 OA
BRANCH  28  31
HETATM   31  N   UNL     1       0.343   4.940 -28.985  1.00  0.00    -0.247 NA
HETATM   32  H   UNL     1      -0.629   4.612 -29.044  1.00  0.00     0.143 HD
HETATM   33  H   UNL     1       0.843   4.093 -28.692  1.00  0.00     0.143 HD
ENDBRANCH  28  31
ENDBRANCH  22  27
ENDBRANCH   5  21
TORSDOF 3
ENDMDL
MODEL 8
REMARK VINA RESULT:      -8.6     15.013     17.267
REMARK  3 active torsions:
REMARK  status: ('A' for Active; 'I' for Inactive)
REMARK    1  A    between atoms: N_5  and  C_6 
REMARK    2  A    between atoms: C_7  and  C_8 
REMARK       I    between atoms: C_8  and  N_9 
REMARK    3  A    between atoms: N_9  and  N_10 
ROOT
HETATM    1  C   UNL     1      -7.451 -12.421 -38.597  1.00  0.00     0.056 C 
HETATM    2  C   UNL     1      -6.430 -13.450 -38.146  1.00  0.00     0.158 C 
HETATM    3  C   UNL     1      -4.993 -13.051 -38.488  1.00  0.00     0.267 C 
HETATM    4  O   UNL     1      -4.481 -11.990 -38.140  1.00  0.00    -0.269 OA
HETATM    5  N   UNL     1      -4.371 -14.142 -39.061  1.00  0.00    -0.230 N 
HETATM    6  C   UNL     1      -5.257 -15.197 -39.149  1.00  0.00     0.333 C 
HETATM    7  O   UNL     1      -5.005 -16.356 -39.448  1.00  0.00    -0.246 OA
HETATM    8  N   UNL     1      -6.537 -14.728 -38.834  1.00  0.00    -0.309 N 
HETATM    9  C   UNL     1      -7.604 -15.655 -38.442  1.00  0.00     0.134 C 
HETATM   10  C   UNL     1      -7.503 -16.071 -36.955  1.00  0.00     0.061 C 
HETATM   11  C   UNL     1      -6.975 -14.946 -36.120  1.00  0.00    -0.018 A 
HETATM   12  C   UNL     1      -6.507 -13.769 -36.676  1.00  0.00     0.055 A 
HETATM   13  N   UNL     1      -5.990 -12.994 -35.671  1.00  0.00    -0.356 N 
HETATM   14  H   UNL     1      -5.527 -12.099 -35.794  1.00  0.00     0.166 HD
HETATM   15  C   UNL     1      -6.044 -13.686 -34.481  1.00  0.00     0.043 A 
HETATM   16  C   UNL     1      -6.692 -14.901 -34.727  1.00  0.00    -0.001 A 
HETATM   17  C   UNL     1      -5.544 -13.343 -33.219  1.00  0.00     0.030 A 
HETATM   18  C   UNL     1      -5.715 -14.262 -32.180  1.00  0.00     0.002 A 
HETATM   19  C   UNL     1      -6.373 -15.472 -32.393  1.00  0.00     0.001 A 
HETATM   20  C   UNL     1      -6.865 -15.804 -33.661  1.00  0.00     0.014 A 
ENDROOT
BRANCH   5  21
HETATM   21  C   UNL     1      -2.958 -14.242 -39.131  1.00  0.00     0.063 A 
HETATM   22  C   UNL     1      -2.256 -14.213 -40.355  1.00  0.00     0.060 A 
HETATM   23  C   UNL     1      -0.858 -14.085 -40.365  1.00  0.00     0.019 A 
HETATM   24  C   UNL     1      -0.146 -14.034 -39.168  1.00  0.00     0.001 A 
HETATM   25  C   UNL     1      -0.823 -14.130 -37.957  1.00  0.00     0.002 A 
HETATM   26  C   UNL     1      -2.216 -14.240 -37.937  1.00  0.00     0.031 A 
BRANCH  22  27
HETATM   27  C   UNL     1      -2.904 -14.428 -41.677  1.00  0.00     0.268 C 
HETATM   28  N   UNL     1      -2.495 -15.566 -42.368  1.00  0.00    -0.290 N 
HETATM   29  H   UNL     1      -1.702 -16.116 -42.040  1.00  0.00     0.183 HD
HETATM   30  O   UNL     1      -3.675 -13.596 -42.148  1.00  0.00    -0.266 OA
BRANCH  28  31
HETATM   31  N   UNL     1      -2.975 -15.787 -43.675  1.00  0.00    -0.247 NA
HETATM   32  H   UNL     1      -3.265 -16.773 -43.720  1.00  0.00     0.143 HD
HETATM   33  H   UNL     1      -2.160 -15.770 -44.298  1.00  0.00     0.143 HD
ENDBRANCH  28  31
ENDBRANCH  22  27
ENDBRANCH   5  21
TORSDOF 3
ENDMDL
MODEL 9
REMARK VINA RESULT:      -8.5      2.506      4.063
REMARK  3 active torsions:
REMARK  status: ('A' for Active; 'I' for Inactive)
REMARK    1  A    between atoms: N_5  and  C_6 
REMARK    2  A    between atoms: C_7  and  C_8 
REMARK       I    between atoms: C_8  and  N_9 
REMARK    3  A    between atoms: N_9  and  N_10 
ROOT
HETATM    1  C   UNL     1      -6.064   6.406 -32.752  1.00  0.00     0.056 C 
HETATM    2  C   UNL     1      -5.259   5.484 -31.853  1.00  0.00     0.158 C 
HETATM    3  C   UNL     1      -5.099   4.077 -32.434  1.00  0.00     0.267 C 
HETATM    4  O   UNL     1      -4.627   3.851 -33.545  1.00  0.00    -0.269 OA
HETATM    5  N   UNL     1      -5.391   3.168 -31.438  1.00  0.00    -0.230 N 
HETATM    6  C   UNL     1      -5.747   3.832 -30.282  1.00  0.00     0.333 C 
HETATM    7  O   UNL     1      -5.907   3.353 -29.169  1.00  0.00    -0.246 OA
HETATM    8  N   UNL     1      -5.904   5.190 -30.582  1.00  0.00    -0.309 N 
HETATM    9  C   UNL     1      -5.875   6.204 -29.522  1.00  0.00     0.134 C 
HETATM   10  C   UNL     1      -4.433   6.570 -29.100  1.00  0.00     0.061 C 
HETATM   11  C   UNL     1      -3.500   6.505 -30.270  1.00  0.00    -0.018 A 
HETATM   12  C   UNL     1      -3.897   6.022 -31.505  1.00  0.00     0.055 A 
HETATM   13  N   UNL     1      -2.798   5.982 -32.323  1.00  0.00    -0.356 N 
HETATM   14  H   UNL     1      -2.780   5.619 -33.271  1.00  0.00     0.166 HD
HETATM   15  C   UNL     1      -1.679   6.358 -31.612  1.00  0.00     0.043 A 
HETATM   16  C   UNL     1      -2.097   6.727 -30.329  1.00  0.00    -0.001 A 
HETATM   17  C   UNL     1      -0.333   6.368 -31.997  1.00  0.00     0.030 A 
HETATM   18  C   UNL     1       0.611   6.773 -31.048  1.00  0.00     0.002 A 
HETATM   19  C   UNL     1       0.221   7.162 -29.769  1.00  0.00     0.001 A 
HETATM   20  C   UNL     1      -1.129   7.143 -29.396  1.00  0.00     0.014 A 
ENDROOT
BRANCH   5  21
HETATM   21  C   UNL     1      -4.969   1.816 -31.517  1.00  0.00     0.063 A 
HETATM   22  C   UNL     1      -5.797   0.792 -32.025  1.00  0.00     0.060 A 
HETATM   23  C   UNL     1      -5.264  -0.479 -32.296  1.00  0.00     0.019 A 
HETATM   24  C   UNL     1      -3.926  -0.755 -32.022  1.00  0.00     0.001 A 
HETATM   25  C   UNL     1      -3.119   0.227 -31.458  1.00  0.00     0.002 A 
HETATM   26  C   UNL     1      -3.636   1.500 -31.201  1.00  0.00     0.031 A 
BRANCH  22  27
HETATM   27  C   UNL     1      -7.268   0.935 -32.194  1.00  0.00     0.268 C 
HETATM   28  N   UNL     1      -8.032   0.654 -31.064  1.00  0.00    -0.290 N 
HETATM   29  H   UNL     1      -7.605   0.239 -30.238  1.00  0.00     0.183 HD
HETATM   30  O   UNL     1      -7.758   1.194 -33.290  1.00  0.00    -0.266 OA
BRANCH  28  31
HETATM   31  N   UNL     1      -9.439   0.657 -31.166  1.00  0.00    -0.247 NA
HETATM   32  H   UNL     1      -9.711   1.601 -31.470  1.00  0.00     0.143 HD
HETATM   33  H   UNL     1      -9.806   0.621 -30.209  1.00  0.00     0.143 HD
ENDBRANCH  28  31
ENDBRANCH  22  27
ENDBRANCH   5  21
TORSDOF 3
ENDMDL
MODEL 10
REMARK VINA RESULT:      -8.4      2.283      6.412
REMARK  3 active torsions:
REMARK  status: ('A' for Active; 'I' for Inactive)
REMARK    1  A    between atoms: N_5  and  C_6 
REMARK    2  A    between atoms: C_7  and  C_8 
REMARK       I    between atoms: C_8  and  N_9 
REMARK    3  A    between atoms: N_9  and  N_10 
ROOT
HETATM    1  C   UNL     1      -8.516   1.297 -31.172  1.00  0.00     0.056 C 
HETATM    2  C   UNL     1      -7.333   1.552 -32.089  1.00  0.00     0.158 C 
HETATM    3  C   UNL     1      -6.276   2.461 -31.457  1.00  0.00     0.267 C 
HETATM    4  O   UNL     1      -5.737   2.227 -30.379  1.00  0.00    -0.269 OA
HETATM    5  N   UNL     1      -5.934   3.427 -32.382  1.00  0.00    -0.230 N 
HETATM    6  C   UNL     1      -6.674   3.259 -33.535  1.00  0.00     0.333 C 
HETATM    7  O   UNL     1      -6.516   3.824 -34.608  1.00  0.00    -0.246 OA
HETATM    8  N   UNL     1      -7.669   2.307 -33.288  1.00  0.00    -0.309 N 
HETATM    9  C   UNL     1      -8.342   1.615 -34.394  1.00  0.00     0.134 C 
HETATM   10  C   UNL     1      -7.502   0.441 -34.949  1.00  0.00     0.061 C 
HETATM   11  C   UNL     1      -6.716  -0.218 -33.857  1.00  0.00    -0.018 A 
HETATM   12  C   UNL     1      -6.663   0.294 -32.573  1.00  0.00     0.055 A 
HETATM   13  N   UNL     1      -5.780  -0.461 -31.845  1.00  0.00    -0.356 N 
HETATM   14  H   UNL     1      -5.500  -0.282 -30.887  1.00  0.00     0.166 HD
HETATM   15  C   UNL     1      -5.200  -1.407 -32.663  1.00  0.00     0.043 A 
HETATM   16  C   UNL     1      -5.797  -1.301 -33.923  1.00  0.00    -0.001 A 
HETATM   17  C   UNL     1      -4.176  -2.322 -32.390  1.00  0.00     0.030 A 
HETATM   18  C   UNL     1      -3.755  -3.154 -33.431  1.00  0.00     0.002 A 
HETATM   19  C   UNL     1      -4.344  -3.082 -34.691  1.00  0.00     0.001 A 
HETATM   20  C   UNL     1      -5.365  -2.160 -34.951  1.00  0.00     0.014 A 
ENDROOT
BRANCH   5  21
HETATM   21  C   UNL     1      -4.730   4.169 -32.273  1.00  0.00     0.063 A 
HETATM   22  C   UNL     1      -4.684   5.459 -31.706  1.00  0.00     0.060 A 
HETATM   23  C   UNL     1      -3.449   6.059 -31.412  1.00  0.00     0.019 A 
HETATM   24  C   UNL     1      -2.257   5.406 -31.721  1.00  0.00     0.001 A 
HETATM   25  C   UNL     1      -2.292   4.162 -32.342  1.00  0.00     0.002 A 
HETATM   26  C   UNL     1      -3.517   3.551 -32.623  1.00  0.00     0.031 A 
BRANCH  22  27
HETATM   27  C   UNL     1      -5.890   6.306 -31.492  1.00  0.00     0.268 C 
HETATM   28  N   UNL     1      -6.413   6.904 -32.636  1.00  0.00    -0.290 N 
HETATM   29  H   UNL     1      -5.905   6.871 -33.518  1.00  0.00     0.183 HD
HETATM   30  O   UNL     1      -6.321   6.522 -30.363  1.00  0.00    -0.266 OA
BRANCH  28  31
HETATM   31  N   UNL     1      -7.487   7.809 -32.509  1.00  0.00    -0.247 NA
HETATM   32  H   UNL     1      -7.081   8.714 -32.237  1.00  0.00     0.143 HD
HETATM   33  H   UNL     1      -8.005   7.539 -31.665  1.00  0.00     0.143 HD
ENDBRANCH  28  31
ENDBRANCH  22  27
ENDBRANCH   5  21
TORSDOF 3
ENDMDL
