MODEL 1
REMARK VINA RESULT:      -9.3      0.000      0.000
REMARK  7 active torsions:
REMARK  status: ('A' for Active; 'I' for Inactive)
REMARK    1  A    between atoms: C_2  and  O_3 
REMARK    2  A    between atoms: O_3  and  C_4 
REMARK    3  A    between atoms: C_4  and  C_5 
REMARK    4  A    between atoms: C_6  and  C_7 
REMARK    5  A    between atoms: C_18  and  S_19 
REMARK    6  A    between atoms: S_19  and  C_20 
REMARK    7  A    between atoms: C_20  and  C_21 
ROOT
HETATM    1  C   UNL     1      -5.379   6.273 -30.577  1.00  0.00     0.070 C 
HETATM    2  C   UNL     1      -5.092   4.900 -31.170  1.00  0.00     0.203 C 
HETATM    3  N   UNL     1      -6.324   4.257 -31.636  1.00  0.00    -0.082 N 
HETATM    4  C   UNL     1      -7.539   4.880 -31.704  1.00  0.00     0.726 A 
HETATM    5  N   UNL     1      -7.645   6.158 -31.291  1.00  0.00    -0.192 N 
HETATM    6  N   UNL     1      -6.422   2.952 -31.954  1.00  0.00    -0.128 NA
HETATM    7  C   UNL     1      -7.715   2.874 -32.290  1.00  0.00     0.226 A 
HETATM    8  N   UNL     1      -8.434   4.038 -32.156  1.00  0.00    -0.035 NA
HETATM    9  C   UNL     1      -6.606   6.845 -30.667  1.00  0.00     0.037 C 
HETATM   10  C   UNL     1      -6.962   8.195 -30.096  1.00  0.00     0.070 C 
HETATM   11  H   UNL     1      -8.565   6.593 -31.283  1.00  0.00     0.184 HD
ENDROOT
BRANCH   7  12
HETATM   12  S   UNL     1      -8.407   1.364 -32.798  1.00  0.00    -0.083 SA
BRANCH  12  13
HETATM   13  C   UNL     1      -7.448   1.069 -34.306  1.00  0.00     0.121 C 
BRANCH  13  14
HETATM   14  C   UNL     1      -6.574  -0.153 -34.165  1.00  0.00    -0.048 A 
HETATM   15  C   UNL     1      -7.025  -1.407 -34.610  1.00  0.00     0.020 A 
HETATM   16  C   UNL     1      -6.209  -2.547 -34.526  1.00  0.00    -0.025 A 
HETATM   17  C   UNL     1      -4.912  -2.432 -33.979  1.00  0.00    -0.026 A 
HETATM   18  C   UNL     1      -6.651  -3.799 -34.984  1.00  0.00     0.012 A 
HETATM   19  C   UNL     1      -4.466  -1.179 -33.531  1.00  0.00     0.013 A 
HETATM   20  C   UNL     1      -4.094  -3.570 -33.902  1.00  0.00     0.012 A 
HETATM   21  C   UNL     1      -5.286  -0.050 -33.627  1.00  0.00     0.009 A 
HETATM   22  C   UNL     1      -4.548  -4.808 -34.362  1.00  0.00     0.001 A 
HETATM   23  C   UNL     1      -5.826  -4.922 -34.903  1.00  0.00     0.001 A 
ENDBRANCH  13  14
ENDBRANCH  12  13
ENDBRANCH   7  12
BRANCH   2  24
HETATM   24  C   UNL     1      -4.079   4.954 -32.314  1.00  0.00    -0.028 A 
HETATM   25  C   UNL     1      -2.791   4.418 -32.133  1.00  0.00     0.012 A 
HETATM   26  C   UNL     1      -1.854   4.458 -33.167  1.00  0.00     0.043 A 
HETATM   27  C   UNL     1      -2.199   5.031 -34.385  1.00  0.00     0.116 A 
HETATM   28  F   UNL     1      -1.298   5.068 -35.375  1.00  0.00    -0.206 F 
HETATM   29  C   UNL     1      -3.465   5.563 -34.590  1.00  0.00     0.043 A 
HETATM   30  C   UNL     1      -4.406   5.524 -33.561  1.00  0.00     0.012 A 
ENDBRANCH   2  24
BRANCH   1  31
HETATM   31  C   UNL     1      -4.233   6.960 -29.943  1.00  0.00     0.293 C 
HETATM   32  O   UNL     1      -3.840   6.745 -28.809  1.00  0.00    -0.259 OA
BRANCH  31  33
HETATM   33  O   UNL     1      -3.708   7.852 -30.820  1.00  0.00    -0.318 OA
BRANCH  33  34
HETATM   34  C   UNL     1      -2.274   7.903 -30.878  1.00  0.00     0.174 C 
HETATM   35  C   UNL     1      -1.815   8.084 -32.312  1.00  0.00     0.034 C 
ENDBRANCH  33  34
ENDBRANCH  31  33
ENDBRANCH   1  31
TORSDOF 7
ENDMDL
MODEL 2
REMARK VINA RESULT:      -9.2      3.310      7.712
REMARK  7 active torsions:
REMARK  status: ('A' for Active; 'I' for Inactive)
REMARK    1  A    between atoms: C_2  and  O_3 
REMARK    2  A    between atoms: O_3  and  C_4 
REMARK    3  A    between atoms: C_4  and  C_5 
REMARK    4  A    between atoms: C_6  and  C_7 
REMARK    5  A    between atoms: C_18  and  S_19 
REMARK    6  A    between atoms: S_19  and  C_20 
REMARK    7  A    between atoms: C_20  and  C_21 
ROOT
HETATM    1  C   UNL     1      -5.721   2.670 -31.680  1.00  0.00     0.070 C 
HETATM    2  C   UNL     1      -5.667   4.116 -32.154  1.00  0.00     0.203 C 
HETATM    3  N   UNL     1      -5.741   5.046 -31.023  1.00  0.00    -0.082 N 
HETATM    4  C   UNL     1      -5.675   4.669 -29.711  1.00  0.00     0.726 A 
HETATM    5  N   UNL     1      -5.569   3.360 -29.409  1.00  0.00    -0.192 N 
HETATM    6  N   UNL     1      -5.982   6.365 -31.145  1.00  0.00    -0.128 NA
HETATM    7  C   UNL     1      -5.965   6.740 -29.860  1.00  0.00     0.226 A 
HETATM    8  N   UNL     1      -5.772   5.729 -28.949  1.00  0.00    -0.035 NA
HETATM    9  C   UNL     1      -5.658   2.349 -30.364  1.00  0.00     0.037 C 
HETATM   10  C   UNL     1      -5.716   0.942 -29.825  1.00  0.00     0.070 C 
HETATM   11  H   UNL     1      -5.587   3.083 -28.430  1.00  0.00     0.184 HD
ENDROOT
BRANCH   7  12
HETATM   12  S   UNL     1      -6.232   8.400 -29.419  1.00  0.00    -0.083 SA
BRANCH  12  13
HETATM   13  C   UNL     1      -4.657   8.766 -28.603  1.00  0.00     0.121 C 
BRANCH  13  14
HETATM   14  C   UNL     1      -3.489   8.361 -29.469  1.00  0.00    -0.048 A 
HETATM   15  C   UNL     1      -2.535   7.445 -28.995  1.00  0.00     0.020 A 
HETATM   16  C   UNL     1      -1.465   7.022 -29.802  1.00  0.00    -0.025 A 
HETATM   17  C   UNL     1      -1.345   7.532 -31.114  1.00  0.00    -0.026 A 
HETATM   18  C   UNL     1      -0.518   6.096 -29.336  1.00  0.00     0.012 A 
HETATM   19  C   UNL     1      -2.297   8.449 -31.583  1.00  0.00     0.013 A 
HETATM   20  C   UNL     1      -0.280   7.103 -31.922  1.00  0.00     0.012 A 
HETATM   21  C   UNL     1      -3.361   8.856 -30.772  1.00  0.00     0.009 A 
HETATM   22  C   UNL     1       0.653   6.182 -31.445  1.00  0.00     0.001 A 
HETATM   23  C   UNL     1       0.535   5.678 -30.153  1.00  0.00     0.001 A 
ENDBRANCH  13  14
ENDBRANCH  12  13
ENDBRANCH   7  12
BRANCH   2  24
HETATM   24  C   UNL     1      -4.418   4.416 -32.982  1.00  0.00    -0.028 A 
HETATM   25  C   UNL     1      -4.548   4.988 -34.261  1.00  0.00     0.012 A 
HETATM   26  C   UNL     1      -3.419   5.269 -35.031  1.00  0.00     0.043 A 
HETATM   27  C   UNL     1      -2.156   4.983 -34.529  1.00  0.00     0.116 A 
HETATM   28  F   UNL     1      -1.074   5.254 -35.269  1.00  0.00    -0.206 F 
HETATM   29  C   UNL     1      -1.999   4.423 -33.268  1.00  0.00     0.043 A 
HETATM   30  C   UNL     1      -3.125   4.141 -32.493  1.00  0.00     0.012 A 
ENDBRANCH   2  24
BRANCH   1  31
HETATM   31  C   UNL     1      -5.799   1.641 -32.740  1.00  0.00     0.293 C 
HETATM   32  O   UNL     1      -4.886   0.892 -33.044  1.00  0.00    -0.259 OA
BRANCH  31  33
HETATM   33  O   UNL     1      -7.032   1.673 -33.303  1.00  0.00    -0.318 OA
BRANCH  33  34
HETATM   34  C   UNL     1      -7.614   0.397 -33.613  1.00  0.00     0.174 C 
HETATM   35  C   UNL     1      -7.689   0.210 -35.116  1.00  0.00     0.034 C 
ENDBRANCH  33  34
ENDBRANCH  31  33
ENDBRANCH   1  31
TORSDOF 7
ENDMDL
MODEL 3
REMARK VINA RESULT:      -9.1      3.696      8.354
REMARK  7 active torsions:
REMARK  status: ('A' for Active; 'I' for Inactive)
REMARK    1  A    between atoms: C_2  and  O_3 
REMARK    2  A    between atoms: O_3  and  C_4 
REMARK    3  A    between atoms: C_4  and  C_5 
REMARK    4  A    between atoms: C_6  and  C_7 
REMARK    5  A    between atoms: C_18  and  S_19 
REMARK    6  A    between atoms: S_19  and  C_20 
REMARK    7  A    between atoms: C_20  and  C_21 
ROOT
HETATM    1  C   UNL     1      -8.529   1.976 -32.757  1.00  0.00     0.070 C 
HETATM    2  C   UNL     1      -7.447   1.955 -33.829  1.00  0.00     0.203 C 
HETATM    3  N   UNL     1      -6.505   3.064 -33.652  1.00  0.00    -0.082 N 
HETATM    4  C   UNL     1      -6.486   3.891 -32.564  1.00  0.00     0.726 A 
HETATM    5  N   UNL     1      -7.404   3.719 -31.593  1.00  0.00    -0.192 N 
HETATM    6  N   UNL     1      -5.617   3.456 -34.584  1.00  0.00    -0.128 NA
HETATM    7  C   UNL     1      -5.032   4.482 -33.954  1.00  0.00     0.226 A 
HETATM    8  N   UNL     1      -5.533   4.776 -32.708  1.00  0.00    -0.035 NA
HETATM    9  C   UNL     1      -8.465   2.822 -31.699  1.00  0.00     0.037 C 
HETATM   10  C   UNL     1      -9.503   2.902 -30.608  1.00  0.00     0.070 C 
HETATM   11  H   UNL     1      -7.425   4.379 -30.819  1.00  0.00     0.184 HD
ENDROOT
BRANCH   7  12
HETATM   12  S   UNL     1      -3.766   5.389 -34.725  1.00  0.00    -0.083 SA
BRANCH  12  13
HETATM   13  C   UNL     1      -2.316   4.630 -33.948  1.00  0.00     0.121 C 
BRANCH  13  14
HETATM   14  C   UNL     1      -1.808   5.475 -32.805  1.00  0.00    -0.048 A 
HETATM   15  C   UNL     1      -1.041   4.898 -31.779  1.00  0.00     0.020 A 
HETATM   16  C   UNL     1      -0.523   5.677 -30.730  1.00  0.00    -0.025 A 
HETATM   17  C   UNL     1      -0.782   7.065 -30.705  1.00  0.00    -0.026 A 
HETATM   18  C   UNL     1       0.257   5.106 -29.711  1.00  0.00     0.012 A 
HETATM   19  C   UNL     1      -1.553   7.637 -31.729  1.00  0.00     0.013 A 
HETATM   20  C   UNL     1      -0.258   7.843 -29.660  1.00  0.00     0.012 A 
HETATM   21  C   UNL     1      -2.056   6.852 -32.770  1.00  0.00     0.009 A 
HETATM   22  C   UNL     1       0.515   7.261 -28.655  1.00  0.00     0.001 A 
HETATM   23  C   UNL     1       0.773   5.893 -28.680  1.00  0.00     0.001 A 
ENDBRANCH  13  14
ENDBRANCH  12  13
ENDBRANCH   7  12
BRANCH   2  24
HETATM   24  C   UNL     1      -6.681   0.633 -33.865  1.00  0.00    -0.028 A 
HETATM   25  C   UNL     1      -5.746   0.339 -32.855  1.00  0.00     0.012 A 
HETATM   26  C   UNL     1      -5.038  -0.864 -32.872  1.00  0.00     0.043 A 
HETATM   27  C   UNL     1      -5.260  -1.778 -33.894  1.00  0.00     0.116 A 
HETATM   28  F   UNL     1      -4.580  -2.931 -33.907  1.00  0.00    -0.206 F 
HETATM   29  C   UNL     1      -6.181  -1.514 -34.899  1.00  0.00     0.043 A 
HETATM   30  C   UNL     1      -6.892  -0.314 -34.887  1.00  0.00     0.012 A 
ENDBRANCH   2  24
BRANCH   1  31
HETATM   31  C   UNL     1      -9.620   0.990 -32.915  1.00  0.00     0.293 C 
HETATM   32  O   UNL     1      -9.747  -0.015 -32.235  1.00  0.00    -0.259 OA
BRANCH  31  33
HETATM   33  O   UNL     1     -10.436   1.386 -33.923  1.00  0.00    -0.318 OA
BRANCH  33  34
HETATM   34  C   UNL     1     -11.744   1.832 -33.532  1.00  0.00     0.174 C 
HETATM   35  C   UNL     1     -12.789   0.815 -33.950  1.00  0.00     0.034 C 
ENDBRANCH  33  34
ENDBRANCH  31  33
ENDBRANCH   1  31
TORSDOF 7
ENDMDL
MODEL 4
REMARK VINA RESULT:      -9.0      1.291      1.680
REMARK  7 active torsions:
REMARK  status: ('A' for Active; 'I' for Inactive)
REMARK    1  A    between atoms: C_2  and  O_3 
REMARK    2  A    between atoms: O_3  and  C_4 
REMARK    3  A    between atoms: C_4  and  C_5 
REMARK    4  A    between atoms: C_6  and  C_7 
REMARK    5  A    between atoms: C_18  and  S_19 
REMARK    6  A    between atoms: S_19  and  C_20 
REMARK    7  A    between atoms: C_20  and  C_21 
ROOT
HETATM    1  C   UNL     1      -7.044   6.174 -31.698  1.00  0.00     0.070 C 
HETATM    2  C   UNL     1      -6.520   4.758 -31.894  1.00  0.00     0.203 C 
HETATM    3  N   UNL     1      -7.488   3.931 -32.621  1.00  0.00    -0.082 N 
HETATM    4  C   UNL     1      -8.623   4.413 -33.210  1.00  0.00     0.726 A 
HETATM    5  N   UNL     1      -8.912   5.724 -33.101  1.00  0.00    -0.192 N 
HETATM    6  N   UNL     1      -7.421   2.589 -32.705  1.00  0.00    -0.128 NA
HETATM    7  C   UNL     1      -8.511   2.331 -33.437  1.00  0.00     0.226 A 
HETATM    8  N   UNL     1      -9.273   3.426 -33.772  1.00  0.00    -0.035 NA
HETATM    9  C   UNL     1      -8.182   6.601 -32.301  1.00  0.00     0.037 C 
HETATM   10  C   UNL     1      -8.763   7.984 -32.145  1.00  0.00     0.070 C 
HETATM   11  H   UNL     1      -9.791   6.063 -33.485  1.00  0.00     0.184 HD
ENDROOT
BRANCH   7  12
HETATM   12  S   UNL     1      -8.928   0.699 -33.861  1.00  0.00    -0.083 SA
BRANCH  12  13
HETATM   13  C   UNL     1      -7.676   0.372 -35.128  1.00  0.00     0.121 C 
BRANCH  13  14
HETATM   14  C   UNL     1      -6.646  -0.614 -34.633  1.00  0.00    -0.048 A 
HETATM   15  C   UNL     1      -6.758  -1.979 -34.947  1.00  0.00     0.020 A 
HETATM   16  C   UNL     1      -5.787  -2.905 -34.532  1.00  0.00    -0.025 A 
HETATM   17  C   UNL     1      -4.678  -2.456 -33.780  1.00  0.00    -0.026 A 
HETATM   18  C   UNL     1      -5.888  -4.268 -34.856  1.00  0.00     0.012 A 
HETATM   19  C   UNL     1      -4.572  -1.093 -33.465  1.00  0.00     0.013 A 
HETATM   20  C   UNL     1      -3.704  -3.381 -33.372  1.00  0.00     0.012 A 
HETATM   21  C   UNL     1      -5.542  -0.180 -33.890  1.00  0.00     0.009 A 
HETATM   22  C   UNL     1      -3.819  -4.732 -33.703  1.00  0.00     0.001 A 
HETATM   23  C   UNL     1      -4.911  -5.175 -34.445  1.00  0.00     0.001 A 
ENDBRANCH  13  14
ENDBRANCH  12  13
ENDBRANCH   7  12
BRANCH   2  24
HETATM   24  C   UNL     1      -5.173   4.725 -32.618  1.00  0.00    -0.028 A 
HETATM   25  C   UNL     1      -5.059   5.279 -33.907  1.00  0.00     0.012 A 
HETATM   26  C   UNL     1      -3.838   5.258 -34.582  1.00  0.00     0.043 A 
HETATM   27  C   UNL     1      -2.726   4.688 -33.974  1.00  0.00     0.116 A 
HETATM   28  F   UNL     1      -1.555   4.670 -34.624  1.00  0.00    -0.206 F 
HETATM   29  C   UNL     1      -2.811   4.139 -32.701  1.00  0.00     0.043 A 
HETATM   30  C   UNL     1      -4.030   4.159 -32.022  1.00  0.00     0.012 A 
ENDBRANCH   2  24
BRANCH   1  31
HETATM   31  C   UNL     1      -6.217   7.063 -30.854  1.00  0.00     0.293 C 
HETATM   32  O   UNL     1      -6.250   7.085 -29.635  1.00  0.00    -0.259 OA
BRANCH  31  33
HETATM   33  O   UNL     1      -5.436   7.834 -31.650  1.00  0.00    -0.318 OA
BRANCH  33  34
HETATM   34  C   UNL     1      -4.264   8.387 -31.031  1.00  0.00     0.174 C 
HETATM   35  C   UNL     1      -3.015   7.779 -31.641  1.00  0.00     0.034 C 
ENDBRANCH  33  34
ENDBRANCH  31  33
ENDBRANCH   1  31
TORSDOF 7
ENDMDL
MODEL 5
REMARK VINA RESULT:      -8.8      3.608      8.919
REMARK  7 active torsions:
REMARK  status: ('A' for Active; 'I' for Inactive)
REMARK    1  A    between atoms: C_2  and  O_3 
REMARK    2  A    between atoms: O_3  and  C_4 
REMARK    3  A    between atoms: C_4  and  C_5 
REMARK    4  A    between atoms: C_6  and  C_7 
REMARK    5  A    between atoms: C_18  and  S_19 
REMARK    6  A    between atoms: S_19  and  C_20 
REMARK    7  A    between atoms: C_20  and  C_21 
ROOT
HETATM    1  C   UNL     1      -8.307   3.404 -32.680  1.00  0.00     0.070 C 
HETATM    2  C   UNL     1      -7.065   3.028 -33.478  1.00  0.00     0.203 C 
HETATM    3  N   UNL     1      -5.851   3.550 -32.845  1.00  0.00    -0.082 N 
HETATM    4  C   UNL     1      -5.817   4.130 -31.607  1.00  0.00     0.726 A 
HETATM    5  N   UNL     1      -6.966   4.274 -30.919  1.00  0.00    -0.192 N 
HETATM    6  N   UNL     1      -4.650   3.609 -33.449  1.00  0.00    -0.128 NA
HETATM    7  C   UNL     1      -3.910   4.163 -32.480  1.00  0.00     0.226 A 
HETATM    8  N   UNL     1      -4.590   4.492 -31.331  1.00  0.00    -0.035 NA
HETATM    9  C   UNL     1      -8.217   3.984 -31.457  1.00  0.00     0.037 C 
HETATM   10  C   UNL     1      -9.403   4.389 -30.617  1.00  0.00     0.070 C 
HETATM   11  H   UNL     1      -6.942   4.766 -30.028  1.00  0.00     0.184 HD
ENDROOT
BRANCH   7  12
HETATM   12  S   UNL     1      -2.220   4.481 -32.728  1.00  0.00    -0.083 SA
BRANCH  12  13
HETATM   13  C   UNL     1      -2.220   6.289 -32.618  1.00  0.00     0.121 C 
BRANCH  13  14
HETATM   14  C   UNL     1      -1.331   6.765 -31.496  1.00  0.00    -0.048 A 
HETATM   15  C   UNL     1      -1.783   7.744 -30.595  1.00  0.00     0.020 A 
HETATM   16  C   UNL     1      -0.986   8.168 -29.518  1.00  0.00    -0.025 A 
HETATM   17  C   UNL     1       0.296   7.603 -29.341  1.00  0.00    -0.026 A 
HETATM   18  C   UNL     1      -1.441   9.136 -28.608  1.00  0.00     0.012 A 
HETATM   19  C   UNL     1       0.746   6.629 -30.245  1.00  0.00     0.013 A 
HETATM   20  C   UNL     1       1.089   8.022 -28.261  1.00  0.00     0.012 A 
HETATM   21  C   UNL     1      -0.060   6.210 -31.308  1.00  0.00     0.009 A 
HETATM   22  C   UNL     1       0.623   8.985 -27.364  1.00  0.00     0.001 A 
HETATM   23  C   UNL     1      -0.642   9.542 -27.537  1.00  0.00     0.001 A 
ENDBRANCH  13  14
ENDBRANCH  12  13
ENDBRANCH   7  12
BRANCH   2  24
HETATM   24  C   UNL     1      -6.930   1.519 -33.678  1.00  0.00    -0.028 A 
HETATM   25  C   UNL     1      -6.585   0.697 -32.589  1.00  0.00     0.012 A 
HETATM   26  C   UNL     1      -6.457  -0.683 -32.754  1.00  0.00     0.043 A 
HETATM   27  C   UNL     1      -6.675  -1.249 -34.004  1.00  0.00     0.116 A 
HETATM   28  F   UNL     1      -6.553  -2.573 -34.158  1.00  0.00    -0.206 F 
HETATM   29  C   UNL     1      -7.021  -0.461 -35.093  1.00  0.00     0.043 A 
HETATM   30  C   UNL     1      -7.151   0.919 -34.934  1.00  0.00     0.012 A 
ENDBRANCH   2  24
BRANCH   1  31
HETATM   31  C   UNL     1      -9.606   3.056 -33.296  1.00  0.00     0.293 C 
HETATM   32  O   UNL     1     -10.072   3.601 -34.282  1.00  0.00    -0.259 OA
BRANCH  31  33
HETATM   33  O   UNL     1     -10.177   2.049 -32.589  1.00  0.00    -0.318 OA
BRANCH  33  34
HETATM   34  C   UNL     1     -10.680   0.947 -33.362  1.00  0.00     0.174 C 
HETATM   35  C   UNL     1     -10.173  -0.364 -32.792  1.00  0.00     0.034 C 
ENDBRANCH  33  34
ENDBRANCH  31  33
ENDBRANCH   1  31
TORSDOF 7
ENDMDL
MODEL 6
REMARK VINA RESULT:      -8.7      3.628      8.912
REMARK  7 active torsions:
REMARK  status: ('A' for Active; 'I' for Inactive)
REMARK    1  A    between atoms: C_2  and  O_3 
REMARK    2  A    between atoms: O_3  and  C_4 
REMARK    3  A    between atoms: C_4  and  C_5 
REMARK    4  A    between atoms: C_6  and  C_7 
REMARK    5  A    between atoms: C_18  and  S_19 
REMARK    6  A    between atoms: S_19  and  C_20 
REMARK    7  A    between atoms: C_20  and  C_21 
ROOT
HETATM    1  C   UNL     1      -6.799   2.371 -31.877  1.00  0.00     0.070 C 
HETATM    2  C   UNL     1      -5.533   2.329 -32.723  1.00  0.00     0.203 C 
HETATM    3  N   UNL     1      -4.721   3.532 -32.520  1.00  0.00    -0.082 N 
HETATM    4  C   UNL     1      -4.967   4.474 -31.562  1.00  0.00     0.726 A 
HETATM    5  N   UNL     1      -6.040   4.330 -30.760  1.00  0.00    -0.192 N 
HETATM    6  N   UNL     1      -3.700   3.896 -33.318  1.00  0.00    -0.128 NA
HETATM    7  C   UNL     1      -3.317   5.035 -32.728  1.00  0.00     0.226 A 
HETATM    8  N   UNL     1      -4.067   5.421 -31.642  1.00  0.00    -0.035 NA
HETATM    9  C   UNL     1      -6.997   3.334 -30.942  1.00  0.00     0.037 C 
HETATM   10  C   UNL     1      -8.228   3.441 -30.077  1.00  0.00     0.070 C 
HETATM   11  H   UNL     1      -6.254   5.068 -30.094  1.00  0.00     0.184 HD
ENDROOT
BRANCH   7  12
HETATM   12  S   UNL     1      -1.992   5.961 -33.366  1.00  0.00    -0.083 SA
BRANCH  12  13
HETATM   13  C   UNL     1      -2.246   7.523 -32.483  1.00  0.00     0.121 C 
BRANCH  13  14
HETATM   14  C   UNL     1      -1.335   7.623 -31.284  1.00  0.00    -0.048 A 
HETATM   15  C   UNL     1      -1.698   8.409 -30.177  1.00  0.00     0.020 A 
HETATM   16  C   UNL     1      -0.884   8.480 -29.035  1.00  0.00    -0.025 A 
HETATM   17  C   UNL     1       0.325   7.752 -29.000  1.00  0.00    -0.026 A 
HETATM   18  C   UNL     1      -1.251   9.253 -27.921  1.00  0.00     0.012 A 
HETATM   19  C   UNL     1       0.687   6.971 -30.109  1.00  0.00     0.013 A 
HETATM   20  C   UNL     1       1.135   7.818 -27.855  1.00  0.00     0.012 A 
HETATM   21  C   UNL     1      -0.136   6.903 -31.237  1.00  0.00     0.009 A 
HETATM   22  C   UNL     1       0.757   8.590 -26.756  1.00  0.00     0.001 A 
HETATM   23  C   UNL     1      -0.436   9.308 -26.789  1.00  0.00     0.001 A 
ENDBRANCH  13  14
ENDBRANCH  12  13
ENDBRANCH   7  12
BRANCH   2  24
HETATM   24  C   UNL     1      -4.685   1.086 -32.450  1.00  0.00    -0.028 A 
HETATM   25  C   UNL     1      -4.735  -0.003 -33.338  1.00  0.00     0.012 A 
HETATM   26  C   UNL     1      -3.968  -1.145 -33.105  1.00  0.00     0.043 A 
HETATM   27  C   UNL     1      -3.146  -1.204 -31.986  1.00  0.00     0.116 A 
HETATM   28  F   UNL     1      -2.410  -2.300 -31.764  1.00  0.00    -0.206 F 
HETATM   29  C   UNL     1      -3.075  -0.141 -31.096  1.00  0.00     0.043 A 
HETATM   30  C   UNL     1      -3.840   1.004 -31.326  1.00  0.00     0.012 A 
ENDBRANCH   2  24
BRANCH   1  31
HETATM   31  C   UNL     1      -7.770   1.278 -32.103  1.00  0.00     0.293 C 
HETATM   32  O   UNL     1      -7.939   0.337 -31.347  1.00  0.00    -0.259 OA
BRANCH  31  33
HETATM   33  O   UNL     1      -8.424   1.498 -33.271  1.00  0.00    -0.318 OA
BRANCH  33  34
HETATM   34  C   UNL     1      -8.791   0.325 -34.014  1.00  0.00     0.174 C 
HETATM   35  C   UNL     1      -7.860   0.146 -35.198  1.00  0.00     0.034 C 
ENDBRANCH  33  34
ENDBRANCH  31  33
ENDBRANCH   1  31
TORSDOF 7
ENDMDL
MODEL 7
REMARK VINA RESULT:      -8.7      1.406      2.167
REMARK  7 active torsions:
REMARK  status: ('A' for Active; 'I' for Inactive)
REMARK    1  A    between atoms: C_2  and  O_3 
REMARK    2  A    between atoms: O_3  and  C_4 
REMARK    3  A    between atoms: C_4  and  C_5 
REMARK    4  A    between atoms: C_6  and  C_7 
REMARK    5  A    between atoms: C_18  and  S_19 
REMARK    6  A    between atoms: S_19  and  C_20 
REMARK    7  A    between atoms: C_20  and  C_21 
ROOT
HETATM    1  C   UNL     1      -4.440   6.813 -30.079  1.00  0.00     0.070 C 
HETATM    2  C   UNL     1      -4.010   5.455 -30.616  1.00  0.00     0.203 C 
HETATM    3  N   UNL     1      -5.172   4.632 -30.963  1.00  0.00    -0.082 N 
HETATM    4  C   UNL     1      -6.460   5.088 -30.984  1.00  0.00     0.726 A 
HETATM    5  N   UNL     1      -6.709   6.364 -30.634  1.00  0.00    -0.192 N 
HETATM    6  N   UNL     1      -5.114   3.308 -31.204  1.00  0.00    -0.128 NA
HETATM    7  C   UNL     1      -6.403   3.043 -31.449  1.00  0.00     0.226 A 
HETATM    8  N   UNL     1      -7.260   4.112 -31.330  1.00  0.00    -0.035 NA
HETATM    9  C   UNL     1      -5.735   7.216 -30.117  1.00  0.00     0.037 C 
HETATM   10  C   UNL     1      -6.231   8.542 -29.597  1.00  0.00     0.070 C 
HETATM   11  H   UNL     1      -7.676   6.677 -30.587  1.00  0.00     0.184 HD
ENDROOT
BRANCH   7  12
HETATM   12  S   UNL     1      -6.919   1.428 -31.829  1.00  0.00    -0.083 SA
BRANCH  12  13
HETATM   13  C   UNL     1      -6.189   1.244 -33.477  1.00  0.00     0.121 C 
BRANCH  13  14
HETATM   14  C   UNL     1      -6.061  -0.211 -33.855  1.00  0.00    -0.048 A 
HETATM   15  C   UNL     1      -4.964  -0.969 -33.410  1.00  0.00     0.020 A 
HETATM   16  C   UNL     1      -4.851  -2.335 -33.715  1.00  0.00    -0.025 A 
HETATM   17  C   UNL     1      -5.855  -2.958 -34.488  1.00  0.00    -0.026 A 
HETATM   18  C   UNL     1      -3.763  -3.099 -33.261  1.00  0.00     0.012 A 
HETATM   19  C   UNL     1      -6.947  -2.197 -34.934  1.00  0.00     0.013 A 
HETATM   20  C   UNL     1      -5.745  -4.325 -34.787  1.00  0.00     0.012 A 
HETATM   21  C   UNL     1      -7.052  -0.840 -34.617  1.00  0.00     0.009 A 
HETATM   22  C   UNL     1      -4.658  -5.071 -34.327  1.00  0.00     0.001 A 
HETATM   23  C   UNL     1      -3.668  -4.458 -33.564  1.00  0.00     0.001 A 
ENDBRANCH  13  14
ENDBRANCH  12  13
ENDBRANCH   7  12
BRANCH   2  24
HETATM   24  C   UNL     1      -3.082   5.568 -31.826  1.00  0.00    -0.028 A 
HETATM   25  C   UNL     1      -3.554   6.150 -33.016  1.00  0.00     0.012 A 
HETATM   26  C   UNL     1      -2.721   6.262 -34.130  1.00  0.00     0.043 A 
HETATM   27  C   UNL     1      -1.414   5.796 -34.060  1.00  0.00     0.116 A 
HETATM   28  F   UNL     1      -0.617   5.906 -35.130  1.00  0.00    -0.206 F 
HETATM   29  C   UNL     1      -0.922   5.223 -32.896  1.00  0.00     0.043 A 
HETATM   30  C   UNL     1      -1.751   5.109 -31.778  1.00  0.00     0.012 A 
ENDBRANCH   2  24
BRANCH   1  31
HETATM   31  C   UNL     1      -3.359   7.680 -29.560  1.00  0.00     0.293 C 
HETATM   32  O   UNL     1      -2.887   8.630 -30.160  1.00  0.00    -0.259 OA
BRANCH  31  33
HETATM   33  O   UNL     1      -2.992   7.244 -28.329  1.00  0.00    -0.318 OA
BRANCH  33  34
HETATM   34  C   UNL     1      -1.579   7.119 -28.105  1.00  0.00     0.174 C 
HETATM   35  C   UNL     1      -1.272   7.246 -26.625  1.00  0.00     0.034 C 
ENDBRANCH  33  34
ENDBRANCH  31  33
ENDBRANCH   1  31
TORSDOF 7
ENDMDL
MODEL 8
REMARK VINA RESULT:      -8.5      5.556      7.425
REMARK  7 active torsions:
REMARK  status: ('A' for Active; 'I' for Inactive)
REMARK    1  A    between atoms: C_2  and  O_3 
REMARK    2  A    between atoms: O_3  and  C_4 
REMARK    3  A    between atoms: C_4  and  C_5 
REMARK    4  A    between atoms: C_6  and  C_7 
REMARK    5  A    between atoms: C_18  and  S_19 
REMARK    6  A    between atoms: S_19  and  C_20 
REMARK    7  A    between atoms: C_20  and  C_21 
ROOT
HETATM    1  C   UNL     1     -13.425   3.962 -32.327  1.00  0.00     0.070 C 
HETATM    2  C   UNL     1     -12.074   4.509 -32.767  1.00  0.00     0.203 C 
HETATM    3  N   UNL     1     -11.185   3.430 -33.210  1.00  0.00    -0.082 N 
HETATM    4  C   UNL     1     -11.577   2.133 -33.385  1.00  0.00     0.726 A 
HETATM    5  N   UNL     1     -12.850   1.789 -33.107  1.00  0.00    -0.192 N 
HETATM    6  N   UNL     1      -9.860   3.573 -33.397  1.00  0.00    -0.128 NA
HETATM    7  C   UNL     1      -9.526   2.332 -33.770  1.00  0.00     0.226 A 
HETATM    8  N   UNL     1     -10.554   1.420 -33.781  1.00  0.00    -0.035 NA
HETATM    9  C   UNL     1     -13.763   2.662 -32.519  1.00  0.00     0.037 C 
HETATM   10  C   UNL     1     -15.078   2.053 -32.100  1.00  0.00     0.070 C 
HETATM   11  H   UNL     1     -13.117   0.810 -33.177  1.00  0.00     0.184 HD
ENDROOT
BRANCH   7  12
HETATM   12  S   UNL     1      -7.877   1.934 -34.148  1.00  0.00    -0.083 SA
BRANCH  12  13
HETATM   13  C   UNL     1      -8.111   0.303 -34.900  1.00  0.00     0.121 C 
BRANCH  13  14
HETATM   14  C   UNL     1      -6.991  -0.635 -34.522  1.00  0.00    -0.048 A 
HETATM   15  C   UNL     1      -7.078  -2.005 -34.822  1.00  0.00     0.020 A 
HETATM   16  C   UNL     1      -6.027  -2.886 -34.517  1.00  0.00    -0.025 A 
HETATM   17  C   UNL     1      -4.863  -2.386 -33.893  1.00  0.00    -0.026 A 
HETATM   18  C   UNL     1      -6.104  -4.254 -34.828  1.00  0.00     0.012 A 
HETATM   19  C   UNL     1      -4.781  -1.018 -33.592  1.00  0.00     0.013 A 
HETATM   20  C   UNL     1      -3.810  -3.266 -33.596  1.00  0.00     0.012 A 
HETATM   21  C   UNL     1      -5.831  -0.151 -33.907  1.00  0.00     0.009 A 
HETATM   22  C   UNL     1      -3.902  -4.622 -33.912  1.00  0.00     0.001 A 
HETATM   23  C   UNL     1      -5.048  -5.116 -34.528  1.00  0.00     0.001 A 
ENDBRANCH  13  14
ENDBRANCH  12  13
ENDBRANCH   7  12
BRANCH   2  24
HETATM   24  C   UNL     1     -12.197   5.557 -33.874  1.00  0.00    -0.028 A 
HETATM   25  C   UNL     1     -11.632   6.833 -33.693  1.00  0.00     0.012 A 
HETATM   26  C   UNL     1     -11.735   7.802 -34.692  1.00  0.00     0.043 A 
HETATM   27  C   UNL     1     -12.398   7.501 -35.876  1.00  0.00     0.116 A 
HETATM   28  F   UNL     1     -12.493   8.433 -36.833  1.00  0.00    -0.206 F 
HETATM   29  C   UNL     1     -12.959   6.248 -36.081  1.00  0.00     0.043 A 
HETATM   30  C   UNL     1     -12.858   5.275 -35.085  1.00  0.00     0.012 A 
ENDBRANCH   2  24
BRANCH   1  31
HETATM   31  C   UNL     1     -14.358   4.939 -31.725  1.00  0.00     0.293 C 
HETATM   32  O   UNL     1     -14.294   5.336 -30.573  1.00  0.00    -0.259 OA
BRANCH  31  33
HETATM   33  O   UNL     1     -15.276   5.308 -32.652  1.00  0.00    -0.318 OA
BRANCH  33  34
HETATM   34  C   UNL     1     -15.911   6.578 -32.434  1.00  0.00     0.174 C 
HETATM   35  C   UNL     1     -15.305   7.627 -33.347  1.00  0.00     0.034 C 
ENDBRANCH  33  34
ENDBRANCH  31  33
ENDBRANCH   1  31
TORSDOF 7
ENDMDL
MODEL 9
REMARK VINA RESULT:      -8.4      4.357      7.081
REMARK  7 active torsions:
REMARK  status: ('A' for Active; 'I' for Inactive)
REMARK    1  A    between atoms: C_2  and  O_3 
REMARK    2  A    between atoms: O_3  and  C_4 
REMARK    3  A    between atoms: C_4  and  C_5 
REMARK    4  A    between atoms: C_6  and  C_7 
REMARK    5  A    between atoms: C_18  and  S_19 
REMARK    6  A    between atoms: S_19  and  C_20 
REMARK    7  A    between atoms: C_20  and  C_21 
ROOT
HETATM    1  C   UNL     1     -11.660   3.857 -32.373  1.00  0.00     0.070 C 
HETATM    2  C   UNL     1     -10.189   3.947 -32.757  1.00  0.00     0.203 C 
HETATM    3  N   UNL     1      -9.416   4.649 -31.728  1.00  0.00    -0.082 N 
HETATM    4  C   UNL     1      -9.909   5.006 -30.504  1.00  0.00     0.726 A 
HETATM    5  N   UNL     1     -11.196   4.737 -30.212  1.00  0.00    -0.192 N 
HETATM    6  N   UNL     1      -8.164   5.111 -31.908  1.00  0.00    -0.128 NA
HETATM    7  C   UNL     1      -7.930   5.667 -30.714  1.00  0.00     0.226 A 
HETATM    8  N   UNL     1      -8.975   5.617 -29.822  1.00  0.00    -0.035 NA
HETATM    9  C   UNL     1     -12.099   4.231 -31.145  1.00  0.00     0.037 C 
HETATM   10  C   UNL     1     -13.540   4.176 -30.702  1.00  0.00     0.070 C 
HETATM   11  H   UNL     1     -11.574   5.064 -29.326  1.00  0.00     0.184 HD
ENDROOT
BRANCH   7  12
HETATM   12  S   UNL     1      -6.411   6.441 -30.380  1.00  0.00    -0.083 SA
BRANCH  12  13
HETATM   13  C   UNL     1      -5.566   5.107 -29.491  1.00  0.00     0.121 C 
BRANCH  13  14
HETATM   14  C   UNL     1      -5.259   3.951 -30.411  1.00  0.00    -0.048 A 
HETATM   15  C   UNL     1      -5.612   2.640 -30.049  1.00  0.00     0.020 A 
HETATM   16  C   UNL     1      -5.373   1.556 -30.911  1.00  0.00    -0.025 A 
HETATM   17  C   UNL     1      -4.762   1.789 -32.163  1.00  0.00    -0.026 A 
HETATM   18  C   UNL     1      -5.738   0.247 -30.560  1.00  0.00     0.012 A 
HETATM   19  C   UNL     1      -4.407   3.099 -32.519  1.00  0.00     0.013 A 
HETATM   20  C   UNL     1      -4.530   0.707 -33.027  1.00  0.00     0.012 A 
HETATM   21  C   UNL     1      -4.657   4.170 -31.655  1.00  0.00     0.009 A 
HETATM   22  C   UNL     1      -4.899  -0.589 -32.663  1.00  0.00     0.001 A 
HETATM   23  C   UNL     1      -5.502  -0.819 -31.430  1.00  0.00     0.001 A 
ENDBRANCH  13  14
ENDBRANCH  12  13
ENDBRANCH   7  12
BRANCH   2  24
HETATM   24  C   UNL     1      -9.565   2.576 -33.019  1.00  0.00    -0.028 A 
HETATM   25  C   UNL     1      -9.523   1.618 -31.989  1.00  0.00     0.012 A 
HETATM   26  C   UNL     1      -8.958   0.362 -32.212  1.00  0.00     0.043 A 
HETATM   27  C   UNL     1      -8.435   0.055 -33.462  1.00  0.00     0.116 A 
HETATM   28  F   UNL     1      -7.894  -1.152 -33.672  1.00  0.00    -0.206 F 
HETATM   29  C   UNL     1      -8.469   0.980 -34.496  1.00  0.00     0.043 A 
HETATM   30  C   UNL     1      -9.034   2.238 -34.280  1.00  0.00     0.012 A 
ENDBRANCH   2  24
BRANCH   1  31
HETATM   31  C   UNL     1     -12.567   3.296 -33.398  1.00  0.00     0.293 C 
HETATM   32  O   UNL     1     -13.000   3.919 -34.353  1.00  0.00    -0.259 OA
BRANCH  31  33
HETATM   33  O   UNL     1     -12.829   1.999 -33.099  1.00  0.00    -0.318 OA
BRANCH  33  34
HETATM   34  C   UNL     1     -13.802   1.349 -33.931  1.00  0.00     0.174 C 
HETATM   35  C   UNL     1     -13.660  -0.157 -33.821  1.00  0.00     0.034 C 
ENDBRANCH  33  34
ENDBRANCH  31  33
ENDBRANCH   1  31
TORSDOF 7
ENDMDL
MODEL 10
REMARK VINA RESULT:      -8.2      1.442      2.196
REMARK  7 active torsions:
REMARK  status: ('A' for Active; 'I' for Inactive)
REMARK    1  A    between atoms: C_2  and  O_3 
REMARK    2  A    between atoms: O_3  and  C_4 
REMARK    3  A    between atoms: C_4  and  C_5 
REMARK    4  A    between atoms: C_6  and  C_7 
REMARK    5  A    between atoms: C_18  and  S_19 
REMARK    6  A    between atoms: S_19  and  C_20 
REMARK    7  A    between atoms: C_20  and  C_21 
ROOT
HETATM    1  C   UNL     1      -5.709   6.876 -31.615  1.00  0.00     0.070 C 
HETATM    2  C   UNL     1      -5.517   5.435 -32.070  1.00  0.00     0.203 C 
HETATM    3  N   UNL     1      -6.718   4.927 -32.740  1.00  0.00    -0.082 N 
HETATM    4  C   UNL     1      -7.793   5.698 -33.081  1.00  0.00     0.726 A 
HETATM    5  N   UNL     1      -7.789   7.007 -32.763  1.00  0.00    -0.192 N 
HETATM    6  N   UNL     1      -6.941   3.626 -33.005  1.00  0.00    -0.128 NA
HETATM    7  C   UNL     1      -8.143   3.694 -33.589  1.00  0.00     0.226 A 
HETATM    8  N   UNL     1      -8.697   4.950 -33.660  1.00  0.00    -0.035 NA
HETATM    9  C   UNL     1      -6.800   7.596 -31.978  1.00  0.00     0.037 C 
HETATM   10  C   UNL     1      -7.058   9.022 -31.558  1.00  0.00     0.070 C 
HETATM   11  H   UNL     1      -8.620   7.559 -32.961  1.00  0.00     0.184 HD
ENDROOT
BRANCH   7  12
HETATM   12  S   UNL     1      -8.938   2.254 -34.149  1.00  0.00    -0.083 SA
BRANCH  12  13
HETATM   13  C   UNL     1      -8.575   1.137 -32.770  1.00  0.00     0.121 C 
BRANCH  13  14
HETATM   14  C   UNL     1      -7.546   0.105 -33.163  1.00  0.00    -0.048 A 
HETATM   15  C   UNL     1      -6.416  -0.116 -32.359  1.00  0.00     0.020 A 
HETATM   16  C   UNL     1      -5.470  -1.102 -32.685  1.00  0.00    -0.025 A 
HETATM   17  C   UNL     1      -5.656  -1.882 -33.847  1.00  0.00    -0.026 A 
HETATM   18  C   UNL     1      -4.346  -1.335 -31.876  1.00  0.00     0.012 A 
HETATM   19  C   UNL     1      -6.784  -1.656 -34.651  1.00  0.00     0.013 A 
HETATM   20  C   UNL     1      -4.714  -2.872 -34.169  1.00  0.00     0.012 A 
HETATM   21  C   UNL     1      -7.722  -0.677 -34.311  1.00  0.00     0.009 A 
HETATM   22  C   UNL     1      -3.603  -3.093 -33.354  1.00  0.00     0.001 A 
HETATM   23  C   UNL     1      -3.419  -2.324 -32.207  1.00  0.00     0.001 A 
ENDBRANCH  13  14
ENDBRANCH  12  13
ENDBRANCH   7  12
BRANCH   2  24
HETATM   24  C   UNL     1      -4.307   5.265 -32.989  1.00  0.00    -0.028 A 
HETATM   25  C   UNL     1      -3.072   4.859 -32.450  1.00  0.00     0.012 A 
HETATM   26  C   UNL     1      -1.958   4.698 -33.275  1.00  0.00     0.043 A 
HETATM   27  C   UNL     1      -2.071   4.940 -34.638  1.00  0.00     0.116 A 
HETATM   28  F   UNL     1      -1.000   4.784 -35.427  1.00  0.00    -0.206 F 
HETATM   29  C   UNL     1      -3.279   5.337 -35.195  1.00  0.00     0.043 A 
HETATM   30  C   UNL     1      -4.397   5.498 -34.375  1.00  0.00     0.012 A 
ENDBRANCH   2  24
BRANCH   1  31
HETATM   31  C   UNL     1      -4.618   7.452 -30.800  1.00  0.00     0.293 C 
HETATM   32  O   UNL     1      -3.771   8.220 -31.223  1.00  0.00    -0.259 OA
BRANCH  31  33
HETATM   33  O   UNL     1      -4.719   6.988 -29.529  1.00  0.00    -0.318 OA
BRANCH  33  34
HETATM   34  C   UNL     1      -4.343   7.910 -28.494  1.00  0.00     0.174 C 
HETATM   35  C   UNL     1      -5.570   8.629 -27.965  1.00  0.00     0.034 C 
ENDBRANCH  33  34
ENDBRANCH  31  33
ENDBRANCH   1  31
TORSDOF 7
ENDMDL
