MODEL 1
REMARK VINA RESULT:      -9.4      0.000      0.000
REMARK  3 active torsions:
REMARK  status: ('A' for Active; 'I' for Inactive)
REMARK    1  A    between atoms: C_3  and  C_4 
REMARK       I    between atoms: C_4  and  N_5 
REMARK    2  A    between atoms: N_5  and  N_6 
REMARK       I    between atoms: N_6  and  C_7 
REMARK    3  A    between atoms: C_7  and  C_8 
ROOT
HETATM    1  N   UNL     1      -3.746   1.798 -32.605  1.00  0.00    -0.263 N 
HETATM    2  C   UNL     1      -3.953   0.544 -32.077  1.00  0.00     0.272 C 
HETATM    3  O   UNL     1      -3.627   0.276 -30.919  1.00  0.00    -0.266 OA
HETATM    4  H   UNL     1      -3.996   2.065 -33.555  1.00  0.00     0.190 HD
ENDROOT
BRANCH   1   5
HETATM    5  N   UNL     1      -3.152   2.784 -31.810  1.00  0.00    -0.261 N 
HETATM    6  C   UNL     1      -2.560   3.880 -32.409  1.00  0.00     0.294 C 
HETATM    7  O   UNL     1      -2.545   4.013 -33.633  1.00  0.00    -0.264 OA
HETATM    8  H   UNL     1      -3.171   2.663 -30.798  1.00  0.00     0.190 HD
BRANCH   6   9
HETATM    9  C   UNL     1      -1.979   4.825 -31.475  1.00  0.00     0.152 A 
HETATM   10  C   UNL     1      -2.347   6.116 -31.106  1.00  0.00    -0.009 A 
HETATM   11  C   UNL     1      -3.498   6.918 -31.595  1.00  0.00     0.052 C 
HETATM   12  C   UNL     1      -1.386   6.538 -30.135  1.00  0.00     0.007 A 
HETATM   13  C   UNL     1      -0.499   5.482 -29.982  1.00  0.00     0.087 A 
HETATM   14  C   UNL     1      -1.177   7.702 -29.371  1.00  0.00     0.015 A 
HETATM   15  O   UNL     1      -0.852   4.450 -30.789  1.00  0.00    -0.304 OA
HETATM   16  C   UNL     1       0.594   5.495 -29.118  1.00  0.00     0.038 A 
HETATM   17  C   UNL     1       0.784   6.660 -28.368  1.00  0.00     0.003 A 
HETATM   18  C   UNL     1      -0.086   7.747 -28.492  1.00  0.00     0.001 A 
ENDBRANCH   6   9
ENDBRANCH   1   5
BRANCH   2  19
HETATM   19  C   UNL     1      -4.577  -0.447 -32.956  1.00  0.00     0.064 A 
HETATM   20  C   UNL     1      -4.327  -1.852 -33.163  1.00  0.00     0.046 A 
HETATM   21  C   UNL     1      -5.232  -2.303 -34.133  1.00  0.00     0.046 A 
HETATM   22  C   UNL     1      -3.430  -2.809 -32.640  1.00  0.00     0.130 A 
HETATM   23  C   UNL     1      -5.273  -3.630 -34.584  1.00  0.00     0.030 A 
HETATM   24  N   UNL     1      -6.003  -1.228 -34.504  1.00  0.00    -0.364 N 
HETATM   25  C   UNL     1      -4.366  -4.541 -34.036  1.00  0.00     0.005 A 
HETATM   26  C   UNL     1      -3.451  -4.136 -33.071  1.00  0.00     0.043 A 
HETATM   27  H   UNL     1      -6.743  -1.260 -35.193  1.00  0.00     0.165 HD
HETATM   28  C   UNL     1      -5.621  -0.118 -33.810  1.00  0.00     0.106 A 
HETATM   29  F   UNL     1      -2.532  -2.463 -31.707  1.00  0.00    -0.205 F 
ENDBRANCH   2  19
TORSDOF 3
ENDMDL
MODEL 2
REMARK VINA RESULT:      -9.3      2.014      9.056
REMARK  3 active torsions:
REMARK  status: ('A' for Active; 'I' for Inactive)
REMARK    1  A    between atoms: C_3  and  C_4 
REMARK       I    between atoms: C_4  and  N_5 
REMARK    2  A    between atoms: N_5  and  N_6 
REMARK       I    between atoms: N_6  and  C_7 
REMARK    3  A    between atoms: C_7  and  C_8 
ROOT
HETATM    1  N   UNL     1      -3.142   3.266 -31.083  1.00  0.00    -0.263 N 
HETATM    2  C   UNL     1      -2.545   4.286 -31.789  1.00  0.00     0.272 C 
HETATM    3  O   UNL     1      -2.104   4.104 -32.926  1.00  0.00    -0.266 OA
HETATM    4  H   UNL     1      -3.519   3.370 -30.142  1.00  0.00     0.190 HD
ENDROOT
BRANCH   1   5
HETATM    5  N   UNL     1      -3.247   2.000 -31.669  1.00  0.00    -0.261 N 
HETATM    6  C   UNL     1      -4.335   1.201 -31.375  1.00  0.00     0.294 C 
HETATM    7  O   UNL     1      -5.222   1.578 -30.609  1.00  0.00    -0.264 OA
HETATM    8  H   UNL     1      -2.507   1.700 -32.301  1.00  0.00     0.190 HD
BRANCH   6   9
HETATM    9  C   UNL     1      -4.323  -0.087 -32.043  1.00  0.00     0.152 A 
HETATM   10  C   UNL     1      -4.975  -0.552 -33.181  1.00  0.00    -0.009 A 
HETATM   11  C   UNL     1      -5.913   0.184 -34.067  1.00  0.00     0.052 C 
HETATM   12  C   UNL     1      -4.561  -1.910 -33.347  1.00  0.00     0.007 A 
HETATM   13  C   UNL     1      -3.689  -2.181 -32.302  1.00  0.00     0.087 A 
HETATM   14  C   UNL     1      -4.831  -2.936 -34.273  1.00  0.00     0.015 A 
HETATM   15  O   UNL     1      -3.545  -1.085 -31.513  1.00  0.00    -0.304 OA
HETATM   16  C   UNL     1      -3.059  -3.407 -32.102  1.00  0.00     0.038 A 
HETATM   17  C   UNL     1      -3.341  -4.413 -33.033  1.00  0.00     0.003 A 
HETATM   18  C   UNL     1      -4.213  -4.182 -34.101  1.00  0.00     0.001 A 
ENDBRANCH   6   9
ENDBRANCH   1   5
BRANCH   2  19
HETATM   19  C   UNL     1      -2.462   5.589 -31.125  1.00  0.00     0.064 A 
HETATM   20  C   UNL     1      -1.446   6.192 -30.300  1.00  0.00     0.046 A 
HETATM   21  C   UNL     1      -1.901   7.466 -29.933  1.00  0.00     0.046 A 
HETATM   22  C   UNL     1      -0.179   5.808 -29.810  1.00  0.00     0.130 A 
HETATM   23  C   UNL     1      -1.162   8.340 -29.124  1.00  0.00     0.030 A 
HETATM   24  N   UNL     1      -3.138   7.638 -30.507  1.00  0.00    -0.364 N 
HETATM   25  C   UNL     1       0.087   7.916 -28.664  1.00  0.00     0.005 A 
HETATM   26  C   UNL     1       0.577   6.659 -29.003  1.00  0.00     0.043 A 
HETATM   27  H   UNL     1      -3.706   8.470 -30.412  1.00  0.00     0.165 HD
HETATM   28  C   UNL     1      -3.482   6.527 -31.219  1.00  0.00     0.106 A 
HETATM   29  F   UNL     1       0.333   4.606 -30.112  1.00  0.00    -0.205 F 
ENDBRANCH   2  19
TORSDOF 3
ENDMDL
MODEL 3
REMARK VINA RESULT:      -9.2      5.759      9.646
REMARK  3 active torsions:
REMARK  status: ('A' for Active; 'I' for Inactive)
REMARK    1  A    between atoms: C_3  and  C_4 
REMARK       I    between atoms: C_4  and  N_5 
REMARK    2  A    between atoms: N_5  and  N_6 
REMARK       I    between atoms: N_6  and  C_7 
REMARK    3  A    between atoms: C_7  and  C_8 
ROOT
HETATM    1  N   UNL     1      -9.231   1.064 -34.966  1.00  0.00    -0.263 N 
HETATM    2  C   UNL     1     -10.321   1.254 -34.146  1.00  0.00     0.272 C 
HETATM    3  O   UNL     1     -10.513   0.539 -33.160  1.00  0.00    -0.266 OA
HETATM    4  H   UNL     1      -9.033   1.628 -35.790  1.00  0.00     0.190 HD
ENDROOT
BRANCH   1   5
HETATM    5  N   UNL     1      -8.328   0.037 -34.673  1.00  0.00    -0.261 N 
HETATM    6  C   UNL     1      -6.971   0.296 -34.691  1.00  0.00     0.294 C 
HETATM    7  O   UNL     1      -6.534   1.416 -34.958  1.00  0.00    -0.264 OA
HETATM    8  H   UNL     1      -8.702  -0.885 -34.454  1.00  0.00     0.190 HD
BRANCH   6   9
HETATM    9  C   UNL     1      -6.143  -0.852 -34.374  1.00  0.00     0.152 A 
HETATM   10  C   UNL     1      -5.002  -0.989 -33.590  1.00  0.00    -0.009 A 
HETATM   11  C   UNL     1      -4.282   0.061 -32.825  1.00  0.00     0.052 C 
HETATM   12  C   UNL     1      -4.640  -2.371 -33.655  1.00  0.00     0.007 A 
HETATM   13  C   UNL     1      -5.581  -2.980 -34.474  1.00  0.00     0.087 A 
HETATM   14  C   UNL     1      -3.618  -3.168 -33.106  1.00  0.00     0.015 A 
HETATM   15  O   UNL     1      -6.487  -2.067 -34.910  1.00  0.00    -0.304 OA
HETATM   16  C   UNL     1      -5.582  -4.335 -34.794  1.00  0.00     0.038 A 
HETATM   17  C   UNL     1      -4.558  -5.110 -34.239  1.00  0.00     0.003 A 
HETATM   18  C   UNL     1      -3.591  -4.537 -33.409  1.00  0.00     0.001 A 
ENDBRANCH   6   9
ENDBRANCH   1   5
BRANCH   2  19
HETATM   19  C   UNL     1     -11.233   2.344 -34.503  1.00  0.00     0.064 A 
HETATM   20  C   UNL     1     -11.020   3.752 -34.722  1.00  0.00     0.046 A 
HETATM   21  C   UNL     1     -12.259   4.322 -35.042  1.00  0.00     0.046 A 
HETATM   22  C   UNL     1      -9.911   4.626 -34.687  1.00  0.00     0.130 A 
HETATM   23  C   UNL     1     -12.427   5.687 -35.318  1.00  0.00     0.030 A 
HETATM   24  N   UNL     1     -13.190   3.313 -35.021  1.00  0.00    -0.364 N 
HETATM   25  C   UNL     1     -11.300   6.512 -35.271  1.00  0.00     0.005 A 
HETATM   26  C   UNL     1     -10.051   5.988 -34.959  1.00  0.00     0.043 A 
HETATM   27  H   UNL     1     -14.176   3.434 -35.215  1.00  0.00     0.165 HD
HETATM   28  C   UNL     1     -12.590   2.130 -34.702  1.00  0.00     0.106 A 
HETATM   29  F   UNL     1      -8.688   4.165 -34.391  1.00  0.00    -0.205 F 
ENDBRANCH   2  19
TORSDOF 3
ENDMDL
MODEL 4
REMARK VINA RESULT:      -9.2      2.382      9.255
REMARK  3 active torsions:
REMARK  status: ('A' for Active; 'I' for Inactive)
REMARK    1  A    between atoms: C_3  and  C_4 
REMARK       I    between atoms: C_4  and  N_5 
REMARK    2  A    between atoms: N_5  and  N_6 
REMARK       I    between atoms: N_6  and  C_7 
REMARK    3  A    between atoms: C_7  and  C_8 
ROOT
HETATM    1  N   UNL     1      -2.942   3.213 -31.365  1.00  0.00    -0.263 N 
HETATM    2  C   UNL     1      -2.317   4.171 -32.130  1.00  0.00     0.272 C 
HETATM    3  O   UNL     1      -2.403   4.165 -33.359  1.00  0.00    -0.266 OA
HETATM    4  H   UNL     1      -2.897   3.177 -30.348  1.00  0.00     0.190 HD
ENDROOT
BRANCH   1   5
HETATM    5  N   UNL     1      -3.688   2.213 -31.998  1.00  0.00    -0.261 N 
HETATM    6  C   UNL     1      -3.435   0.886 -31.710  1.00  0.00     0.294 C 
HETATM    7  O   UNL     1      -2.565   0.559 -30.902  1.00  0.00    -0.264 OA
HETATM    8  H   UNL     1      -4.404   2.497 -32.665  1.00  0.00     0.190 HD
BRANCH   6   9
HETATM    9  C   UNL     1      -4.273  -0.049 -32.435  1.00  0.00     0.152 A 
HETATM   10  C   UNL     1      -5.655  -0.153 -32.567  1.00  0.00    -0.009 A 
HETATM   11  C   UNL     1      -6.702   0.713 -31.968  1.00  0.00     0.052 C 
HETATM   12  C   UNL     1      -5.888  -1.280 -33.416  1.00  0.00     0.007 A 
HETATM   13  C   UNL     1      -4.637  -1.787 -33.740  1.00  0.00     0.087 A 
HETATM   14  C   UNL     1      -7.025  -1.921 -33.944  1.00  0.00     0.015 A 
HETATM   15  O   UNL     1      -3.663  -1.049 -33.149  1.00  0.00    -0.304 OA
HETATM   16  C   UNL     1      -4.427  -2.895 -34.556  1.00  0.00     0.038 A 
HETATM   17  C   UNL     1      -5.570  -3.518 -35.070  1.00  0.00     0.003 A 
HETATM   18  C   UNL     1      -6.848  -3.040 -34.770  1.00  0.00     0.001 A 
ENDBRANCH   6   9
ENDBRANCH   1   5
BRANCH   2  19
HETATM   19  C   UNL     1      -1.549   5.191 -31.411  1.00  0.00     0.064 A 
HETATM   20  C   UNL     1      -1.945   6.251 -30.519  1.00  0.00     0.046 A 
HETATM   21  C   UNL     1      -0.783   6.926 -30.123  1.00  0.00     0.046 A 
HETATM   22  C   UNL     1      -3.165   6.728 -29.991  1.00  0.00     0.130 A 
HETATM   23  C   UNL     1      -0.794   8.023 -29.250  1.00  0.00     0.030 A 
HETATM   24  N   UNL     1       0.278   6.311 -30.742  1.00  0.00    -0.364 N 
HETATM   25  C   UNL     1      -2.025   8.459 -28.754  1.00  0.00     0.005 A 
HETATM   26  C   UNL     1      -3.203   7.817 -29.120  1.00  0.00     0.043 A 
HETATM   27  H   UNL     1       1.245   6.588 -30.639  1.00  0.00     0.165 HD
HETATM   28  C   UNL     1      -0.166   5.276 -31.511  1.00  0.00     0.106 A 
HETATM   29  F   UNL     1      -4.325   6.140 -30.317  1.00  0.00    -0.205 F 
ENDBRANCH   2  19
TORSDOF 3
ENDMDL
MODEL 5
REMARK VINA RESULT:      -9.2      2.422      9.326
REMARK  3 active torsions:
REMARK  status: ('A' for Active; 'I' for Inactive)
REMARK    1  A    between atoms: C_3  and  C_4 
REMARK       I    between atoms: C_4  and  N_5 
REMARK    2  A    between atoms: N_5  and  N_6 
REMARK       I    between atoms: N_6  and  C_7 
REMARK    3  A    between atoms: C_7  and  C_8 
ROOT
HETATM    1  N   UNL     1      -3.048   4.465 -30.951  1.00  0.00    -0.263 N 
HETATM    2  C   UNL     1      -1.865   5.114 -31.224  1.00  0.00     0.272 C 
HETATM    3  O   UNL     1      -1.065   4.665 -32.046  1.00  0.00    -0.266 OA
HETATM    4  H   UNL     1      -3.738   4.797 -30.279  1.00  0.00     0.190 HD
ENDROOT
BRANCH   1   5
HETATM    5  N   UNL     1      -3.343   3.273 -31.620  1.00  0.00    -0.261 N 
HETATM    6  C   UNL     1      -4.460   2.545 -31.258  1.00  0.00     0.294 C 
HETATM    7  O   UNL     1      -5.209   2.923 -30.357  1.00  0.00    -0.264 OA
HETATM    8  H   UNL     1      -2.715   2.970 -32.363  1.00  0.00     0.190 HD
BRANCH   6   9
HETATM    9  C   UNL     1      -4.651   1.329 -32.025  1.00  0.00     0.152 A 
HETATM   10  C   UNL     1      -3.966   0.117 -32.036  1.00  0.00    -0.009 A 
HETATM   11  C   UNL     1      -2.789  -0.279 -31.221  1.00  0.00     0.052 C 
HETATM   12  C   UNL     1      -4.627  -0.702 -33.004  1.00  0.00     0.007 A 
HETATM   13  C   UNL     1      -5.663   0.064 -33.518  1.00  0.00     0.087 A 
HETATM   14  C   UNL     1      -4.455  -2.010 -33.496  1.00  0.00     0.015 A 
HETATM   15  O   UNL     1      -5.680   1.288 -32.931  1.00  0.00    -0.304 OA
HETATM   16  C   UNL     1      -6.553  -0.375 -34.495  1.00  0.00     0.038 A 
HETATM   17  C   UNL     1      -6.366  -1.677 -34.971  1.00  0.00     0.003 A 
HETATM   18  C   UNL     1      -5.335  -2.482 -34.481  1.00  0.00     0.001 A 
ENDBRANCH   6   9
ENDBRANCH   1   5
BRANCH   2  19
HETATM   19  C   UNL     1      -1.611   6.357 -30.492  1.00  0.00     0.064 A 
HETATM   20  C   UNL     1      -0.658   6.698 -29.465  1.00  0.00     0.046 A 
HETATM   21  C   UNL     1      -0.866   8.042 -29.126  1.00  0.00     0.046 A 
HETATM   22  C   UNL     1       0.369   6.022 -28.771  1.00  0.00     0.130 A 
HETATM   23  C   UNL     1      -0.112   8.712 -28.152  1.00  0.00     0.030 A 
HETATM   24  N   UNL     1      -1.897   8.505 -29.907  1.00  0.00    -0.364 N 
HETATM   25  C   UNL     1       0.894   8.001 -27.493  1.00  0.00     0.005 A 
HETATM   26  C   UNL     1       1.134   6.666 -27.798  1.00  0.00     0.043 A 
HETATM   27  H   UNL     1      -2.264   9.448 -29.877  1.00  0.00     0.165 HD
HETATM   28  C   UNL     1      -2.347   7.511 -30.725  1.00  0.00     0.106 A 
HETATM   29  F   UNL     1       0.636   4.735 -29.034  1.00  0.00    -0.205 F 
ENDBRANCH   2  19
TORSDOF 3
ENDMDL
MODEL 6
REMARK VINA RESULT:      -9.1      1.401      2.299
REMARK  3 active torsions:
REMARK  status: ('A' for Active; 'I' for Inactive)
REMARK    1  A    between atoms: C_3  and  C_4 
REMARK       I    between atoms: C_4  and  N_5 
REMARK    2  A    between atoms: N_5  and  N_6 
REMARK       I    between atoms: N_6  and  C_7 
REMARK    3  A    between atoms: C_7  and  C_8 
ROOT
HETATM    1  N   UNL     1      -3.276   2.996 -32.072  1.00  0.00    -0.263 N 
HETATM    2  C   UNL     1      -4.390   2.313 -31.639  1.00  0.00     0.272 C 
HETATM    3  O   UNL     1      -4.864   2.508 -30.518  1.00  0.00    -0.266 OA
HETATM    4  H   UNL     1      -2.849   2.867 -32.988  1.00  0.00     0.190 HD
ENDROOT
BRANCH   1   5
HETATM    5  N   UNL     1      -2.673   3.928 -31.221  1.00  0.00    -0.261 N 
HETATM    6  C   UNL     1      -1.747   4.818 -31.730  1.00  0.00     0.294 C 
HETATM    7  O   UNL     1      -1.440   4.814 -32.923  1.00  0.00    -0.264 OA
HETATM    8  H   UNL     1      -2.935   3.920 -30.237  1.00  0.00     0.190 HD
BRANCH   6   9
HETATM    9  C   UNL     1      -1.193   5.727 -30.745  1.00  0.00     0.152 A 
HETATM   10  C   UNL     1       0.016   5.729 -30.055  1.00  0.00    -0.009 A 
HETATM   11  C   UNL     1       1.126   4.747 -30.146  1.00  0.00     0.052 C 
HETATM   12  C   UNL     1      -0.007   6.890 -29.220  1.00  0.00     0.007 A 
HETATM   13  C   UNL     1      -1.226   7.512 -29.454  1.00  0.00     0.087 A 
HETATM   14  C   UNL     1       0.875   7.477 -28.294  1.00  0.00     0.015 A 
HETATM   15  O   UNL     1      -1.943   6.813 -30.371  1.00  0.00    -0.304 OA
HETATM   16  C   UNL     1      -1.640   8.686 -28.830  1.00  0.00     0.038 A 
HETATM   17  C   UNL     1      -0.749   9.254 -27.913  1.00  0.00     0.003 A 
HETATM   18  C   UNL     1       0.488   8.660 -27.648  1.00  0.00     0.001 A 
ENDBRANCH   6   9
ENDBRANCH   1   5
BRANCH   2  19
HETATM   19  C   UNL     1      -4.978   1.350 -32.573  1.00  0.00     0.064 A 
HETATM   20  C   UNL     1      -4.684  -0.034 -32.850  1.00  0.00     0.046 A 
HETATM   21  C   UNL     1      -5.569  -0.462 -33.848  1.00  0.00     0.046 A 
HETATM   22  C   UNL     1      -3.760  -0.989 -32.371  1.00  0.00     0.130 A 
HETATM   23  C   UNL     1      -5.566  -1.764 -34.368  1.00  0.00     0.030 A 
HETATM   24  N   UNL     1      -6.371   0.607 -34.169  1.00  0.00    -0.364 N 
HETATM   25  C   UNL     1      -4.634  -2.674 -33.862  1.00  0.00     0.005 A 
HETATM   26  C   UNL     1      -3.737  -2.291 -32.871  1.00  0.00     0.043 A 
HETATM   27  H   UNL     1      -7.106   0.587 -34.863  1.00  0.00     0.165 HD
HETATM   28  C   UNL     1      -6.028   1.691 -33.415  1.00  0.00     0.106 A 
HETATM   29  F   UNL     1      -2.877  -0.664 -31.416  1.00  0.00    -0.205 F 
ENDBRANCH   2  19
TORSDOF 3
ENDMDL
MODEL 7
REMARK VINA RESULT:      -9.1      1.700      2.413
REMARK  3 active torsions:
REMARK  status: ('A' for Active; 'I' for Inactive)
REMARK    1  A    between atoms: C_3  and  C_4 
REMARK       I    between atoms: C_4  and  N_5 
REMARK    2  A    between atoms: N_5  and  N_6 
REMARK       I    between atoms: N_6  and  C_7 
REMARK    3  A    between atoms: C_7  and  C_8 
ROOT
HETATM    1  N   UNL     1      -3.687   2.181 -32.088  1.00  0.00    -0.263 N 
HETATM    2  C   UNL     1      -3.385   0.869 -31.798  1.00  0.00     0.272 C 
HETATM    3  O   UNL     1      -2.583   0.578 -30.909  1.00  0.00    -0.266 OA
HETATM    4  H   UNL     1      -4.341   2.468 -32.814  1.00  0.00     0.190 HD
ENDROOT
BRANCH   1   5
HETATM    5  N   UNL     1      -3.066   3.201 -31.359  1.00  0.00    -0.261 N 
HETATM    6  C   UNL     1      -2.299   4.141 -32.019  1.00  0.00     0.294 C 
HETATM    7  O   UNL     1      -2.149   4.106 -33.240  1.00  0.00    -0.264 OA
HETATM    8  H   UNL     1      -3.198   3.218 -30.349  1.00  0.00     0.190 HD
BRANCH   6   9
HETATM    9  C   UNL     1      -1.709   5.141 -31.149  1.00  0.00     0.152 A 
HETATM   10  C   UNL     1      -1.990   6.491 -30.957  1.00  0.00    -0.009 A 
HETATM   11  C   UNL     1      -3.025   7.318 -31.628  1.00  0.00     0.052 C 
HETATM   12  C   UNL     1      -1.071   6.948 -29.961  1.00  0.00     0.007 A 
HETATM   13  C   UNL     1      -0.294   5.851 -29.617  1.00  0.00     0.087 A 
HETATM   14  C   UNL     1      -0.819   8.173 -29.316  1.00  0.00     0.015 A 
HETATM   15  O   UNL     1      -0.675   4.761 -30.332  1.00  0.00    -0.304 OA
HETATM   16  C   UNL     1       0.727   5.879 -28.671  1.00  0.00     0.038 A 
HETATM   17  C   UNL     1       0.962   7.106 -28.041  1.00  0.00     0.003 A 
HETATM   18  C   UNL     1       0.202   8.235 -28.357  1.00  0.00     0.001 A 
ENDBRANCH   6   9
ENDBRANCH   1   5
BRANCH   2  19
HETATM   19  C   UNL     1      -4.064  -0.156 -32.596  1.00  0.00     0.064 A 
HETATM   20  C   UNL     1      -5.246  -0.115 -33.421  1.00  0.00     0.046 A 
HETATM   21  C   UNL     1      -5.435  -1.399 -33.950  1.00  0.00     0.046 A 
HETATM   22  C   UNL     1      -6.192   0.867 -33.788  1.00  0.00     0.130 A 
HETATM   23  C   UNL     1      -6.498  -1.727 -34.803  1.00  0.00     0.030 A 
HETATM   24  N   UNL     1      -4.418  -2.191 -33.474  1.00  0.00    -0.364 N 
HETATM   25  C   UNL     1      -7.409  -0.721 -35.138  1.00  0.00     0.005 A 
HETATM   26  C   UNL     1      -7.258   0.567 -34.636  1.00  0.00     0.043 A 
HETATM   27  H   UNL     1      -4.301  -3.171 -33.693  1.00  0.00     0.165 HD
HETATM   28  C   UNL     1      -3.596  -1.461 -32.667  1.00  0.00     0.106 A 
HETATM   29  F   UNL     1      -6.086   2.121 -33.327  1.00  0.00    -0.205 F 
ENDBRANCH   2  19
TORSDOF 3
ENDMDL
MODEL 8
REMARK VINA RESULT:      -8.7      5.896      7.993
REMARK  3 active torsions:
REMARK  status: ('A' for Active; 'I' for Inactive)
REMARK    1  A    between atoms: C_3  and  C_4 
REMARK       I    between atoms: C_4  and  N_5 
REMARK    2  A    between atoms: N_5  and  N_6 
REMARK       I    between atoms: N_6  and  C_7 
REMARK    3  A    between atoms: C_7  and  C_8 
ROOT
HETATM    1  N   UNL     1      -6.795   0.669 -33.336  1.00  0.00    -0.263 N 
HETATM    2  C   UNL     1      -6.247  -0.200 -34.252  1.00  0.00     0.272 C 
HETATM    3  O   UNL     1      -6.583  -0.175 -35.438  1.00  0.00    -0.266 OA
HETATM    4  H   UNL     1      -6.550   0.684 -32.348  1.00  0.00     0.190 HD
ENDROOT
BRANCH   1   5
HETATM    5  N   UNL     1      -7.753   1.596 -33.762  1.00  0.00    -0.261 N 
HETATM    6  C   UNL     1      -9.093   1.338 -33.548  1.00  0.00     0.294 C 
HETATM    7  O   UNL     1      -9.468   0.309 -32.985  1.00  0.00    -0.264 OA
HETATM    8  H   UNL     1      -7.430   2.443 -34.226  1.00  0.00     0.190 HD
BRANCH   6   9
HETATM    9  C   UNL     1      -9.982   2.374 -34.039  1.00  0.00     0.152 A 
HETATM   10  C   UNL     1     -11.341   2.368 -34.343  1.00  0.00    -0.009 A 
HETATM   11  C   UNL     1     -12.299   1.238 -34.242  1.00  0.00     0.052 C 
HETATM   12  C   UNL     1     -11.653   3.693 -34.780  1.00  0.00     0.007 A 
HETATM   13  C   UNL     1     -10.468   4.413 -34.716  1.00  0.00     0.087 A 
HETATM   14  C   UNL     1     -12.814   4.356 -35.220  1.00  0.00     0.015 A 
HETATM   15  O   UNL     1      -9.460   3.620 -34.272  1.00  0.00    -0.304 OA
HETATM   16  C   UNL     1     -10.347   5.756 -35.062  1.00  0.00     0.038 A 
HETATM   17  C   UNL     1     -11.512   6.397 -35.497  1.00  0.00     0.003 A 
HETATM   18  C   UNL     1     -12.726   5.710 -35.576  1.00  0.00     0.001 A 
ENDBRANCH   6   9
ENDBRANCH   1   5
BRANCH   2  19
HETATM   19  C   UNL     1      -5.250  -1.148 -33.748  1.00  0.00     0.064 A 
HETATM   20  C   UNL     1      -5.080  -2.567 -33.938  1.00  0.00     0.046 A 
HETATM   21  C   UNL     1      -3.946  -2.957 -33.213  1.00  0.00     0.046 A 
HETATM   22  C   UNL     1      -5.761  -3.582 -34.645  1.00  0.00     0.130 A 
HETATM   23  C   UNL     1      -3.482  -4.279 -33.170  1.00  0.00     0.030 A 
HETATM   24  N   UNL     1      -3.442  -1.832 -32.608  1.00  0.00    -0.364 N 
HETATM   25  C   UNL     1      -4.188  -5.249 -33.886  1.00  0.00     0.005 A 
HETATM   26  C   UNL     1      -5.319  -4.906 -34.618  1.00  0.00     0.043 A 
HETATM   27  H   UNL     1      -2.620  -1.814 -32.017  1.00  0.00     0.165 HD
HETATM   28  C   UNL     1      -4.210  -0.748 -32.919  1.00  0.00     0.106 A 
HETATM   29  F   UNL     1      -6.855  -3.297 -35.364  1.00  0.00    -0.205 F 
ENDBRANCH   2  19
TORSDOF 3
ENDMDL
MODEL 9
REMARK VINA RESULT:      -8.6      2.174      3.491
REMARK  3 active torsions:
REMARK  status: ('A' for Active; 'I' for Inactive)
REMARK    1  A    between atoms: C_3  and  C_4 
REMARK       I    between atoms: C_4  and  N_5 
REMARK    2  A    between atoms: N_5  and  N_6 
REMARK       I    between atoms: N_6  and  C_7 
REMARK    3  A    between atoms: C_7  and  C_8 
ROOT
HETATM    1  N   UNL     1      -2.811   3.111 -31.349  1.00  0.00    -0.263 N 
HETATM    2  C   UNL     1      -3.949   2.371 -31.121  1.00  0.00     0.272 C 
HETATM    3  O   UNL     1      -4.899   2.837 -30.487  1.00  0.00    -0.266 OA
HETATM    4  H   UNL     1      -2.002   2.768 -31.865  1.00  0.00     0.190 HD
ENDROOT
BRANCH   1   5
HETATM    5  N   UNL     1      -2.732   4.415 -30.848  1.00  0.00    -0.261 N 
HETATM    6  C   UNL     1      -1.544   5.112 -30.944  1.00  0.00     0.294 C 
HETATM    7  O   UNL     1      -0.546   4.614 -31.465  1.00  0.00    -0.264 OA
HETATM    8  H   UNL     1      -3.565   4.816 -30.418  1.00  0.00     0.190 HD
BRANCH   6   9
HETATM    9  C   UNL     1      -1.593   6.450 -30.384  1.00  0.00     0.152 A 
HETATM   10  C   UNL     1      -0.991   7.013 -29.263  1.00  0.00    -0.009 A 
HETATM   11  C   UNL     1      -0.086   6.362 -28.282  1.00  0.00     0.052 C 
HETATM   12  C   UNL     1      -1.415   8.379 -29.231  1.00  0.00     0.007 A 
HETATM   13  C   UNL     1      -2.246   8.553 -30.328  1.00  0.00     0.087 A 
HETATM   14  C   UNL     1      -1.180   9.482 -28.389  1.00  0.00     0.015 A 
HETATM   15  O   UNL     1      -2.357   7.392 -31.024  1.00  0.00    -0.304 OA
HETATM   16  C   UNL     1      -2.870   9.754 -30.657  1.00  0.00     0.038 A 
HETATM   17  C   UNL     1      -2.624  10.839 -29.808  1.00  0.00     0.003 A 
HETATM   18  C   UNL     1      -1.793  10.706 -28.692  1.00  0.00     0.001 A 
ENDBRANCH   6   9
ENDBRANCH   1   5
BRANCH   2  19
HETATM   19  C   UNL     1      -3.974   1.013 -31.669  1.00  0.00     0.064 A 
HETATM   20  C   UNL     1      -4.796   0.389 -32.676  1.00  0.00     0.046 A 
HETATM   21  C   UNL     1      -4.376  -0.942 -32.798  1.00  0.00     0.046 A 
HETATM   22  C   UNL     1      -5.861   0.797 -33.509  1.00  0.00     0.130 A 
HETATM   23  C   UNL     1      -4.960  -1.851 -33.692  1.00  0.00     0.030 A 
HETATM   24  N   UNL     1      -3.344  -1.128 -31.910  1.00  0.00    -0.364 N 
HETATM   25  C   UNL     1      -6.011  -1.401 -34.496  1.00  0.00     0.005 A 
HETATM   26  C   UNL     1      -6.459  -0.088 -34.407  1.00  0.00     0.043 A 
HETATM   27  H   UNL     1      -2.845  -1.999 -31.781  1.00  0.00     0.165 HD
HETATM   28  C   UNL     1      -3.096   0.029 -31.233  1.00  0.00     0.106 A 
HETATM   29  F   UNL     1      -6.325   2.053 -33.457  1.00  0.00    -0.205 F 
ENDBRANCH   2  19
TORSDOF 3
ENDMDL
MODEL 10
REMARK VINA RESULT:      -8.4      5.072      7.498
REMARK  3 active torsions:
REMARK  status: ('A' for Active; 'I' for Inactive)
REMARK    1  A    between atoms: C_3  and  C_4 
REMARK       I    between atoms: C_4  and  N_5 
REMARK    2  A    between atoms: N_5  and  N_6 
REMARK       I    between atoms: N_6  and  C_7 
REMARK    3  A    between atoms: C_7  and  C_8 
ROOT
HETATM    1  N   UNL     1      -6.886   0.192 -32.756  1.00  0.00    -0.263 N 
HETATM    2  C   UNL     1      -5.527   0.398 -32.826  1.00  0.00     0.272 C 
HETATM    3  O   UNL     1      -5.060   1.513 -33.067  1.00  0.00    -0.266 OA
HETATM    4  H   UNL     1      -7.317  -0.710 -32.562  1.00  0.00     0.190 HD
ENDROOT
BRANCH   1   5
HETATM    5  N   UNL     1      -7.752   1.271 -32.967  1.00  0.00    -0.261 N 
HETATM    6  C   UNL     1      -8.396   1.402 -34.182  1.00  0.00     0.294 C 
HETATM    7  O   UNL     1      -8.229   0.587 -35.089  1.00  0.00    -0.264 OA
HETATM    8  H   UNL     1      -7.881   1.938 -32.208  1.00  0.00     0.190 HD
BRANCH   6   9
HETATM    9  C   UNL     1      -9.261   2.563 -34.272  1.00  0.00     0.152 A 
HETATM   10  C   UNL     1      -9.016   3.923 -34.104  1.00  0.00    -0.009 A 
HETATM   11  C   UNL     1      -7.732   4.589 -33.767  1.00  0.00     0.052 C 
HETATM   12  C   UNL     1     -10.266   4.580 -34.326  1.00  0.00     0.007 A 
HETATM   13  C   UNL     1     -11.185   3.581 -34.611  1.00  0.00     0.087 A 
HETATM   14  C   UNL     1     -10.713   5.915 -34.318  1.00  0.00     0.015 A 
HETATM   15  O   UNL     1     -10.584   2.364 -34.577  1.00  0.00    -0.304 OA
HETATM   16  C   UNL     1     -12.531   3.808 -34.890  1.00  0.00     0.038 A 
HETATM   17  C   UNL     1     -12.955   5.141 -34.876  1.00  0.00     0.003 A 
HETATM   18  C   UNL     1     -12.062   6.179 -34.595  1.00  0.00     0.001 A 
ENDBRANCH   6   9
ENDBRANCH   1   5
BRANCH   2  19
HETATM   19  C   UNL     1      -4.670  -0.769 -32.598  1.00  0.00     0.064 A 
HETATM   20  C   UNL     1      -4.620  -2.069 -33.219  1.00  0.00     0.046 A 
HETATM   21  C   UNL     1      -3.594  -2.793 -32.599  1.00  0.00     0.046 A 
HETATM   22  C   UNL     1      -5.332  -2.729 -34.245  1.00  0.00     0.130 A 
HETATM   23  C   UNL     1      -3.262  -4.109 -32.954  1.00  0.00     0.030 A 
HETATM   24  N   UNL     1      -3.038  -1.978 -31.644  1.00  0.00    -0.364 N 
HETATM   25  C   UNL     1      -3.994  -4.720 -33.975  1.00  0.00     0.005 A 
HETATM   26  C   UNL     1      -5.021  -4.038 -34.617  1.00  0.00     0.043 A 
HETATM   27  H   UNL     1      -2.271  -2.240 -31.038  1.00  0.00     0.165 HD
HETATM   28  C   UNL     1      -3.671  -0.770 -31.635  1.00  0.00     0.106 A 
HETATM   29  F   UNL     1      -6.329  -2.110 -34.891  1.00  0.00    -0.205 F 
ENDBRANCH   2  19
TORSDOF 3
ENDMDL
