MODEL 1
REMARK VINA RESULT:      -8.8      0.000      0.000
REMARK  6 active torsions:
REMARK  status: ('A' for Active; 'I' for Inactive)
REMARK    1  A    between atoms: C_3  and  C_4 
REMARK       I    between atoms: C_4  and  N_5 
REMARK    2  A    between atoms: N_5  and  C_6 
REMARK    3  A    between atoms: C_6  and  C_7 
REMARK    4  A    between atoms: C_7  and  N_8 
REMARK    5  A    between atoms: C_7  and  C_14 
REMARK    6  A    between atoms: C_21  and  C_22 
ROOT
HETATM    1  C   UNL     1      -4.507   2.602 -31.695  1.00  0.00     0.272 C 
HETATM    2  N   UNL     1      -3.504   3.337 -32.297  1.00  0.00    -0.354 N 
HETATM    3  O   UNL     1      -4.942   2.919 -30.587  1.00  0.00    -0.266 OA
HETATM    4  H   UNL     1      -3.167   2.931 -33.173  1.00  0.00     0.162 HD
ENDROOT
BRANCH   1   5
HETATM    5  C   UNL     1      -5.003   1.493 -32.521  1.00  0.00     0.152 A 
HETATM    6  C   UNL     1      -4.664   0.108 -32.447  1.00  0.00     0.003 A 
HETATM    7  C   UNL     1      -3.715  -0.534 -31.501  1.00  0.00     0.053 C 
HETATM    8  C   UNL     1      -5.409  -0.494 -33.450  1.00  0.00     0.069 A 
HETATM    9  N   UNL     1      -6.115   0.520 -34.042  1.00  0.00    -0.276 N 
HETATM   10  N   UNL     1      -5.904   1.730 -33.494  1.00  0.00    -0.168 NA
HETATM   11  H   UNL     1      -6.746   0.445 -34.833  1.00  0.00     0.189 HD
BRANCH   8  12
HETATM   12  C   UNL     1      -5.501  -1.874 -33.915  1.00  0.00    -0.007 A 
HETATM   13  C   UNL     1      -4.375  -2.706 -33.899  1.00  0.00     0.014 A 
HETATM   14  C   UNL     1      -4.460  -4.023 -34.354  1.00  0.00     0.001 A 
HETATM   15  C   UNL     1      -5.671  -4.520 -34.832  1.00  0.00     0.000 A 
HETATM   16  C   UNL     1      -6.799  -3.701 -34.852  1.00  0.00     0.001 A 
HETATM   17  C   UNL     1      -6.715  -2.384 -34.397  1.00  0.00     0.014 A 
ENDBRANCH   8  12
ENDBRANCH   1   5
BRANCH   2  18
HETATM   18  C   UNL     1      -2.682   4.256 -31.542  1.00  0.00     0.156 C 
BRANCH  18  19
HETATM   19  C   UNL     1      -1.532   4.934 -32.347  1.00  0.00     0.209 C 
BRANCH  19  20
HETATM   20  N   UNL     1      -0.600   5.689 -31.377  1.00  0.00    -0.065 N 
HETATM   21  H   UNL     1      -0.332   6.549 -31.899  1.00  0.00     0.280 HD
HETATM   22  C   UNL     1       0.756   5.116 -30.997  1.00  0.00     0.235 C 
HETATM   23  C   UNL     1       0.749   5.072 -29.481  1.00  0.00     0.029 C 
HETATM   24  C   UNL     1      -0.125   6.250 -29.100  1.00  0.00     0.029 C 
HETATM   25  C   UNL     1      -1.253   6.197 -30.111  1.00  0.00     0.235 C 
ENDBRANCH  19  20
BRANCH  19  26
HETATM   26  C   UNL     1      -1.993   5.776 -33.574  1.00  0.00     0.010 C 
HETATM   27  C   UNL     1      -1.482   7.221 -33.511  1.00  0.00     0.011 C 
HETATM   28  C   UNL     1      -1.520   5.179 -34.910  1.00  0.00     0.011 C 
ENDBRANCH  19  26
ENDBRANCH  18  19
ENDBRANCH   2  18
TORSDOF 6
ENDMDL
MODEL 2
REMARK VINA RESULT:      -8.6      1.244      2.050
REMARK  6 active torsions:
REMARK  status: ('A' for Active; 'I' for Inactive)
REMARK    1  A    between atoms: C_3  and  C_4 
REMARK       I    between atoms: C_4  and  N_5 
REMARK    2  A    between atoms: N_5  and  C_6 
REMARK    3  A    between atoms: C_6  and  C_7 
REMARK    4  A    between atoms: C_7  and  N_8 
REMARK    5  A    between atoms: C_7  and  C_14 
REMARK    6  A    between atoms: C_21  and  C_22 
ROOT
HETATM    1  C   UNL     1      -4.052   2.379 -31.716  1.00  0.00     0.272 C 
HETATM    2  N   UNL     1      -3.509   3.229 -32.660  1.00  0.00    -0.354 N 
HETATM    3  O   UNL     1      -4.527   2.821 -30.669  1.00  0.00    -0.266 OA
HETATM    4  H   UNL     1      -3.072   2.744 -33.446  1.00  0.00     0.162 HD
ENDROOT
BRANCH   1   5
HETATM    5  C   UNL     1      -4.046   0.966 -32.120  1.00  0.00     0.152 A 
HETATM    6  C   UNL     1      -4.947   0.288 -32.996  1.00  0.00     0.003 A 
HETATM    7  C   UNL     1      -6.114   0.870 -33.709  1.00  0.00     0.053 C 
HETATM    8  C   UNL     1      -4.494  -1.023 -33.026  1.00  0.00     0.069 A 
HETATM    9  N   UNL     1      -3.402  -1.052 -32.200  1.00  0.00    -0.276 N 
HETATM   10  N   UNL     1      -3.095   0.136 -31.650  1.00  0.00    -0.168 NA
HETATM   11  H   UNL     1      -2.834  -1.861 -31.965  1.00  0.00     0.189 HD
BRANCH   8  12
HETATM   12  C   UNL     1      -4.984  -2.219 -33.704  1.00  0.00    -0.007 A 
HETATM   13  C   UNL     1      -6.266  -2.243 -34.264  1.00  0.00     0.014 A 
HETATM   14  C   UNL     1      -6.739  -3.391 -34.903  1.00  0.00     0.001 A 
HETATM   15  C   UNL     1      -5.934  -4.526 -34.986  1.00  0.00     0.000 A 
HETATM   16  C   UNL     1      -4.654  -4.512 -34.433  1.00  0.00     0.001 A 
HETATM   17  C   UNL     1      -4.181  -3.365 -33.793  1.00  0.00     0.014 A 
ENDBRANCH   8  12
ENDBRANCH   1   5
BRANCH   2  18
HETATM   18  C   UNL     1      -3.144   4.589 -32.331  1.00  0.00     0.156 C 
BRANCH  18  19
HETATM   19  C   UNL     1      -1.623   4.913 -32.442  1.00  0.00     0.209 C 
BRANCH  19  20
HETATM   20  N   UNL     1      -1.107   5.434 -31.085  1.00  0.00    -0.065 N 
HETATM   21  H   UNL     1      -1.119   4.595 -30.468  1.00  0.00     0.280 HD
HETATM   22  C   UNL     1      -1.919   6.431 -30.275  1.00  0.00     0.235 C 
HETATM   23  C   UNL     1      -0.974   7.591 -30.026  1.00  0.00     0.029 C 
HETATM   24  C   UNL     1       0.386   6.927 -29.961  1.00  0.00     0.029 C 
HETATM   25  C   UNL     1       0.332   5.897 -31.072  1.00  0.00     0.235 C 
ENDBRANCH  19  20
BRANCH  19  26
HETATM   26  C   UNL     1      -1.224   5.800 -33.660  1.00  0.00     0.010 C 
HETATM   27  C   UNL     1      -1.498   5.103 -35.000  1.00  0.00     0.011 C 
HETATM   28  C   UNL     1      -1.972   7.144 -33.680  1.00  0.00     0.011 C 
ENDBRANCH  19  26
ENDBRANCH  18  19
ENDBRANCH   2  18
TORSDOF 6
ENDMDL
MODEL 3
REMARK VINA RESULT:      -8.5      2.249      3.459
REMARK  6 active torsions:
REMARK  status: ('A' for Active; 'I' for Inactive)
REMARK    1  A    between atoms: C_3  and  C_4 
REMARK       I    between atoms: C_4  and  N_5 
REMARK    2  A    between atoms: N_5  and  C_6 
REMARK    3  A    between atoms: C_6  and  C_7 
REMARK    4  A    between atoms: C_7  and  N_8 
REMARK    5  A    between atoms: C_7  and  C_14 
REMARK    6  A    between atoms: C_21  and  C_22 
ROOT
HETATM    1  C   UNL     1      -6.815   2.662 -33.263  1.00  0.00     0.272 C 
HETATM    2  N   UNL     1      -5.996   3.524 -33.966  1.00  0.00    -0.354 N 
HETATM    3  O   UNL     1      -7.880   3.055 -32.784  1.00  0.00    -0.266 OA
HETATM    4  H   UNL     1      -5.104   3.108 -34.242  1.00  0.00     0.162 HD
ENDROOT
BRANCH   1   5
HETATM    5  C   UNL     1      -6.315   1.281 -33.212  1.00  0.00     0.152 A 
HETATM    6  C   UNL     1      -6.537   0.220 -34.140  1.00  0.00     0.003 A 
HETATM    7  C   UNL     1      -7.337   0.275 -35.391  1.00  0.00     0.053 C 
HETATM    8  C   UNL     1      -5.847  -0.862 -33.613  1.00  0.00     0.069 A 
HETATM    9  N   UNL     1      -5.284  -0.408 -32.450  1.00  0.00    -0.276 N 
HETATM   10  N   UNL     1      -5.534   0.887 -32.187  1.00  0.00    -0.168 NA
HETATM   11  H   UNL     1      -4.728  -0.943 -31.791  1.00  0.00     0.189 HD
BRANCH   8  12
HETATM   12  C   UNL     1      -5.694  -2.244 -34.059  1.00  0.00    -0.007 A 
HETATM   13  C   UNL     1      -6.787  -2.949 -34.578  1.00  0.00     0.014 A 
HETATM   14  C   UNL     1      -6.643  -4.274 -34.994  1.00  0.00     0.001 A 
HETATM   15  C   UNL     1      -5.405  -4.906 -34.894  1.00  0.00     0.000 A 
HETATM   16  C   UNL     1      -4.310  -4.214 -34.380  1.00  0.00     0.001 A 
HETATM   17  C   UNL     1      -4.453  -2.888 -33.963  1.00  0.00     0.014 A 
ENDBRANCH   8  12
ENDBRANCH   1   5
BRANCH   2  18
HETATM   18  C   UNL     1      -6.147   4.958 -33.870  1.00  0.00     0.156 C 
BRANCH  18  19
HETATM   19  C   UNL     1      -4.915   5.718 -33.291  1.00  0.00     0.209 C 
BRANCH  19  20
HETATM   20  N   UNL     1      -3.619   5.008 -33.731  1.00  0.00    -0.065 N 
HETATM   21  H   UNL     1      -3.948   4.112 -34.149  1.00  0.00     0.280 HD
HETATM   22  C   UNL     1      -2.610   4.523 -32.702  1.00  0.00     0.235 C 
HETATM   23  C   UNL     1      -1.297   5.161 -33.114  1.00  0.00     0.029 C 
HETATM   24  C   UNL     1      -1.412   5.258 -34.621  1.00  0.00     0.029 C 
HETATM   25  C   UNL     1      -2.849   5.688 -34.841  1.00  0.00     0.235 C 
ENDBRANCH  19  20
BRANCH  19  26
HETATM   26  C   UNL     1      -4.988   6.027 -31.765  1.00  0.00     0.010 C 
HETATM   27  C   UNL     1      -4.447   7.423 -31.429  1.00  0.00     0.011 C 
HETATM   28  C   UNL     1      -6.421   5.944 -31.215  1.00  0.00     0.011 C 
ENDBRANCH  19  26
ENDBRANCH  18  19
ENDBRANCH   2  18
TORSDOF 6
ENDMDL
MODEL 4
REMARK VINA RESULT:      -8.5      5.696      8.163
REMARK  6 active torsions:
REMARK  status: ('A' for Active; 'I' for Inactive)
REMARK    1  A    between atoms: C_3  and  C_4 
REMARK       I    between atoms: C_4  and  N_5 
REMARK    2  A    between atoms: N_5  and  C_6 
REMARK    3  A    between atoms: C_6  and  C_7 
REMARK    4  A    between atoms: C_7  and  N_8 
REMARK    5  A    between atoms: C_7  and  C_14 
REMARK    6  A    between atoms: C_21  and  C_22 
ROOT
HETATM    1  C   UNL     1      -8.325   2.065 -32.999  1.00  0.00     0.272 C 
HETATM    2  N   UNL     1      -9.665   1.993 -32.671  1.00  0.00    -0.354 N 
HETATM    3  O   UNL     1      -7.653   3.050 -32.690  1.00  0.00    -0.266 OA
HETATM    4  H   UNL     1     -10.136   1.170 -33.052  1.00  0.00     0.162 HD
ENDROOT
BRANCH   1   5
HETATM    5  C   UNL     1      -7.815   0.862 -33.672  1.00  0.00     0.152 A 
HETATM    6  C   UNL     1      -7.065  -0.218 -33.117  1.00  0.00     0.003 A 
HETATM    7  C   UNL     1      -6.624  -0.372 -31.706  1.00  0.00     0.053 C 
HETATM    8  C   UNL     1      -6.840  -1.078 -34.181  1.00  0.00     0.069 A 
HETATM    9  N   UNL     1      -7.437  -0.487 -35.263  1.00  0.00    -0.276 N 
HETATM   10  N   UNL     1      -8.048   0.678 -34.987  1.00  0.00    -0.168 NA
HETATM   11  H   UNL     1      -7.447  -0.830 -36.219  1.00  0.00     0.189 HD
BRANCH   8  12
HETATM   12  C   UNL     1      -6.120  -2.343 -34.290  1.00  0.00    -0.007 A 
HETATM   13  C   UNL     1      -4.760  -2.416 -33.967  1.00  0.00     0.014 A 
HETATM   14  C   UNL     1      -4.067  -3.623 -34.081  1.00  0.00     0.001 A 
HETATM   15  C   UNL     1      -4.728  -4.768 -34.521  1.00  0.00     0.000 A 
HETATM   16  C   UNL     1      -6.083  -4.708 -34.844  1.00  0.00     0.001 A 
HETATM   17  C   UNL     1      -6.776  -3.500 -34.730  1.00  0.00     0.014 A 
ENDBRANCH   8  12
ENDBRANCH   1   5
BRANCH   2  18
HETATM   18  C   UNL     1     -10.415   3.169 -32.293  1.00  0.00     0.156 C 
BRANCH  18  19
HETATM   19  C   UNL     1     -11.713   3.422 -33.119  1.00  0.00     0.209 C 
BRANCH  19  20
HETATM   20  N   UNL     1     -12.719   2.282 -32.859  1.00  0.00    -0.065 N 
HETATM   21  H   UNL     1     -12.358   1.813 -32.002  1.00  0.00     0.280 HD
HETATM   22  C   UNL     1     -12.842   1.116 -33.827  1.00  0.00     0.235 C 
HETATM   23  C   UNL     1     -14.311   1.073 -34.201  1.00  0.00     0.029 C 
HETATM   24  C   UNL     1     -15.005   1.581 -32.953  1.00  0.00     0.029 C 
HETATM   25  C   UNL     1     -14.119   2.721 -32.493  1.00  0.00     0.235 C 
ENDBRANCH  19  20
BRANCH  19  26
HETATM   26  C   UNL     1     -11.484   3.739 -34.628  1.00  0.00     0.010 C 
HETATM   27  C   UNL     1     -12.695   4.432 -35.266  1.00  0.00     0.011 C 
HETATM   28  C   UNL     1     -10.261   4.642 -34.861  1.00  0.00     0.011 C 
ENDBRANCH  19  26
ENDBRANCH  18  19
ENDBRANCH   2  18
TORSDOF 6
ENDMDL
MODEL 5
REMARK VINA RESULT:      -8.1      2.041      3.232
REMARK  6 active torsions:
REMARK  status: ('A' for Active; 'I' for Inactive)
REMARK    1  A    between atoms: C_3  and  C_4 
REMARK       I    between atoms: C_4  and  N_5 
REMARK    2  A    between atoms: N_5  and  C_6 
REMARK    3  A    between atoms: C_6  and  C_7 
REMARK    4  A    between atoms: C_7  and  N_8 
REMARK    5  A    between atoms: C_7  and  C_14 
REMARK    6  A    between atoms: C_21  and  C_22 
ROOT
HETATM    1  C   UNL     1      -6.934   2.538 -33.498  1.00  0.00     0.272 C 
HETATM    2  N   UNL     1      -5.840   3.364 -33.668  1.00  0.00    -0.354 N 
HETATM    3  O   UNL     1      -7.956   2.952 -32.948  1.00  0.00    -0.266 OA
HETATM    4  H   UNL     1      -5.024   2.888 -34.060  1.00  0.00     0.162 HD
ENDROOT
BRANCH   1   5
HETATM    5  C   UNL     1      -6.759   1.198 -34.075  1.00  0.00     0.152 A 
HETATM    6  C   UNL     1      -6.231   0.025 -33.456  1.00  0.00     0.003 A 
HETATM    7  C   UNL     1      -5.731  -0.107 -32.063  1.00  0.00     0.053 C 
HETATM    8  C   UNL     1      -6.286  -0.951 -34.441  1.00  0.00     0.069 A 
HETATM    9  N   UNL     1      -6.815  -0.332 -35.542  1.00  0.00    -0.276 N 
HETATM   10  N   UNL     1      -7.126   0.962 -35.350  1.00  0.00    -0.168 NA
HETATM   11  H   UNL     1      -6.974  -0.742 -36.457  1.00  0.00     0.189 HD
BRANCH   8  12
HETATM   12  C   UNL     1      -5.878  -2.352 -34.462  1.00  0.00    -0.007 A 
HETATM   13  C   UNL     1      -4.570  -2.717 -34.120  1.00  0.00     0.014 A 
HETATM   14  C   UNL     1      -4.177  -4.056 -34.151  1.00  0.00     0.001 A 
HETATM   15  C   UNL     1      -5.087  -5.043 -34.525  1.00  0.00     0.000 A 
HETATM   16  C   UNL     1      -6.392  -4.692 -34.866  1.00  0.00     0.001 A 
HETATM   17  C   UNL     1      -6.787  -3.352 -34.836  1.00  0.00     0.014 A 
ENDBRANCH   8  12
ENDBRANCH   1   5
BRANCH   2  18
HETATM   18  C   UNL     1      -5.693   4.590 -32.917  1.00  0.00     0.156 C 
BRANCH  18  19
HETATM   19  C   UNL     1      -4.350   4.736 -32.141  1.00  0.00     0.209 C 
BRANCH  19  20
HETATM   20  N   UNL     1      -3.169   4.601 -33.124  1.00  0.00    -0.065 N 
HETATM   21  H   UNL     1      -3.201   3.605 -33.426  1.00  0.00     0.280 HD
HETATM   22  C   UNL     1      -1.734   4.738 -32.641  1.00  0.00     0.235 C 
HETATM   23  C   UNL     1      -1.129   5.818 -33.517  1.00  0.00     0.029 C 
HETATM   24  C   UNL     1      -1.866   5.657 -34.831  1.00  0.00     0.029 C 
HETATM   25  C   UNL     1      -3.297   5.393 -34.406  1.00  0.00     0.235 C 
ENDBRANCH  19  20
BRANCH  19  26
HETATM   26  C   UNL     1      -4.224   3.847 -30.866  1.00  0.00     0.010 C 
HETATM   27  C   UNL     1      -5.576   3.628 -30.175  1.00  0.00     0.011 C 
HETATM   28  C   UNL     1      -3.634   2.460 -31.172  1.00  0.00     0.011 C 
ENDBRANCH  19  26
ENDBRANCH  18  19
ENDBRANCH   2  18
TORSDOF 6
ENDMDL
MODEL 6
REMARK VINA RESULT:      -8.1      1.945      2.836
REMARK  6 active torsions:
REMARK  status: ('A' for Active; 'I' for Inactive)
REMARK    1  A    between atoms: C_3  and  C_4 
REMARK       I    between atoms: C_4  and  N_5 
REMARK    2  A    between atoms: N_5  and  C_6 
REMARK    3  A    between atoms: C_6  and  C_7 
REMARK    4  A    between atoms: C_7  and  N_8 
REMARK    5  A    between atoms: C_7  and  C_14 
REMARK    6  A    between atoms: C_21  and  C_22 
ROOT
HETATM    1  C   UNL     1      -6.257   2.628 -32.715  1.00  0.00     0.272 C 
HETATM    2  N   UNL     1      -5.041   3.281 -32.761  1.00  0.00    -0.354 N 
HETATM    3  O   UNL     1      -7.223   3.135 -32.143  1.00  0.00    -0.266 OA
HETATM    4  H   UNL     1      -4.295   2.728 -33.188  1.00  0.00     0.162 HD
ENDROOT
BRANCH   1   5
HETATM    5  C   UNL     1      -6.271   1.351 -33.443  1.00  0.00     0.152 A 
HETATM    6  C   UNL     1      -5.836   0.067 -32.996  1.00  0.00     0.003 A 
HETATM    7  C   UNL     1      -5.263  -0.273 -31.668  1.00  0.00     0.053 C 
HETATM    8  C   UNL     1      -6.065  -0.779 -34.071  1.00  0.00     0.069 A 
HETATM    9  N   UNL     1      -6.594   0.013 -35.056  1.00  0.00    -0.276 N 
HETATM   10  N   UNL     1      -6.746   1.301 -34.703  1.00  0.00    -0.168 NA
HETATM   11  H   UNL     1      -6.858  -0.272 -35.993  1.00  0.00     0.189 HD
BRANCH   8  12
HETATM   12  C   UNL     1      -5.817  -2.203 -34.272  1.00  0.00    -0.007 A 
HETATM   13  C   UNL     1      -4.538  -2.736 -34.080  1.00  0.00     0.014 A 
HETATM   14  C   UNL     1      -4.298  -4.097 -34.283  1.00  0.00     0.001 A 
HETATM   15  C   UNL     1      -5.336  -4.936 -34.683  1.00  0.00     0.000 A 
HETATM   16  C   UNL     1      -6.615  -4.417 -34.877  1.00  0.00     0.001 A 
HETATM   17  C   UNL     1      -6.855  -3.056 -34.674  1.00  0.00     0.014 A 
ENDBRANCH   8  12
ENDBRANCH   1   5
BRANCH   2  18
HETATM   18  C   UNL     1      -4.735   4.374 -31.867  1.00  0.00     0.156 C 
BRANCH  18  19
HETATM   19  C   UNL     1      -4.673   5.781 -32.535  1.00  0.00     0.209 C 
BRANCH  19  20
HETATM   20  N   UNL     1      -3.199   6.183 -32.752  1.00  0.00    -0.065 N 
HETATM   21  H   UNL     1      -3.148   7.163 -32.402  1.00  0.00     0.280 HD
HETATM   22  C   UNL     1      -2.628   6.319 -34.154  1.00  0.00     0.235 C 
HETATM   23  C   UNL     1      -1.412   5.413 -34.169  1.00  0.00     0.029 C 
HETATM   24  C   UNL     1      -0.916   5.469 -32.738  1.00  0.00     0.029 C 
HETATM   25  C   UNL     1      -2.189   5.427 -31.918  1.00  0.00     0.235 C 
ENDBRANCH  19  20
BRANCH  19  26
HETATM   26  C   UNL     1      -5.539   6.879 -31.845  1.00  0.00     0.010 C 
HETATM   27  C   UNL     1      -6.371   6.317 -30.686  1.00  0.00     0.011 C 
HETATM   28  C   UNL     1      -4.690   8.033 -31.285  1.00  0.00     0.011 C 
ENDBRANCH  19  26
ENDBRANCH  18  19
ENDBRANCH   2  18
TORSDOF 6
ENDMDL
MODEL 7
REMARK VINA RESULT:      -8.0      2.116      3.218
REMARK  6 active torsions:
REMARK  status: ('A' for Active; 'I' for Inactive)
REMARK    1  A    between atoms: C_3  and  C_4 
REMARK       I    between atoms: C_4  and  N_5 
REMARK    2  A    between atoms: N_5  and  C_6 
REMARK    3  A    between atoms: C_6  and  C_7 
REMARK    4  A    between atoms: C_7  and  N_8 
REMARK    5  A    between atoms: C_7  and  C_14 
REMARK    6  A    between atoms: C_21  and  C_22 
ROOT
HETATM    1  C   UNL     1      -6.904   2.672 -33.813  1.00  0.00     0.272 C 
HETATM    2  N   UNL     1      -5.843   3.393 -34.325  1.00  0.00    -0.354 N 
HETATM    3  O   UNL     1      -7.777   3.227 -33.143  1.00  0.00    -0.266 OA
HETATM    4  H   UNL     1      -5.141   2.814 -34.791  1.00  0.00     0.162 HD
ENDROOT
BRANCH   1   5
HETATM    5  C   UNL     1      -6.895   1.253 -34.195  1.00  0.00     0.152 A 
HETATM    6  C   UNL     1      -6.003   0.223 -33.769  1.00  0.00     0.003 A 
HETATM    7  C   UNL     1      -4.864   0.357 -32.825  1.00  0.00     0.053 C 
HETATM    8  C   UNL     1      -6.436  -0.916 -34.432  1.00  0.00     0.069 A 
HETATM    9  N   UNL     1      -7.508  -0.518 -35.186  1.00  0.00    -0.276 N 
HETATM   10  N   UNL     1      -7.821   0.782 -35.053  1.00  0.00    -0.168 NA
HETATM   11  H   UNL     1      -8.056  -1.091 -35.819  1.00  0.00     0.189 HD
BRANCH   8  12
HETATM   12  C   UNL     1      -5.942  -2.289 -34.453  1.00  0.00    -0.007 A 
HETATM   13  C   UNL     1      -4.603  -2.569 -34.152  1.00  0.00     0.014 A 
HETATM   14  C   UNL     1      -4.128  -3.881 -34.184  1.00  0.00     0.001 A 
HETATM   15  C   UNL     1      -4.986  -4.926 -34.518  1.00  0.00     0.000 A 
HETATM   16  C   UNL     1      -6.322  -4.661 -34.818  1.00  0.00     0.001 A 
HETATM   17  C   UNL     1      -6.798  -3.348 -34.788  1.00  0.00     0.014 A 
ENDBRANCH   8  12
ENDBRANCH   1   5
BRANCH   2  18
HETATM   18  C   UNL     1      -5.505   4.705 -33.821  1.00  0.00     0.156 C 
BRANCH  18  19
HETATM   19  C   UNL     1      -4.228   4.765 -32.929  1.00  0.00     0.209 C 
BRANCH  19  20
HETATM   20  N   UNL     1      -4.632   4.676 -31.443  1.00  0.00    -0.065 N 
HETATM   21  H   UNL     1      -3.885   5.202 -30.944  1.00  0.00     0.280 HD
HETATM   22  C   UNL     1      -4.623   3.344 -30.712  1.00  0.00     0.235 C 
HETATM   23  C   UNL     1      -6.020   3.205 -30.138  1.00  0.00     0.029 C 
HETATM   24  C   UNL     1      -6.431   4.637 -29.866  1.00  0.00     0.029 C 
HETATM   25  C   UNL     1      -5.913   5.391 -31.074  1.00  0.00     0.235 C 
ENDBRANCH  19  20
BRANCH  19  26
HETATM   26  C   UNL     1      -3.250   5.934 -33.256  1.00  0.00     0.010 C 
HETATM   27  C   UNL     1      -2.132   6.063 -32.213  1.00  0.00     0.011 C 
HETATM   28  C   UNL     1      -2.580   5.774 -34.630  1.00  0.00     0.011 C 
ENDBRANCH  19  26
ENDBRANCH  18  19
ENDBRANCH   2  18
TORSDOF 6
ENDMDL
MODEL 8
REMARK VINA RESULT:      -7.9      2.475      3.678
REMARK  6 active torsions:
REMARK  status: ('A' for Active; 'I' for Inactive)
REMARK    1  A    between atoms: C_3  and  C_4 
REMARK       I    between atoms: C_4  and  N_5 
REMARK    2  A    between atoms: N_5  and  C_6 
REMARK    3  A    between atoms: C_6  and  C_7 
REMARK    4  A    between atoms: C_7  and  N_8 
REMARK    5  A    between atoms: C_7  and  C_14 
REMARK    6  A    between atoms: C_21  and  C_22 
ROOT
HETATM    1  C   UNL     1      -7.066   2.444 -32.751  1.00  0.00     0.272 C 
HETATM    2  N   UNL     1      -6.037   3.360 -32.852  1.00  0.00    -0.354 N 
HETATM    3  O   UNL     1      -8.091   2.715 -32.123  1.00  0.00    -0.266 OA
HETATM    4  H   UNL     1      -5.208   2.995 -33.324  1.00  0.00     0.162 HD
ENDROOT
BRANCH   1   5
HETATM    5  C   UNL     1      -6.824   1.200 -33.494  1.00  0.00     0.152 A 
HETATM    6  C   UNL     1      -6.364  -0.057 -32.997  1.00  0.00     0.003 A 
HETATM    7  C   UNL     1      -6.021  -0.395 -31.592  1.00  0.00     0.053 C 
HETATM    8  C   UNL     1      -6.307  -0.880 -34.113  1.00  0.00     0.069 A 
HETATM    9  N   UNL     1      -6.712  -0.101 -35.164  1.00  0.00    -0.276 N 
HETATM   10  N   UNL     1      -7.047   1.155 -34.822  1.00  0.00    -0.168 NA
HETATM   11  H   UNL     1      -6.768  -0.373 -36.141  1.00  0.00     0.189 HD
BRANCH   8  12
HETATM   12  C   UNL     1      -5.894  -2.268 -34.292  1.00  0.00    -0.007 A 
HETATM   13  C   UNL     1      -6.810  -3.232 -34.730  1.00  0.00     0.014 A 
HETATM   14  C   UNL     1      -6.418  -4.562 -34.891  1.00  0.00     0.001 A 
HETATM   15  C   UNL     1      -5.107  -4.942 -34.613  1.00  0.00     0.000 A 
HETATM   16  C   UNL     1      -4.185  -3.991 -34.177  1.00  0.00     0.001 A 
HETATM   17  C   UNL     1      -4.577  -2.660 -34.016  1.00  0.00     0.014 A 
ENDBRANCH   8  12
ENDBRANCH   1   5
BRANCH   2  18
HETATM   18  C   UNL     1      -5.944   4.495 -31.960  1.00  0.00     0.156 C 
BRANCH  18  19
HETATM   19  C   UNL     1      -4.810   4.410 -30.894  1.00  0.00     0.209 C 
BRANCH  19  20
HETATM   20  N   UNL     1      -5.400   4.672 -29.493  1.00  0.00    -0.065 N 
HETATM   21  H   UNL     1      -4.961   3.943 -28.892  1.00  0.00     0.280 HD
HETATM   22  C   UNL     1      -6.879   4.458 -29.219  1.00  0.00     0.235 C 
HETATM   23  C   UNL     1      -7.364   5.777 -28.649  1.00  0.00     0.029 C 
HETATM   24  C   UNL     1      -6.149   6.313 -27.921  1.00  0.00     0.029 C 
HETATM   25  C   UNL     1      -5.002   5.984 -28.856  1.00  0.00     0.235 C 
ENDBRANCH  19  20
BRANCH  19  26
HETATM   26  C   UNL     1      -3.536   5.248 -31.218  1.00  0.00     0.010 C 
HETATM   27  C   UNL     1      -2.344   4.364 -31.608  1.00  0.00     0.011 C 
HETATM   28  C   UNL     1      -3.764   6.246 -32.365  1.00  0.00     0.011 C 
ENDBRANCH  19  26
ENDBRANCH  18  19
ENDBRANCH   2  18
TORSDOF 6
ENDMDL
MODEL 9
REMARK VINA RESULT:      -7.9      1.762      3.181
REMARK  6 active torsions:
REMARK  status: ('A' for Active; 'I' for Inactive)
REMARK    1  A    between atoms: C_3  and  C_4 
REMARK       I    between atoms: C_4  and  N_5 
REMARK    2  A    between atoms: N_5  and  C_6 
REMARK    3  A    between atoms: C_6  and  C_7 
REMARK    4  A    between atoms: C_7  and  N_8 
REMARK    5  A    between atoms: C_7  and  C_14 
REMARK    6  A    between atoms: C_21  and  C_22 
ROOT
HETATM    1  C   UNL     1      -3.654   3.994 -31.464  1.00  0.00     0.272 C 
HETATM    2  N   UNL     1      -2.522   4.555 -32.021  1.00  0.00    -0.354 N 
HETATM    3  O   UNL     1      -4.427   4.675 -30.787  1.00  0.00    -0.266 OA
HETATM    4  H   UNL     1      -1.916   3.877 -32.488  1.00  0.00     0.162 HD
ENDROOT
BRANCH   1   5
HETATM    5  C   UNL     1      -3.844   2.578 -31.808  1.00  0.00     0.152 A 
HETATM    6  C   UNL     1      -4.799   1.999 -32.698  1.00  0.00     0.003 A 
HETATM    7  C   UNL     1      -5.833   2.712 -33.492  1.00  0.00     0.053 C 
HETATM    8  C   UNL     1      -4.546   0.636 -32.650  1.00  0.00     0.069 A 
HETATM    9  N   UNL     1      -3.507   0.485 -31.771  1.00  0.00    -0.276 N 
HETATM   10  N   UNL     1      -3.049   1.640 -31.256  1.00  0.00    -0.168 NA
HETATM   11  H   UNL     1      -3.078  -0.386 -31.475  1.00  0.00     0.189 HD
BRANCH   8  12
HETATM   12  C   UNL     1      -5.181  -0.505 -33.301  1.00  0.00    -0.007 A 
HETATM   13  C   UNL     1      -6.575  -0.587 -33.393  1.00  0.00     0.014 A 
HETATM   14  C   UNL     1      -7.183  -1.685 -34.006  1.00  0.00     0.001 A 
HETATM   15  C   UNL     1      -6.401  -2.711 -34.532  1.00  0.00     0.000 A 
HETATM   16  C   UNL     1      -5.012  -2.640 -34.448  1.00  0.00     0.001 A 
HETATM   17  C   UNL     1      -4.403  -1.543 -33.835  1.00  0.00     0.014 A 
ENDBRANCH   8  12
ENDBRANCH   1   5
BRANCH   2  18
HETATM   18  C   UNL     1      -2.000   5.822 -31.560  1.00  0.00     0.156 C 
BRANCH  18  19
HETATM   19  C   UNL     1      -1.427   5.816 -30.111  1.00  0.00     0.209 C 
BRANCH  19  20
HETATM   20  N   UNL     1      -2.303   6.707 -29.207  1.00  0.00    -0.065 N 
HETATM   21  H   UNL     1      -3.026   6.057 -28.832  1.00  0.00     0.280 HD
HETATM   22  C   UNL     1      -3.155   7.818 -29.799  1.00  0.00     0.235 C 
HETATM   23  C   UNL     1      -2.741   9.069 -29.048  1.00  0.00     0.029 C 
HETATM   24  C   UNL     1      -2.364   8.546 -27.677  1.00  0.00     0.029 C 
HETATM   25  C   UNL     1      -1.617   7.263 -27.979  1.00  0.00     0.235 C 
ENDBRANCH  19  20
BRANCH  19  26
HETATM   26  C   UNL     1       0.101   6.107 -30.004  1.00  0.00     0.010 C 
HETATM   27  C   UNL     1       0.924   4.824 -29.828  1.00  0.00     0.011 C 
HETATM   28  C   UNL     1       0.649   6.839 -31.240  1.00  0.00     0.011 C 
ENDBRANCH  19  26
ENDBRANCH  18  19
ENDBRANCH   2  18
TORSDOF 6
ENDMDL
MODEL 10
REMARK VINA RESULT:      -7.8     15.981     17.914
REMARK  6 active torsions:
REMARK  status: ('A' for Active; 'I' for Inactive)
REMARK    1  A    between atoms: C_3  and  C_4 
REMARK       I    between atoms: C_4  and  N_5 
REMARK    2  A    between atoms: N_5  and  C_6 
REMARK    3  A    between atoms: C_6  and  C_7 
REMARK    4  A    between atoms: C_7  and  N_8 
REMARK    5  A    between atoms: C_7  and  C_14 
REMARK    6  A    between atoms: C_21  and  C_22 
ROOT
HETATM    1  C   UNL     1      -3.989 -12.349 -38.101  1.00  0.00     0.272 C 
HETATM    2  N   UNL     1      -2.815 -12.407 -38.825  1.00  0.00    -0.354 N 
HETATM    3  O   UNL     1      -3.967 -12.243 -36.873  1.00  0.00    -0.266 OA
HETATM    4  H   UNL     1      -2.957 -12.579 -39.823  1.00  0.00     0.162 HD
ENDROOT
BRANCH   1   5
HETATM    5  C   UNL     1      -5.200 -12.370 -38.933  1.00  0.00     0.152 A 
HETATM    6  C   UNL     1      -6.508 -12.827 -38.589  1.00  0.00     0.003 A 
HETATM    7  C   UNL     1      -6.947 -13.392 -37.287  1.00  0.00     0.053 C 
HETATM    8  C   UNL     1      -7.266 -12.627 -39.734  1.00  0.00     0.069 A 
HETATM    9  N   UNL     1      -6.405 -12.094 -40.656  1.00  0.00    -0.276 N 
HETATM   10  N   UNL     1      -5.154 -11.910 -40.199  1.00  0.00    -0.168 NA
HETATM   11  H   UNL     1      -6.615 -11.846 -41.617  1.00  0.00     0.189 HD
BRANCH   8  12
HETATM   12  C   UNL     1      -8.663 -12.907 -40.051  1.00  0.00    -0.007 A 
HETATM   13  C   UNL     1      -9.617 -11.884 -40.024  1.00  0.00     0.014 A 
HETATM   14  C   UNL     1     -10.955 -12.154 -40.317  1.00  0.00     0.001 A 
HETATM   15  C   UNL     1     -11.352 -13.450 -40.637  1.00  0.00     0.000 A 
HETATM   16  C   UNL     1     -10.410 -14.478 -40.668  1.00  0.00     0.001 A 
HETATM   17  C   UNL     1      -9.071 -14.209 -40.375  1.00  0.00     0.014 A 
ENDBRANCH   8  12
ENDBRANCH   1   5
BRANCH   2  18
HETATM   18  C   UNL     1      -1.550 -12.707 -38.194  1.00  0.00     0.156 C 
BRANCH  18  19
HETATM   19  C   UNL     1      -0.993 -14.137 -38.470  1.00  0.00     0.209 C 
BRANCH  19  20
HETATM   20  N   UNL     1      -1.672 -14.720 -39.726  1.00  0.00    -0.065 N 
HETATM   21  H   UNL     1      -2.206 -13.919 -40.123  1.00  0.00     0.280 HD
HETATM   22  C   UNL     1      -2.749 -15.786 -39.604  1.00  0.00     0.235 C 
HETATM   23  C   UNL     1      -2.264 -16.931 -40.474  1.00  0.00     0.029 C 
HETATM   24  C   UNL     1      -1.487 -16.232 -41.571  1.00  0.00     0.029 C 
HETATM   25  C   UNL     1      -0.735 -15.142 -40.835  1.00  0.00     0.235 C 
ENDBRANCH  19  20
BRANCH  19  26
HETATM   26  C   UNL     1      -0.994 -15.095 -37.240  1.00  0.00     0.010 C 
HETATM   27  C   UNL     1       0.386 -15.715 -36.986  1.00  0.00     0.011 C 
HETATM   28  C   UNL     1      -1.427 -14.389 -35.945  1.00  0.00     0.011 C 
ENDBRANCH  19  26
ENDBRANCH  18  19
ENDBRANCH   2  18
TORSDOF 6
ENDMDL
