MODEL 1
REMARK VINA RESULT:      -8.8      0.000      0.000
REMARK  8 active torsions:
REMARK  status: ('A' for Active; 'I' for Inactive)
REMARK    1  A    between atoms: C_3  and  C_4 
REMARK       I    between atoms: C_4  and  N_5 
REMARK    2  A    between atoms: N_5  and  C_6 
REMARK    3  A    between atoms: C_8  and  C_9 
REMARK    4  A    between atoms: C_9  and  C_10 
REMARK    5  A    between atoms: C_10  and  N_11 
REMARK    6  A    between atoms: C_21  and  O_22 
REMARK    7  A    between atoms: O_22  and  C_23 
REMARK    8  A    between atoms: C_23  and  C_24 
ROOT
HETATM    1  C   UNL     1      -6.966  -0.961 -34.358  1.00  0.00     0.259 C 
HETATM    2  N   UNL     1      -7.869  -0.797 -33.323  1.00  0.00    -0.323 N 
HETATM    3  O   UNL     1      -6.744  -0.131 -35.234  1.00  0.00    -0.267 OA
HETATM    4  H   UNL     1      -7.972  -1.590 -32.700  1.00  0.00     0.169 HD
ENDROOT
BRANCH   2   5
HETATM    5  C   UNL     1      -8.637   0.354 -33.032  1.00  0.00     0.035 A 
HETATM    6  C   UNL     1      -9.621   0.740 -33.958  1.00  0.00     0.036 A 
HETATM    7  C   UNL     1     -10.450   1.859 -33.731  1.00  0.00    -0.054 A 
HETATM    8  C   UNL     1     -10.286   2.576 -32.538  1.00  0.00     0.007 A 
HETATM    9  C   UNL     1      -9.303   2.210 -31.623  1.00  0.00     0.003 A 
HETATM   10  C   UNL     1      -8.484   1.110 -31.871  1.00  0.00     0.029 A 
BRANCH   7  11
HETATM   11  C   UNL     1     -11.533   2.194 -34.736  1.00  0.00     0.066 C 
BRANCH  11  12
HETATM   12  C   UNL     1     -12.764   1.277 -34.682  1.00  0.00     0.239 C 
BRANCH  12  13
HETATM   13  N   UNL     1     -14.020   2.044 -34.317  1.00  0.00    -0.071 N 
HETATM   14  H   UNL     1     -14.440   2.396 -35.188  1.00  0.00     0.279 HD
HETATM   15  C   UNL     1     -13.724   3.252 -33.439  1.00  0.00     0.235 C 
HETATM   16  C   UNL     1     -14.191   2.832 -32.063  1.00  0.00     0.029 C 
HETATM   17  C   UNL     1     -15.447   2.045 -32.369  1.00  0.00     0.029 C 
HETATM   18  C   UNL     1     -15.059   1.211 -33.577  1.00  0.00     0.235 C 
ENDBRANCH  12  13
ENDBRANCH  11  12
ENDBRANCH   7  11
ENDBRANCH   2   5
BRANCH   1  19
HETATM   19  C   UNL     1      -6.195  -2.253 -34.405  1.00  0.00     0.065 A 
HETATM   20  C   UNL     1      -6.917  -3.389 -34.822  1.00  0.00     0.020 A 
HETATM   21  C   UNL     1      -6.314  -4.643 -34.909  1.00  0.00     0.001 A 
HETATM   22  C   UNL     1      -4.976  -4.787 -34.568  1.00  0.00     0.003 A 
HETATM   23  C   UNL     1      -4.243  -3.676 -34.150  1.00  0.00     0.038 A 
HETATM   24  C   UNL     1      -4.831  -2.401 -34.091  1.00  0.00     0.084 A 
BRANCH  24  25
HETATM   25  O   UNL     1      -4.114  -1.322 -33.637  1.00  0.00    -0.348 OA
BRANCH  25  26
HETATM   26  C   UNL     1      -3.476  -1.502 -32.363  1.00  0.00     0.207 C 
BRANCH  26  27
HETATM   27  C   UNL     1      -4.000  -0.466 -31.359  1.00  0.00     0.145 C 
HETATM   28  O   UNL     1      -5.207   0.118 -31.883  1.00  0.00    -0.384 OA
HETATM   29  C   UNL     1      -4.954   1.496 -32.206  1.00  0.00     0.168 C 
HETATM   30  C   UNL     1      -3.456   1.693 -32.155  1.00  0.00     0.029 C 
HETATM   31  C   UNL     1      -3.046   0.693 -31.102  1.00  0.00     0.036 C 
ENDBRANCH  26  27
ENDBRANCH  25  26
ENDBRANCH  24  25
ENDBRANCH   1  19
TORSDOF 8
ENDMDL
MODEL 2
REMARK VINA RESULT:      -8.5      5.063      8.638
REMARK  8 active torsions:
REMARK  status: ('A' for Active; 'I' for Inactive)
REMARK    1  A    between atoms: C_3  and  C_4 
REMARK       I    between atoms: C_4  and  N_5 
REMARK    2  A    between atoms: N_5  and  C_6 
REMARK    3  A    between atoms: C_8  and  C_9 
REMARK    4  A    between atoms: C_9  and  C_10 
REMARK    5  A    between atoms: C_10  and  N_11 
REMARK    6  A    between atoms: C_21  and  O_22 
REMARK    7  A    between atoms: O_22  and  C_23 
REMARK    8  A    between atoms: C_23  and  C_24 
ROOT
HETATM    1  C   UNL     1      -3.027   3.821 -31.718  1.00  0.00     0.259 C 
HETATM    2  N   UNL     1      -4.379   3.557 -31.848  1.00  0.00    -0.323 N 
HETATM    3  O   UNL     1      -2.223   3.096 -31.139  1.00  0.00    -0.267 OA
HETATM    4  H   UNL     1      -4.922   4.273 -32.318  1.00  0.00     0.169 HD
ENDROOT
BRANCH   2   5
HETATM    5  C   UNL     1      -5.070   2.399 -31.422  1.00  0.00     0.035 A 
HETATM    6  C   UNL     1      -5.281   1.377 -32.362  1.00  0.00     0.036 A 
HETATM    7  C   UNL     1      -5.936   0.177 -32.013  1.00  0.00    -0.054 A 
HETATM    8  C   UNL     1      -6.358   0.013 -30.686  1.00  0.00     0.007 A 
HETATM    9  C   UNL     1      -6.167   1.028 -29.753  1.00  0.00     0.003 A 
HETATM   10  C   UNL     1      -5.531   2.212 -30.120  1.00  0.00     0.029 A 
BRANCH   7  11
HETATM   11  C   UNL     1      -6.083  -0.916 -33.051  1.00  0.00     0.066 C 
BRANCH  11  12
HETATM   12  C   UNL     1      -4.801  -1.712 -33.332  1.00  0.00     0.239 C 
BRANCH  12  13
HETATM   13  N   UNL     1      -4.944  -2.594 -34.558  1.00  0.00    -0.071 N 
HETATM   14  H   UNL     1      -4.407  -2.162 -35.322  1.00  0.00     0.279 HD
HETATM   15  C   UNL     1      -6.388  -2.701 -35.026  1.00  0.00     0.235 C 
HETATM   16  C   UNL     1      -6.812  -4.091 -34.602  1.00  0.00     0.029 C 
HETATM   17  C   UNL     1      -5.565  -4.907 -34.865  1.00  0.00     0.029 C 
HETATM   18  C   UNL     1      -4.444  -4.019 -34.354  1.00  0.00     0.235 C 
ENDBRANCH  12  13
ENDBRANCH  11  12
ENDBRANCH   7  11
ENDBRANCH   2   5
BRANCH   1  19
HETATM   19  C   UNL     1      -2.506   5.089 -32.338  1.00  0.00     0.065 A 
HETATM   20  C   UNL     1      -2.073   4.990 -33.676  1.00  0.00     0.020 A 
HETATM   21  C   UNL     1      -1.572   6.096 -34.362  1.00  0.00     0.001 A 
HETATM   22  C   UNL     1      -1.483   7.322 -33.717  1.00  0.00     0.003 A 
HETATM   23  C   UNL     1      -1.904   7.441 -32.392  1.00  0.00     0.038 A 
HETATM   24  C   UNL     1      -2.443   6.343 -31.702  1.00  0.00     0.084 A 
BRANCH  24  25
HETATM   25  O   UNL     1      -2.813   6.460 -30.385  1.00  0.00    -0.348 OA
BRANCH  25  26
HETATM   26  C   UNL     1      -1.956   7.282 -29.578  1.00  0.00     0.207 C 
BRANCH  26  27
HETATM   27  C   UNL     1      -0.704   6.494 -29.164  1.00  0.00     0.145 C 
HETATM   28  O   UNL     1      -0.657   6.423 -27.726  1.00  0.00    -0.384 OA
HETATM   29  C   UNL     1       0.456   7.204 -27.259  1.00  0.00     0.168 C 
HETATM   30  C   UNL     1       0.939   8.028 -28.432  1.00  0.00     0.029 C 
HETATM   31  C   UNL     1       0.608   7.131 -29.599  1.00  0.00     0.036 C 
ENDBRANCH  26  27
ENDBRANCH  25  26
ENDBRANCH  24  25
ENDBRANCH   1  19
TORSDOF 8
ENDMDL
MODEL 3
REMARK VINA RESULT:      -8.4      3.831      8.334
REMARK  8 active torsions:
REMARK  status: ('A' for Active; 'I' for Inactive)
REMARK    1  A    between atoms: C_3  and  C_4 
REMARK       I    between atoms: C_4  and  N_5 
REMARK    2  A    between atoms: N_5  and  C_6 
REMARK    3  A    between atoms: C_8  and  C_9 
REMARK    4  A    between atoms: C_9  and  C_10 
REMARK    5  A    between atoms: C_10  and  N_11 
REMARK    6  A    between atoms: C_21  and  O_22 
REMARK    7  A    between atoms: O_22  and  C_23 
REMARK    8  A    between atoms: C_23  and  C_24 
ROOT
HETATM    1  C   UNL     1      -3.923  -0.070 -31.744  1.00  0.00     0.259 C 
HETATM    2  N   UNL     1      -4.084   1.104 -32.458  1.00  0.00    -0.323 N 
HETATM    3  O   UNL     1      -3.727  -0.134 -30.534  1.00  0.00    -0.267 OA
HETATM    4  H   UNL     1      -4.197   0.997 -33.460  1.00  0.00     0.169 HD
ENDROOT
BRANCH   2   5
HETATM    5  C   UNL     1      -4.131   2.420 -31.942  1.00  0.00     0.035 A 
HETATM    6  C   UNL     1      -2.994   3.230 -32.100  1.00  0.00     0.036 A 
HETATM    7  C   UNL     1      -2.968   4.564 -31.639  1.00  0.00    -0.054 A 
HETATM    8  C   UNL     1      -4.122   5.079 -31.033  1.00  0.00     0.007 A 
HETATM    9  C   UNL     1      -5.247   4.278 -30.858  1.00  0.00     0.003 A 
HETATM   10  C   UNL     1      -5.249   2.959 -31.307  1.00  0.00     0.029 A 
BRANCH   7  11
HETATM   11  C   UNL     1      -1.737   5.409 -31.889  1.00  0.00     0.066 C 
BRANCH  11  12
HETATM   12  C   UNL     1      -0.524   5.051 -31.018  1.00  0.00     0.239 C 
BRANCH  12  13
HETATM   13  N   UNL     1      -0.672   5.580 -29.604  1.00  0.00    -0.071 N 
HETATM   14  H   UNL     1      -1.408   5.034 -29.137  1.00  0.00     0.279 HD
HETATM   15  C   UNL     1      -1.108   7.039 -29.578  1.00  0.00     0.235 C 
HETATM   16  C   UNL     1       0.145   7.792 -29.186  1.00  0.00     0.029 C 
HETATM   17  C   UNL     1       0.775   6.870 -28.164  1.00  0.00     0.029 C 
HETATM   18  C   UNL     1       0.604   5.491 -28.775  1.00  0.00     0.235 C 
ENDBRANCH  12  13
ENDBRANCH  11  12
ENDBRANCH   7  11
ENDBRANCH   2   5
BRANCH   1  19
HETATM   19  C   UNL     1      -4.001  -1.362 -32.511  1.00  0.00     0.065 A 
HETATM   20  C   UNL     1      -3.266  -2.442 -31.980  1.00  0.00     0.020 A 
HETATM   21  C   UNL     1      -3.260  -3.692 -32.598  1.00  0.00     0.001 A 
HETATM   22  C   UNL     1      -3.981  -3.883 -33.769  1.00  0.00     0.003 A 
HETATM   23  C   UNL     1      -4.712  -2.827 -34.313  1.00  0.00     0.038 A 
HETATM   24  C   UNL     1      -4.754  -1.572 -33.681  1.00  0.00     0.084 A 
BRANCH  24  25
HETATM   25  O   UNL     1      -5.441  -0.528 -34.248  1.00  0.00    -0.348 OA
BRANCH  25  26
HETATM   26  C   UNL     1      -6.869  -0.674 -34.272  1.00  0.00     0.207 C 
BRANCH  26  27
HETATM   27  C   UNL     1      -7.540   0.609 -33.760  1.00  0.00     0.145 C 
HETATM   28  O   UNL     1      -7.403   0.663 -32.327  1.00  0.00    -0.384 OA
HETATM   29  C   UNL     1      -8.701   0.504 -31.731  1.00  0.00     0.168 C 
HETATM   30  C   UNL     1      -9.635   0.039 -32.825  1.00  0.00     0.029 C 
HETATM   31  C   UNL     1      -9.033   0.691 -34.045  1.00  0.00     0.036 C 
ENDBRANCH  26  27
ENDBRANCH  25  26
ENDBRANCH  24  25
ENDBRANCH   1  19
TORSDOF 8
ENDMDL
MODEL 4
REMARK VINA RESULT:      -8.3      2.183      3.886
REMARK  8 active torsions:
REMARK  status: ('A' for Active; 'I' for Inactive)
REMARK    1  A    between atoms: C_3  and  C_4 
REMARK       I    between atoms: C_4  and  N_5 
REMARK    2  A    between atoms: N_5  and  C_6 
REMARK    3  A    between atoms: C_8  and  C_9 
REMARK    4  A    between atoms: C_9  and  C_10 
REMARK    5  A    between atoms: C_10  and  N_11 
REMARK    6  A    between atoms: C_21  and  O_22 
REMARK    7  A    between atoms: O_22  and  C_23 
REMARK    8  A    between atoms: C_23  and  C_24 
ROOT
HETATM    1  C   UNL     1      -6.871  -0.913 -34.308  1.00  0.00     0.259 C 
HETATM    2  N   UNL     1      -7.938  -0.815 -33.433  1.00  0.00    -0.323 N 
HETATM    3  O   UNL     1      -6.484  -0.013 -35.047  1.00  0.00    -0.267 OA
HETATM    4  H   UNL     1      -8.162  -1.659 -32.917  1.00  0.00     0.169 HD
ENDROOT
BRANCH   2   5
HETATM    5  C   UNL     1      -8.724   0.330 -33.167  1.00  0.00     0.035 A 
HETATM    6  C   UNL     1      -8.427   1.080 -32.018  1.00  0.00     0.036 A 
HETATM    7  C   UNL     1      -9.144   2.252 -31.694  1.00  0.00    -0.054 A 
HETATM    8  C   UNL     1     -10.158   2.672 -32.566  1.00  0.00     0.007 A 
HETATM    9  C   UNL     1     -10.469   1.926 -33.699  1.00  0.00     0.003 A 
HETATM   10  C   UNL     1      -9.760   0.763 -33.994  1.00  0.00     0.029 A 
BRANCH   7  11
HETATM   11  C   UNL     1      -8.741   3.053 -30.474  1.00  0.00     0.066 C 
BRANCH  11  12
HETATM   12  C   UNL     1      -9.120   4.540 -30.528  1.00  0.00     0.239 C 
BRANCH  12  13
HETATM   13  N   UNL     1      -7.979   5.392 -31.051  1.00  0.00    -0.071 N 
HETATM   14  H   UNL     1      -7.895   6.217 -30.441  1.00  0.00     0.279 HD
HETATM   15  C   UNL     1      -8.239   5.900 -32.462  1.00  0.00     0.235 C 
HETATM   16  C   UNL     1      -7.333   5.055 -33.331  1.00  0.00     0.029 C 
HETATM   17  C   UNL     1      -6.089   4.925 -32.479  1.00  0.00     0.029 C 
HETATM   18  C   UNL     1      -6.636   4.672 -31.086  1.00  0.00     0.235 C 
ENDBRANCH  12  13
ENDBRANCH  11  12
ENDBRANCH   7  11
ENDBRANCH   2   5
BRANCH   1  19
HETATM   19  C   UNL     1      -6.127  -2.220 -34.348  1.00  0.00     0.065 A 
HETATM   20  C   UNL     1      -6.852  -3.330 -34.825  1.00  0.00     0.020 A 
HETATM   21  C   UNL     1      -6.273  -4.596 -34.912  1.00  0.00     0.001 A 
HETATM   22  C   UNL     1      -4.956  -4.777 -34.511  1.00  0.00     0.003 A 
HETATM   23  C   UNL     1      -4.221  -3.692 -34.033  1.00  0.00     0.038 A 
HETATM   24  C   UNL     1      -4.783  -2.406 -33.973  1.00  0.00     0.084 A 
BRANCH  24  25
HETATM   25  O   UNL     1      -4.065  -1.354 -33.460  1.00  0.00    -0.348 OA
BRANCH  25  26
HETATM   26  C   UNL     1      -3.634  -1.512 -32.100  1.00  0.00     0.207 C 
BRANCH  26  27
HETATM   27  C   UNL     1      -3.263  -0.146 -31.502  1.00  0.00     0.145 C 
HETATM   28  O   UNL     1      -4.080   0.087 -30.340  1.00  0.00    -0.384 OA
HETATM   29  C   UNL     1      -4.986   1.168 -30.620  1.00  0.00     0.168 C 
HETATM   30  C   UNL     1      -4.929   1.417 -32.110  1.00  0.00     0.029 C 
HETATM   31  C   UNL     1      -3.507   1.032 -32.435  1.00  0.00     0.036 C 
ENDBRANCH  26  27
ENDBRANCH  25  26
ENDBRANCH  24  25
ENDBRANCH   1  19
TORSDOF 8
ENDMDL
MODEL 5
REMARK VINA RESULT:      -8.2      5.128      9.782
REMARK  8 active torsions:
REMARK  status: ('A' for Active; 'I' for Inactive)
REMARK    1  A    between atoms: C_3  and  C_4 
REMARK       I    between atoms: C_4  and  N_5 
REMARK    2  A    between atoms: N_5  and  C_6 
REMARK    3  A    between atoms: C_8  and  C_9 
REMARK    4  A    between atoms: C_9  and  C_10 
REMARK    5  A    between atoms: C_10  and  N_11 
REMARK    6  A    between atoms: C_21  and  O_22 
REMARK    7  A    between atoms: O_22  and  C_23 
REMARK    8  A    between atoms: C_23  and  C_24 
ROOT
HETATM    1  C   UNL     1      -3.723   2.922 -32.047  1.00  0.00     0.259 C 
HETATM    2  N   UNL     1      -2.686   3.375 -32.844  1.00  0.00    -0.323 N 
HETATM    3  O   UNL     1      -4.330   3.606 -31.228  1.00  0.00    -0.267 OA
HETATM    4  H   UNL     1      -2.256   2.679 -33.442  1.00  0.00     0.169 HD
ENDROOT
BRANCH   2   5
HETATM    5  C   UNL     1      -2.186   4.695 -32.928  1.00  0.00     0.035 A 
HETATM    6  C   UNL     1      -1.225   5.096 -31.985  1.00  0.00     0.036 A 
HETATM    7  C   UNL     1      -0.654   6.385 -32.015  1.00  0.00    -0.054 A 
HETATM    8  C   UNL     1      -1.052   7.264 -33.031  1.00  0.00     0.007 A 
HETATM    9  C   UNL     1      -2.015   6.881 -33.960  1.00  0.00     0.003 A 
HETATM   10  C   UNL     1      -2.579   5.607 -33.906  1.00  0.00     0.029 A 
BRANCH   7  11
HETATM   11  C   UNL     1       0.421   6.743 -31.010  1.00  0.00     0.066 C 
BRANCH  11  12
HETATM   12  C   UNL     1       0.378   5.929 -29.708  1.00  0.00     0.239 C 
BRANCH  12  13
HETATM   13  N   UNL     1      -0.128   6.759 -28.543  1.00  0.00    -0.071 N 
HETATM   14  H   UNL     1      -1.155   6.792 -28.601  1.00  0.00     0.279 HD
HETATM   15  C   UNL     1       0.374   8.195 -28.598  1.00  0.00     0.235 C 
HETATM   16  C   UNL     1       1.436   8.257 -27.522  1.00  0.00     0.029 C 
HETATM   17  C   UNL     1       0.843   7.398 -26.426  1.00  0.00     0.029 C 
HETATM   18  C   UNL     1       0.267   6.211 -27.177  1.00  0.00     0.235 C 
ENDBRANCH  12  13
ENDBRANCH  11  12
ENDBRANCH   7  11
ENDBRANCH   2   5
BRANCH   1  19
HETATM   19  C   UNL     1      -4.138   1.484 -32.203  1.00  0.00     0.065 A 
HETATM   20  C   UNL     1      -3.324   0.531 -31.558  1.00  0.00     0.020 A 
HETATM   21  C   UNL     1      -3.606  -0.833 -31.626  1.00  0.00     0.001 A 
HETATM   22  C   UNL     1      -4.704  -1.271 -32.354  1.00  0.00     0.003 A 
HETATM   23  C   UNL     1      -5.521  -0.346 -33.003  1.00  0.00     0.038 A 
HETATM   24  C   UNL     1      -5.267   1.033 -32.913  1.00  0.00     0.084 A 
BRANCH  24  25
HETATM   25  O   UNL     1      -6.051   1.933 -33.591  1.00  0.00    -0.348 OA
BRANCH  25  26
HETATM   26  C   UNL     1      -7.019   1.355 -34.480  1.00  0.00     0.207 C 
BRANCH  26  27
HETATM   27  C   UNL     1      -8.435   1.788 -34.073  1.00  0.00     0.145 C 
HETATM   28  O   UNL     1      -8.361   2.495 -32.820  1.00  0.00    -0.384 OA
HETATM   29  C   UNL     1      -8.997   1.703 -31.802  1.00  0.00     0.168 C 
HETATM   30  C   UNL     1      -9.212   0.325 -32.386  1.00  0.00     0.029 C 
HETATM   31  C   UNL     1      -9.403   0.634 -33.851  1.00  0.00     0.036 C 
ENDBRANCH  26  27
ENDBRANCH  25  26
ENDBRANCH  24  25
ENDBRANCH   1  19
TORSDOF 8
ENDMDL
MODEL 6
REMARK VINA RESULT:      -8.0      2.541      7.786
REMARK  8 active torsions:
REMARK  status: ('A' for Active; 'I' for Inactive)
REMARK    1  A    between atoms: C_3  and  C_4 
REMARK       I    between atoms: C_4  and  N_5 
REMARK    2  A    between atoms: N_5  and  C_6 
REMARK    3  A    between atoms: C_8  and  C_9 
REMARK    4  A    between atoms: C_9  and  C_10 
REMARK    5  A    between atoms: C_10  and  N_11 
REMARK    6  A    between atoms: C_21  and  O_22 
REMARK    7  A    between atoms: O_22  and  C_23 
REMARK    8  A    between atoms: C_23  and  C_24 
ROOT
HETATM    1  C   UNL     1      -9.426   0.827 -32.740  1.00  0.00     0.259 C 
HETATM    2  N   UNL     1      -8.122   1.246 -32.933  1.00  0.00    -0.323 N 
HETATM    3  O   UNL     1      -9.774  -0.042 -31.946  1.00  0.00    -0.267 OA
HETATM    4  H   UNL     1      -7.988   1.945 -33.655  1.00  0.00     0.169 HD
ENDROOT
BRANCH   2   5
HETATM    5  C   UNL     1      -6.974   0.826 -32.222  1.00  0.00     0.035 A 
HETATM    6  C   UNL     1      -6.005   0.082 -32.916  1.00  0.00     0.036 A 
HETATM    7  C   UNL     1      -4.818  -0.352 -32.289  1.00  0.00    -0.054 A 
HETATM    8  C   UNL     1      -4.610  -0.002 -30.948  1.00  0.00     0.007 A 
HETATM    9  C   UNL     1      -5.571   0.721 -30.248  1.00  0.00     0.003 A 
HETATM   10  C   UNL     1      -6.745   1.128 -30.880  1.00  0.00     0.029 A 
BRANCH   7  11
HETATM   11  C   UNL     1      -3.782  -1.099 -33.103  1.00  0.00     0.066 C 
BRANCH  11  12
HETATM   12  C   UNL     1      -3.877  -2.629 -33.013  1.00  0.00     0.239 C 
BRANCH  12  13
HETATM   13  N   UNL     1      -4.258  -3.248 -34.344  1.00  0.00    -0.071 N 
HETATM   14  H   UNL     1      -3.456  -3.145 -34.982  1.00  0.00     0.279 HD
HETATM   15  C   UNL     1      -5.441  -2.542 -34.991  1.00  0.00     0.235 C 
HETATM   16  C   UNL     1      -6.596  -3.499 -34.791  1.00  0.00     0.029 C 
HETATM   17  C   UNL     1      -5.943  -4.848 -35.000  1.00  0.00     0.029 C 
HETATM   18  C   UNL     1      -4.625  -4.724 -34.256  1.00  0.00     0.235 C 
ENDBRANCH  12  13
ENDBRANCH  11  12
ENDBRANCH   7  11
ENDBRANCH   2   5
BRANCH   1  19
HETATM   19  C   UNL     1     -10.496   1.493 -33.562  1.00  0.00     0.065 A 
HETATM   20  C   UNL     1     -11.638   0.715 -33.838  1.00  0.00     0.020 A 
HETATM   21  C   UNL     1     -12.700   1.221 -34.588  1.00  0.00     0.001 A 
HETATM   22  C   UNL     1     -12.632   2.515 -35.087  1.00  0.00     0.003 A 
HETATM   23  C   UNL     1     -11.509   3.301 -34.828  1.00  0.00     0.038 A 
HETATM   24  C   UNL     1     -10.449   2.814 -34.044  1.00  0.00     0.084 A 
BRANCH  24  25
HETATM   25  O   UNL     1      -9.330   3.580 -33.832  1.00  0.00    -0.348 OA
BRANCH  25  26
HETATM   26  C   UNL     1      -9.582   4.952 -33.491  1.00  0.00     0.207 C 
BRANCH  26  27
HETATM   27  C   UNL     1      -9.164   5.221 -32.038  1.00  0.00     0.145 C 
HETATM   28  O   UNL     1      -8.638   4.004 -31.475  1.00  0.00    -0.384 OA
HETATM   29  C   UNL     1      -9.541   3.533 -30.461  1.00  0.00     0.168 C 
HETATM   30  C   UNL     1     -10.819   4.328 -30.605  1.00  0.00     0.029 C 
HETATM   31  C   UNL     1     -10.308   5.648 -31.128  1.00  0.00     0.036 C 
ENDBRANCH  26  27
ENDBRANCH  25  26
ENDBRANCH  24  25
ENDBRANCH   1  19
TORSDOF 8
ENDMDL
MODEL 7
REMARK VINA RESULT:      -7.9      2.665      7.731
REMARK  8 active torsions:
REMARK  status: ('A' for Active; 'I' for Inactive)
REMARK    1  A    between atoms: C_3  and  C_4 
REMARK       I    between atoms: C_4  and  N_5 
REMARK    2  A    between atoms: N_5  and  C_6 
REMARK    3  A    between atoms: C_8  and  C_9 
REMARK    4  A    between atoms: C_9  and  C_10 
REMARK    5  A    between atoms: C_10  and  N_11 
REMARK    6  A    between atoms: C_21  and  O_22 
REMARK    7  A    between atoms: O_22  and  C_23 
REMARK    8  A    between atoms: C_23  and  C_24 
ROOT
HETATM    1  C   UNL     1      -9.568   1.010 -34.027  1.00  0.00     0.259 C 
HETATM    2  N   UNL     1      -8.354   1.003 -34.691  1.00  0.00    -0.323 N 
HETATM    3  O   UNL     1      -9.885   0.227 -33.137  1.00  0.00    -0.267 OA
HETATM    4  H   UNL     1      -8.256   1.689 -35.432  1.00  0.00     0.169 HD
ENDROOT
BRANCH   2   5
HETATM    5  C   UNL     1      -7.242   0.168 -34.434  1.00  0.00     0.035 A 
HETATM    6  C   UNL     1      -6.191   0.692 -33.663  1.00  0.00     0.036 A 
HETATM    7  C   UNL     1      -5.058  -0.083 -33.336  1.00  0.00    -0.054 A 
HETATM    8  C   UNL     1      -5.011  -1.411 -33.782  1.00  0.00     0.007 A 
HETATM    9  C   UNL     1      -6.042  -1.933 -34.558  1.00  0.00     0.003 A 
HETATM   10  C   UNL     1      -7.146  -1.147 -34.884  1.00  0.00     0.029 A 
BRANCH   7  11
HETATM   11  C   UNL     1      -3.982   0.514 -32.454  1.00  0.00     0.066 C 
BRANCH  11  12
HETATM   12  C   UNL     1      -4.508   1.319 -31.256  1.00  0.00     0.239 C 
BRANCH  12  13
HETATM   13  N   UNL     1      -3.974   2.739 -31.254  1.00  0.00    -0.071 N 
HETATM   14  H   UNL     1      -3.430   2.871 -30.391  1.00  0.00     0.279 HD
HETATM   15  C   UNL     1      -5.090   3.774 -31.246  1.00  0.00     0.235 C 
HETATM   16  C   UNL     1      -5.099   4.319 -32.657  1.00  0.00     0.029 C 
HETATM   17  C   UNL     1      -3.625   4.373 -32.996  1.00  0.00     0.029 C 
HETATM   18  C   UNL     1      -3.085   3.065 -32.448  1.00  0.00     0.235 C 
ENDBRANCH  12  13
ENDBRANCH  11  12
ENDBRANCH   7  11
ENDBRANCH   2   5
BRANCH   1  19
HETATM   19  C   UNL     1     -10.568   2.063 -34.423  1.00  0.00     0.065 A 
HETATM   20  C   UNL     1     -11.824   1.591 -34.856  1.00  0.00     0.020 A 
HETATM   21  C   UNL     1     -12.835   2.467 -35.248  1.00  0.00     0.001 A 
HETATM   22  C   UNL     1     -12.604   3.836 -35.225  1.00  0.00     0.003 A 
HETATM   23  C   UNL     1     -11.367   4.324 -34.802  1.00  0.00     0.038 A 
HETATM   24  C   UNL     1     -10.353   3.453 -34.372  1.00  0.00     0.084 A 
BRANCH  24  25
HETATM   25  O   UNL     1      -9.125   3.941 -34.000  1.00  0.00    -0.348 OA
BRANCH  25  26
HETATM   26  C   UNL     1      -9.155   5.144 -33.218  1.00  0.00     0.207 C 
BRANCH  26  27
HETATM   27  C   UNL     1      -8.705   4.849 -31.779  1.00  0.00     0.145 C 
HETATM   28  O   UNL     1      -8.466   3.435 -31.649  1.00  0.00    -0.384 OA
HETATM   29  C   UNL     1      -9.462   2.875 -30.777  1.00  0.00     0.168 C 
HETATM   30  C   UNL     1     -10.532   3.927 -30.595  1.00  0.00     0.029 C 
HETATM   31  C   UNL     1      -9.737   5.204 -30.717  1.00  0.00     0.036 C 
ENDBRANCH  26  27
ENDBRANCH  25  26
ENDBRANCH  24  25
ENDBRANCH   1  19
TORSDOF 8
ENDMDL
MODEL 8
REMARK VINA RESULT:      -7.5      5.219      9.381
REMARK  8 active torsions:
REMARK  status: ('A' for Active; 'I' for Inactive)
REMARK    1  A    between atoms: C_3  and  C_4 
REMARK       I    between atoms: C_4  and  N_5 
REMARK    2  A    between atoms: N_5  and  C_6 
REMARK    3  A    between atoms: C_8  and  C_9 
REMARK    4  A    between atoms: C_9  and  C_10 
REMARK    5  A    between atoms: C_10  and  N_11 
REMARK    6  A    between atoms: C_21  and  O_22 
REMARK    7  A    between atoms: O_22  and  C_23 
REMARK    8  A    between atoms: C_23  and  C_24 
ROOT
HETATM    1  C   UNL     1      -3.445   2.583 -32.154  1.00  0.00     0.259 C 
HETATM    2  N   UNL     1      -3.509   3.571 -33.121  1.00  0.00    -0.323 N 
HETATM    3  O   UNL     1      -2.601   2.525 -31.265  1.00  0.00    -0.267 OA
HETATM    4  H   UNL     1      -4.240   3.460 -33.814  1.00  0.00     0.169 HD
ENDROOT
BRANCH   2   5
HETATM    5  C   UNL     1      -2.687   4.718 -33.229  1.00  0.00     0.035 A 
HETATM    6  C   UNL     1      -2.668   5.616 -32.149  1.00  0.00     0.036 A 
HETATM    7  C   UNL     1      -1.855   6.769 -32.163  1.00  0.00    -0.054 A 
HETATM    8  C   UNL     1      -1.039   6.993 -33.281  1.00  0.00     0.007 A 
HETATM    9  C   UNL     1      -1.064   6.115 -34.361  1.00  0.00     0.003 A 
HETATM   10  C   UNL     1      -1.885   4.989 -34.335  1.00  0.00     0.029 A 
BRANCH   7  11
HETATM   11  C   UNL     1      -1.829   7.672 -30.947  1.00  0.00     0.066 C 
BRANCH  11  12
HETATM   12  C   UNL     1      -2.260   6.996 -29.637  1.00  0.00     0.239 C 
BRANCH  12  13
HETATM   13  N   UNL     1      -1.074   6.710 -28.736  1.00  0.00    -0.071 N 
HETATM   14  H   UNL     1      -1.074   5.702 -28.525  1.00  0.00     0.279 HD
HETATM   15  C   UNL     1      -1.168   7.448 -27.408  1.00  0.00     0.235 C 
HETATM   16  C   UNL     1      -0.155   8.565 -27.535  1.00  0.00     0.029 C 
HETATM   17  C   UNL     1       0.979   7.896 -28.282  1.00  0.00     0.029 C 
HETATM   18  C   UNL     1       0.271   7.081 -29.349  1.00  0.00     0.235 C 
ENDBRANCH  12  13
ENDBRANCH  11  12
ENDBRANCH   7  11
ENDBRANCH   2   5
BRANCH   1  19
HETATM   19  C   UNL     1      -4.494   1.506 -32.196  1.00  0.00     0.065 A 
HETATM   20  C   UNL     1      -4.019   0.179 -32.187  1.00  0.00     0.020 A 
HETATM   21  C   UNL     1      -4.892  -0.908 -32.220  1.00  0.00     0.001 A 
HETATM   22  C   UNL     1      -6.261  -0.686 -32.276  1.00  0.00     0.003 A 
HETATM   23  C   UNL     1      -6.753   0.619 -32.288  1.00  0.00     0.038 A 
HETATM   24  C   UNL     1      -5.885   1.721 -32.220  1.00  0.00     0.084 A 
BRANCH  24  25
HETATM   25  O   UNL     1      -6.376   3.002 -32.276  1.00  0.00    -0.348 OA
BRANCH  25  26
HETATM   26  C   UNL     1      -7.330   3.338 -31.258  1.00  0.00     0.207 C 
BRANCH  26  27
HETATM   27  C   UNL     1      -6.608   3.636 -29.935  1.00  0.00     0.145 C 
HETATM   28  O   UNL     1      -7.557   4.189 -29.004  1.00  0.00    -0.384 OA
HETATM   29  C   UNL     1      -7.222   5.566 -28.763  1.00  0.00     0.168 C 
HETATM   30  C   UNL     1      -6.204   5.962 -29.809  1.00  0.00     0.029 C 
HETATM   31  C   UNL     1      -5.485   4.657 -30.053  1.00  0.00     0.036 C 
ENDBRANCH  26  27
ENDBRANCH  25  26
ENDBRANCH  24  25
ENDBRANCH   1  19
TORSDOF 8
ENDMDL
MODEL 9
REMARK VINA RESULT:      -7.4     14.048     17.013
REMARK  8 active torsions:
REMARK  status: ('A' for Active; 'I' for Inactive)
REMARK    1  A    between atoms: C_3  and  C_4 
REMARK       I    between atoms: C_4  and  N_5 
REMARK    2  A    between atoms: N_5  and  C_6 
REMARK    3  A    between atoms: C_8  and  C_9 
REMARK    4  A    between atoms: C_9  and  C_10 
REMARK    5  A    between atoms: C_10  and  N_11 
REMARK    6  A    between atoms: C_21  and  O_22 
REMARK    7  A    between atoms: O_22  and  C_23 
REMARK    8  A    between atoms: C_23  and  C_24 
ROOT
HETATM    1  C   UNL     1      -5.919 -12.715 -39.940  1.00  0.00     0.259 C 
HETATM    2  N   UNL     1      -5.122 -13.840 -39.820  1.00  0.00    -0.323 N 
HETATM    3  O   UNL     1      -5.524 -11.610 -40.298  1.00  0.00    -0.267 OA
HETATM    4  H   UNL     1      -5.586 -14.672 -39.472  1.00  0.00     0.169 HD
ENDROOT
BRANCH   2   5
HETATM    5  C   UNL     1      -3.752 -13.957 -40.149  1.00  0.00     0.035 A 
HETATM    6  C   UNL     1      -2.811 -13.799 -39.118  1.00  0.00     0.036 A 
HETATM    7  C   UNL     1      -1.426 -13.928 -39.356  1.00  0.00    -0.054 A 
HETATM    8  C   UNL     1      -1.002 -14.243 -40.654  1.00  0.00     0.007 A 
HETATM    9  C   UNL     1      -1.927 -14.386 -41.685  1.00  0.00     0.003 A 
HETATM   10  C   UNL     1      -3.290 -14.240 -41.434  1.00  0.00     0.029 A 
BRANCH   7  11
HETATM   11  C   UNL     1      -0.461 -13.806 -38.195  1.00  0.00     0.066 C 
BRANCH  11  12
HETATM   12  C   UNL     1       0.314 -15.090 -37.867  1.00  0.00     0.239 C 
BRANCH  12  13
HETATM   13  N   UNL     1      -0.219 -15.766 -36.618  1.00  0.00    -0.071 N 
HETATM   14  H   UNL     1       0.586 -16.038 -36.038  1.00  0.00     0.279 HD
HETATM   15  C   UNL     1      -0.995 -17.036 -36.937  1.00  0.00     0.235 C 
HETATM   16  C   UNL     1      -2.443 -16.646 -36.730  1.00  0.00     0.029 C 
HETATM   17  C   UNL     1      -2.368 -15.742 -35.518  1.00  0.00     0.029 C 
HETATM   18  C   UNL     1      -1.144 -14.885 -35.788  1.00  0.00     0.235 C 
ENDBRANCH  12  13
ENDBRANCH  11  12
ENDBRANCH   7  11
ENDBRANCH   2   5
BRANCH   1  19
HETATM   19  C   UNL     1      -7.380 -12.865 -39.612  1.00  0.00     0.065 A 
HETATM   20  C   UNL     1      -8.279 -12.220 -40.485  1.00  0.00     0.020 A 
HETATM   21  C   UNL     1      -9.658 -12.286 -40.289  1.00  0.00     0.001 A 
HETATM   22  C   UNL     1     -10.165 -12.991 -39.206  1.00  0.00     0.003 A 
HETATM   23  C   UNL     1      -9.293 -13.634 -38.328  1.00  0.00     0.038 A 
HETATM   24  C   UNL     1      -7.903 -13.604 -38.534  1.00  0.00     0.084 A 
BRANCH  24  25
HETATM   25  O   UNL     1      -7.051 -14.204 -37.640  1.00  0.00    -0.348 OA
BRANCH  25  26
HETATM   26  C   UNL     1      -7.122 -13.703 -36.296  1.00  0.00     0.207 C 
BRANCH  26  27
HETATM   27  C   UNL     1      -6.014 -14.333 -35.439  1.00  0.00     0.145 C 
HETATM   28  O   UNL     1      -6.617 -14.965 -34.294  1.00  0.00    -0.384 OA
HETATM   29  C   UNL     1      -6.241 -14.238 -33.112  1.00  0.00     0.168 C 
HETATM   30  C   UNL     1      -5.623 -12.937 -33.572  1.00  0.00     0.029 C 
HETATM   31  C   UNL     1      -5.004 -13.335 -34.890  1.00  0.00     0.036 C 
ENDBRANCH  26  27
ENDBRANCH  25  26
ENDBRANCH  24  25
ENDBRANCH   1  19
TORSDOF 8
ENDMDL
MODEL 10
REMARK VINA RESULT:      -7.4     14.308     16.179
REMARK  8 active torsions:
REMARK  status: ('A' for Active; 'I' for Inactive)
REMARK    1  A    between atoms: C_3  and  C_4 
REMARK       I    between atoms: C_4  and  N_5 
REMARK    2  A    between atoms: N_5  and  C_6 
REMARK    3  A    between atoms: C_8  and  C_9 
REMARK    4  A    between atoms: C_9  and  C_10 
REMARK    5  A    between atoms: C_10  and  N_11 
REMARK    6  A    between atoms: C_21  and  O_22 
REMARK    7  A    between atoms: O_22  and  C_23 
REMARK    8  A    between atoms: C_23  and  C_24 
ROOT
HETATM    1  C   UNL     1      -7.198 -14.861 -36.040  1.00  0.00     0.259 C 
HETATM    2  N   UNL     1      -7.432 -13.587 -36.525  1.00  0.00    -0.323 N 
HETATM    3  O   UNL     1      -7.418 -15.899 -36.658  1.00  0.00    -0.267 OA
HETATM    4  H   UNL     1      -7.238 -12.829 -35.880  1.00  0.00     0.169 HD
ENDROOT
BRANCH   2   5
HETATM    5  C   UNL     1      -7.884 -13.233 -37.817  1.00  0.00     0.035 A 
HETATM    6  C   UNL     1      -6.920 -12.913 -38.787  1.00  0.00     0.036 A 
HETATM    7  C   UNL     1      -7.284 -12.576 -40.108  1.00  0.00    -0.054 A 
HETATM    8  C   UNL     1      -8.645 -12.590 -40.445  1.00  0.00     0.007 A 
HETATM    9  C   UNL     1      -9.608 -12.890 -39.486  1.00  0.00     0.003 A 
HETATM   10  C   UNL     1      -9.229 -13.206 -38.182  1.00  0.00     0.029 A 
BRANCH   7  11
HETATM   11  C   UNL     1      -6.200 -12.298 -41.127  1.00  0.00     0.066 C 
BRANCH  11  12
HETATM   12  C   UNL     1      -4.902 -13.093 -40.918  1.00  0.00     0.239 C 
BRANCH  12  13
HETATM   13  N   UNL     1      -4.928 -14.416 -41.658  1.00  0.00    -0.071 N 
HETATM   14  H   UNL     1      -5.777 -14.922 -41.372  1.00  0.00     0.279 HD
HETATM   15  C   UNL     1      -3.738 -15.297 -41.305  1.00  0.00     0.235 C 
HETATM   16  C   UNL     1      -2.842 -15.213 -42.522  1.00  0.00     0.029 C 
HETATM   17  C   UNL     1      -3.838 -15.209 -43.662  1.00  0.00     0.029 C 
HETATM   18  C   UNL     1      -4.932 -14.274 -43.176  1.00  0.00     0.235 C 
ENDBRANCH  12  13
ENDBRANCH  11  12
ENDBRANCH   7  11
ENDBRANCH   2   5
BRANCH   1  19
HETATM   19  C   UNL     1      -6.624 -14.980 -34.654  1.00  0.00     0.065 A 
HETATM   20  C   UNL     1      -7.351 -15.781 -33.750  1.00  0.00     0.020 A 
HETATM   21  C   UNL     1      -6.921 -15.971 -32.437  1.00  0.00     0.001 A 
HETATM   22  C   UNL     1      -5.759 -15.350 -31.999  1.00  0.00     0.003 A 
HETATM   23  C   UNL     1      -5.026 -14.550 -32.876  1.00  0.00     0.038 A 
HETATM   24  C   UNL     1      -5.430 -14.380 -34.211  1.00  0.00     0.084 A 
BRANCH  24  25
HETATM   25  O   UNL     1      -4.726 -13.556 -35.053  1.00  0.00    -0.348 OA
BRANCH  25  26
HETATM   26  C   UNL     1      -3.591 -14.159 -35.693  1.00  0.00     0.207 C 
BRANCH  26  27
HETATM   27  C   UNL     1      -3.678 -13.966 -37.214  1.00  0.00     0.145 C 
HETATM   28  O   UNL     1      -2.756 -14.872 -37.849  1.00  0.00    -0.384 OA
HETATM   29  C   UNL     1      -1.697 -14.109 -38.452  1.00  0.00     0.168 C 
HETATM   30  C   UNL     1      -1.811 -12.699 -37.919  1.00  0.00     0.029 C 
HETATM   31  C   UNL     1      -3.297 -12.571 -37.691  1.00  0.00     0.036 C 
ENDBRANCH  26  27
ENDBRANCH  25  26
ENDBRANCH  24  25
ENDBRANCH   1  19
TORSDOF 8
ENDMDL
