MODEL 1
REMARK VINA RESULT:      -7.8      0.000      0.000
REMARK  12 active torsions:
REMARK  status: ('A' for Active; 'I' for Inactive)
REMARK    1  A    between atoms: C_2  and  N_3 
REMARK    2  A    between atoms: N_3  and  C_5 
REMARK    3  A    between atoms: N_3  and  C_33 
REMARK    4  A    between atoms: C_5  and  C_6 
REMARK    5  A    between atoms: N_7  and  C_8 
REMARK    6  A    between atoms: C_12  and  N_13 
REMARK    7  A    between atoms: C_16  and  C_17 
REMARK       I    between atoms: C_17  and  N_18 
REMARK    8  A    between atoms: N_18  and  N_19 
REMARK    9  A    between atoms: C_20  and  C_21 
REMARK   10  A    between atoms: C_25  and  O_26 
REMARK   11  A    between atoms: C_27  and  O_28 
REMARK   12  A    between atoms: O_28  and  C_29 
ROOT
HETATM    1  C   UNL     1      -4.754  -1.258 -32.959  1.00  0.00     0.096 A 
HETATM    2  N   UNL     1      -4.438  -2.573 -33.289  1.00  0.00    -0.215 N 
HETATM    3  N   UNL     1      -3.336  -2.946 -32.584  1.00  0.00     0.012 NA
HETATM    4  N   UNL     1      -2.998  -1.973 -31.754  1.00  0.00    -0.152 NA
HETATM    5  C   UNL     1      -3.853  -0.930 -31.955  1.00  0.00     0.170 A 
ENDROOT
BRANCH   5   6
HETATM    6  C   UNL     1      -3.803   0.319 -31.206  1.00  0.00     0.293 C 
HETATM    7  N   UNL     1      -3.223   1.370 -31.893  1.00  0.00    -0.242 N 
HETATM    8  H   UNL     1      -2.877   1.240 -32.840  1.00  0.00     0.192 HD
HETATM    9  O   UNL     1      -4.234   0.363 -30.056  1.00  0.00    -0.264 OA
BRANCH   7  10
HETATM   10  N   UNL     1      -3.160   2.591 -31.298  1.00  0.00    -0.184 NA
HETATM   11  C   UNL     1      -2.646   3.552 -31.997  1.00  0.00     0.150 C 
BRANCH  11  12
HETATM   12  C   UNL     1      -2.553   4.922 -31.451  1.00  0.00    -0.013 A 
HETATM   13  C   UNL     1      -3.698   5.716 -31.348  1.00  0.00     0.035 A 
HETATM   14  C   UNL     1      -3.591   7.009 -30.845  1.00  0.00     0.047 A 
HETATM   15 BR   UNL     1      -5.154   8.075 -30.722  1.00  0.00    -0.048 Br
HETATM   16  C   UNL     1      -2.348   7.503 -30.440  1.00  0.00     0.116 A 
HETATM   17  C   UNL     1      -1.196   6.707 -30.534  1.00  0.00     0.104 A 
HETATM   18  C   UNL     1      -1.303   5.410 -31.047  1.00  0.00     0.052 A 
BRANCH  16  19
HETATM   19  O   UNL     1      -2.227   8.776 -29.941  1.00  0.00    -0.357 OA
HETATM   20  H   UNL     1      -2.472   9.404 -30.644  1.00  0.00     0.218 HD
ENDBRANCH  16  19
BRANCH  17  21
HETATM   21  O   UNL     1      -0.031   7.288 -30.109  1.00  0.00    -0.349 OA
BRANCH  21  22
HETATM   22  C   UNL     1       0.497   6.903 -28.845  1.00  0.00     0.171 C 
HETATM   23  C   UNL     1       1.102   8.135 -28.197  1.00  0.00     0.034 C 
ENDBRANCH  21  22
ENDBRANCH  17  21
ENDBRANCH  11  12
ENDBRANCH   7  10
ENDBRANCH   5   6
BRANCH   1  24
HETATM   24  C   UNL     1      -5.767  -0.413 -33.640  1.00  0.00     0.296 C 
BRANCH  24  25
HETATM   25  N   UNL     1      -7.189  -0.513 -33.112  1.00  0.00    -0.066 N 
HETATM   26  H   UNL     1      -7.344  -1.506 -32.884  1.00  0.00     0.280 HD
BRANCH  25  27
HETATM   27  C   UNL     1      -8.198  -0.131 -34.188  1.00  0.00     0.231 C 
HETATM   28  C   UNL     1      -7.507   0.400 -35.432  1.00  0.00     0.034 C 
ENDBRANCH  25  27
BRANCH  25  29
HETATM   29  C   UNL     1      -7.399   0.308 -31.848  1.00  0.00     0.231 C 
HETATM   30  C   UNL     1      -8.846   0.756 -31.723  1.00  0.00     0.034 C 
ENDBRANCH  25  29
ENDBRANCH  24  25
ENDBRANCH   1  24
BRANCH   2  31
HETATM   31  C   UNL     1      -5.128  -3.457 -34.152  1.00  0.00     0.225 A 
HETATM   32  N   UNL     1      -6.196  -3.025 -34.831  1.00  0.00    -0.081 NA
HETATM   33  O   UNL     1      -6.612  -4.157 -35.541  1.00  0.00    -0.103 OA
HETATM   34  N   UNL     1      -5.808  -5.250 -35.258  1.00  0.00    -0.083 NA
HETATM   35  C   UNL     1      -4.889  -4.819 -34.396  1.00  0.00     0.201 A 
BRANCH  35  36
HETATM   36  N   UNL     1      -3.915  -5.581 -33.876  1.00  0.00    -0.379 N 
HETATM   37  H   UNL     1      -2.939  -5.366 -34.067  1.00  0.00     0.158 HD
HETATM   38  H   UNL     1      -4.072  -6.479 -33.425  1.00  0.00     0.158 HD
ENDBRANCH  35  36
ENDBRANCH   2  31
TORSDOF 12
ENDMDL
MODEL 2
REMARK VINA RESULT:      -7.5      3.852     10.139
REMARK  12 active torsions:
REMARK  status: ('A' for Active; 'I' for Inactive)
REMARK    1  A    between atoms: C_2  and  N_3 
REMARK    2  A    between atoms: N_3  and  C_5 
REMARK    3  A    between atoms: N_3  and  C_33 
REMARK    4  A    between atoms: C_5  and  C_6 
REMARK    5  A    between atoms: N_7  and  C_8 
REMARK    6  A    between atoms: C_12  and  N_13 
REMARK    7  A    between atoms: C_16  and  C_17 
REMARK       I    between atoms: C_17  and  N_18 
REMARK    8  A    between atoms: N_18  and  N_19 
REMARK    9  A    between atoms: C_20  and  C_21 
REMARK   10  A    between atoms: C_25  and  O_26 
REMARK   11  A    between atoms: C_27  and  O_28 
REMARK   12  A    between atoms: O_28  and  C_29 
ROOT
HETATM    1  C   UNL     1      -2.354   5.904 -30.730  1.00  0.00     0.096 A 
HETATM    2  N   UNL     1      -1.270   6.518 -30.110  1.00  0.00    -0.215 N 
HETATM    3  N   UNL     1      -0.154   5.780 -30.355  1.00  0.00     0.012 NA
HETATM    4  N   UNL     1      -0.456   4.790 -31.178  1.00  0.00    -0.152 NA
HETATM    5  C   UNL     1      -1.795   4.845 -31.432  1.00  0.00     0.170 A 
ENDROOT
BRANCH   5   6
HETATM    6  C   UNL     1      -2.495   3.921 -32.315  1.00  0.00     0.293 C 
HETATM    7  N   UNL     1      -3.133   2.884 -31.662  1.00  0.00    -0.242 N 
HETATM    8  H   UNL     1      -3.095   2.810 -30.648  1.00  0.00     0.192 HD
HETATM    9  O   UNL     1      -2.461   4.091 -33.532  1.00  0.00    -0.264 OA
BRANCH   7  10
HETATM   10  N   UNL     1      -3.847   1.985 -32.391  1.00  0.00    -0.184 NA
HETATM   11  C   UNL     1      -3.542   0.737 -32.233  1.00  0.00     0.150 C 
BRANCH  11  12
HETATM   12  C   UNL     1      -4.274  -0.320 -32.963  1.00  0.00    -0.013 A 
HETATM   13  C   UNL     1      -3.770  -1.624 -33.003  1.00  0.00     0.035 A 
HETATM   14  C   UNL     1      -4.464  -2.604 -33.706  1.00  0.00     0.047 A 
HETATM   15 BR   UNL     1      -3.760  -4.363 -33.758  1.00  0.00    -0.048 Br
HETATM   16  C   UNL     1      -5.657  -2.286 -34.359  1.00  0.00     0.116 A 
HETATM   17  C   UNL     1      -6.171  -0.980 -34.316  1.00  0.00     0.104 A 
HETATM   18  C   UNL     1      -5.469   0.007 -33.615  1.00  0.00     0.052 A 
BRANCH  16  19
HETATM   19  O   UNL     1      -6.353  -3.241 -35.056  1.00  0.00    -0.357 OA
HETATM   20  H   UNL     1      -6.285  -3.037 -36.006  1.00  0.00     0.218 HD
ENDBRANCH  16  19
BRANCH  17  21
HETATM   21  O   UNL     1      -7.347  -0.778 -34.989  1.00  0.00    -0.349 OA
BRANCH  21  22
HETATM   22  C   UNL     1      -7.963   0.503 -34.907  1.00  0.00     0.171 C 
HETATM   23  C   UNL     1      -9.066   0.424 -33.867  1.00  0.00     0.034 C 
ENDBRANCH  21  22
ENDBRANCH  17  21
ENDBRANCH  11  12
ENDBRANCH   7  10
ENDBRANCH   5   6
BRANCH   1  24
HETATM   24  C   UNL     1      -3.780   6.280 -30.555  1.00  0.00     0.296 C 
BRANCH  24  25
HETATM   25  N   UNL     1      -4.514   5.612 -29.405  1.00  0.00    -0.066 N 
HETATM   26  H   UNL     1      -3.873   4.899 -29.026  1.00  0.00     0.280 HD
BRANCH  25  27
HETATM   27  C   UNL     1      -5.758   4.886 -29.901  1.00  0.00     0.231 C 
HETATM   28  C   UNL     1      -6.008   5.157 -31.374  1.00  0.00     0.034 C 
ENDBRANCH  25  27
BRANCH  25  29
HETATM   29  C   UNL     1      -4.858   6.588 -28.289  1.00  0.00     0.231 C 
HETATM   30  C   UNL     1      -5.193   7.961 -28.850  1.00  0.00     0.034 C 
ENDBRANCH  25  29
ENDBRANCH  24  25
ENDBRANCH   1  24
BRANCH   2  31
HETATM   31  C   UNL     1      -1.239   7.731 -29.383  1.00  0.00     0.225 A 
HETATM   32  N   UNL     1      -1.794   8.831 -29.902  1.00  0.00    -0.081 NA
HETATM   33  O   UNL     1      -1.553   9.809 -28.930  1.00  0.00    -0.103 OA
HETATM   34  N   UNL     1      -0.838   9.290 -27.863  1.00  0.00    -0.083 NA
HETATM   35  C   UNL     1      -0.640   8.003 -28.142  1.00  0.00     0.201 A 
BRANCH  35  36
HETATM   36  N   UNL     1       0.016   7.142 -27.349  1.00  0.00    -0.379 N 
HETATM   37  H   UNL     1       0.992   7.304 -27.113  1.00  0.00     0.158 HD
HETATM   38  H   UNL     1      -0.339   6.227 -27.083  1.00  0.00     0.158 HD
ENDBRANCH  35  36
ENDBRANCH   2  31
TORSDOF 12
ENDMDL
MODEL 3
REMARK VINA RESULT:      -7.3      4.170     10.860
REMARK  12 active torsions:
REMARK  status: ('A' for Active; 'I' for Inactive)
REMARK    1  A    between atoms: C_2  and  N_3 
REMARK    2  A    between atoms: N_3  and  C_5 
REMARK    3  A    between atoms: N_3  and  C_33 
REMARK    4  A    between atoms: C_5  and  C_6 
REMARK    5  A    between atoms: N_7  and  C_8 
REMARK    6  A    between atoms: C_12  and  N_13 
REMARK    7  A    between atoms: C_16  and  C_17 
REMARK       I    between atoms: C_17  and  N_18 
REMARK    8  A    between atoms: N_18  and  N_19 
REMARK    9  A    between atoms: C_20  and  C_21 
REMARK   10  A    between atoms: C_25  and  O_26 
REMARK   11  A    between atoms: C_27  and  O_28 
REMARK   12  A    between atoms: O_28  and  C_29 
ROOT
HETATM    1  C   UNL     1      -2.582   7.208 -29.284  1.00  0.00     0.096 A 
HETATM    2  N   UNL     1      -3.149   8.089 -28.366  1.00  0.00    -0.215 N 
HETATM    3  N   UNL     1      -4.493   8.122 -28.568  1.00  0.00     0.012 NA
HETATM    4  N   UNL     1      -4.818   7.237 -29.495  1.00  0.00    -0.152 NA
HETATM    5  C   UNL     1      -3.671   6.655 -29.946  1.00  0.00     0.170 A 
ENDROOT
BRANCH   5   6
HETATM    6  C   UNL     1      -3.631   5.613 -30.964  1.00  0.00     0.293 C 
HETATM    7  N   UNL     1      -3.912   4.345 -30.490  1.00  0.00    -0.242 N 
HETATM    8  H   UNL     1      -4.126   4.197 -29.507  1.00  0.00     0.192 HD
HETATM    9  O   UNL     1      -3.341   5.899 -32.123  1.00  0.00    -0.264 OA
BRANCH   7  10
HETATM   10  N   UNL     1      -3.938   3.305 -31.366  1.00  0.00    -0.184 NA
HETATM   11  C   UNL     1      -4.939   2.489 -31.267  1.00  0.00     0.150 C 
BRANCH  11  12
HETATM   12  C   UNL     1      -5.072   1.340 -32.187  1.00  0.00    -0.013 A 
HETATM   13  C   UNL     1      -6.174   1.249 -33.043  1.00  0.00     0.035 A 
HETATM   14  C   UNL     1      -6.292   0.154 -33.892  1.00  0.00     0.047 A 
HETATM   15 BR   UNL     1      -7.797   0.044 -35.039  1.00  0.00    -0.048 Br
HETATM   16  C   UNL     1      -5.312  -0.843 -33.892  1.00  0.00     0.116 A 
HETATM   17  C   UNL     1      -4.201  -0.753 -33.039  1.00  0.00     0.104 A 
HETATM   18  C   UNL     1      -4.086   0.345 -32.180  1.00  0.00     0.052 A 
BRANCH  16  19
HETATM   19  O   UNL     1      -5.415  -1.929 -34.724  1.00  0.00    -0.357 OA
HETATM   20  H   UNL     1      -6.357  -2.076 -34.921  1.00  0.00     0.218 HD
ENDBRANCH  16  19
BRANCH  17  21
HETATM   21  O   UNL     1      -3.301  -1.783 -33.120  1.00  0.00    -0.349 OA
BRANCH  21  22
HETATM   22  C   UNL     1      -3.175  -2.661 -32.007  1.00  0.00     0.171 C 
HETATM   23  C   UNL     1      -3.261  -4.085 -32.524  1.00  0.00     0.034 C 
ENDBRANCH  21  22
ENDBRANCH  17  21
ENDBRANCH  11  12
ENDBRANCH   7  10
ENDBRANCH   5   6
BRANCH   1  24
HETATM   24  C   UNL     1      -1.129   7.025 -29.526  1.00  0.00     0.296 C 
BRANCH  24  25
HETATM   25  N   UNL     1      -0.456   5.901 -28.755  1.00  0.00    -0.066 N 
HETATM   26  H   UNL     1      -1.213   5.290 -28.413  1.00  0.00     0.280 HD
BRANCH  25  27
HETATM   27  C   UNL     1       0.278   6.442 -27.535  1.00  0.00     0.231 C 
HETATM   28  C   UNL     1       1.030   7.720 -27.861  1.00  0.00     0.034 C 
ENDBRANCH  25  27
BRANCH  25  29
HETATM   29  C   UNL     1       0.473   5.071 -29.630  1.00  0.00     0.231 C 
HETATM   30  C   UNL     1       0.390   5.510 -31.083  1.00  0.00     0.034 C 
ENDBRANCH  25  29
ENDBRANCH  24  25
ENDBRANCH   1  24
BRANCH   2  31
HETATM   31  C   UNL     1      -2.513   8.815 -27.332  1.00  0.00     0.225 A 
HETATM   32  N   UNL     1      -1.855   9.943 -27.619  1.00  0.00    -0.081 NA
HETATM   33  O   UNL     1      -1.354  10.355 -26.379  1.00  0.00    -0.103 OA
HETATM   34  N   UNL     1      -1.694   9.458 -25.378  1.00  0.00    -0.083 NA
HETATM   35  C   UNL     1      -2.410   8.502 -25.967  1.00  0.00     0.201 A 
BRANCH  35  36
HETATM   36  N   UNL     1      -2.933   7.441 -25.333  1.00  0.00    -0.379 N 
HETATM   37  H   UNL     1      -3.028   7.444 -24.321  1.00  0.00     0.158 HD
HETATM   38  H   UNL     1      -3.101   6.540 -25.773  1.00  0.00     0.158 HD
ENDBRANCH  35  36
ENDBRANCH   2  31
TORSDOF 12
ENDMDL
MODEL 4
REMARK VINA RESULT:      -7.3      4.328     10.177
REMARK  12 active torsions:
REMARK  status: ('A' for Active; 'I' for Inactive)
REMARK    1  A    between atoms: C_2  and  N_3 
REMARK    2  A    between atoms: N_3  and  C_5 
REMARK    3  A    between atoms: N_3  and  C_33 
REMARK    4  A    between atoms: C_5  and  C_6 
REMARK    5  A    between atoms: N_7  and  C_8 
REMARK    6  A    between atoms: C_12  and  N_13 
REMARK    7  A    between atoms: C_16  and  C_17 
REMARK       I    between atoms: C_17  and  N_18 
REMARK    8  A    between atoms: N_18  and  N_19 
REMARK    9  A    between atoms: C_20  and  C_21 
REMARK   10  A    between atoms: C_25  and  O_26 
REMARK   11  A    between atoms: C_27  and  O_28 
REMARK   12  A    between atoms: O_28  and  C_29 
ROOT
HETATM    1  C   UNL     1      -1.200   6.161 -29.874  1.00  0.00     0.096 A 
HETATM    2  N   UNL     1      -0.042   6.239 -29.106  1.00  0.00    -0.215 N 
HETATM    3  N   UNL     1       0.757   5.183 -29.414  1.00  0.00     0.012 NA
HETATM    4  N   UNL     1       0.211   4.497 -30.405  1.00  0.00    -0.152 NA
HETATM    5  C   UNL     1      -0.983   5.077 -30.714  1.00  0.00     0.170 A 
ENDROOT
BRANCH   5   6
HETATM    6  C   UNL     1      -1.867   4.608 -31.773  1.00  0.00     0.293 C 
HETATM    7  N   UNL     1      -2.706   3.575 -31.397  1.00  0.00    -0.242 N 
HETATM    8  H   UNL     1      -2.679   3.206 -30.450  1.00  0.00     0.192 HD
HETATM    9  O   UNL     1      -1.805   5.112 -32.892  1.00  0.00    -0.264 OA
BRANCH   7  10
HETATM   10  N   UNL     1      -3.598   3.088 -32.301  1.00  0.00    -0.184 NA
HETATM   11  C   UNL     1      -4.354   2.115 -31.903  1.00  0.00     0.150 C 
BRANCH  11  12
HETATM   12  C   UNL     1      -5.372   1.531 -32.802  1.00  0.00    -0.013 A 
HETATM   13  C   UNL     1      -5.240   0.213 -33.248  1.00  0.00     0.035 A 
HETATM   14  C   UNL     1      -6.199  -0.318 -34.105  1.00  0.00     0.047 A 
HETATM   15 BR   UNL     1      -5.999  -2.104 -34.708  1.00  0.00    -0.048 Br
HETATM   16  C   UNL     1      -7.287   0.461 -34.509  1.00  0.00     0.116 A 
HETATM   17  C   UNL     1      -7.427   1.783 -34.058  1.00  0.00     0.104 A 
HETATM   18  C   UNL     1      -6.459   2.318 -33.202  1.00  0.00     0.052 A 
BRANCH  16  19
HETATM   19  O   UNL     1      -8.241  -0.048 -35.354  1.00  0.00    -0.357 OA
HETATM   20  H   UNL     1      -8.220   0.463 -36.183  1.00  0.00     0.218 HD
ENDBRANCH  16  19
BRANCH  17  21
HETATM   21  O   UNL     1      -8.529   2.456 -34.514  1.00  0.00    -0.349 OA
BRANCH  21  22
HETATM   22  C   UNL     1      -9.580   2.736 -33.596  1.00  0.00     0.171 C 
HETATM   23  C   UNL     1     -10.804   1.953 -34.035  1.00  0.00     0.034 C 
ENDBRANCH  21  22
ENDBRANCH  17  21
ENDBRANCH  11  12
ENDBRANCH   7  10
ENDBRANCH   5   6
BRANCH   1  24
HETATM   24  C   UNL     1      -2.408   7.010 -29.710  1.00  0.00     0.296 C 
BRANCH  24  25
HETATM   25  N   UNL     1      -3.627   6.332 -29.107  1.00  0.00    -0.066 N 
HETATM   26  H   UNL     1      -3.353   5.357 -28.917  1.00  0.00     0.280 HD
BRANCH  25  27
HETATM   27  C   UNL     1      -4.778   6.295 -30.104  1.00  0.00     0.231 C 
HETATM   28  C   UNL     1      -4.496   7.174 -31.310  1.00  0.00     0.034 C 
ENDBRANCH  25  27
BRANCH  25  29
HETATM   29  C   UNL     1      -4.059   6.973 -27.796  1.00  0.00     0.231 C 
HETATM   30  C   UNL     1      -5.133   6.143 -27.111  1.00  0.00     0.034 C 
ENDBRANCH  25  29
ENDBRANCH  24  25
ENDBRANCH   1  24
BRANCH   2  31
HETATM   31  C   UNL     1       0.341   7.244 -28.186  1.00  0.00     0.225 A 
HETATM   32  N   UNL     1       1.205   8.193 -28.559  1.00  0.00    -0.081 NA
HETATM   33  O   UNL     1       1.354   8.973 -27.406  1.00  0.00    -0.103 OA
HETATM   34  N   UNL     1       0.602   8.465 -26.358  1.00  0.00    -0.083 NA
HETATM   35  C   UNL     1      -0.025   7.393 -26.838  1.00  0.00     0.201 A 
BRANCH  35  36
HETATM   36  N   UNL     1      -0.859   6.617 -26.130  1.00  0.00    -0.379 N 
HETATM   37  H   UNL     1      -1.697   7.013 -25.710  1.00  0.00     0.158 HD
HETATM   38  H   UNL     1      -0.641   5.669 -25.830  1.00  0.00     0.158 HD
ENDBRANCH  35  36
ENDBRANCH   2  31
TORSDOF 12
ENDMDL
MODEL 5
REMARK VINA RESULT:      -7.3      5.024      7.764
REMARK  12 active torsions:
REMARK  status: ('A' for Active; 'I' for Inactive)
REMARK    1  A    between atoms: C_2  and  N_3 
REMARK    2  A    between atoms: N_3  and  C_5 
REMARK    3  A    between atoms: N_3  and  C_33 
REMARK    4  A    between atoms: C_5  and  C_6 
REMARK    5  A    between atoms: N_7  and  C_8 
REMARK    6  A    between atoms: C_12  and  N_13 
REMARK    7  A    between atoms: C_16  and  C_17 
REMARK       I    between atoms: C_17  and  N_18 
REMARK    8  A    between atoms: N_18  and  N_19 
REMARK    9  A    between atoms: C_20  and  C_21 
REMARK   10  A    between atoms: C_25  and  O_26 
REMARK   11  A    between atoms: C_27  and  O_28 
REMARK   12  A    between atoms: O_28  and  C_29 
ROOT
HETATM    1  C   UNL     1     -12.078   1.224 -33.710  1.00  0.00     0.096 A 
HETATM    2  N   UNL     1     -13.240   0.486 -33.502  1.00  0.00    -0.215 N 
HETATM    3  N   UNL     1     -12.894  -0.795 -33.206  1.00  0.00     0.012 NA
HETATM    4  N   UNL     1     -11.577  -0.884 -33.119  1.00  0.00    -0.152 NA
HETATM    5  C   UNL     1     -11.050   0.338 -33.414  1.00  0.00     0.170 A 
ENDROOT
BRANCH   5   6
HETATM    6  C   UNL     1      -9.624   0.634 -33.403  1.00  0.00     0.293 C 
HETATM    7  N   UNL     1      -9.129   1.007 -32.167  1.00  0.00    -0.242 N 
HETATM    8  H   UNL     1      -9.744   1.055 -31.359  1.00  0.00     0.192 HD
HETATM    9  O   UNL     1      -8.975   0.563 -34.445  1.00  0.00    -0.264 OA
BRANCH   7  10
HETATM   10  N   UNL     1      -7.801   1.269 -32.040  1.00  0.00    -0.184 NA
HETATM   11  C   UNL     1      -7.472   2.500 -31.810  1.00  0.00     0.150 C 
BRANCH  11  12
HETATM   12  C   UNL     1      -6.056   2.886 -31.633  1.00  0.00    -0.013 A 
HETATM   13  C   UNL     1      -5.694   4.236 -31.608  1.00  0.00     0.035 A 
HETATM   14  C   UNL     1      -4.355   4.582 -31.454  1.00  0.00     0.047 A 
HETATM   15 BR   UNL     1      -3.881   6.417 -31.432  1.00  0.00    -0.048 Br
HETATM   16  C   UNL     1      -3.384   3.585 -31.321  1.00  0.00     0.116 A 
HETATM   17  C   UNL     1      -3.744   2.229 -31.339  1.00  0.00     0.104 A 
HETATM   18  C   UNL     1      -5.089   1.881 -31.500  1.00  0.00     0.052 A 
BRANCH  16  19
HETATM   19  O   UNL     1      -2.060   3.911 -31.169  1.00  0.00    -0.357 OA
HETATM   20  H   UNL     1      -1.983   4.546 -30.435  1.00  0.00     0.218 HD
ENDBRANCH  16  19
BRANCH  17  21
HETATM   21  O   UNL     1      -2.715   1.336 -31.200  1.00  0.00    -0.349 OA
BRANCH  21  22
HETATM   22  C   UNL     1      -3.031  -0.041 -31.027  1.00  0.00     0.171 C 
HETATM   23  C   UNL     1      -2.790  -0.745 -32.351  1.00  0.00     0.034 C 
ENDBRANCH  21  22
ENDBRANCH  17  21
ENDBRANCH  11  12
ENDBRANCH   7  10
ENDBRANCH   5   6
BRANCH   1  24
HETATM   24  C   UNL     1     -12.014   2.611 -34.236  1.00  0.00     0.296 C 
BRANCH  24  25
HETATM   25  N   UNL     1     -11.973   3.721 -33.199  1.00  0.00    -0.066 N 
HETATM   26  H   UNL     1     -12.209   3.283 -32.296  1.00  0.00     0.280 HD
BRANCH  25  27
HETATM   27  C   UNL     1     -13.036   4.774 -33.485  1.00  0.00     0.231 C 
HETATM   28  C   UNL     1     -12.741   6.073 -32.757  1.00  0.00     0.034 C 
ENDBRANCH  25  27
BRANCH  25  29
HETATM   29  C   UNL     1     -10.594   4.354 -33.079  1.00  0.00     0.231 C 
HETATM   30  C   UNL     1      -9.771   4.109 -34.334  1.00  0.00     0.034 C 
ENDBRANCH  25  29
ENDBRANCH  24  25
ENDBRANCH   1  24
BRANCH   2  31
HETATM   31  C   UNL     1     -14.583   0.932 -33.517  1.00  0.00     0.225 A 
HETATM   32  N   UNL     1     -15.385   0.590 -34.530  1.00  0.00    -0.081 NA
HETATM   33  O   UNL     1     -16.596   1.218 -34.214  1.00  0.00    -0.103 OA
HETATM   34  N   UNL     1     -16.492   1.944 -33.038  1.00  0.00    -0.083 NA
HETATM   35  C   UNL     1     -15.245   1.770 -32.605  1.00  0.00     0.201 A 
BRANCH  35  36
HETATM   36  N   UNL     1     -14.744   2.311 -31.484  1.00  0.00    -0.379 N 
HETATM   37  H   UNL     1     -15.330   2.889 -30.888  1.00  0.00     0.158 HD
HETATM   38  H   UNL     1     -13.754   2.327 -31.252  1.00  0.00     0.158 HD
ENDBRANCH  35  36
ENDBRANCH   2  31
TORSDOF 12
ENDMDL
MODEL 6
REMARK VINA RESULT:      -7.3      4.494     10.637
REMARK  12 active torsions:
REMARK  status: ('A' for Active; 'I' for Inactive)
REMARK    1  A    between atoms: C_2  and  N_3 
REMARK    2  A    between atoms: N_3  and  C_5 
REMARK    3  A    between atoms: N_3  and  C_33 
REMARK    4  A    between atoms: C_5  and  C_6 
REMARK    5  A    between atoms: N_7  and  C_8 
REMARK    6  A    between atoms: C_12  and  N_13 
REMARK    7  A    between atoms: C_16  and  C_17 
REMARK       I    between atoms: C_17  and  N_18 
REMARK    8  A    between atoms: N_18  and  N_19 
REMARK    9  A    between atoms: C_20  and  C_21 
REMARK   10  A    between atoms: C_25  and  O_26 
REMARK   11  A    between atoms: C_27  and  O_28 
REMARK   12  A    between atoms: O_28  and  C_29 
ROOT
HETATM    1  C   UNL     1      -4.001   6.720 -28.493  1.00  0.00     0.096 A 
HETATM    2  N   UNL     1      -3.851   7.243 -27.212  1.00  0.00    -0.215 N 
HETATM    3  N   UNL     1      -4.943   6.906 -26.474  1.00  0.00     0.012 NA
HETATM    4  N   UNL     1      -5.727   6.117 -27.189  1.00  0.00    -0.152 NA
HETATM    5  C   UNL     1      -5.172   5.977 -28.426  1.00  0.00     0.170 A 
ENDROOT
BRANCH   5   6
HETATM    6  C   UNL     1      -5.746   5.160 -29.488  1.00  0.00     0.293 C 
HETATM    7  N   UNL     1      -5.490   3.807 -29.366  1.00  0.00    -0.242 N 
HETATM    8  H   UNL     1      -4.945   3.453 -28.584  1.00  0.00     0.192 HD
HETATM    9  O   UNL     1      -6.372   5.693 -30.401  1.00  0.00    -0.264 OA
BRANCH   7  10
HETATM   10  N   UNL     1      -6.012   2.952 -30.286  1.00  0.00    -0.184 NA
HETATM   11  C   UNL     1      -5.372   1.842 -30.474  1.00  0.00     0.150 C 
BRANCH  11  12
HETATM   12  C   UNL     1      -5.869   0.835 -31.435  1.00  0.00    -0.013 A 
HETATM   13  C   UNL     1      -4.986  -0.087 -32.006  1.00  0.00     0.035 A 
HETATM   14  C   UNL     1      -5.468  -1.019 -32.920  1.00  0.00     0.047 A 
HETATM   15 BR   UNL     1      -4.254  -2.255 -33.690  1.00  0.00    -0.048 Br
HETATM   16  C   UNL     1      -6.824  -1.035 -33.257  1.00  0.00     0.116 A 
HETATM   17  C   UNL     1      -7.715  -0.116 -32.681  1.00  0.00     0.104 A 
HETATM   18  C   UNL     1      -7.229   0.826 -31.768  1.00  0.00     0.052 A 
BRANCH  16  19
HETATM   19  O   UNL     1      -7.313  -1.948 -34.156  1.00  0.00    -0.357 OA
HETATM   20  H   UNL     1      -6.738  -2.734 -34.138  1.00  0.00     0.218 HD
ENDBRANCH  16  19
BRANCH  17  21
HETATM   21  O   UNL     1      -9.021  -0.220 -33.081  1.00  0.00    -0.349 OA
BRANCH  21  22
HETATM   22  C   UNL     1      -9.879   0.900 -32.890  1.00  0.00     0.171 C 
HETATM   23  C   UNL     1     -10.031   1.605 -34.226  1.00  0.00     0.034 C 
ENDBRANCH  21  22
ENDBRANCH  17  21
ENDBRANCH  11  12
ENDBRANCH   7  10
ENDBRANCH   5   6
BRANCH   1  24
HETATM   24  C   UNL     1      -3.128   7.014 -29.658  1.00  0.00     0.296 C 
BRANCH  24  25
HETATM   25  N   UNL     1      -2.194   5.898 -30.096  1.00  0.00    -0.066 N 
HETATM   26  H   UNL     1      -2.402   5.091 -29.490  1.00  0.00     0.280 HD
BRANCH  25  27
HETATM   27  C   UNL     1      -0.739   6.281 -29.859  1.00  0.00     0.231 C 
HETATM   28  C   UNL     1      -0.064   6.723 -31.146  1.00  0.00     0.034 C 
ENDBRANCH  25  27
BRANCH  25  29
HETATM   29  C   UNL     1      -2.423   5.483 -31.542  1.00  0.00     0.231 C 
HETATM   30  C   UNL     1      -2.597   3.978 -31.657  1.00  0.00     0.034 C 
ENDBRANCH  25  29
ENDBRANCH  24  25
ENDBRANCH   1  24
BRANCH   2  31
HETATM   31  C   UNL     1      -2.756   7.959 -26.674  1.00  0.00     0.225 A 
HETATM   32  N   UNL     1      -2.833   9.287 -26.537  1.00  0.00    -0.081 NA
HETATM   33  O   UNL     1      -1.584   9.634 -26.007  1.00  0.00    -0.103 OA
HETATM   34  N   UNL     1      -0.774   8.519 -25.861  1.00  0.00    -0.083 NA
HETATM   35  C   UNL     1      -1.497   7.480 -26.276  1.00  0.00     0.201 A 
BRANCH  35  36
HETATM   36  N   UNL     1      -1.068   6.209 -26.291  1.00  0.00    -0.379 N 
HETATM   37  H   UNL     1      -0.625   5.808 -25.468  1.00  0.00     0.158 HD
HETATM   38  H   UNL     1      -0.998   5.640 -27.131  1.00  0.00     0.158 HD
ENDBRANCH  35  36
ENDBRANCH   2  31
TORSDOF 12
ENDMDL
MODEL 7
REMARK VINA RESULT:      -7.1      4.365     10.494
REMARK  12 active torsions:
REMARK  status: ('A' for Active; 'I' for Inactive)
REMARK    1  A    between atoms: C_2  and  N_3 
REMARK    2  A    between atoms: N_3  and  C_5 
REMARK    3  A    between atoms: N_3  and  C_33 
REMARK    4  A    between atoms: C_5  and  C_6 
REMARK    5  A    between atoms: N_7  and  C_8 
REMARK    6  A    between atoms: C_12  and  N_13 
REMARK    7  A    between atoms: C_16  and  C_17 
REMARK       I    between atoms: C_17  and  N_18 
REMARK    8  A    between atoms: N_18  and  N_19 
REMARK    9  A    between atoms: C_20  and  C_21 
REMARK   10  A    between atoms: C_25  and  O_26 
REMARK   11  A    between atoms: C_27  and  O_28 
REMARK   12  A    between atoms: O_28  and  C_29 
ROOT
HETATM    1  C   UNL     1      -3.853   6.842 -28.442  1.00  0.00     0.096 A 
HETATM    2  N   UNL     1      -3.638   7.364 -27.170  1.00  0.00    -0.215 N 
HETATM    3  N   UNL     1      -4.746   7.137 -26.414  1.00  0.00     0.012 NA
HETATM    4  N   UNL     1      -5.609   6.414 -27.107  1.00  0.00    -0.152 NA
HETATM    5  C   UNL     1      -5.087   6.210 -28.350  1.00  0.00     0.170 A 
ENDROOT
BRANCH   5   6
HETATM    6  C   UNL     1      -5.747   5.437 -29.394  1.00  0.00     0.293 C 
HETATM    7  N   UNL     1      -5.263   4.151 -29.541  1.00  0.00    -0.242 N 
HETATM    8  H   UNL     1      -4.510   3.811 -28.948  1.00  0.00     0.192 HD
HETATM    9  O   UNL     1      -6.636   5.952 -30.069  1.00  0.00    -0.264 OA
BRANCH   7  10
HETATM   10  N   UNL     1      -5.836   3.332 -30.464  1.00  0.00    -0.184 NA
HETATM   11  C   UNL     1      -5.323   2.150 -30.590  1.00  0.00     0.150 C 
BRANCH  11  12
HETATM   12  C   UNL     1      -5.887   1.177 -31.548  1.00  0.00    -0.013 A 
HETATM   13  C   UNL     1      -7.272   1.067 -31.704  1.00  0.00     0.035 A 
HETATM   14  C   UNL     1      -7.788   0.136 -32.600  1.00  0.00     0.047 A 
HETATM   15 BR   UNL     1      -9.669  -0.005 -32.791  1.00  0.00    -0.048 Br
HETATM   16  C   UNL     1      -6.926  -0.677 -33.340  1.00  0.00     0.116 A 
HETATM   17  C   UNL     1      -5.534  -0.567 -33.192  1.00  0.00     0.104 A 
HETATM   18  C   UNL     1      -5.016   0.365 -32.286  1.00  0.00     0.052 A 
BRANCH  16  19
HETATM   19  O   UNL     1      -7.419  -1.600 -34.227  1.00  0.00    -0.357 OA
HETATM   20  H   UNL     1      -8.151  -1.189 -34.721  1.00  0.00     0.218 HD
ENDBRANCH  16  19
BRANCH  17  21
HETATM   21  O   UNL     1      -4.782  -1.410 -33.965  1.00  0.00    -0.349 OA
BRANCH  21  22
HETATM   22  C   UNL     1      -4.037  -2.437 -33.320  1.00  0.00     0.171 C 
HETATM   23  C   UNL     1      -4.215  -3.715 -34.120  1.00  0.00     0.034 C 
ENDBRANCH  21  22
ENDBRANCH  17  21
ENDBRANCH  11  12
ENDBRANCH   7  10
ENDBRANCH   5   6
BRANCH   1  24
HETATM   24  C   UNL     1      -2.974   7.042 -29.622  1.00  0.00     0.296 C 
BRANCH  24  25
HETATM   25  N   UNL     1      -2.047   5.889 -29.971  1.00  0.00    -0.066 N 
HETATM   26  H   UNL     1      -2.239   5.144 -29.285  1.00  0.00     0.280 HD
BRANCH  25  27
HETATM   27  C   UNL     1      -0.588   6.295 -29.805  1.00  0.00     0.231 C 
HETATM   28  C   UNL     1       0.315   5.514 -30.743  1.00  0.00     0.034 C 
ENDBRANCH  25  27
BRANCH  25  29
HETATM   29  C   UNL     1      -2.307   5.336 -31.365  1.00  0.00     0.231 C 
HETATM   30  C   UNL     1      -3.412   6.113 -32.062  1.00  0.00     0.034 C 
ENDBRANCH  25  29
ENDBRANCH  24  25
ENDBRANCH   1  24
BRANCH   2  31
HETATM   31  C   UNL     1      -2.475   7.984 -26.655  1.00  0.00     0.225 A 
HETATM   32  N   UNL     1      -2.420   9.315 -26.555  1.00  0.00    -0.081 NA
HETATM   33  O   UNL     1      -1.141   9.552 -26.038  1.00  0.00    -0.103 OA
HETATM   34  N   UNL     1      -0.443   8.367 -25.865  1.00  0.00    -0.083 NA
HETATM   35  C   UNL     1      -1.267   7.394 -26.249  1.00  0.00     0.201 A 
BRANCH  35  36
HETATM   36  N   UNL     1      -0.964   6.087 -26.230  1.00  0.00    -0.379 N 
HETATM   37  H   UNL     1      -1.672   5.400 -25.981  1.00  0.00     0.158 HD
HETATM   38  H   UNL     1      -0.018   5.720 -26.289  1.00  0.00     0.158 HD
ENDBRANCH  35  36
ENDBRANCH   2  31
TORSDOF 12
ENDMDL
MODEL 8
REMARK VINA RESULT:      -7.1      6.190     10.588
REMARK  12 active torsions:
REMARK  status: ('A' for Active; 'I' for Inactive)
REMARK    1  A    between atoms: C_2  and  N_3 
REMARK    2  A    between atoms: N_3  and  C_5 
REMARK    3  A    between atoms: N_3  and  C_33 
REMARK    4  A    between atoms: C_5  and  C_6 
REMARK    5  A    between atoms: N_7  and  C_8 
REMARK    6  A    between atoms: C_12  and  N_13 
REMARK    7  A    between atoms: C_16  and  C_17 
REMARK       I    between atoms: C_17  and  N_18 
REMARK    8  A    between atoms: N_18  and  N_19 
REMARK    9  A    between atoms: C_20  and  C_21 
REMARK   10  A    between atoms: C_25  and  O_26 
REMARK   11  A    between atoms: C_27  and  O_28 
REMARK   12  A    between atoms: O_28  and  C_29 
ROOT
HETATM    1  C   UNL     1     -12.505   3.623 -32.440  1.00  0.00     0.096 A 
HETATM    2  N   UNL     1     -13.858   3.731 -32.131  1.00  0.00    -0.215 N 
HETATM    3  N   UNL     1     -14.516   2.678 -32.687  1.00  0.00     0.012 NA
HETATM    4  N   UNL     1     -13.640   1.860 -33.245  1.00  0.00    -0.152 NA
HETATM    5  C   UNL     1     -12.399   2.407 -33.102  1.00  0.00     0.170 A 
ENDROOT
BRANCH   5   6
HETATM    6  C   UNL     1     -11.173   1.781 -33.579  1.00  0.00     0.293 C 
HETATM    7  N   UNL     1     -10.691   0.778 -32.759  1.00  0.00    -0.242 N 
HETATM    8  H   UNL     1     -11.183   0.528 -31.905  1.00  0.00     0.192 HD
HETATM    9  O   UNL     1     -10.648   2.174 -34.618  1.00  0.00    -0.264 OA
BRANCH   7  10
HETATM   10  N   UNL     1      -9.571   0.103 -33.131  1.00  0.00    -0.184 NA
HETATM   11  C   UNL     1      -8.486   0.375 -32.479  1.00  0.00     0.150 C 
BRANCH  11  12
HETATM   12  C   UNL     1      -7.219  -0.320 -32.792  1.00  0.00    -0.013 A 
HETATM   13  C   UNL     1      -6.069  -0.054 -32.043  1.00  0.00     0.035 A 
HETATM   14  C   UNL     1      -4.881  -0.706 -32.359  1.00  0.00     0.047 A 
HETATM   15 BR   UNL     1      -3.329  -0.325 -31.340  1.00  0.00    -0.048 Br
HETATM   16  C   UNL     1      -4.844  -1.624 -33.412  1.00  0.00     0.116 A 
HETATM   17  C   UNL     1      -5.998  -1.900 -34.162  1.00  0.00     0.104 A 
HETATM   18  C   UNL     1      -7.190  -1.238 -33.849  1.00  0.00     0.052 A 
BRANCH  16  19
HETATM   19  O   UNL     1      -3.681  -2.276 -33.736  1.00  0.00    -0.357 OA
HETATM   20  H   UNL     1      -3.422  -2.834 -32.981  1.00  0.00     0.218 HD
ENDBRANCH  16  19
BRANCH  17  21
HETATM   21  O   UNL     1      -5.852  -2.816 -35.170  1.00  0.00    -0.349 OA
BRANCH  21  22
HETATM   22  C   UNL     1      -6.480  -4.085 -35.029  1.00  0.00     0.171 C 
HETATM   23  C   UNL     1      -5.408  -5.098 -34.668  1.00  0.00     0.034 C 
ENDBRANCH  21  22
ENDBRANCH  17  21
ENDBRANCH  11  12
ENDBRANCH   7  10
ENDBRANCH   5   6
BRANCH   1  24
HETATM   24  C   UNL     1     -11.473   4.660 -32.186  1.00  0.00     0.296 C 
BRANCH  24  25
HETATM   25  N   UNL     1     -10.927   4.731 -30.770  1.00  0.00    -0.066 N 
HETATM   26  H   UNL     1     -11.716   4.517 -30.143  1.00  0.00     0.280 HD
BRANCH  25  27
HETATM   27  C   UNL     1     -10.454   6.142 -30.439  1.00  0.00     0.231 C 
HETATM   28  C   UNL     1     -10.681   7.090 -31.603  1.00  0.00     0.034 C 
ENDBRANCH  25  27
BRANCH  25  29
HETATM   29  C   UNL     1      -9.825   3.712 -30.520  1.00  0.00     0.231 C 
HETATM   30  C   UNL     1      -8.714   3.845 -31.550  1.00  0.00     0.034 C 
ENDBRANCH  25  29
ENDBRANCH  24  25
ENDBRANCH   1  24
BRANCH   2  31
HETATM   31  C   UNL     1     -14.507   4.703 -31.333  1.00  0.00     0.225 A 
HETATM   32  N   UNL     1     -13.983   5.051 -30.153  1.00  0.00    -0.081 NA
HETATM   33  O   UNL     1     -14.891   5.995 -29.658  1.00  0.00    -0.103 OA
HETATM   34  N   UNL     1     -15.952   6.175 -30.531  1.00  0.00    -0.083 NA
HETATM   35  C   UNL     1     -15.718   5.374 -31.568  1.00  0.00     0.201 A 
BRANCH  35  36
HETATM   36  N   UNL     1     -16.518   5.259 -32.640  1.00  0.00    -0.379 N 
HETATM   37  H   UNL     1     -16.422   4.465 -33.268  1.00  0.00     0.158 HD
HETATM   38  H   UNL     1     -17.125   6.000 -32.981  1.00  0.00     0.158 HD
ENDBRANCH  35  36
ENDBRANCH   2  31
TORSDOF 12
ENDMDL
MODEL 9
REMARK VINA RESULT:      -7.1      4.314      6.497
REMARK  12 active torsions:
REMARK  status: ('A' for Active; 'I' for Inactive)
REMARK    1  A    between atoms: C_2  and  N_3 
REMARK    2  A    between atoms: N_3  and  C_5 
REMARK    3  A    between atoms: N_3  and  C_33 
REMARK    4  A    between atoms: C_5  and  C_6 
REMARK    5  A    between atoms: N_7  and  C_8 
REMARK    6  A    between atoms: C_12  and  N_13 
REMARK    7  A    between atoms: C_16  and  C_17 
REMARK       I    between atoms: C_17  and  N_18 
REMARK    8  A    between atoms: N_18  and  N_19 
REMARK    9  A    between atoms: C_20  and  C_21 
REMARK   10  A    between atoms: C_25  and  O_26 
REMARK   11  A    between atoms: C_27  and  O_28 
REMARK   12  A    between atoms: O_28  and  C_29 
ROOT
HETATM    1  C   UNL     1      -9.924   3.428 -33.736  1.00  0.00     0.096 A 
HETATM    2  N   UNL     1     -11.116   3.597 -34.437  1.00  0.00    -0.215 N 
HETATM    3  N   UNL     1     -11.014   4.714 -35.204  1.00  0.00     0.012 NA
HETATM    4  N   UNL     1      -9.790   5.205 -35.103  1.00  0.00    -0.152 NA
HETATM    5  C   UNL     1      -9.097   4.433 -34.218  1.00  0.00     0.170 A 
ENDROOT
BRANCH   5   6
HETATM    6  C   UNL     1      -7.702   4.656 -33.862  1.00  0.00     0.293 C 
HETATM    7  N   UNL     1      -7.438   5.917 -33.360  1.00  0.00    -0.242 N 
HETATM    8  H   UNL     1      -8.185   6.601 -33.262  1.00  0.00     0.192 HD
HETATM    9  O   UNL     1      -6.874   3.766 -34.041  1.00  0.00    -0.264 OA
BRANCH   7  10
HETATM   10  N   UNL     1      -6.172   6.217 -32.962  1.00  0.00    -0.184 NA
HETATM   11  C   UNL     1      -5.911   6.070 -31.702  1.00  0.00     0.150 C 
BRANCH  11  12
HETATM   12  C   UNL     1      -4.559   6.347 -31.172  1.00  0.00    -0.013 A 
HETATM   13  C   UNL     1      -4.392   6.720 -29.835  1.00  0.00     0.035 A 
HETATM   14  C   UNL     1      -3.115   6.990 -29.356  1.00  0.00     0.047 A 
HETATM   15 BR   UNL     1      -2.908   7.505 -27.543  1.00  0.00    -0.048 Br
HETATM   16  C   UNL     1      -2.009   6.883 -30.204  1.00  0.00     0.116 A 
HETATM   17  C   UNL     1      -2.171   6.502 -31.545  1.00  0.00     0.104 A 
HETATM   18  C   UNL     1      -3.457   6.237 -32.029  1.00  0.00     0.052 A 
BRANCH  16  19
HETATM   19  O   UNL     1      -0.743   7.147 -29.746  1.00  0.00    -0.357 OA
HETATM   20  H   UNL     1      -0.110   6.652 -30.295  1.00  0.00     0.218 HD
ENDBRANCH  16  19
BRANCH  17  21
HETATM   21  O   UNL     1      -1.023   6.427 -32.288  1.00  0.00    -0.349 OA
BRANCH  21  22
HETATM   22  C   UNL     1      -1.051   6.904 -33.629  1.00  0.00     0.171 C 
HETATM   23  C   UNL     1      -1.135   5.700 -34.550  1.00  0.00     0.034 C 
ENDBRANCH  21  22
ENDBRANCH  17  21
ENDBRANCH  11  12
ENDBRANCH   7  10
ENDBRANCH   5   6
BRANCH   1  24
HETATM   24  C   UNL     1      -9.689   2.442 -32.652  1.00  0.00     0.296 C 
BRANCH  24  25
HETATM   25  N   UNL     1      -8.575   1.436 -32.890  1.00  0.00    -0.066 N 
HETATM   26  H   UNL     1      -7.728   1.984 -33.098  1.00  0.00     0.280 HD
BRANCH  25  27
HETATM   27  C   UNL     1      -8.871   0.574 -34.111  1.00  0.00     0.231 C 
HETATM   28  C   UNL     1      -7.701   0.562 -35.078  1.00  0.00     0.034 C 
ENDBRANCH  25  27
BRANCH  25  29
HETATM   29  C   UNL     1      -8.299   0.574 -31.666  1.00  0.00     0.231 C 
HETATM   30  C   UNL     1      -6.837   0.160 -31.608  1.00  0.00     0.034 C 
ENDBRANCH  25  29
ENDBRANCH  24  25
ENDBRANCH   1  24
BRANCH   2  31
HETATM   31  C   UNL     1     -12.258   2.762 -34.449  1.00  0.00     0.225 A 
HETATM   32  N   UNL     1     -12.594   2.111 -35.567  1.00  0.00    -0.081 NA
HETATM   33  O   UNL     1     -13.759   1.423 -35.208  1.00  0.00    -0.103 OA
HETATM   34  N   UNL     1     -14.116   1.693 -33.896  1.00  0.00    -0.083 NA
HETATM   35  C   UNL     1     -13.189   2.524 -33.424  1.00  0.00     0.201 A 
BRANCH  35  36
HETATM   36  N   UNL     1     -13.174   3.023 -32.179  1.00  0.00    -0.379 N 
HETATM   37  H   UNL     1     -13.944   3.600 -31.848  1.00  0.00     0.158 HD
HETATM   38  H   UNL     1     -12.361   3.007 -31.568  1.00  0.00     0.158 HD
ENDBRANCH  35  36
ENDBRANCH   2  31
TORSDOF 12
ENDMDL
MODEL 10
REMARK VINA RESULT:      -6.9      6.095     10.006
REMARK  12 active torsions:
REMARK  status: ('A' for Active; 'I' for Inactive)
REMARK    1  A    between atoms: C_2  and  N_3 
REMARK    2  A    between atoms: N_3  and  C_5 
REMARK    3  A    between atoms: N_3  and  C_33 
REMARK    4  A    between atoms: C_5  and  C_6 
REMARK    5  A    between atoms: N_7  and  C_8 
REMARK    6  A    between atoms: C_12  and  N_13 
REMARK    7  A    between atoms: C_16  and  C_17 
REMARK       I    between atoms: C_17  and  N_18 
REMARK    8  A    between atoms: N_18  and  N_19 
REMARK    9  A    between atoms: C_20  and  C_21 
REMARK   10  A    between atoms: C_25  and  O_26 
REMARK   11  A    between atoms: C_27  and  O_28 
REMARK   12  A    between atoms: O_28  and  C_29 
ROOT
HETATM    1  C   UNL     1     -11.249   4.365 -34.373  1.00  0.00     0.096 A 
HETATM    2  N   UNL     1     -12.255   4.883 -35.184  1.00  0.00    -0.215 N 
HETATM    3  N   UNL     1     -12.705   3.895 -36.003  1.00  0.00     0.012 NA
HETATM    4  N   UNL     1     -12.108   2.758 -35.687  1.00  0.00    -0.152 NA
HETATM    5  C   UNL     1     -11.218   3.013 -34.686  1.00  0.00     0.170 A 
ENDROOT
BRANCH   5   6
HETATM    6  C   UNL     1     -10.382   1.995 -34.062  1.00  0.00     0.293 C 
HETATM    7  N   UNL     1      -9.401   1.480 -34.888  1.00  0.00    -0.242 N 
HETATM    8  H   UNL     1      -9.303   1.813 -35.844  1.00  0.00     0.192 HD
HETATM    9  O   UNL     1     -10.599   1.650 -32.902  1.00  0.00    -0.264 OA
BRANCH   7  10
HETATM   10  N   UNL     1      -8.542   0.550 -34.391  1.00  0.00    -0.184 NA
HETATM   11  C   UNL     1      -7.506   0.270 -35.116  1.00  0.00     0.150 C 
BRANCH  11  12
HETATM   12  C   UNL     1      -6.501  -0.710 -34.655  1.00  0.00    -0.013 A 
HETATM   13  C   UNL     1      -6.628  -2.060 -34.995  1.00  0.00     0.035 A 
HETATM   14  C   UNL     1      -5.681  -2.972 -34.541  1.00  0.00     0.047 A 
HETATM   15 BR   UNL     1      -5.875  -4.800 -35.004  1.00  0.00    -0.048 Br
HETATM   16  C   UNL     1      -4.609  -2.538 -33.757  1.00  0.00     0.116 A 
HETATM   17  C   UNL     1      -4.472  -1.182 -33.419  1.00  0.00     0.104 A 
HETATM   18  C   UNL     1      -5.429  -0.267 -33.869  1.00  0.00     0.052 A 
BRANCH  16  19
HETATM   19  O   UNL     1      -3.666  -3.425 -33.302  1.00  0.00    -0.357 OA
HETATM   20  H   UNL     1      -2.935  -3.452 -33.945  1.00  0.00     0.218 HD
ENDBRANCH  16  19
BRANCH  17  21
HETATM   21  O   UNL     1      -3.386  -0.865 -32.648  1.00  0.00    -0.349 OA
BRANCH  21  22
HETATM   22  C   UNL     1      -3.610  -0.388 -31.325  1.00  0.00     0.171 C 
HETATM   23  C   UNL     1      -3.328   1.104 -31.315  1.00  0.00     0.034 C 
ENDBRANCH  21  22
ENDBRANCH  17  21
ENDBRANCH  11  12
ENDBRANCH   7  10
ENDBRANCH   5   6
BRANCH   1  24
HETATM   24  C   UNL     1     -10.369   5.153 -33.474  1.00  0.00     0.296 C 
BRANCH  24  25
HETATM   25  N   UNL     1     -10.130   4.572 -32.090  1.00  0.00    -0.066 N 
HETATM   26  H   UNL     1     -10.352   3.567 -32.155  1.00  0.00     0.280 HD
BRANCH  25  27
HETATM   27  C   UNL     1     -11.085   5.183 -31.071  1.00  0.00     0.231 C 
HETATM   28  C   UNL     1     -12.310   4.309 -30.865  1.00  0.00     0.034 C 
ENDBRANCH  25  27
BRANCH  25  29
HETATM   29  C   UNL     1      -8.684   4.717 -31.640  1.00  0.00     0.231 C 
HETATM   30  C   UNL     1      -7.731   4.131 -32.669  1.00  0.00     0.034 C 
ENDBRANCH  25  29
ENDBRANCH  24  25
ENDBRANCH   1  24
BRANCH   2  31
HETATM   31  C   UNL     1     -12.813   6.183 -35.176  1.00  0.00     0.225 A 
HETATM   32  N   UNL     1     -12.195   7.175 -35.825  1.00  0.00    -0.081 NA
HETATM   33  O   UNL     1     -13.011   8.286 -35.579  1.00  0.00    -0.103 OA
HETATM   34  N   UNL     1     -14.084   7.949 -34.768  1.00  0.00    -0.083 NA
HETATM   35  C   UNL     1     -13.962   6.648 -34.515  1.00  0.00     0.201 A 
BRANCH  35  36
HETATM   36  N   UNL     1     -14.812   5.934 -33.761  1.00  0.00    -0.379 N 
HETATM   37  H   UNL     1     -14.491   5.099 -33.277  1.00  0.00     0.158 HD
HETATM   38  H   UNL     1     -15.820   6.067 -33.757  1.00  0.00     0.158 HD
ENDBRANCH  35  36
ENDBRANCH   2  31
TORSDOF 12
ENDMDL
