MODEL 1
REMARK VINA RESULT:      -8.2      0.000      0.000
REMARK  3 active torsions:
REMARK  status: ('A' for Active; 'I' for Inactive)
REMARK    1  A    between atoms: C_8  and  C_9 
REMARK    2  A    between atoms: C_16  and  O_17 
REMARK    3  A    between atoms: C_24  and  N_25 
ROOT
HETATM    1  C   UNL     1      -7.283   4.095 -32.671  1.00  0.00     0.073 C 
HETATM    2  C   UNL     1      -8.434   4.240 -33.596  1.00  0.00     0.062 A 
HETATM    3  N   UNL     1      -8.577   5.353 -34.335  1.00  0.00    -0.177 NA
HETATM    4  N   UNL     1      -9.707   5.143 -35.042  1.00  0.00    -0.256 N 
HETATM    5  H   UNL     1     -10.031   5.865 -35.674  1.00  0.00     0.191 HD
HETATM    6  C   UNL     1     -10.270   3.936 -34.781  1.00  0.00     0.175 A 
HETATM    7  C   UNL     1      -9.473   3.316 -33.854  1.00  0.00     0.034 A 
HETATM    8  C   UNL     1      -9.838   1.963 -33.341  1.00  0.00     0.106 A 
HETATM    9  C   UNL     1     -11.158   1.497 -33.962  1.00  0.00     0.081 A 
HETATM   10  C   UNL     1     -11.681   0.258 -33.490  1.00  0.00     0.100 C 
HETATM   11  N   UNL     1     -12.117  -0.749 -33.111  1.00  0.00    -0.191 NA
HETATM   12  C   UNL     1     -11.847   2.231 -34.880  1.00  0.00     0.140 A 
HETATM   13  O   UNL     1     -11.388   3.482 -35.333  1.00  0.00    -0.279 OA
ENDROOT
BRANCH   8  14
HETATM   14  C   UNL     1      -8.659   1.037 -33.661  1.00  0.00    -0.033 A 
HETATM   15  C   UNL     1      -7.717   0.629 -32.666  1.00  0.00    -0.016 A 
HETATM   16  C   UNL     1      -6.639  -0.224 -33.045  1.00  0.00     0.008 A 
HETATM   17  C   UNL     1      -7.788   1.016 -31.301  1.00  0.00     0.013 A 
HETATM   18  C   UNL     1      -5.701  -0.622 -32.064  1.00  0.00     0.015 A 
HETATM   19  C   UNL     1      -6.517  -0.668 -34.385  1.00  0.00     0.079 A 
HETATM   20  C   UNL     1      -5.801  -0.217 -30.736  1.00  0.00     0.001 A 
HETATM   21  C   UNL     1      -6.847   0.602 -30.354  1.00  0.00     0.001 A 
HETATM   22  C   UNL     1      -7.466  -0.294 -35.333  1.00  0.00     0.038 A 
HETATM   23  C   UNL     1      -8.522   0.537 -34.974  1.00  0.00     0.012 A 
BRANCH  19  24
HETATM   24  O   UNL     1      -5.444  -1.481 -34.666  1.00  0.00    -0.355 OA
HETATM   25  C   UNL     1      -5.700  -2.857 -34.917  1.00  0.00     0.210 C 
ENDBRANCH  19  24
ENDBRANCH   8  14
BRANCH  12  26
HETATM   26  N   UNL     1     -13.040   1.865 -35.460  1.00  0.00    -0.282 NA
HETATM   27  H   UNL     1     -13.838   2.460 -35.243  1.00  0.00     0.126 HD
HETATM   28  H   UNL     1     -13.237   0.875 -35.345  1.00  0.00     0.126 HD
ENDBRANCH  12  26
TORSDOF 3
ENDMDL
MODEL 2
REMARK VINA RESULT:      -8.2      3.995      6.108
REMARK  3 active torsions:
REMARK  status: ('A' for Active; 'I' for Inactive)
REMARK    1  A    between atoms: C_8  and  C_9 
REMARK    2  A    between atoms: C_16  and  O_17 
REMARK    3  A    between atoms: C_24  and  N_25 
ROOT
HETATM    1  C   UNL     1      -8.380   2.039 -31.401  1.00  0.00     0.073 C 
HETATM    2  C   UNL     1      -7.515   2.966 -30.632  1.00  0.00     0.062 A 
HETATM    3  N   UNL     1      -7.911   3.430 -29.434  1.00  0.00    -0.177 NA
HETATM    4  N   UNL     1      -6.900   4.229 -29.034  1.00  0.00    -0.256 N 
HETATM    5  H   UNL     1      -6.978   4.709 -28.146  1.00  0.00     0.191 HD
HETATM    6  C   UNL     1      -5.883   4.275 -29.931  1.00  0.00     0.175 A 
HETATM    7  C   UNL     1      -6.238   3.465 -30.978  1.00  0.00     0.034 A 
HETATM    8  C   UNL     1      -5.327   3.317 -32.151  1.00  0.00     0.106 A 
HETATM    9  C   UNL     1      -4.084   4.195 -31.973  1.00  0.00     0.081 A 
HETATM   10  C   UNL     1      -3.166   4.228 -33.062  1.00  0.00     0.100 C 
HETATM   11  N   UNL     1      -2.413   4.264 -33.945  1.00  0.00    -0.191 NA
HETATM   12  C   UNL     1      -3.867   4.957 -30.864  1.00  0.00     0.140 A 
HETATM   13  O   UNL     1      -4.774   4.990 -29.789  1.00  0.00    -0.279 OA
ENDROOT
BRANCH   8  14
HETATM   14  C   UNL     1      -5.000   1.825 -32.270  1.00  0.00    -0.033 A 
HETATM   15  C   UNL     1      -5.614   0.984 -33.250  1.00  0.00    -0.016 A 
HETATM   16  C   UNL     1      -5.268  -0.398 -33.289  1.00  0.00     0.008 A 
HETATM   17  C   UNL     1      -6.556   1.443 -34.210  1.00  0.00     0.013 A 
HETATM   18  C   UNL     1      -5.880  -1.232 -34.253  1.00  0.00     0.015 A 
HETATM   19  C   UNL     1      -4.318  -0.922 -32.377  1.00  0.00     0.079 A 
HETATM   20  C   UNL     1      -6.803  -0.746 -35.174  1.00  0.00     0.001 A 
HETATM   21  C   UNL     1      -7.140   0.594 -35.154  1.00  0.00     0.001 A 
HETATM   22  C   UNL     1      -3.700  -0.083 -31.454  1.00  0.00     0.038 A 
HETATM   23  C   UNL     1      -4.030   1.268 -31.408  1.00  0.00     0.012 A 
BRANCH  19  24
HETATM   24  O   UNL     1      -4.049  -2.267 -32.478  1.00  0.00    -0.355 OA
HETATM   25  C   UNL     1      -2.918  -2.773 -31.781  1.00  0.00     0.210 C 
ENDBRANCH  19  24
ENDBRANCH   8  14
BRANCH  12  26
HETATM   26  N   UNL     1      -2.775   5.770 -30.658  1.00  0.00    -0.282 NA
HETATM   27  H   UNL     1      -2.695   6.569 -31.284  1.00  0.00     0.126 HD
HETATM   28  H   UNL     1      -1.911   5.241 -30.572  1.00  0.00     0.126 HD
ENDBRANCH  12  26
TORSDOF 3
ENDMDL
MODEL 3
REMARK VINA RESULT:      -8.0      4.172      6.230
REMARK  3 active torsions:
REMARK  status: ('A' for Active; 'I' for Inactive)
REMARK    1  A    between atoms: C_8  and  C_9 
REMARK    2  A    between atoms: C_16  and  O_17 
REMARK    3  A    between atoms: C_24  and  N_25 
ROOT
HETATM    1  C   UNL     1      -7.281   3.162 -29.933  1.00  0.00     0.073 C 
HETATM    2  C   UNL     1      -6.207   4.184 -29.897  1.00  0.00     0.062 A 
HETATM    3  N   UNL     1      -5.876   4.784 -28.741  1.00  0.00    -0.177 NA
HETATM    4  N   UNL     1      -4.884   5.635 -29.078  1.00  0.00    -0.256 N 
HETATM    5  H   UNL     1      -4.474   6.218 -28.358  1.00  0.00     0.191 HD
HETATM    6  C   UNL     1      -4.576   5.583 -30.398  1.00  0.00     0.175 A 
HETATM    7  C   UNL     1      -5.405   4.650 -30.965  1.00  0.00     0.034 A 
HETATM    8  C   UNL     1      -5.326   4.372 -32.429  1.00  0.00     0.106 A 
HETATM    9  C   UNL     1      -4.279   5.277 -33.087  1.00  0.00     0.081 A 
HETATM   10  C   UNL     1      -4.161   5.188 -34.505  1.00  0.00     0.100 C 
HETATM   11  N   UNL     1      -4.059   5.125 -35.659  1.00  0.00    -0.191 NA
HETATM   12  C   UNL     1      -3.524   6.168 -32.386  1.00  0.00     0.140 A 
HETATM   13  O   UNL     1      -3.647   6.321 -30.993  1.00  0.00    -0.279 OA
ENDROOT
BRANCH   8  14
HETATM   14  C   UNL     1      -5.012   2.879 -32.577  1.00  0.00    -0.033 A 
HETATM   15  C   UNL     1      -5.897   1.975 -33.245  1.00  0.00    -0.016 A 
HETATM   16  C   UNL     1      -5.541   0.598 -33.331  1.00  0.00     0.008 A 
HETATM   17  C   UNL     1      -7.123   2.366 -33.847  1.00  0.00     0.013 A 
HETATM   18  C   UNL     1      -6.418  -0.299 -33.985  1.00  0.00     0.015 A 
HETATM   19  C   UNL     1      -4.321   0.139 -32.774  1.00  0.00     0.079 A 
HETATM   20  C   UNL     1      -7.615   0.122 -34.557  1.00  0.00     0.001 A 
HETATM   21  C   UNL     1      -7.967   1.457 -34.490  1.00  0.00     0.001 A 
HETATM   22  C   UNL     1      -3.452   1.038 -32.162  1.00  0.00     0.038 A 
HETATM   23  C   UNL     1      -3.789   2.385 -32.074  1.00  0.00     0.012 A 
BRANCH  19  24
HETATM   24  O   UNL     1      -4.060  -1.206 -32.894  1.00  0.00    -0.355 OA
HETATM   25  C   UNL     1      -3.163  -1.795 -31.961  1.00  0.00     0.210 C 
ENDBRANCH  19  24
ENDBRANCH   8  14
BRANCH  12  26
HETATM   26  N   UNL     1      -2.579   7.011 -32.928  1.00  0.00    -0.282 NA
HETATM   27  H   UNL     1      -2.843   7.467 -33.799  1.00  0.00     0.126 HD
HETATM   28  H   UNL     1      -1.657   6.585 -32.962  1.00  0.00     0.126 HD
ENDBRANCH  12  26
TORSDOF 3
ENDMDL
MODEL 4
REMARK VINA RESULT:      -7.3      2.998      3.882
REMARK  3 active torsions:
REMARK  status: ('A' for Active; 'I' for Inactive)
REMARK    1  A    between atoms: C_8  and  C_9 
REMARK    2  A    between atoms: C_16  and  O_17 
REMARK    3  A    between atoms: C_24  and  N_25 
ROOT
HETATM    1  C   UNL     1      -7.868   3.517 -29.565  1.00  0.00     0.073 C 
HETATM    2  C   UNL     1      -9.024   3.568 -30.492  1.00  0.00     0.062 A 
HETATM    3  N   UNL     1     -10.105   4.307 -30.192  1.00  0.00    -0.177 NA
HETATM    4  N   UNL     1     -10.939   4.121 -31.236  1.00  0.00    -0.256 N 
HETATM    5  H   UNL     1     -11.842   4.579 -31.229  1.00  0.00     0.191 HD
HETATM    6  C   UNL     1     -10.416   3.301 -32.183  1.00  0.00     0.175 A 
HETATM    7  C   UNL     1      -9.174   2.926 -31.744  1.00  0.00     0.034 A 
HETATM    8  C   UNL     1      -8.341   1.998 -32.563  1.00  0.00     0.106 A 
HETATM    9  C   UNL     1      -9.101   1.572 -33.823  1.00  0.00     0.081 A 
HETATM   10  C   UNL     1      -8.464   0.607 -34.656  1.00  0.00     0.100 C 
HETATM   11  N   UNL     1      -7.954  -0.179 -35.341  1.00  0.00    -0.191 NA
HETATM   12  C   UNL     1     -10.346   2.033 -34.129  1.00  0.00     0.140 A 
HETATM   13  O   UNL     1     -11.029   2.946 -33.305  1.00  0.00    -0.279 OA
ENDROOT
BRANCH   8  14
HETATM   14  C   UNL     1      -7.031   2.733 -32.868  1.00  0.00    -0.033 A 
HETATM   15  C   UNL     1      -5.770   2.289 -32.362  1.00  0.00    -0.016 A 
HETATM   16  C   UNL     1      -4.597   3.035 -32.679  1.00  0.00     0.008 A 
HETATM   17  C   UNL     1      -5.603   1.130 -31.558  1.00  0.00     0.013 A 
HETATM   18  C   UNL     1      -3.349   2.601 -32.173  1.00  0.00     0.015 A 
HETATM   19  C   UNL     1      -4.685   4.190 -33.496  1.00  0.00     0.079 A 
HETATM   20  C   UNL     1      -3.226   1.463 -31.383  1.00  0.00     0.001 A 
HETATM   21  C   UNL     1      -4.355   0.724 -31.077  1.00  0.00     0.001 A 
HETATM   22  C   UNL     1      -5.915   4.587 -34.013  1.00  0.00     0.038 A 
HETATM   23  C   UNL     1      -7.065   3.865 -33.711  1.00  0.00     0.012 A 
BRANCH  19  24
HETATM   24  O   UNL     1      -3.507   4.855 -33.746  1.00  0.00    -0.355 OA
HETATM   25  C   UNL     1      -3.289   5.351 -35.060  1.00  0.00     0.210 C 
ENDBRANCH  19  24
ENDBRANCH   8  14
BRANCH  12  26
HETATM   26  N   UNL     1     -11.078   1.674 -35.239  1.00  0.00    -0.282 NA
HETATM   27  H   UNL     1     -12.019   2.058 -35.290  1.00  0.00     0.126 HD
HETATM   28  H   UNL     1     -11.043   0.674 -35.417  1.00  0.00     0.126 HD
ENDBRANCH  12  26
TORSDOF 3
ENDMDL
MODEL 5
REMARK VINA RESULT:      -7.3     14.846     16.989
REMARK  3 active torsions:
REMARK  status: ('A' for Active; 'I' for Inactive)
REMARK    1  A    between atoms: C_8  and  C_9 
REMARK    2  A    between atoms: C_16  and  O_17 
REMARK    3  A    between atoms: C_24  and  N_25 
ROOT
HETATM    1  C   UNL     1      -4.727 -15.005 -40.180  1.00  0.00     0.073 C 
HETATM    2  C   UNL     1      -4.217 -14.103 -39.119  1.00  0.00     0.062 A 
HETATM    3  N   UNL     1      -3.127 -13.348 -39.334  1.00  0.00    -0.177 NA
HETATM    4  N   UNL     1      -2.957 -12.670 -38.180  1.00  0.00    -0.256 N 
HETATM    5  H   UNL     1      -2.175 -12.032 -38.097  1.00  0.00     0.191 HD
HETATM    6  C   UNL     1      -3.905 -12.965 -37.255  1.00  0.00     0.175 A 
HETATM    7  C   UNL     1      -4.746 -13.885 -37.825  1.00  0.00     0.034 A 
HETATM    8  C   UNL     1      -5.895 -14.432 -37.045  1.00  0.00     0.106 A 
HETATM    9  C   UNL     1      -5.902 -13.849 -35.629  1.00  0.00     0.081 A 
HETATM   10  C   UNL     1      -6.892 -14.354 -34.737  1.00  0.00     0.100 C 
HETATM   11  N   UNL     1      -7.693 -14.761 -34.002  1.00  0.00    -0.191 NA
HETATM   12  C   UNL     1      -4.989 -12.933 -35.199  1.00  0.00     0.140 A 
HETATM   13  O   UNL     1      -3.967 -12.447 -36.035  1.00  0.00    -0.279 OA
ENDROOT
BRANCH   8  14
HETATM   14  C   UNL     1      -7.163 -14.103 -37.841  1.00  0.00    -0.033 A 
HETATM   15  C   UNL     1      -8.027 -15.120 -38.356  1.00  0.00    -0.016 A 
HETATM   16  C   UNL     1      -9.182 -14.734 -39.097  1.00  0.00     0.008 A 
HETATM   17  C   UNL     1      -7.812 -16.511 -38.168  1.00  0.00     0.013 A 
HETATM   18  C   UNL     1     -10.033 -15.739 -39.614  1.00  0.00     0.015 A 
HETATM   19  C   UNL     1      -9.472 -13.362 -39.305  1.00  0.00     0.079 A 
HETATM   20  C   UNL     1      -9.786 -17.094 -39.414  1.00  0.00     0.001 A 
HETATM   21  C   UNL     1      -8.675 -17.480 -38.687  1.00  0.00     0.001 A 
HETATM   22  C   UNL     1      -8.642 -12.384 -38.763  1.00  0.00     0.038 A 
HETATM   23  C   UNL     1      -7.513 -12.750 -38.037  1.00  0.00     0.012 A 
BRANCH  19  24
HETATM   24  O   UNL     1     -10.600 -13.079 -40.038  1.00  0.00    -0.355 OA
HETATM   25  C   UNL     1     -10.787 -11.741 -40.481  1.00  0.00     0.210 C 
ENDBRANCH  19  24
ENDBRANCH   8  14
BRANCH  12  26
HETATM   26  N   UNL     1      -4.944 -12.386 -33.937  1.00  0.00    -0.282 NA
HETATM   27  H   UNL     1      -4.732 -13.035 -33.182  1.00  0.00     0.126 HD
HETATM   28  H   UNL     1      -5.748 -11.795 -33.743  1.00  0.00     0.126 HD
ENDBRANCH  12  26
TORSDOF 3
ENDMDL
MODEL 6
REMARK VINA RESULT:      -7.3      2.846      5.915
REMARK  3 active torsions:
REMARK  status: ('A' for Active; 'I' for Inactive)
REMARK    1  A    between atoms: C_8  and  C_9 
REMARK    2  A    between atoms: C_16  and  O_17 
REMARK    3  A    between atoms: C_24  and  N_25 
ROOT
HETATM    1  C   UNL     1      -9.144   4.726 -31.182  1.00  0.00     0.073 C 
HETATM    2  C   UNL     1      -8.271   3.579 -30.835  1.00  0.00     0.062 A 
HETATM    3  N   UNL     1      -7.847   3.405 -29.571  1.00  0.00    -0.177 NA
HETATM    4  N   UNL     1      -7.091   2.289 -29.623  1.00  0.00    -0.256 N 
HETATM    5  H   UNL     1      -6.646   1.959 -28.775  1.00  0.00     0.191 HD
HETATM    6  C   UNL     1      -7.034   1.753 -30.868  1.00  0.00     0.175 A 
HETATM    7  C   UNL     1      -7.790   2.554 -31.683  1.00  0.00     0.034 A 
HETATM    8  C   UNL     1      -7.913   2.239 -33.136  1.00  0.00     0.106 A 
HETATM    9  C   UNL     1      -7.075   1.005 -33.485  1.00  0.00     0.081 A 
HETATM   10  C   UNL     1      -7.020   0.642 -34.862  1.00  0.00     0.100 C 
HETATM   11  N   UNL     1      -6.967   0.338 -35.982  1.00  0.00    -0.191 NA
HETATM   12  C   UNL     1      -6.365   0.304 -32.558  1.00  0.00     0.140 A 
HETATM   13  O   UNL     1      -6.354   0.662 -31.197  1.00  0.00    -0.279 OA
ENDROOT
BRANCH   8  14
HETATM   14  C   UNL     1      -9.407   2.056 -33.423  1.00  0.00    -0.033 A 
HETATM   15  C   UNL     1     -10.182   3.046 -34.103  1.00  0.00    -0.016 A 
HETATM   16  C   UNL     1     -11.570   2.808 -34.321  1.00  0.00     0.008 A 
HETATM   17  C   UNL     1      -9.650   4.270 -34.592  1.00  0.00     0.013 A 
HETATM   18  C   UNL     1     -12.340   3.791 -34.987  1.00  0.00     0.015 A 
HETATM   19  C   UNL     1     -12.165   1.599 -33.881  1.00  0.00     0.079 A 
HETATM   20  C   UNL     1     -11.783   4.981 -35.447  1.00  0.00     0.001 A 
HETATM   21  C   UNL     1     -10.436   5.219 -35.251  1.00  0.00     0.001 A 
HETATM   22  C   UNL     1     -11.389   0.627 -33.255  1.00  0.00     0.038 A 
HETATM   23  C   UNL     1     -10.032   0.849 -33.039  1.00  0.00     0.012 A 
BRANCH  19  24
HETATM   24  O   UNL     1     -13.511   1.454 -34.124  1.00  0.00    -0.355 OA
HETATM   25  C   UNL     1     -14.122   0.222 -33.766  1.00  0.00     0.210 C 
ENDBRANCH  19  24
ENDBRANCH   8  14
BRANCH  12  26
HETATM   26  N   UNL     1      -5.589  -0.803 -32.819  1.00  0.00    -0.282 NA
HETATM   27  H   UNL     1      -4.989  -1.112 -32.056  1.00  0.00     0.126 HD
HETATM   28  H   UNL     1      -5.100  -0.729 -33.707  1.00  0.00     0.126 HD
ENDBRANCH  12  26
TORSDOF 3
ENDMDL
MODEL 7
REMARK VINA RESULT:      -7.2      3.788      6.486
REMARK  3 active torsions:
REMARK  status: ('A' for Active; 'I' for Inactive)
REMARK    1  A    between atoms: C_8  and  C_9 
REMARK    2  A    between atoms: C_16  and  O_17 
REMARK    3  A    between atoms: C_24  and  N_25 
ROOT
HETATM    1  C   UNL     1      -5.541   5.395 -33.620  1.00  0.00     0.073 C 
HETATM    2  C   UNL     1      -4.457   4.745 -32.844  1.00  0.00     0.062 A 
HETATM    3  N   UNL     1      -3.430   5.471 -32.370  1.00  0.00    -0.177 NA
HETATM    4  N   UNL     1      -2.653   4.573 -31.730  1.00  0.00    -0.256 N 
HETATM    5  H   UNL     1      -1.797   4.891 -31.292  1.00  0.00     0.191 HD
HETATM    6  C   UNL     1      -3.159   3.315 -31.778  1.00  0.00     0.175 A 
HETATM    7  C   UNL     1      -4.331   3.383 -32.485  1.00  0.00     0.034 A 
HETATM    8  C   UNL     1      -5.127   2.145 -32.732  1.00  0.00     0.106 A 
HETATM    9  C   UNL     1      -4.415   0.926 -32.138  1.00  0.00     0.081 A 
HETATM   10  C   UNL     1      -5.015  -0.343 -32.380  1.00  0.00     0.100 C 
HETATM   11  N   UNL     1      -5.494  -1.383 -32.575  1.00  0.00    -0.191 NA
HETATM   12  C   UNL     1      -3.239   1.015 -31.454  1.00  0.00     0.140 A 
HETATM   13  O   UNL     1      -2.591   2.244 -31.237  1.00  0.00    -0.279 OA
ENDROOT
BRANCH   8  14
HETATM   14  C   UNL     1      -6.516   2.387 -32.129  1.00  0.00    -0.033 A 
HETATM   15  C   UNL     1      -7.717   1.979 -32.789  1.00  0.00    -0.016 A 
HETATM   16  C   UNL     1      -8.971   2.251 -32.170  1.00  0.00     0.008 A 
HETATM   17  C   UNL     1      -7.744   1.303 -34.038  1.00  0.00     0.013 A 
HETATM   18  C   UNL     1     -10.161   1.856 -32.826  1.00  0.00     0.015 A 
HETATM   19  C   UNL     1      -9.021   2.903 -30.912  1.00  0.00     0.079 A 
HETATM   20  C   UNL     1     -10.147   1.200 -34.053  1.00  0.00     0.001 A 
HETATM   21  C   UNL     1      -8.936   0.921 -34.659  1.00  0.00     0.001 A 
HETATM   22  C   UNL     1      -7.841   3.257 -30.264  1.00  0.00     0.038 A 
HETATM   23  C   UNL     1      -6.611   2.995 -30.859  1.00  0.00     0.012 A 
BRANCH  19  24
HETATM   24  O   UNL     1     -10.272   3.134 -30.390  1.00  0.00    -0.355 OA
HETATM   25  C   UNL     1     -10.799   4.450 -30.485  1.00  0.00     0.210 C 
ENDBRANCH  19  24
ENDBRANCH   8  14
BRANCH  12  26
HETATM   26  N   UNL     1      -2.552  -0.047 -30.910  1.00  0.00    -0.282 NA
HETATM   27  H   UNL     1      -1.565  -0.105 -31.152  1.00  0.00     0.126 HD
HETATM   28  H   UNL     1      -3.046  -0.928 -31.031  1.00  0.00     0.126 HD
ENDBRANCH  12  26
TORSDOF 3
ENDMDL
MODEL 8
REMARK VINA RESULT:      -7.2     15.379     17.336
REMARK  3 active torsions:
REMARK  status: ('A' for Active; 'I' for Inactive)
REMARK    1  A    between atoms: C_8  and  C_9 
REMARK    2  A    between atoms: C_16  and  O_17 
REMARK    3  A    between atoms: C_24  and  N_25 
ROOT
HETATM    1  C   UNL     1      -7.447 -13.217 -34.844  1.00  0.00     0.073 C 
HETATM    2  C   UNL     1      -6.041 -13.619 -35.093  1.00  0.00     0.062 A 
HETATM    3  N   UNL     1      -5.246 -13.981 -34.072  1.00  0.00    -0.177 NA
HETATM    4  N   UNL     1      -4.066 -14.275 -34.655  1.00  0.00    -0.256 N 
HETATM    5  H   UNL     1      -3.290 -14.567 -34.072  1.00  0.00     0.191 HD
HETATM    6  C   UNL     1      -4.095 -14.119 -36.003  1.00  0.00     0.175 A 
HETATM    7  C   UNL     1      -5.359 -13.702 -36.329  1.00  0.00     0.034 A 
HETATM    8  C   UNL     1      -5.709 -13.422 -37.752  1.00  0.00     0.106 A 
HETATM    9  C   UNL     1      -4.487 -13.630 -38.652  1.00  0.00     0.081 A 
HETATM   10  C   UNL     1      -4.649 -13.305 -40.031  1.00  0.00     0.100 C 
HETATM   11  N   UNL     1      -4.769 -13.042 -41.155  1.00  0.00    -0.191 NA
HETATM   12  C   UNL     1      -3.281 -14.051 -38.179  1.00  0.00     0.140 A 
HETATM   13  O   UNL     1      -3.069 -14.333 -36.817  1.00  0.00    -0.279 OA
ENDROOT
BRANCH   8  14
HETATM   14  C   UNL     1      -6.884 -14.340 -38.106  1.00  0.00    -0.033 A 
HETATM   15  C   UNL     1      -8.048 -13.864 -38.786  1.00  0.00    -0.016 A 
HETATM   16  C   UNL     1      -9.105 -14.777 -39.069  1.00  0.00     0.008 A 
HETATM   17  C   UNL     1      -8.222 -12.520 -39.213  1.00  0.00     0.013 A 
HETATM   18  C   UNL     1     -10.261 -14.306 -39.735  1.00  0.00     0.015 A 
HETATM   19  C   UNL     1      -8.992 -16.139 -38.693  1.00  0.00     0.079 A 
HETATM   20  C   UNL     1     -10.397 -12.979 -40.133  1.00  0.00     0.001 A 
HETATM   21  C   UNL     1      -9.375 -12.086 -39.874  1.00  0.00     0.001 A 
HETATM   22  C   UNL     1      -7.835 -16.596 -38.067  1.00  0.00     0.038 A 
HETATM   23  C   UNL     1      -6.797 -15.712 -37.787  1.00  0.00     0.012 A 
BRANCH  19  24
HETATM   24  O   UNL     1     -10.060 -16.950 -38.996  1.00  0.00    -0.355 OA
HETATM   25  C   UNL     1      -9.984 -18.319 -38.622  1.00  0.00     0.210 C 
ENDBRANCH  19  24
ENDBRANCH   8  14
BRANCH  12  26
HETATM   26  N   UNL     1      -2.150 -14.243 -38.940  1.00  0.00    -0.282 NA
HETATM   27  H   UNL     1      -2.296 -14.277 -39.947  1.00  0.00     0.126 HD
HETATM   28  H   UNL     1      -1.577 -15.008 -38.593  1.00  0.00     0.126 HD
ENDBRANCH  12  26
TORSDOF 3
ENDMDL
MODEL 9
REMARK VINA RESULT:      -7.1      2.805      4.992
REMARK  3 active torsions:
REMARK  status: ('A' for Active; 'I' for Inactive)
REMARK    1  A    between atoms: C_8  and  C_9 
REMARK    2  A    between atoms: C_16  and  O_17 
REMARK    3  A    between atoms: C_24  and  N_25 
ROOT
HETATM    1  C   UNL     1      -9.283  -0.333 -32.813  1.00  0.00     0.073 C 
HETATM    2  C   UNL     1     -10.592   0.238 -33.211  1.00  0.00     0.062 A 
HETATM    3  N   UNL     1     -11.716  -0.490 -33.096  1.00  0.00    -0.177 NA
HETATM    4  N   UNL     1     -12.692   0.329 -33.540  1.00  0.00    -0.256 N 
HETATM    5  H   UNL     1     -13.646  -0.012 -33.559  1.00  0.00     0.191 HD
HETATM    6  C   UNL     1     -12.223   1.544 -33.919  1.00  0.00     0.175 A 
HETATM    7  C   UNL     1     -10.868   1.531 -33.715  1.00  0.00     0.034 A 
HETATM    8  C   UNL     1     -10.049   2.730 -34.058  1.00  0.00     0.106 A 
HETATM    9  C   UNL     1     -10.935   3.827 -34.656  1.00  0.00     0.081 A 
HETATM   10  C   UNL     1     -10.272   5.000 -35.120  1.00  0.00     0.100 C 
HETATM   11  N   UNL     1      -9.741   5.958 -35.503  1.00  0.00    -0.191 NA
HETATM   12  C   UNL     1     -12.284   3.694 -34.800  1.00  0.00     0.140 A 
HETATM   13  O   UNL     1     -12.968   2.532 -34.400  1.00  0.00    -0.279 OA
ENDROOT
BRANCH   8  14
HETATM   14  C   UNL     1      -9.340   3.162 -32.770  1.00  0.00    -0.033 A 
HETATM   15  C   UNL     1      -7.919   3.105 -32.624  1.00  0.00    -0.016 A 
HETATM   16  C   UNL     1      -7.335   3.512 -31.389  1.00  0.00     0.008 A 
HETATM   17  C   UNL     1      -7.034   2.669 -33.646  1.00  0.00     0.013 A 
HETATM   18  C   UNL     1      -5.929   3.448 -31.240  1.00  0.00     0.015 A 
HETATM   19  C   UNL     1      -8.154   3.980 -30.331  1.00  0.00     0.079 A 
HETATM   20  C   UNL     1      -5.095   3.010 -32.264  1.00  0.00     0.001 A 
HETATM   21  C   UNL     1      -5.649   2.622 -33.470  1.00  0.00     0.001 A 
HETATM   22  C   UNL     1      -9.532   4.068 -30.503  1.00  0.00     0.038 A 
HETATM   23  C   UNL     1     -10.113   3.674 -31.705  1.00  0.00     0.012 A 
BRANCH  19  24
HETATM   24  O   UNL     1      -7.509   4.345 -29.172  1.00  0.00    -0.355 OA
HETATM   25  C   UNL     1      -7.782   5.633 -28.637  1.00  0.00     0.210 C 
ENDBRANCH  19  24
ENDBRANCH   8  14
BRANCH  12  26
HETATM   26  N   UNL     1     -13.124   4.642 -35.340  1.00  0.00    -0.282 NA
HETATM   27  H   UNL     1     -12.959   4.872 -36.318  1.00  0.00     0.126 HD
HETATM   28  H   UNL     1     -13.213   5.462 -34.746  1.00  0.00     0.126 HD
ENDBRANCH  12  26
TORSDOF 3
ENDMDL
MODEL 10
REMARK VINA RESULT:      -7.0      3.029      4.635
REMARK  3 active torsions:
REMARK  status: ('A' for Active; 'I' for Inactive)
REMARK    1  A    between atoms: C_8  and  C_9 
REMARK    2  A    between atoms: C_16  and  O_17 
REMARK    3  A    between atoms: C_24  and  N_25 
ROOT
HETATM    1  C   UNL     1      -9.876   1.646 -32.515  1.00  0.00     0.073 C 
HETATM    2  C   UNL     1      -9.000   2.563 -31.745  1.00  0.00     0.062 A 
HETATM    3  N   UNL     1      -9.291   2.870 -30.469  1.00  0.00    -0.177 NA
HETATM    4  N   UNL     1      -8.302   3.708 -30.094  1.00  0.00    -0.256 N 
HETATM    5  H   UNL     1      -8.314   4.089 -29.155  1.00  0.00     0.191 HD
HETATM    6  C   UNL     1      -7.399   3.929 -31.082  1.00  0.00     0.175 A 
HETATM    7  C   UNL     1      -7.810   3.200 -32.168  1.00  0.00     0.034 A 
HETATM    8  C   UNL     1      -7.029   3.247 -33.438  1.00  0.00     0.106 A 
HETATM    9  C   UNL     1      -5.841   4.204 -33.298  1.00  0.00     0.081 A 
HETATM   10  C   UNL     1      -5.058   4.423 -34.468  1.00  0.00     0.100 C 
HETATM   11  N   UNL     1      -4.414   4.610 -35.416  1.00  0.00    -0.191 NA
HETATM   12  C   UNL     1      -5.556   4.868 -32.142  1.00  0.00     0.140 A 
HETATM   13  O   UNL     1      -6.336   4.717 -30.981  1.00  0.00    -0.279 OA
ENDROOT
BRANCH   8  14
HETATM   14  C   UNL     1      -6.610   1.806 -33.751  1.00  0.00    -0.033 A 
HETATM   15  C   UNL     1      -5.648   1.102 -32.962  1.00  0.00    -0.016 A 
HETATM   16  C   UNL     1      -5.300  -0.232 -33.324  1.00  0.00     0.008 A 
HETATM   17  C   UNL     1      -5.011   1.649 -31.816  1.00  0.00     0.013 A 
HETATM   18  C   UNL     1      -4.343  -0.927 -32.549  1.00  0.00     0.015 A 
HETATM   19  C   UNL     1      -5.913  -0.851 -34.443  1.00  0.00     0.079 A 
HETATM   20  C   UNL     1      -3.736  -0.355 -31.435  1.00  0.00     0.001 A 
HETATM   21  C   UNL     1      -4.072   0.934 -31.067  1.00  0.00     0.001 A 
HETATM   22  C   UNL     1      -6.876  -0.165 -35.178  1.00  0.00     0.038 A 
HETATM   23  C   UNL     1      -7.224   1.137 -34.832  1.00  0.00     0.012 A 
BRANCH  19  24
HETATM   24  O   UNL     1      -5.513  -2.135 -34.728  1.00  0.00    -0.355 OA
HETATM   25  C   UNL     1      -6.502  -3.156 -34.719  1.00  0.00     0.210 C 
ENDBRANCH  19  24
ENDBRANCH   8  14
BRANCH  12  26
HETATM   26  N   UNL     1      -4.511   5.746 -31.966  1.00  0.00    -0.282 NA
HETATM   27  H   UNL     1      -4.708   6.554 -31.379  1.00  0.00     0.126 HD
HETATM   28  H   UNL     1      -4.059   5.989 -32.843  1.00  0.00     0.126 HD
ENDBRANCH  12  26
TORSDOF 3
ENDMDL
