MODEL 1
REMARK VINA RESULT:      -8.0      0.000      0.000
REMARK  8 active torsions:
REMARK  status: ('A' for Active; 'I' for Inactive)
REMARK    1  A    between atoms: CG_8  and  CB_9 
REMARK    2  A    between atoms: CB_9  and  CA_10 
REMARK    3  A    between atoms: CA_10  and  N_11 
REMARK    4  A    between atoms: CA_10  and  C_14 
REMARK    5  A    between atoms: N_11  and  C_19 
REMARK    6  A    between atoms: C_14  and  O_15 
REMARK    7  A    between atoms: C_19  and  C_20 
REMARK    8  A    between atoms: C_22  and  C_23 
ROOT
ATOM      1  CA  TRP A   1      -7.216   1.548 -31.949  1.00  0.00     0.214 C 
ENDROOT
BRANCH   1   2
ATOM      2  CB  TRP A   1      -6.673   0.391 -31.106  1.00  0.00     0.076 C 
BRANCH   2   3
ATOM      3  CG  TRP A   1      -5.621  -0.394 -31.819  1.00  0.00    -0.028 A 
ATOM      4  CD2 TRP A   1      -5.801  -1.237 -32.963  1.00  0.00    -0.002 A 
ATOM      5  CE3 TRP A   1      -6.905  -1.585 -33.770  1.00  0.00     0.014 A 
ATOM      6  CE2 TRP A   1      -4.558  -1.794 -33.267  1.00  0.00     0.042 A 
ATOM      7  CZ3 TRP A   1      -6.729  -2.482 -34.831  1.00  0.00     0.001 A 
ATOM      8  CH2 TRP A   1      -5.476  -3.027 -35.099  1.00  0.00     0.002 A 
ATOM      9  CZ2 TRP A   1      -4.364  -2.689 -34.323  1.00  0.00     0.030 A 
ATOM     10  NE1 TRP A   1      -3.650  -1.286 -32.367  1.00  0.00    -0.365 N 
ATOM     11  HE1 TRP A   1      -2.662  -1.501 -32.369  1.00  0.00     0.165 HD
ATOM     12  CD1 TRP A   1      -4.282  -0.448 -31.485  1.00  0.00     0.096 A 
ENDBRANCH   2   3
ENDBRANCH   1   2
BRANCH   1  13
ATOM     13  N   TRP A   1      -6.375   2.795 -31.769  1.00  0.00    -0.064 N 
ATOM     14  H1  TRP A   1      -7.072   3.535 -31.551  1.00  0.00     0.278 HD
ATOM     15  H2  TRP A   1      -5.799   2.739 -30.921  1.00  0.00     0.278 HD
BRANCH  13  16
HETATM   16  C   UNK A   0      -5.553   3.237 -32.924  1.00  0.00     0.280 C 
BRANCH  16  17
HETATM   17  C   UNK A   0      -4.190   3.635 -32.493  1.00  0.00     0.027 A 
HETATM   18  S   UNK A   0      -3.354   4.928 -33.258  1.00  0.00    -0.076 SA
HETATM   19  C   UNK A   0      -2.009   4.654 -32.228  1.00  0.00     0.079 A 
HETATM   20  N   UNK A   0      -2.156   3.679 -31.359  1.00  0.00    -0.257 NA
HETATM   21  C   UNK A   0      -3.400   3.105 -31.495  1.00  0.00     0.133 A 
BRANCH  19  22
HETATM   22  C   UNK A   0      -0.727   5.481 -32.330  1.00  0.00     0.045 C 
HETATM   23  C   UNK A   0      -0.879   6.958 -31.853  1.00  0.00     0.011 C 
HETATM   24  C   UNK A   0       0.519   6.826 -31.224  1.00  0.00     0.002 C 
HETATM   25  C   UNK A   0       0.228   5.320 -31.107  1.00  0.00     0.011 C 
ENDBRANCH  19  22
ENDBRANCH  16  17
ENDBRANCH  13  16
ENDBRANCH   1  13
BRANCH   1  26
ATOM     26  C   TRP A   1      -8.656   1.963 -31.582  1.00  0.00     0.197 C 
BRANCH  26  27
ATOM     27  O   TRP A   1      -9.294   0.808 -31.013  1.00  0.00    -0.399 OA
ATOM     28  H   TRP A   1      -9.858   1.133 -30.279  1.00  0.00     0.209 HD
ENDBRANCH  26  27
ENDBRANCH   1  26
TORSDOF 8
ENDMDL
MODEL 2
REMARK VINA RESULT:      -7.8      1.755      2.254
REMARK  8 active torsions:
REMARK  status: ('A' for Active; 'I' for Inactive)
REMARK    1  A    between atoms: CG_8  and  CB_9 
REMARK    2  A    between atoms: CB_9  and  CA_10 
REMARK    3  A    between atoms: CA_10  and  N_11 
REMARK    4  A    between atoms: CA_10  and  C_14 
REMARK    5  A    between atoms: N_11  and  C_19 
REMARK    6  A    between atoms: C_14  and  O_15 
REMARK    7  A    between atoms: C_19  and  C_20 
REMARK    8  A    between atoms: C_22  and  C_23 
ROOT
ATOM      1  CA  TRP A   1      -7.175   1.340 -33.786  1.00  0.00     0.214 C 
ENDROOT
BRANCH   1   2
ATOM      2  CB  TRP A   1      -7.327  -0.097 -34.293  1.00  0.00     0.076 C 
BRANCH   2   3
ATOM      3  CG  TRP A   1      -6.087  -0.907 -34.106  1.00  0.00    -0.028 A 
ATOM      4  CD2 TRP A   1      -5.932  -2.313 -34.332  1.00  0.00    -0.002 A 
ATOM      5  CE3 TRP A   1      -6.785  -3.340 -34.788  1.00  0.00     0.014 A 
ATOM      6  CE2 TRP A   1      -4.618  -2.644 -33.997  1.00  0.00     0.042 A 
ATOM      7  CZ3 TRP A   1      -6.302  -4.652 -34.873  1.00  0.00     0.001 A 
ATOM      8  CH2 TRP A   1      -4.988  -4.949 -34.520  1.00  0.00     0.002 A 
ATOM      9  CZ2 TRP A   1      -4.119  -3.948 -34.079  1.00  0.00     0.030 A 
ATOM     10  NE1 TRP A   1      -3.987  -1.483 -33.614  1.00  0.00    -0.365 N 
ATOM     11  HE1 TRP A   1      -3.015  -1.425 -33.341  1.00  0.00     0.165 HD
ATOM     12  CD1 TRP A   1      -4.865  -0.432 -33.668  1.00  0.00     0.096 A 
ENDBRANCH   2   3
ENDBRANCH   1   2
BRANCH   1  13
ATOM     13  N   TRP A   1      -7.192   1.388 -32.273  1.00  0.00    -0.064 N 
ATOM     14  H1  TRP A   1      -8.186   1.200 -32.030  1.00  0.00     0.278 HD
ATOM     15  H2  TRP A   1      -6.684   0.594 -31.867  1.00  0.00     0.278 HD
BRANCH  13  16
HETATM   16  C   UNK A   0      -6.772   2.656 -31.624  1.00  0.00     0.280 C 
BRANCH  16  17
HETATM   17  C   UNK A   0      -5.329   2.921 -31.842  1.00  0.00     0.027 A 
HETATM   18  S   UNK A   0      -4.798   4.072 -33.004  1.00  0.00    -0.076 SA
HETATM   19  C   UNK A   0      -3.170   3.702 -32.612  1.00  0.00     0.079 A 
HETATM   20  N   UNK A   0      -3.009   2.794 -31.674  1.00  0.00    -0.257 NA
HETATM   21  C   UNK A   0      -4.234   2.356 -31.223  1.00  0.00     0.133 A 
BRANCH  19  22
HETATM   22  C   UNK A   0      -1.992   4.374 -33.318  1.00  0.00     0.045 C 
HETATM   23  C   UNK A   0      -2.369   5.090 -34.651  1.00  0.00     0.011 C 
HETATM   24  C   UNK A   0      -1.391   6.207 -34.248  1.00  0.00     0.002 C 
HETATM   25  C   UNK A   0      -1.673   5.807 -32.790  1.00  0.00     0.011 C 
ENDBRANCH  19  22
ENDBRANCH  16  17
ENDBRANCH  13  16
ENDBRANCH   1  13
BRANCH   1  26
ATOM     26  C   TRP A   1      -8.305   2.285 -34.244  1.00  0.00     0.197 C 
BRANCH  26  27
ATOM     27  O   TRP A   1      -9.358   1.458 -34.766  1.00  0.00    -0.399 OA
ATOM     28  H   TRP A   1      -9.658   1.879 -35.600  1.00  0.00     0.209 HD
ENDBRANCH  26  27
ENDBRANCH   1  26
TORSDOF 8
ENDMDL
MODEL 3
REMARK VINA RESULT:      -7.7      3.591      7.179
REMARK  8 active torsions:
REMARK  status: ('A' for Active; 'I' for Inactive)
REMARK    1  A    between atoms: CG_8  and  CB_9 
REMARK    2  A    between atoms: CB_9  and  CA_10 
REMARK    3  A    between atoms: CA_10  and  N_11 
REMARK    4  A    between atoms: CA_10  and  C_14 
REMARK    5  A    between atoms: N_11  and  C_19 
REMARK    6  A    between atoms: C_14  and  O_15 
REMARK    7  A    between atoms: C_19  and  C_20 
REMARK    8  A    between atoms: C_22  and  C_23 
ROOT
ATOM      1  CA  TRP A   1      -5.878   1.297 -31.103  1.00  0.00     0.214 C 
ENDROOT
BRANCH   1   2
ATOM      2  CB  TRP A   1      -5.845   0.957 -32.597  1.00  0.00     0.076 C 
BRANCH   2   3
ATOM      3  CG  TRP A   1      -5.040  -0.266 -32.889  1.00  0.00    -0.028 A 
ATOM      4  CD2 TRP A   1      -5.464  -1.424 -33.619  1.00  0.00    -0.002 A 
ATOM      5  CE3 TRP A   1      -6.655  -1.792 -34.280  1.00  0.00     0.014 A 
ATOM      6  CE2 TRP A   1      -4.401  -2.327 -33.616  1.00  0.00     0.042 A 
ATOM      7  CZ3 TRP A   1      -6.743  -3.049 -34.893  1.00  0.00     0.001 A 
ATOM      8  CH2 TRP A   1      -5.666  -3.931 -34.862  1.00  0.00     0.002 A 
ATOM      9  CZ2 TRP A   1      -4.472  -3.584 -34.225  1.00  0.00     0.030 A 
ATOM     10  NE1 TRP A   1      -3.360  -1.734 -32.942  1.00  0.00    -0.365 N 
ATOM     11  HE1 TRP A   1      -2.450  -2.157 -32.809  1.00  0.00     0.165 HD
ATOM     12  CD1 TRP A   1      -3.736  -0.495 -32.493  1.00  0.00     0.096 A 
ENDBRANCH   2   3
ENDBRANCH   1   2
BRANCH   1  13
ATOM     13  N   TRP A   1      -7.299   1.515 -30.626  1.00  0.00    -0.064 N 
ATOM     14  H1  TRP A   1      -7.717   0.562 -30.650  1.00  0.00     0.278 HD
ATOM     15  H2  TRP A   1      -7.325   1.772 -29.633  1.00  0.00     0.278 HD
BRANCH  13  16
HETATM   16  C   UNK A   0      -8.154   2.432 -31.421  1.00  0.00     0.280 C 
BRANCH  16  17
HETATM   17  C   UNK A   0      -9.229   1.691 -32.126  1.00  0.00     0.027 A 
HETATM   18  S   UNK A   0     -10.468   2.517 -32.985  1.00  0.00    -0.076 SA
HETATM   19  C   UNK A   0     -11.182   1.009 -33.385  1.00  0.00     0.079 A 
HETATM   20  N   UNK A   0     -10.551  -0.050 -32.930  1.00  0.00    -0.257 NA
HETATM   21  C   UNK A   0      -9.431   0.330 -32.225  1.00  0.00     0.133 A 
BRANCH  19  22
HETATM   22  C   UNK A   0     -12.471   0.913 -34.201  1.00  0.00     0.045 C 
HETATM   23  C   UNK A   0     -13.415  -0.251 -33.773  1.00  0.00     0.011 C 
HETATM   24  C   UNK A   0     -14.594   0.710 -34.008  1.00  0.00     0.002 C 
HETATM   25  C   UNK A   0     -13.611   1.851 -33.696  1.00  0.00     0.011 C 
ENDBRANCH  19  22
ENDBRANCH  16  17
ENDBRANCH  13  16
ENDBRANCH   1  13
BRANCH   1  26
ATOM     26  C   TRP A   1      -5.117   2.590 -30.742  1.00  0.00     0.197 C 
BRANCH  26  27
ATOM     27  O   TRP A   1      -5.396   2.870 -29.361  1.00  0.00    -0.399 OA
ATOM     28  H   TRP A   1      -5.651   2.017 -28.948  1.00  0.00     0.209 HD
ENDBRANCH  26  27
ENDBRANCH   1  26
TORSDOF 8
ENDMDL
MODEL 4
REMARK VINA RESULT:      -7.6      1.764      2.289
REMARK  8 active torsions:
REMARK  status: ('A' for Active; 'I' for Inactive)
REMARK    1  A    between atoms: CG_8  and  CB_9 
REMARK    2  A    between atoms: CB_9  and  CA_10 
REMARK    3  A    between atoms: CA_10  and  N_11 
REMARK    4  A    between atoms: CA_10  and  C_14 
REMARK    5  A    between atoms: N_11  and  C_19 
REMARK    6  A    between atoms: C_14  and  O_15 
REMARK    7  A    between atoms: C_19  and  C_20 
REMARK    8  A    between atoms: C_22  and  C_23 
ROOT
ATOM      1  CA  TRP A   1      -5.752   2.333 -31.504  1.00  0.00     0.214 C 
ENDROOT
BRANCH   1   2
ATOM      2  CB  TRP A   1      -5.021   1.193 -32.220  1.00  0.00     0.076 C 
BRANCH   2   3
ATOM      3  CG  TRP A   1      -5.957   0.213 -32.846  1.00  0.00    -0.028 A 
ATOM      4  CD2 TRP A   1      -5.614  -1.025 -33.481  1.00  0.00    -0.002 A 
ATOM      5  CE3 TRP A   1      -4.405  -1.716 -33.706  1.00  0.00     0.014 A 
ATOM      6  CE2 TRP A   1      -6.799  -1.593 -33.949  1.00  0.00     0.042 A 
ATOM      7  CZ3 TRP A   1      -4.425  -2.932 -34.401  1.00  0.00     0.001 A 
ATOM      8  CH2 TRP A   1      -5.626  -3.466 -34.864  1.00  0.00     0.002 A 
ATOM      9  CZ2 TRP A   1      -6.837  -2.807 -34.642  1.00  0.00     0.030 A 
ATOM     10  NE1 TRP A   1      -7.827  -0.755 -33.586  1.00  0.00    -0.365 N 
ATOM     11  HE1 TRP A   1      -8.805  -0.934 -33.776  1.00  0.00     0.165 HD
ATOM     12  CD1 TRP A   1      -7.331   0.341 -32.928  1.00  0.00     0.096 A 
ENDBRANCH   2   3
ENDBRANCH   1   2
BRANCH   1  13
ATOM     13  N   TRP A   1      -5.285   3.681 -32.010  1.00  0.00    -0.064 N 
ATOM     14  H1  TRP A   1      -6.167   4.219 -32.136  1.00  0.00     0.278 HD
ATOM     15  H2  TRP A   1      -4.780   4.200 -31.283  1.00  0.00     0.278 HD
BRANCH  13  16
HETATM   16  C   UNK A   0      -4.524   3.707 -33.286  1.00  0.00     0.280 C 
BRANCH  16  17
HETATM   17  C   UNK A   0      -3.198   4.349 -33.109  1.00  0.00     0.027 A 
HETATM   18  S   UNK A   0      -2.529   4.599 -31.545  1.00  0.00    -0.076 SA
HETATM   19  C   UNK A   0      -1.160   5.344 -32.261  1.00  0.00     0.079 A 
HETATM   20  N   UNK A   0      -1.173   5.402 -33.574  1.00  0.00    -0.257 NA
HETATM   21  C   UNK A   0      -2.324   4.825 -34.063  1.00  0.00     0.133 A 
BRANCH  19  22
HETATM   22  C   UNK A   0      -0.013   5.911 -31.423  1.00  0.00     0.045 C 
HETATM   23  C   UNK A   0      -0.415   7.120 -30.524  1.00  0.00     0.011 C 
HETATM   24  C   UNK A   0       0.496   6.525 -29.436  1.00  0.00     0.002 C 
HETATM   25  C   UNK A   0       0.221   5.155 -30.079  1.00  0.00     0.011 C 
ENDBRANCH  19  22
ENDBRANCH  16  17
ENDBRANCH  13  16
ENDBRANCH   1  13
BRANCH   1  26
ATOM     26  C   TRP A   1      -5.522   2.359 -29.979  1.00  0.00     0.197 C 
BRANCH  26  27
ATOM     27  O   TRP A   1      -6.522   1.514 -29.389  1.00  0.00    -0.399 OA
ATOM     28  H   TRP A   1      -6.948   1.026 -30.126  1.00  0.00     0.209 HD
ENDBRANCH  26  27
ENDBRANCH   1  26
TORSDOF 8
ENDMDL
MODEL 5
REMARK VINA RESULT:      -7.6      2.228      3.014
REMARK  8 active torsions:
REMARK  status: ('A' for Active; 'I' for Inactive)
REMARK    1  A    between atoms: CG_8  and  CB_9 
REMARK    2  A    between atoms: CB_9  and  CA_10 
REMARK    3  A    between atoms: CA_10  and  N_11 
REMARK    4  A    between atoms: CA_10  and  C_14 
REMARK    5  A    between atoms: N_11  and  C_19 
REMARK    6  A    between atoms: C_14  and  O_15 
REMARK    7  A    between atoms: C_19  and  C_20 
REMARK    8  A    between atoms: C_22  and  C_23 
ROOT
ATOM      1  CA  TRP A   1      -5.097   0.455 -31.837  1.00  0.00     0.214 C 
ENDROOT
BRANCH   1   2
ATOM      2  CB  TRP A   1      -4.622   0.122 -33.255  1.00  0.00     0.076 C 
BRANCH   2   3
ATOM      3  CG  TRP A   1      -5.369  -1.021 -33.858  1.00  0.00    -0.028 A 
ATOM      4  CD2 TRP A   1      -4.960  -2.393 -33.899  1.00  0.00    -0.002 A 
ATOM      5  CE3 TRP A   1      -3.840  -3.105 -33.419  1.00  0.00     0.014 A 
ATOM      6  CE2 TRP A   1      -5.948  -3.099 -34.587  1.00  0.00     0.042 A 
ATOM      7  CZ3 TRP A   1      -3.743  -4.481 -33.659  1.00  0.00     0.001 A 
ATOM      8  CH2 TRP A   1      -4.743  -5.153 -34.358  1.00  0.00     0.002 A 
ATOM      9  CZ2 TRP A   1      -5.868  -4.474 -34.832  1.00  0.00     0.030 A 
ATOM     10  NE1 TRP A   1      -6.935  -2.202 -34.922  1.00  0.00    -0.365 N 
ATOM     11  HE1 TRP A   1      -7.788  -2.446 -35.408  1.00  0.00     0.165 HD
ATOM     12  CD1 TRP A   1      -6.592  -0.945 -34.496  1.00  0.00     0.096 A 
ENDBRANCH   2   3
ENDBRANCH   1   2
BRANCH   1  13
ATOM     13  N   TRP A   1      -5.335   1.942 -31.678  1.00  0.00    -0.064 N 
ATOM     14  H1  TRP A   1      -5.998   2.003 -30.878  1.00  0.00     0.278 HD
ATOM     15  H2  TRP A   1      -4.493   2.422 -31.339  1.00  0.00     0.278 HD
BRANCH  13  16
HETATM   16  C   UNK A   0      -5.914   2.669 -32.835  1.00  0.00     0.280 C 
BRANCH  16  17
HETATM   17  C   UNK A   0      -4.980   3.705 -33.342  1.00  0.00     0.027 A 
HETATM   18  S   UNK A   0      -3.389   3.859 -32.709  1.00  0.00    -0.076 SA
HETATM   19  C   UNK A   0      -3.110   5.186 -33.759  1.00  0.00     0.079 A 
HETATM   20  N   UNK A   0      -4.115   5.503 -34.545  1.00  0.00    -0.257 NA
HETATM   21  C   UNK A   0      -5.177   4.655 -34.322  1.00  0.00     0.133 A 
BRANCH  19  22
HETATM   22  C   UNK A   0      -1.787   5.952 -33.765  1.00  0.00     0.045 C 
HETATM   23  C   UNK A   0      -1.901   7.432 -33.286  1.00  0.00     0.011 C 
HETATM   24  C   UNK A   0      -0.558   7.230 -32.563  1.00  0.00     0.002 C 
HETATM   25  C   UNK A   0      -0.927   5.738 -32.481  1.00  0.00     0.011 C 
ENDBRANCH  19  22
ENDBRANCH  16  17
ENDBRANCH  13  16
ENDBRANCH   1  13
BRANCH   1  26
ATOM     26  C   TRP A   1      -4.085   0.076 -30.736  1.00  0.00     0.197 C 
BRANCH  26  27
ATOM     27  O   TRP A   1      -2.808   0.592 -31.144  1.00  0.00    -0.399 OA
ATOM     28  H   TRP A   1      -2.172  -0.153 -31.082  1.00  0.00     0.209 HD
ENDBRANCH  26  27
ENDBRANCH   1  26
TORSDOF 8
ENDMDL
MODEL 6
REMARK VINA RESULT:      -7.5      2.065      2.664
REMARK  8 active torsions:
REMARK  status: ('A' for Active; 'I' for Inactive)
REMARK    1  A    between atoms: CG_8  and  CB_9 
REMARK    2  A    between atoms: CB_9  and  CA_10 
REMARK    3  A    between atoms: CA_10  and  N_11 
REMARK    4  A    between atoms: CA_10  and  C_14 
REMARK    5  A    between atoms: N_11  and  C_19 
REMARK    6  A    between atoms: C_14  and  O_15 
REMARK    7  A    between atoms: C_19  and  C_20 
REMARK    8  A    between atoms: C_22  and  C_23 
ROOT
ATOM      1  CA  TRP A   1      -7.014   0.511 -32.332  1.00  0.00     0.214 C 
ENDROOT
BRANCH   1   2
ATOM      2  CB  TRP A   1      -6.098   0.473 -33.560  1.00  0.00     0.076 C 
BRANCH   2   3
ATOM      3  CG  TRP A   1      -5.230  -0.741 -33.591  1.00  0.00    -0.028 A 
ATOM      4  CD2 TRP A   1      -5.589  -2.047 -34.061  1.00  0.00    -0.002 A 
ATOM      5  CE3 TRP A   1      -6.754  -2.607 -34.626  1.00  0.00     0.014 A 
ATOM      6  CE2 TRP A   1      -4.482  -2.874 -33.871  1.00  0.00     0.042 A 
ATOM      7  CZ3 TRP A   1      -6.773  -3.966 -34.962  1.00  0.00     0.001 A 
ATOM      8  CH2 TRP A   1      -5.653  -4.766 -34.750  1.00  0.00     0.002 A 
ATOM      9  CZ2 TRP A   1      -4.483  -4.233 -34.203  1.00  0.00     0.030 A 
ATOM     10  NE1 TRP A   1      -3.477  -2.099 -33.340  1.00  0.00    -0.365 N 
ATOM     11  HE1 TRP A   1      -2.548  -2.438 -33.124  1.00  0.00     0.165 HD
ATOM     12  CD1 TRP A   1      -3.920  -0.815 -33.159  1.00  0.00     0.096 A 
ENDBRANCH   2   3
ENDBRANCH   1   2
BRANCH   1  13
ATOM     13  N   TRP A   1      -7.915   1.727 -32.363  1.00  0.00    -0.064 N 
ATOM     14  H1  TRP A   1      -7.994   1.951 -33.376  1.00  0.00     0.278 HD
ATOM     15  H2  TRP A   1      -8.875   1.489 -32.086  1.00  0.00     0.278 HD
BRANCH  13  16
HETATM   16  C   UNK A   0      -7.454   2.939 -31.639  1.00  0.00     0.280 C 
BRANCH  16  17
HETATM   17  C   UNK A   0      -6.572   3.772 -32.492  1.00  0.00     0.027 A 
HETATM   18  S   UNK A   0      -4.940   4.086 -32.051  1.00  0.00    -0.076 SA
HETATM   19  C   UNK A   0      -4.755   5.048 -33.459  1.00  0.00     0.079 A 
HETATM   20  N   UNK A   0      -5.819   5.134 -34.226  1.00  0.00    -0.257 NA
HETATM   21  C   UNK A   0      -6.852   4.399 -33.688  1.00  0.00     0.133 A 
BRANCH  19  22
HETATM   22  C   UNK A   0      -3.444   5.765 -33.786  1.00  0.00     0.045 C 
HETATM   23  C   UNK A   0      -2.207   5.224 -33.006  1.00  0.00     0.011 C 
HETATM   24  C   UNK A   0      -1.396   5.409 -34.300  1.00  0.00     0.002 C 
HETATM   25  C   UNK A   0      -2.722   5.215 -35.055  1.00  0.00     0.011 C 
ENDBRANCH  19  22
ENDBRANCH  16  17
ENDBRANCH  13  16
ENDBRANCH   1  13
BRANCH   1  26
ATOM     26  C   TRP A   1      -6.254   0.591 -30.991  1.00  0.00     0.197 C 
BRANCH  26  27
ATOM     27  O   TRP A   1      -6.962  -0.240 -30.057  1.00  0.00    -0.399 OA
ATOM     28  H   TRP A   1      -7.409  -0.936 -30.585  1.00  0.00     0.209 HD
ENDBRANCH  26  27
ENDBRANCH   1  26
TORSDOF 8
ENDMDL
MODEL 7
REMARK VINA RESULT:      -7.4      2.405      3.247
REMARK  8 active torsions:
REMARK  status: ('A' for Active; 'I' for Inactive)
REMARK    1  A    between atoms: CG_8  and  CB_9 
REMARK    2  A    between atoms: CB_9  and  CA_10 
REMARK    3  A    between atoms: CA_10  and  N_11 
REMARK    4  A    between atoms: CA_10  and  C_14 
REMARK    5  A    between atoms: N_11  and  C_19 
REMARK    6  A    between atoms: C_14  and  O_15 
REMARK    7  A    between atoms: C_19  and  C_20 
REMARK    8  A    between atoms: C_22  and  C_23 
ROOT
ATOM      1  CA  TRP A   1      -4.521   2.585 -31.488  1.00  0.00     0.214 C 
ENDROOT
BRANCH   1   2
ATOM      2  CB  TRP A   1      -4.721   1.126 -31.065  1.00  0.00     0.076 C 
BRANCH   2   3
ATOM      3  CG  TRP A   1      -5.730   0.417 -31.906  1.00  0.00    -0.028 A 
ATOM      4  CD2 TRP A   1      -5.491  -0.667 -32.812  1.00  0.00    -0.002 A 
ATOM      5  CE3 TRP A   1      -4.349  -1.404 -33.189  1.00  0.00     0.014 A 
ATOM      6  CE2 TRP A   1      -6.713  -0.989 -33.404  1.00  0.00     0.042 A 
ATOM      7  CZ3 TRP A   1      -4.468  -2.417 -34.150  1.00  0.00     0.001 A 
ATOM      8  CH2 TRP A   1      -5.701  -2.705 -34.728  1.00  0.00     0.002 A 
ATOM      9  CZ2 TRP A   1      -6.849  -1.998 -34.363  1.00  0.00     0.030 A 
ATOM     10  NE1 TRP A   1      -7.665  -0.160 -32.858  1.00  0.00    -0.365 N 
ATOM     11  HE1 TRP A   1      -8.649  -0.191 -33.089  1.00  0.00     0.165 HD
ATOM     12  CD1 TRP A   1      -7.082   0.697 -31.961  1.00  0.00     0.096 A 
ENDBRANCH   2   3
ENDBRANCH   1   2
BRANCH   1  13
ATOM     13  N   TRP A   1      -3.100   3.037 -31.224  1.00  0.00    -0.064 N 
ATOM     14  H1  TRP A   1      -3.112   3.321 -30.223  1.00  0.00     0.278 HD
ATOM     15  H2  TRP A   1      -2.444   2.248 -31.251  1.00  0.00     0.278 HD
BRANCH  13  16
HETATM   16  C   UNK A   0      -2.581   4.168 -32.036  1.00  0.00     0.280 C 
BRANCH  16  17
HETATM   17  C   UNK A   0      -2.014   5.233 -31.173  1.00  0.00     0.027 A 
HETATM   18  S   UNK A   0      -0.329   5.307 -30.836  1.00  0.00    -0.076 SA
HETATM   19  C   UNK A   0      -0.597   6.684 -29.850  1.00  0.00     0.079 A 
HETATM   20  N   UNK A   0      -1.846   7.086 -29.771  1.00  0.00    -0.257 NA
HETATM   21  C   UNK A   0      -2.655   6.273 -30.534  1.00  0.00     0.133 A 
BRANCH  19  22
HETATM   22  C   UNK A   0       0.541   7.383 -29.104  1.00  0.00     0.045 C 
HETATM   23  C   UNK A   0       0.087   8.588 -28.226  1.00  0.00     0.011 C 
HETATM   24  C   UNK A   0       1.108   8.120 -27.175  1.00  0.00     0.002 C 
HETATM   25  C   UNK A   0       0.919   6.705 -27.751  1.00  0.00     0.011 C 
ENDBRANCH  19  22
ENDBRANCH  16  17
ENDBRANCH  13  16
ENDBRANCH   1  13
BRANCH   1  26
ATOM     26  C   TRP A   1      -5.422   3.582 -30.730  1.00  0.00     0.197 C 
BRANCH  26  27
ATOM     27  O   TRP A   1      -5.229   3.339 -29.327  1.00  0.00    -0.399 OA
ATOM     28  H   TRP A   1      -6.123   3.301 -28.924  1.00  0.00     0.209 HD
ENDBRANCH  26  27
ENDBRANCH   1  26
TORSDOF 8
ENDMDL
MODEL 8
REMARK VINA RESULT:      -7.2      1.858      2.617
REMARK  8 active torsions:
REMARK  status: ('A' for Active; 'I' for Inactive)
REMARK    1  A    between atoms: CG_8  and  CB_9 
REMARK    2  A    between atoms: CB_9  and  CA_10 
REMARK    3  A    between atoms: CA_10  and  N_11 
REMARK    4  A    between atoms: CA_10  and  C_14 
REMARK    5  A    between atoms: N_11  and  C_19 
REMARK    6  A    between atoms: C_14  and  O_15 
REMARK    7  A    between atoms: C_19  and  C_20 
REMARK    8  A    between atoms: C_22  and  C_23 
ROOT
ATOM      1  CA  TRP A   1      -7.386   0.924 -33.223  1.00  0.00     0.214 C 
ENDROOT
BRANCH   1   2
ATOM      2  CB  TRP A   1      -5.904   0.553 -33.339  1.00  0.00     0.076 C 
BRANCH   2   3
ATOM      3  CG  TRP A   1      -5.697  -0.833 -33.854  1.00  0.00    -0.028 A 
ATOM      4  CD2 TRP A   1      -4.795  -1.819 -33.339  1.00  0.00    -0.002 A 
ATOM      5  CE3 TRP A   1      -3.885  -1.857 -32.261  1.00  0.00     0.014 A 
ATOM      6  CE2 TRP A   1      -4.911  -2.950 -34.148  1.00  0.00     0.042 A 
ATOM      7  CZ3 TRP A   1      -3.119  -3.010 -32.046  1.00  0.00     0.001 A 
ATOM      8  CH2 TRP A   1      -3.252  -4.117 -32.880  1.00  0.00     0.002 A 
ATOM      9  CZ2 TRP A   1      -4.155  -4.109 -33.946  1.00  0.00     0.030 A 
ATOM     10  NE1 TRP A   1      -5.869  -2.678 -35.097  1.00  0.00    -0.365 N 
ATOM     11  HE1 TRP A   1      -6.175  -3.335 -35.804  1.00  0.00     0.165 HD
ATOM     12  CD1 TRP A   1      -6.343  -1.403 -34.935  1.00  0.00     0.096 A 
ENDBRANCH   2   3
ENDBRANCH   1   2
BRANCH   1  13
ATOM     13  N   TRP A   1      -7.575   2.426 -33.248  1.00  0.00    -0.064 N 
ATOM     14  H1  TRP A   1      -7.267   2.699 -34.203  1.00  0.00     0.278 HD
ATOM     15  H2  TRP A   1      -8.570   2.679 -33.226  1.00  0.00     0.278 HD
BRANCH  13  16
HETATM   16  C   UNK A   0      -6.817   3.227 -32.253  1.00  0.00     0.280 C 
BRANCH  16  17
HETATM   17  C   UNK A   0      -5.733   4.005 -32.903  1.00  0.00     0.027 A 
HETATM   18  S   UNK A   0      -4.093   3.830 -32.417  1.00  0.00    -0.076 SA
HETATM   19  C   UNK A   0      -3.636   5.014 -33.571  1.00  0.00     0.079 A 
HETATM   20  N   UNK A   0      -4.619   5.510 -34.289  1.00  0.00    -0.257 NA
HETATM   21  C   UNK A   0      -5.814   4.930 -33.923  1.00  0.00     0.133 A 
BRANCH  19  22
HETATM   22  C   UNK A   0      -2.185   5.466 -33.739  1.00  0.00     0.045 C 
HETATM   23  C   UNK A   0      -2.010   7.005 -33.915  1.00  0.00     0.011 C 
HETATM   24  C   UNK A   0      -0.758   6.896 -33.027  1.00  0.00     0.002 C 
HETATM   25  C   UNK A   0      -1.425   5.664 -32.390  1.00  0.00     0.011 C 
ENDBRANCH  19  22
ENDBRANCH  16  17
ENDBRANCH  13  16
ENDBRANCH   1  13
BRANCH   1  26
ATOM     26  C   TRP A   1      -8.047   0.444 -31.914  1.00  0.00     0.197 C 
BRANCH  26  27
ATOM     27  O   TRP A   1      -9.453   0.717 -32.028  1.00  0.00    -0.399 OA
ATOM     28  H   TRP A   1      -9.652   0.763 -32.988  1.00  0.00     0.209 HD
ENDBRANCH  26  27
ENDBRANCH   1  26
TORSDOF 8
ENDMDL
MODEL 9
REMARK VINA RESULT:      -7.2      2.765      3.650
REMARK  8 active torsions:
REMARK  status: ('A' for Active; 'I' for Inactive)
REMARK    1  A    between atoms: CG_8  and  CB_9 
REMARK    2  A    between atoms: CB_9  and  CA_10 
REMARK    3  A    between atoms: CA_10  and  N_11 
REMARK    4  A    between atoms: CA_10  and  C_14 
REMARK    5  A    between atoms: N_11  and  C_19 
REMARK    6  A    between atoms: C_14  and  O_15 
REMARK    7  A    between atoms: C_19  and  C_20 
REMARK    8  A    between atoms: C_22  and  C_23 
ROOT
ATOM      1  CA  TRP A   1      -3.864   3.219 -32.301  1.00  0.00     0.214 C 
ENDROOT
BRANCH   1   2
ATOM      2  CB  TRP A   1      -4.731   2.114 -31.689  1.00  0.00     0.076 C 
BRANCH   2   3
ATOM      3  CG  TRP A   1      -4.316   0.749 -32.129  1.00  0.00    -0.028 A 
ATOM      4  CD2 TRP A   1      -4.989  -0.097 -33.070  1.00  0.00    -0.002 A 
ATOM      5  CE3 TRP A   1      -6.149   0.036 -33.862  1.00  0.00     0.014 A 
ATOM      6  CE2 TRP A   1      -4.266  -1.287 -33.148  1.00  0.00     0.042 A 
ATOM      7  CZ3 TRP A   1      -6.549  -1.027 -34.683  1.00  0.00     0.001 A 
ATOM      8  CH2 TRP A   1      -5.809  -2.206 -34.728  1.00  0.00     0.002 A 
ATOM      9  CZ2 TRP A   1      -4.650  -2.357 -33.963  1.00  0.00     0.030 A 
ATOM     10  NE1 TRP A   1      -3.178  -1.162 -32.316  1.00  0.00    -0.365 N 
ATOM     11  HE1 TRP A   1      -2.467  -1.871 -32.195  1.00  0.00     0.165 HD
ATOM     12  CD1 TRP A   1      -3.203   0.057 -31.690  1.00  0.00     0.096 A 
ENDBRANCH   2   3
ENDBRANCH   1   2
BRANCH   1  13
ATOM     13  N   TRP A   1      -2.954   3.836 -31.259  1.00  0.00    -0.064 N 
ATOM     14  H1  TRP A   1      -3.590   4.445 -30.704  1.00  0.00     0.278 HD
ATOM     15  H2  TRP A   1      -2.629   3.135 -30.583  1.00  0.00     0.278 HD
BRANCH  13  16
HETATM   16  C   UNK A   0      -1.813   4.652 -31.746  1.00  0.00     0.280 C 
BRANCH  16  17
HETATM   17  C   UNK A   0      -1.269   5.513 -30.667  1.00  0.00     0.027 A 
HETATM   18  S   UNK A   0       0.276   5.210 -29.976  1.00  0.00    -0.076 SA
HETATM   19  C   UNK A   0       0.052   6.541 -28.918  1.00  0.00     0.079 A 
HETATM   20  N   UNK A   0      -1.083   7.189 -29.059  1.00  0.00    -0.257 NA
HETATM   21  C   UNK A   0      -1.833   6.617 -30.063  1.00  0.00     0.133 A 
BRANCH  19  22
HETATM   22  C   UNK A   0       1.099   6.932 -27.874  1.00  0.00     0.045 C 
HETATM   23  C   UNK A   0       1.437   8.455 -27.845  1.00  0.00     0.011 C 
HETATM   24  C   UNK A   0       1.496   8.342 -26.311  1.00  0.00     0.002 C 
HETATM   25  C   UNK A   0       0.513   7.167 -26.447  1.00  0.00     0.011 C 
ENDBRANCH  19  22
ENDBRANCH  16  17
ENDBRANCH  13  16
ENDBRANCH   1  13
BRANCH   1  26
ATOM     26  C   TRP A   1      -4.675   4.391 -32.891  1.00  0.00     0.197 C 
BRANCH  26  27
ATOM     27  O   TRP A   1      -5.262   3.922 -34.115  1.00  0.00    -0.399 OA
ATOM     28  H   TRP A   1      -4.604   4.087 -34.823  1.00  0.00     0.209 HD
ENDBRANCH  26  27
ENDBRANCH   1  26
TORSDOF 8
ENDMDL
MODEL 10
REMARK VINA RESULT:      -7.1      2.537      8.039
REMARK  8 active torsions:
REMARK  status: ('A' for Active; 'I' for Inactive)
REMARK    1  A    between atoms: CG_8  and  CB_9 
REMARK    2  A    between atoms: CB_9  and  CA_10 
REMARK    3  A    between atoms: CA_10  and  N_11 
REMARK    4  A    between atoms: CA_10  and  C_14 
REMARK    5  A    between atoms: N_11  and  C_19 
REMARK    6  A    between atoms: C_14  and  O_15 
REMARK    7  A    between atoms: C_19  and  C_20 
REMARK    8  A    between atoms: C_22  and  C_23 
ROOT
ATOM      1  CA  TRP A   1      -5.268   3.035 -32.164  1.00  0.00     0.214 C 
ENDROOT
BRANCH   1   2
ATOM      2  CB  TRP A   1      -5.654   4.413 -32.713  1.00  0.00     0.076 C 
BRANCH   2   3
ATOM      3  CG  TRP A   1      -4.537   5.068 -33.456  1.00  0.00    -0.028 A 
ATOM      4  CD2 TRP A   1      -3.568   5.982 -32.928  1.00  0.00    -0.002 A 
ATOM      5  CE3 TRP A   1      -3.317   6.525 -31.650  1.00  0.00     0.014 A 
ATOM      6  CE2 TRP A   1      -2.740   6.364 -33.984  1.00  0.00     0.042 A 
ATOM      7  CZ3 TRP A   1      -2.267   7.436 -31.482  1.00  0.00     0.001 A 
ATOM      8  CH2 TRP A   1      -1.466   7.804 -32.560  1.00  0.00     0.002 A 
ATOM      9  CZ2 TRP A   1      -1.686   7.271 -33.833  1.00  0.00     0.030 A 
ATOM     10  NE1 TRP A   1      -3.163   5.686 -35.103  1.00  0.00    -0.365 N 
ATOM     11  HE1 TRP A   1      -2.725   5.755 -36.012  1.00  0.00     0.165 HD
ATOM     12  CD1 TRP A   1      -4.251   4.910 -34.799  1.00  0.00     0.096 A 
ENDBRANCH   2   3
ENDBRANCH   1   2
BRANCH   1  13
ATOM     13  N   TRP A   1      -6.476   2.316 -31.602  1.00  0.00    -0.064 N 
ATOM     14  H1  TRP A   1      -6.880   2.999 -30.929  1.00  0.00     0.278 HD
ATOM     15  H2  TRP A   1      -7.209   2.204 -32.311  1.00  0.00     0.278 HD
BRANCH  13  16
HETATM   16  C   UNK A   0      -6.240   1.031 -30.896  1.00  0.00     0.280 C 
BRANCH  16  17
HETATM   17  C   UNK A   0      -5.767  -0.018 -31.832  1.00  0.00     0.027 A 
HETATM   18  S   UNK A   0      -6.724  -0.519 -33.170  1.00  0.00    -0.076 SA
HETATM   19  C   UNK A   0      -5.513  -1.654 -33.599  1.00  0.00     0.079 A 
HETATM   20  N   UNK A   0      -4.454  -1.669 -32.821  1.00  0.00    -0.257 NA
HETATM   21  C   UNK A   0      -4.586  -0.730 -31.822  1.00  0.00     0.133 A 
BRANCH  19  22
HETATM   22  C   UNK A   0      -5.667  -2.592 -34.797  1.00  0.00     0.045 C 
HETATM   23  C   UNK A   0      -4.892  -3.938 -34.661  1.00  0.00     0.011 C 
HETATM   24  C   UNK A   0      -6.102  -4.623 -35.320  1.00  0.00     0.002 C 
HETATM   25  C   UNK A   0      -6.952  -3.476 -34.746  1.00  0.00     0.011 C 
ENDBRANCH  19  22
ENDBRANCH  16  17
ENDBRANCH  13  16
ENDBRANCH   1  13
BRANCH   1  26
ATOM     26  C   TRP A   1      -4.243   3.089 -31.012  1.00  0.00     0.197 C 
BRANCH  26  27
ATOM     27  O   TRP A   1      -3.024   2.514 -31.507  1.00  0.00    -0.399 OA
ATOM     28  H   TRP A   1      -2.861   2.917 -32.387  1.00  0.00     0.209 HD
ENDBRANCH  26  27
ENDBRANCH   1  26
TORSDOF 8
ENDMDL
