MODEL 1
REMARK VINA RESULT:      -9.8      0.000      0.000
REMARK  7 active torsions:
REMARK  status: ('A' for Active; 'I' for Inactive)
REMARK    1  A    between atoms: C_4  and  N_5 
REMARK       I    between atoms: N_5  and  C_6 
REMARK       I    between atoms: C_6  and  N_7 
REMARK    2  A    between atoms: N_7  and  N_8 
REMARK       I    between atoms: N_8  and  C_9 
REMARK    3  A    between atoms: C_9  and  C_10 
REMARK    4  A    between atoms: C_10  and  N_11 
REMARK    5  A    between atoms: C_10  and  C_19 
REMARK       I    between atoms: N_11  and  C_12 
REMARK    6  A    between atoms: C_12  and  C_13 
REMARK    7  A    between atoms: C_19  and  C_20 
ROOT
HETATM    1  C   UNL     1      -7.254   0.632 -32.706  1.00  0.00     0.183 C 
ENDROOT
BRANCH   1   2
HETATM    2  C   UNL     1      -6.356   1.347 -31.679  1.00  0.00     0.259 C 
HETATM    3  N   UNL     1      -5.267   2.016 -32.191  1.00  0.00    -0.264 N 
HETATM    4  H   UNL     1      -5.126   2.154 -33.200  1.00  0.00     0.190 HD
HETATM    5  O   UNL     1      -6.547   1.246 -30.464  1.00  0.00    -0.269 OA
BRANCH   3   6
HETATM    6  N   UNL     1      -4.504   2.819 -31.331  1.00  0.00    -0.249 N 
HETATM    7  C   UNL     1      -3.538   3.635 -31.903  1.00  0.00     0.339 C 
HETATM    8  N   UNL     1      -2.834   4.327 -30.939  1.00  0.00    -0.308 N 
HETATM    9  O   UNL     1      -3.404   3.723 -33.119  1.00  0.00    -0.245 OA
HETATM   10  H   UNL     1      -3.194   4.252 -30.000  1.00  0.00     0.170 HD
HETATM   11  H   UNL     1      -4.367   2.434 -30.400  1.00  0.00     0.192 HD
BRANCH   8  12
HETATM   12  C   UNL     1      -1.776   5.236 -31.138  1.00  0.00     0.036 A 
HETATM   13  C   UNL     1      -1.908   6.448 -31.820  1.00  0.00     0.029 A 
HETATM   14  C   UNL     1      -0.808   7.300 -31.971  1.00  0.00     0.002 A 
HETATM   15  C   UNL     1       0.431   6.947 -31.446  1.00  0.00     0.000 A 
HETATM   16  C   UNL     1       0.575   5.739 -30.769  1.00  0.00     0.002 A 
HETATM   17  C   UNL     1      -0.522   4.887 -30.619  1.00  0.00     0.029 A 
ENDBRANCH   8  12
ENDBRANCH   3   6
ENDBRANCH   1   2
BRANCH   1  18
HETATM   18  N   UNL     1      -6.775  -0.715 -33.039  1.00  0.00    -0.343 N 
HETATM   19  C   UNL     1      -6.767  -1.257 -34.302  1.00  0.00     0.259 C 
HETATM   20  O   UNL     1      -7.308  -0.674 -35.239  1.00  0.00    -0.267 OA
HETATM   21  H   UNL     1      -6.216  -1.190 -32.340  1.00  0.00     0.163 HD
BRANCH  19  22
HETATM   22  C   UNL     1      -6.127  -2.556 -34.444  1.00  0.00     0.072 A 
HETATM   23  S   UNL     1      -4.473  -2.814 -34.071  1.00  0.00    -0.097 SA
HETATM   24  C   UNL     1      -4.569  -4.475 -34.463  1.00  0.00     0.050 A 
HETATM   25  C   UNL     1      -5.831  -4.834 -34.880  1.00  0.00     0.009 A 
HETATM   26  C   UNL     1      -6.726  -3.727 -34.874  1.00  0.00     0.025 A 
ENDBRANCH  19  22
ENDBRANCH   1  18
BRANCH   1  27
HETATM   27  C   UNL     1      -8.727   0.714 -32.269  1.00  0.00     0.076 C 
BRANCH  27  28
HETATM   28  C   UNL     1      -9.612   1.388 -33.275  1.00  0.00    -0.028 A 
HETATM   29  C   UNL     1     -10.960   1.044 -33.618  1.00  0.00    -0.002 A 
HETATM   30  C   UNL     1     -11.386   1.948 -34.591  1.00  0.00     0.042 A 
HETATM   31  C   UNL     1     -11.860   0.046 -33.191  1.00  0.00     0.014 A 
HETATM   32  C   UNL     1     -12.667   1.911 -35.155  1.00  0.00     0.030 A 
HETATM   33  N   UNL     1     -10.337   2.800 -34.841  1.00  0.00    -0.365 N 
HETATM   34  C   UNL     1     -13.542   0.917 -34.708  1.00  0.00     0.002 A 
HETATM   35  C   UNL     1     -13.147  -0.004 -33.742  1.00  0.00     0.001 A 
HETATM   36  H   UNL     1     -10.357   3.555 -35.514  1.00  0.00     0.165 HD
HETATM   37  C   UNL     1      -9.266   2.475 -34.055  1.00  0.00     0.096 A 
ENDBRANCH  27  28
ENDBRANCH   1  27
TORSDOF 7
ENDMDL
MODEL 2
REMARK VINA RESULT:      -9.7      2.001      5.582
REMARK  7 active torsions:
REMARK  status: ('A' for Active; 'I' for Inactive)
REMARK    1  A    between atoms: C_4  and  N_5 
REMARK       I    between atoms: N_5  and  C_6 
REMARK       I    between atoms: C_6  and  N_7 
REMARK    2  A    between atoms: N_7  and  N_8 
REMARK       I    between atoms: N_8  and  C_9 
REMARK    3  A    between atoms: C_9  and  C_10 
REMARK    4  A    between atoms: C_10  and  N_11 
REMARK    5  A    between atoms: C_10  and  C_19 
REMARK       I    between atoms: N_11  and  C_12 
REMARK    6  A    between atoms: C_12  and  C_13 
REMARK    7  A    between atoms: C_19  and  C_20 
ROOT
HETATM    1  C   UNL     1      -7.073   0.529 -33.125  1.00  0.00     0.183 C 
ENDROOT
BRANCH   1   2
HETATM    2  C   UNL     1      -6.471   1.518 -32.109  1.00  0.00     0.259 C 
HETATM    3  N   UNL     1      -5.277   2.102 -32.469  1.00  0.00    -0.264 N 
HETATM    4  H   UNL     1      -4.873   2.002 -33.409  1.00  0.00     0.190 HD
HETATM    5  O   UNL     1      -6.979   1.702 -30.999  1.00  0.00    -0.269 OA
BRANCH   3   6
HETATM    6  N   UNL     1      -4.761   3.129 -31.665  1.00  0.00    -0.249 N 
HETATM    7  C   UNL     1      -3.549   3.691 -32.041  1.00  0.00     0.339 C 
HETATM    8  N   UNL     1      -3.139   4.647 -31.136  1.00  0.00    -0.308 N 
HETATM    9  O   UNL     1      -2.982   3.368 -33.080  1.00  0.00    -0.245 OA
HETATM   10  H   UNL     1      -3.814   4.894 -30.429  1.00  0.00     0.170 HD
HETATM   11  H   UNL     1      -5.018   3.071 -30.684  1.00  0.00     0.192 HD
BRANCH   8  12
HETATM   12  C   UNL     1      -1.960   5.418 -31.179  1.00  0.00     0.036 A 
HETATM   13  C   UNL     1      -1.906   6.736 -31.638  1.00  0.00     0.029 A 
HETATM   14  C   UNL     1      -0.695   7.436 -31.644  1.00  0.00     0.002 A 
HETATM   15  C   UNL     1       0.472   6.826 -31.194  1.00  0.00     0.000 A 
HETATM   16  C   UNL     1       0.431   5.510 -30.740  1.00  0.00     0.002 A 
HETATM   17  C   UNL     1      -0.778   4.810 -30.735  1.00  0.00     0.029 A 
ENDBRANCH   8  12
ENDBRANCH   3   6
ENDBRANCH   1   2
BRANCH   1  18
HETATM   18  N   UNL     1      -8.379   0.965 -33.635  1.00  0.00    -0.343 N 
HETATM   19  C   UNL     1      -9.585   0.717 -33.022  1.00  0.00     0.259 C 
HETATM   20  O   UNL     1      -9.652  -0.028 -32.047  1.00  0.00    -0.267 OA
HETATM   21  H   UNL     1      -8.377   1.674 -34.359  1.00  0.00     0.163 HD
BRANCH  19  22
HETATM   22  C   UNL     1     -10.754   1.350 -33.616  1.00  0.00     0.072 A 
HETATM   23  S   UNL     1     -10.712   2.936 -34.266  1.00  0.00    -0.097 SA
HETATM   24  C   UNL     1     -12.356   2.865 -34.732  1.00  0.00     0.050 A 
HETATM   25  C   UNL     1     -12.936   1.662 -34.395  1.00  0.00     0.009 A 
HETATM   26  C   UNL     1     -12.013   0.792 -33.747  1.00  0.00     0.025 A 
ENDBRANCH  19  22
ENDBRANCH   1  18
BRANCH   1  27
HETATM   27  C   UNL     1      -6.033   0.179 -34.203  1.00  0.00     0.076 C 
BRANCH  27  28
HETATM   28  C   UNL     1      -5.224  -1.042 -33.879  1.00  0.00    -0.028 A 
HETATM   29  C   UNL     1      -5.481  -2.391 -34.286  1.00  0.00    -0.002 A 
HETATM   30  C   UNL     1      -4.463  -3.186 -33.760  1.00  0.00     0.042 A 
HETATM   31  C   UNL     1      -6.487  -3.012 -35.055  1.00  0.00     0.014 A 
HETATM   32  C   UNL     1      -4.394  -4.569 -33.969  1.00  0.00     0.030 A 
HETATM   33  N   UNL     1      -3.627  -2.358 -33.050  1.00  0.00    -0.365 N 
HETATM   34  C   UNL     1      -5.399  -5.158 -34.741  1.00  0.00     0.002 A 
HETATM   35  C   UNL     1      -6.432  -4.394 -35.276  1.00  0.00     0.001 A 
HETATM   36  H   UNL     1      -2.804  -2.666 -32.550  1.00  0.00     0.165 HD
HETATM   37  C   UNL     1      -4.073  -1.067 -33.116  1.00  0.00     0.096 A 
ENDBRANCH  27  28
ENDBRANCH   1  27
TORSDOF 7
ENDMDL
MODEL 3
REMARK VINA RESULT:      -9.2      2.735      9.257
REMARK  7 active torsions:
REMARK  status: ('A' for Active; 'I' for Inactive)
REMARK    1  A    between atoms: C_4  and  N_5 
REMARK       I    between atoms: N_5  and  C_6 
REMARK       I    between atoms: C_6  and  N_7 
REMARK    2  A    between atoms: N_7  and  N_8 
REMARK       I    between atoms: N_8  and  C_9 
REMARK    3  A    between atoms: C_9  and  C_10 
REMARK    4  A    between atoms: C_10  and  N_11 
REMARK    5  A    between atoms: C_10  and  C_19 
REMARK       I    between atoms: N_11  and  C_12 
REMARK    6  A    between atoms: C_12  and  C_13 
REMARK    7  A    between atoms: C_19  and  C_20 
ROOT
HETATM    1  C   UNL     1      -5.408   3.310 -33.169  1.00  0.00     0.183 C 
ENDROOT
BRANCH   1   2
HETATM    2  C   UNL     1      -6.760   3.753 -33.760  1.00  0.00     0.259 C 
HETATM    3  N   UNL     1      -7.736   2.784 -33.828  1.00  0.00    -0.264 N 
HETATM    4  H   UNL     1      -7.629   1.859 -33.391  1.00  0.00     0.190 HD
HETATM    5  O   UNL     1      -6.928   4.881 -34.230  1.00  0.00    -0.269 OA
BRANCH   3   6
HETATM    6  N   UNL     1      -9.034   3.160 -34.201  1.00  0.00    -0.249 N 
HETATM    7  C   UNL     1     -10.093   2.468 -33.630  1.00  0.00     0.339 C 
HETATM    8  N   UNL     1     -11.302   2.908 -34.125  1.00  0.00    -0.308 N 
HETATM    9  O   UNL     1      -9.916   1.615 -32.767  1.00  0.00    -0.245 OA
HETATM   10  H   UNL     1     -11.261   3.730 -34.708  1.00  0.00     0.170 HD
HETATM   11  H   UNL     1      -9.114   3.535 -35.142  1.00  0.00     0.192 HD
BRANCH   8  12
HETATM   12  C   UNL     1     -12.588   2.436 -33.791  1.00  0.00     0.036 A 
HETATM   13  C   UNL     1     -13.349   2.934 -32.730  1.00  0.00     0.029 A 
HETATM   14  C   UNL     1     -14.621   2.415 -32.465  1.00  0.00     0.002 A 
HETATM   15  C   UNL     1     -15.141   1.394 -33.255  1.00  0.00     0.000 A 
HETATM   16  C   UNL     1     -14.389   0.886 -34.311  1.00  0.00     0.002 A 
HETATM   17  C   UNL     1     -13.118   1.403 -34.575  1.00  0.00     0.029 A 
ENDBRANCH   8  12
ENDBRANCH   3   6
ENDBRANCH   1   2
BRANCH   1  18
HETATM   18  N   UNL     1      -4.624   4.434 -32.643  1.00  0.00    -0.343 N 
HETATM   19  C   UNL     1      -3.281   4.628 -32.863  1.00  0.00     0.259 C 
HETATM   20  O   UNL     1      -2.605   3.766 -33.422  1.00  0.00    -0.267 OA
HETATM   21  H   UNL     1      -5.142   5.227 -32.282  1.00  0.00     0.163 HD
BRANCH  19  22
HETATM   22  C   UNL     1      -2.717   5.875 -32.367  1.00  0.00     0.072 A 
HETATM   23  S   UNL     1      -2.140   7.106 -33.413  1.00  0.00    -0.097 SA
HETATM   24  C   UNL     1      -1.725   8.123 -32.102  1.00  0.00     0.050 A 
HETATM   25  C   UNL     1      -2.008   7.540 -30.887  1.00  0.00     0.009 A 
HETATM   26  C   UNL     1      -2.575   6.243 -31.041  1.00  0.00     0.025 A 
ENDBRANCH  19  22
ENDBRANCH   1  18
BRANCH   1  27
HETATM   27  C   UNL     1      -5.614   2.140 -32.192  1.00  0.00     0.076 C 
BRANCH  27  28
HETATM   28  C   UNL     1      -4.894   0.889 -32.597  1.00  0.00    -0.028 A 
HETATM   29  C   UNL     1      -5.422  -0.221 -33.332  1.00  0.00    -0.002 A 
HETATM   30  C   UNL     1      -4.392  -1.149 -33.484  1.00  0.00     0.042 A 
HETATM   31  C   UNL     1      -6.684  -0.525 -33.884  1.00  0.00     0.014 A 
HETATM   32  C   UNL     1      -4.554  -2.361 -34.165  1.00  0.00     0.030 A 
HETATM   33  N   UNL     1      -3.284  -0.632 -32.856  1.00  0.00    -0.365 N 
HETATM   34  C   UNL     1      -5.813  -2.634 -34.709  1.00  0.00     0.002 A 
HETATM   35  C   UNL     1      -6.864  -1.732 -34.571  1.00  0.00     0.001 A 
HETATM   36  H   UNL     1      -2.388  -1.097 -32.797  1.00  0.00     0.165 HD
HETATM   37  C   UNL     1      -3.573   0.593 -32.321  1.00  0.00     0.096 A 
ENDBRANCH  27  28
ENDBRANCH   1  27
TORSDOF 7
ENDMDL
MODEL 4
REMARK VINA RESULT:      -9.2      1.671      2.178
REMARK  7 active torsions:
REMARK  status: ('A' for Active; 'I' for Inactive)
REMARK    1  A    between atoms: C_4  and  N_5 
REMARK       I    between atoms: N_5  and  C_6 
REMARK       I    between atoms: C_6  and  N_7 
REMARK    2  A    between atoms: N_7  and  N_8 
REMARK       I    between atoms: N_8  and  C_9 
REMARK    3  A    between atoms: C_9  and  C_10 
REMARK    4  A    between atoms: C_10  and  N_11 
REMARK    5  A    between atoms: C_10  and  C_19 
REMARK       I    between atoms: N_11  and  C_12 
REMARK    6  A    between atoms: C_12  and  C_13 
REMARK    7  A    between atoms: C_19  and  C_20 
ROOT
HETATM    1  C   UNL     1      -7.388   2.265 -33.834  1.00  0.00     0.183 C 
ENDROOT
BRANCH   1   2
HETATM    2  C   UNL     1      -6.419   3.462 -33.841  1.00  0.00     0.259 C 
HETATM    3  N   UNL     1      -5.180   3.240 -33.282  1.00  0.00    -0.264 N 
HETATM    4  H   UNL     1      -4.860   2.304 -33.001  1.00  0.00     0.190 HD
HETATM    5  O   UNL     1      -6.765   4.579 -34.236  1.00  0.00    -0.269 OA
BRANCH   3   6
HETATM    6  N   UNL     1      -4.199   4.234 -33.402  1.00  0.00    -0.249 N 
HETATM    7  C   UNL     1      -3.355   4.438 -32.319  1.00  0.00     0.339 C 
HETATM    8  N   UNL     1      -2.478   5.475 -32.557  1.00  0.00    -0.308 N 
HETATM    9  O   UNL     1      -3.401   3.725 -31.322  1.00  0.00    -0.245 OA
HETATM   10  H   UNL     1      -2.479   5.838 -33.497  1.00  0.00     0.170 HD
HETATM   11  H   UNL     1      -4.451   5.009 -34.009  1.00  0.00     0.192 HD
BRANCH   8  12
HETATM   12  C   UNL     1      -1.487   5.976 -31.689  1.00  0.00     0.036 A 
HETATM   13  C   UNL     1      -0.199   5.446 -31.588  1.00  0.00     0.029 A 
HETATM   14  C   UNL     1       0.731   6.003 -30.703  1.00  0.00     0.002 A 
HETATM   15  C   UNL     1       0.381   7.092 -29.912  1.00  0.00     0.000 A 
HETATM   16  C   UNL     1      -0.902   7.626 -29.999  1.00  0.00     0.002 A 
HETATM   17  C   UNL     1      -1.832   7.068 -30.881  1.00  0.00     0.029 A 
ENDBRANCH   8  12
ENDBRANCH   3   6
ENDBRANCH   1   2
BRANCH   1  18
HETATM   18  N   UNL     1      -6.695   0.974 -33.740  1.00  0.00    -0.343 N 
HETATM   19  C   UNL     1      -6.852  -0.069 -34.621  1.00  0.00     0.259 C 
HETATM   20  O   UNL     1      -7.718  -0.030 -35.493  1.00  0.00    -0.267 OA
HETATM   21  H   UNL     1      -5.893   0.927 -33.122  1.00  0.00     0.163 HD
BRANCH  19  22
HETATM   22  C   UNL     1      -5.974  -1.214 -34.431  1.00  0.00     0.072 A 
HETATM   23  S   UNL     1      -4.525  -1.123 -33.518  1.00  0.00    -0.097 SA
HETATM   24  C   UNL     1      -4.177  -2.777 -33.771  1.00  0.00     0.050 A 
HETATM   25  C   UNL     1      -5.135  -3.394 -34.544  1.00  0.00     0.009 A 
HETATM   26  C   UNL     1      -6.167  -2.491 -34.928  1.00  0.00     0.025 A 
ENDBRANCH  19  22
ENDBRANCH   1  18
BRANCH   1  27
HETATM   27  C   UNL     1      -8.500   2.488 -32.795  1.00  0.00     0.076 C 
BRANCH  27  28
HETATM   28  C   UNL     1      -9.682   1.584 -32.981  1.00  0.00    -0.028 A 
HETATM   29  C   UNL     1     -10.902   1.877 -33.671  1.00  0.00    -0.002 A 
HETATM   30  C   UNL     1     -11.707   0.739 -33.596  1.00  0.00     0.042 A 
HETATM   31  C   UNL     1     -11.400   3.005 -34.356  1.00  0.00     0.014 A 
HETATM   32  C   UNL     1     -12.980   0.668 -34.175  1.00  0.00     0.030 A 
HETATM   33  N   UNL     1     -11.011  -0.203 -32.877  1.00  0.00    -0.365 N 
HETATM   34  C   UNL     1     -13.445   1.798 -34.854  1.00  0.00     0.002 A 
HETATM   35  C   UNL     1     -12.670   2.951 -34.944  1.00  0.00     0.001 A 
HETATM   36  H   UNL     1     -11.357  -1.127 -32.656  1.00  0.00     0.165 HD
HETATM   37  C   UNL     1      -9.792   0.292 -32.504  1.00  0.00     0.096 A 
ENDBRANCH  27  28
ENDBRANCH   1  27
TORSDOF 7
ENDMDL
MODEL 5
REMARK VINA RESULT:      -9.0      1.042      1.975
REMARK  7 active torsions:
REMARK  status: ('A' for Active; 'I' for Inactive)
REMARK    1  A    between atoms: C_4  and  N_5 
REMARK       I    between atoms: N_5  and  C_6 
REMARK       I    between atoms: C_6  and  N_7 
REMARK    2  A    between atoms: N_7  and  N_8 
REMARK       I    between atoms: N_8  and  C_9 
REMARK    3  A    between atoms: C_9  and  C_10 
REMARK    4  A    between atoms: C_10  and  N_11 
REMARK    5  A    between atoms: C_10  and  C_19 
REMARK       I    between atoms: N_11  and  C_12 
REMARK    6  A    between atoms: C_12  and  C_13 
REMARK    7  A    between atoms: C_19  and  C_20 
ROOT
HETATM    1  C   UNL     1      -7.193   0.783 -32.695  1.00  0.00     0.183 C 
ENDROOT
BRANCH   1   2
HETATM    2  C   UNL     1      -6.091   1.534 -31.924  1.00  0.00     0.259 C 
HETATM    3  N   UNL     1      -6.148   2.909 -31.974  1.00  0.00    -0.264 N 
HETATM    4  H   UNL     1      -6.946   3.416 -32.380  1.00  0.00     0.190 HD
HETATM    5  O   UNL     1      -5.159   0.940 -31.374  1.00  0.00    -0.269 OA
BRANCH   3   6
HETATM    6  N   UNL     1      -5.276   3.650 -31.164  1.00  0.00    -0.249 N 
HETATM    7  C   UNL     1      -4.131   4.165 -31.756  1.00  0.00     0.339 C 
HETATM    8  N   UNL     1      -3.344   4.822 -30.834  1.00  0.00    -0.308 N 
HETATM    9  O   UNL     1      -3.921   4.055 -32.960  1.00  0.00    -0.245 OA
HETATM   10  H   UNL     1      -3.757   4.952 -29.924  1.00  0.00     0.170 HD
HETATM   11  H   UNL     1      -5.269   3.376 -30.186  1.00  0.00     0.192 HD
BRANCH   8  12
HETATM   12  C   UNL     1      -2.108   5.460 -31.062  1.00  0.00     0.036 A 
HETATM   13  C   UNL     1      -0.868   4.864 -30.825  1.00  0.00     0.029 A 
HETATM   14  C   UNL     1       0.317   5.563 -31.082  1.00  0.00     0.002 A 
HETATM   15  C   UNL     1       0.271   6.864 -31.574  1.00  0.00     0.000 A 
HETATM   16  C   UNL     1      -0.960   7.471 -31.808  1.00  0.00     0.002 A 
HETATM   17  C   UNL     1      -2.143   6.773 -31.551  1.00  0.00     0.029 A 
ENDBRANCH   8  12
ENDBRANCH   3   6
ENDBRANCH   1   2
BRANCH   1  18
HETATM   18  N   UNL     1      -6.806  -0.589 -33.044  1.00  0.00    -0.343 N 
HETATM   19  C   UNL     1      -6.592  -1.046 -34.322  1.00  0.00     0.259 C 
HETATM   20  O   UNL     1      -6.854  -0.339 -35.293  1.00  0.00    -0.267 OA
HETATM   21  H   UNL     1      -6.464  -1.176 -32.291  1.00  0.00     0.163 HD
BRANCH  19  22
HETATM   22  C   UNL     1      -6.084  -2.404 -34.448  1.00  0.00     0.072 A 
HETATM   23  S   UNL     1      -4.464  -2.820 -34.067  1.00  0.00    -0.097 SA
HETATM   24  C   UNL     1      -4.725  -4.468 -34.441  1.00  0.00     0.050 A 
HETATM   25  C   UNL     1      -6.016  -4.704 -34.858  1.00  0.00     0.009 A 
HETATM   26  C   UNL     1      -6.796  -3.513 -34.867  1.00  0.00     0.025 A 
ENDBRANCH  19  22
ENDBRANCH   1  18
BRANCH   1  27
HETATM   27  C   UNL     1      -8.539   0.918 -31.962  1.00  0.00     0.076 C 
BRANCH  27  28
HETATM   28  C   UNL     1      -9.688   1.226 -32.875  1.00  0.00    -0.028 A 
HETATM   29  C   UNL     1      -9.913   2.430 -33.617  1.00  0.00    -0.002 A 
HETATM   30  C   UNL     1     -11.099   2.264 -34.333  1.00  0.00     0.042 A 
HETATM   31  C   UNL     1      -9.217   3.650 -33.748  1.00  0.00     0.014 A 
HETATM   32  C   UNL     1     -11.622   3.250 -35.178  1.00  0.00     0.030 A 
HETATM   33  N   UNL     1     -11.585   1.014 -34.029  1.00  0.00    -0.365 N 
HETATM   34  C   UNL     1     -10.909   4.446 -35.296  1.00  0.00     0.002 A 
HETATM   35  C   UNL     1      -9.724   4.646 -34.592  1.00  0.00     0.001 A 
HETATM   36  H   UNL     1     -12.442   0.626 -34.398  1.00  0.00     0.165 HD
HETATM   37  C   UNL     1     -10.744   0.381 -33.156  1.00  0.00     0.096 A 
ENDBRANCH  27  28
ENDBRANCH   1  27
TORSDOF 7
ENDMDL
MODEL 6
REMARK VINA RESULT:      -8.9      3.111      9.191
REMARK  7 active torsions:
REMARK  status: ('A' for Active; 'I' for Inactive)
REMARK    1  A    between atoms: C_4  and  N_5 
REMARK       I    between atoms: N_5  and  C_6 
REMARK       I    between atoms: C_6  and  N_7 
REMARK    2  A    between atoms: N_7  and  N_8 
REMARK       I    between atoms: N_8  and  C_9 
REMARK    3  A    between atoms: C_9  and  C_10 
REMARK    4  A    between atoms: C_10  and  N_11 
REMARK    5  A    between atoms: C_10  and  C_19 
REMARK       I    between atoms: N_11  and  C_12 
REMARK    6  A    between atoms: C_12  and  C_13 
REMARK    7  A    between atoms: C_19  and  C_20 
ROOT
HETATM    1  C   UNL     1      -7.757   1.471 -34.396  1.00  0.00     0.183 C 
ENDROOT
BRANCH   1   2
HETATM    2  C   UNL     1      -8.752   1.607 -33.228  1.00  0.00     0.259 C 
HETATM    3  N   UNL     1      -9.812   2.461 -33.434  1.00  0.00    -0.264 N 
HETATM    4  H   UNL     1     -10.015   2.881 -34.351  1.00  0.00     0.190 HD
HETATM    5  O   UNL     1      -8.559   1.058 -32.140  1.00  0.00    -0.269 OA
BRANCH   3   6
HETATM    6  N   UNL     1     -10.837   2.505 -32.478  1.00  0.00    -0.249 N 
HETATM    7  C   UNL     1     -12.108   2.852 -32.915  1.00  0.00     0.339 C 
HETATM    8  N   UNL     1     -13.000   2.905 -31.865  1.00  0.00    -0.308 N 
HETATM    9  O   UNL     1     -12.355   3.033 -34.103  1.00  0.00    -0.245 OA
HETATM   10  H   UNL     1     -12.653   2.565 -30.981  1.00  0.00     0.170 HD
HETATM   11  H   UNL     1     -10.533   2.747 -31.539  1.00  0.00     0.192 HD
BRANCH   8  12
HETATM   12  C   UNL     1     -14.370   3.231 -31.920  1.00  0.00     0.036 A 
HETATM   13  C   UNL     1     -14.873   4.520 -31.731  1.00  0.00     0.029 A 
HETATM   14  C   UNL     1     -16.249   4.764 -31.806  1.00  0.00     0.002 A 
HETATM   15  C   UNL     1     -17.133   3.721 -32.067  1.00  0.00     0.000 A 
HETATM   16  C   UNL     1     -16.644   2.431 -32.250  1.00  0.00     0.002 A 
HETATM   17  C   UNL     1     -15.269   2.187 -32.174  1.00  0.00     0.029 A 
ENDBRANCH   8  12
ENDBRANCH   3   6
ENDBRANCH   1   2
BRANCH   1  18
HETATM   18  N   UNL     1      -6.466   2.114 -34.119  1.00  0.00    -0.343 N 
HETATM   19  C   UNL     1      -6.275   3.469 -33.987  1.00  0.00     0.259 C 
HETATM   20  O   UNL     1      -7.183   4.259 -34.237  1.00  0.00    -0.267 OA
HETATM   21  H   UNL     1      -5.716   1.518 -33.790  1.00  0.00     0.163 HD
BRANCH  19  22
HETATM   22  C   UNL     1      -4.945   3.898 -33.580  1.00  0.00     0.072 A 
HETATM   23  S   UNL     1      -4.091   3.154 -32.292  1.00  0.00    -0.097 SA
HETATM   24  C   UNL     1      -2.735   4.174 -32.508  1.00  0.00     0.050 A 
HETATM   25  C   UNL     1      -2.924   5.072 -33.533  1.00  0.00     0.009 A 
HETATM   26  C   UNL     1      -4.200   4.917 -34.147  1.00  0.00     0.025 A 
ENDBRANCH  19  22
ENDBRANCH   1  18
BRANCH   1  27
HETATM   27  C   UNL     1      -7.673   0.004 -34.852  1.00  0.00     0.076 C 
BRANCH  27  28
HETATM   28  C   UNL     1      -6.423  -0.692 -34.401  1.00  0.00    -0.028 A 
HETATM   29  C   UNL     1      -6.119  -2.088 -34.502  1.00  0.00    -0.002 A 
HETATM   30  C   UNL     1      -4.846  -2.277 -33.964  1.00  0.00     0.042 A 
HETATM   31  C   UNL     1      -6.809  -3.212 -35.002  1.00  0.00     0.014 A 
HETATM   32  C   UNL     1      -4.223  -3.530 -33.906  1.00  0.00     0.030 A 
HETATM   33  N   UNL     1      -4.397  -1.049 -33.540  1.00  0.00    -0.365 N 
HETATM   34  C   UNL     1      -4.926  -4.626 -34.416  1.00  0.00     0.002 A 
HETATM   35  C   UNL     1      -6.200  -4.472 -34.955  1.00  0.00     0.001 A 
HETATM   36  H   UNL     1      -3.503  -0.886 -33.098  1.00  0.00     0.165 HD
HETATM   37  C   UNL     1      -5.336  -0.088 -33.800  1.00  0.00     0.096 A 
ENDBRANCH  27  28
ENDBRANCH   1  27
TORSDOF 7
ENDMDL
MODEL 7
REMARK VINA RESULT:      -8.7      3.212      8.225
REMARK  7 active torsions:
REMARK  status: ('A' for Active; 'I' for Inactive)
REMARK    1  A    between atoms: C_4  and  N_5 
REMARK       I    between atoms: N_5  and  C_6 
REMARK       I    between atoms: C_6  and  N_7 
REMARK    2  A    between atoms: N_7  and  N_8 
REMARK       I    between atoms: N_8  and  C_9 
REMARK    3  A    between atoms: C_9  and  C_10 
REMARK    4  A    between atoms: C_10  and  N_11 
REMARK    5  A    between atoms: C_10  and  C_19 
REMARK       I    between atoms: N_11  and  C_12 
REMARK    6  A    between atoms: C_12  and  C_13 
REMARK    7  A    between atoms: C_19  and  C_20 
ROOT
HETATM    1  C   UNL     1      -5.255   4.064 -30.944  1.00  0.00     0.183 C 
ENDROOT
BRANCH   1   2
HETATM    2  C   UNL     1      -4.615   3.097 -31.957  1.00  0.00     0.259 C 
HETATM    3  N   UNL     1      -4.420   1.806 -31.520  1.00  0.00    -0.264 N 
HETATM    4  H   UNL     1      -4.799   1.460 -30.628  1.00  0.00     0.190 HD
HETATM    5  O   UNL     1      -4.212   3.479 -33.060  1.00  0.00    -0.269 OA
BRANCH   3   6
HETATM    6  N   UNL     1      -3.994   0.839 -32.442  1.00  0.00    -0.249 N 
HETATM    7  C   UNL     1      -4.812  -0.265 -32.639  1.00  0.00     0.339 C 
HETATM    8  N   UNL     1      -4.246  -1.153 -33.529  1.00  0.00    -0.308 N 
HETATM    9  O   UNL     1      -5.908  -0.362 -32.096  1.00  0.00    -0.245 OA
HETATM   10  H   UNL     1      -3.416  -0.828 -34.000  1.00  0.00     0.170 HD
HETATM   11  H   UNL     1      -2.986   0.755 -32.534  1.00  0.00     0.192 HD
BRANCH   8  12
HETATM   12  C   UNL     1      -4.775  -2.386 -33.964  1.00  0.00     0.036 A 
HETATM   13  C   UNL     1      -4.095  -3.602 -33.872  1.00  0.00     0.029 A 
HETATM   14  C   UNL     1      -4.692  -4.784 -34.323  1.00  0.00     0.002 A 
HETATM   15  C   UNL     1      -5.971  -4.760 -34.871  1.00  0.00     0.000 A 
HETATM   16  C   UNL     1      -6.656  -3.553 -34.973  1.00  0.00     0.002 A 
HETATM   17  C   UNL     1      -6.060  -2.371 -34.524  1.00  0.00     0.029 A 
ENDBRANCH   8  12
ENDBRANCH   3   6
ENDBRANCH   1   2
BRANCH   1  18
HETATM   18  N   UNL     1      -4.361   5.165 -30.567  1.00  0.00    -0.343 N 
HETATM   19  C   UNL     1      -4.269   6.367 -31.229  1.00  0.00     0.259 C 
HETATM   20  O   UNL     1      -4.855   6.542 -32.296  1.00  0.00    -0.267 OA
HETATM   21  H   UNL     1      -3.948   5.127 -29.642  1.00  0.00     0.163 HD
BRANCH  19  22
HETATM   22  C   UNL     1      -3.421   7.379 -30.618  1.00  0.00     0.072 A 
HETATM   23  S   UNL     1      -2.793   7.219 -29.031  1.00  0.00    -0.097 SA
HETATM   24  C   UNL     1      -1.961   8.710 -29.133  1.00  0.00     0.050 A 
HETATM   25  C   UNL     1      -2.159   9.329 -30.346  1.00  0.00     0.009 A 
HETATM   26  C   UNL     1      -3.005   8.564 -31.199  1.00  0.00     0.025 A 
ENDBRANCH  19  22
ENDBRANCH   1  18
BRANCH   1  27
HETATM   27  C   UNL     1      -6.651   4.491 -31.430  1.00  0.00     0.076 C 
BRANCH  27  28
HETATM   28  C   UNL     1      -7.668   3.391 -31.368  1.00  0.00    -0.028 A 
HETATM   29  C   UNL     1      -7.999   2.452 -32.397  1.00  0.00    -0.002 A 
HETATM   30  C   UNL     1      -8.991   1.611 -31.892  1.00  0.00     0.042 A 
HETATM   31  C   UNL     1      -7.546   2.236 -33.716  1.00  0.00     0.014 A 
HETATM   32  C   UNL     1      -9.548   0.562 -32.632  1.00  0.00     0.030 A 
HETATM   33  N   UNL     1      -9.263   2.029 -30.611  1.00  0.00    -0.365 N 
HETATM   34  C   UNL     1      -9.076   0.365 -33.933  1.00  0.00     0.002 A 
HETATM   35  C   UNL     1      -8.091   1.190 -34.470  1.00  0.00     0.001 A 
HETATM   36  H   UNL     1      -9.952   1.606 -30.003  1.00  0.00     0.165 HD
HETATM   37  C   UNL     1      -8.473   3.096 -30.284  1.00  0.00     0.096 A 
ENDBRANCH  27  28
ENDBRANCH   1  27
TORSDOF 7
ENDMDL
MODEL 8
REMARK VINA RESULT:      -8.6      1.935      9.090
REMARK  7 active torsions:
REMARK  status: ('A' for Active; 'I' for Inactive)
REMARK    1  A    between atoms: C_4  and  N_5 
REMARK       I    between atoms: N_5  and  C_6 
REMARK       I    between atoms: C_6  and  N_7 
REMARK    2  A    between atoms: N_7  and  N_8 
REMARK       I    between atoms: N_8  and  C_9 
REMARK    3  A    between atoms: C_9  and  C_10 
REMARK    4  A    between atoms: C_10  and  N_11 
REMARK    5  A    between atoms: C_10  and  C_19 
REMARK       I    between atoms: N_11  and  C_12 
REMARK    6  A    between atoms: C_12  and  C_13 
REMARK    7  A    between atoms: C_19  and  C_20 
ROOT
HETATM    1  C   UNL     1      -5.751   2.940 -32.848  1.00  0.00     0.183 C 
ENDROOT
BRANCH   1   2
HETATM    2  C   UNL     1      -7.162   3.553 -32.778  1.00  0.00     0.259 C 
HETATM    3  N   UNL     1      -7.935   3.420 -33.910  1.00  0.00    -0.264 N 
HETATM    4  H   UNL     1      -7.655   2.833 -34.706  1.00  0.00     0.190 HD
HETATM    5  O   UNL     1      -7.541   4.206 -31.802  1.00  0.00    -0.269 OA
BRANCH   3   6
HETATM    6  N   UNL     1      -9.281   3.810 -33.855  1.00  0.00    -0.249 N 
HETATM    7  C   UNL     1     -10.235   2.810 -33.725  1.00  0.00     0.339 C 
HETATM    8  N   UNL     1     -11.511   3.332 -33.737  1.00  0.00    -0.308 N 
HETATM    9  O   UNL     1      -9.920   1.633 -33.577  1.00  0.00    -0.245 OA
HETATM   10  H   UNL     1     -11.570   4.338 -33.701  1.00  0.00     0.170 HD
HETATM   11  H   UNL     1      -9.497   4.663 -34.363  1.00  0.00     0.192 HD
BRANCH   8  12
HETATM   12  C   UNL     1     -12.727   2.626 -33.638  1.00  0.00     0.036 A 
HETATM   13  C   UNL     1     -13.149   1.668 -34.562  1.00  0.00     0.029 A 
HETATM   14  C   UNL     1     -14.370   1.006 -34.390  1.00  0.00     0.002 A 
HETATM   15  C   UNL     1     -15.179   1.299 -33.296  1.00  0.00     0.000 A 
HETATM   16  C   UNL     1     -14.771   2.256 -32.372  1.00  0.00     0.002 A 
HETATM   17  C   UNL     1     -13.552   2.918 -32.544  1.00  0.00     0.029 A 
ENDBRANCH   8  12
ENDBRANCH   3   6
ENDBRANCH   1   2
BRANCH   1  18
HETATM   18  N   UNL     1      -5.747   1.588 -33.422  1.00  0.00    -0.343 N 
HETATM   19  C   UNL     1      -5.627   0.426 -32.697  1.00  0.00     0.259 C 
HETATM   20  O   UNL     1      -5.369   0.459 -31.496  1.00  0.00    -0.267 OA
HETATM   21  H   UNL     1      -6.071   1.493 -34.378  1.00  0.00     0.163 HD
BRANCH  19  22
HETATM   22  C   UNL     1      -5.782  -0.817 -33.438  1.00  0.00     0.072 A 
HETATM   23  S   UNL     1      -7.313  -1.411 -33.931  1.00  0.00    -0.097 SA
HETATM   24  C   UNL     1      -6.618  -2.774 -34.695  1.00  0.00     0.050 A 
HETATM   25  C   UNL     1      -5.247  -2.790 -34.573  1.00  0.00     0.009 A 
HETATM   26  C   UNL     1      -4.766  -1.665 -33.845  1.00  0.00     0.025 A 
ENDBRANCH  19  22
ENDBRANCH   1  18
BRANCH   1  27
HETATM   27  C   UNL     1      -4.774   3.931 -33.502  1.00  0.00     0.076 C 
BRANCH  27  28
HETATM   28  C   UNL     1      -3.587   4.256 -32.644  1.00  0.00    -0.028 A 
HETATM   29  C   UNL     1      -2.692   5.366 -32.780  1.00  0.00    -0.002 A 
HETATM   30  C   UNL     1      -1.748   5.267 -31.757  1.00  0.00     0.042 A 
HETATM   31  C   UNL     1      -2.596   6.449 -33.678  1.00  0.00     0.014 A 
HETATM   32  C   UNL     1      -0.717   6.198 -31.582  1.00  0.00     0.030 A 
HETATM   33  N   UNL     1      -2.047   4.136 -31.036  1.00  0.00    -0.365 N 
HETATM   34  C   UNL     1      -0.649   7.266 -32.481  1.00  0.00     0.002 A 
HETATM   35  C   UNL     1      -1.572   7.391 -33.516  1.00  0.00     0.001 A 
HETATM   36  H   UNL     1      -1.521   3.809 -30.237  1.00  0.00     0.165 HD
HETATM   37  C   UNL     1      -3.152   3.522 -31.558  1.00  0.00     0.096 A 
ENDBRANCH  27  28
ENDBRANCH   1  27
TORSDOF 7
ENDMDL
MODEL 9
REMARK VINA RESULT:      -8.6      3.107      6.561
REMARK  7 active torsions:
REMARK  status: ('A' for Active; 'I' for Inactive)
REMARK    1  A    between atoms: C_4  and  N_5 
REMARK       I    between atoms: N_5  and  C_6 
REMARK       I    between atoms: C_6  and  N_7 
REMARK    2  A    between atoms: N_7  and  N_8 
REMARK       I    between atoms: N_8  and  C_9 
REMARK    3  A    between atoms: C_9  and  C_10 
REMARK    4  A    between atoms: C_10  and  N_11 
REMARK    5  A    between atoms: C_10  and  C_19 
REMARK       I    between atoms: N_11  and  C_12 
REMARK    6  A    between atoms: C_12  and  C_13 
REMARK    7  A    between atoms: C_19  and  C_20 
ROOT
HETATM    1  C   UNL     1      -4.762   1.783 -31.884  1.00  0.00     0.183 C 
ENDROOT
BRANCH   1   2
HETATM    2  C   UNL     1      -3.666   2.864 -31.828  1.00  0.00     0.259 C 
HETATM    3  N   UNL     1      -3.909   3.928 -30.988  1.00  0.00    -0.264 N 
HETATM    4  H   UNL     1      -4.701   3.945 -30.332  1.00  0.00     0.190 HD
HETATM    5  O   UNL     1      -2.675   2.826 -32.562  1.00  0.00    -0.269 OA
BRANCH   3   6
HETATM    6  N   UNL     1      -2.885   4.859 -30.768  1.00  0.00    -0.249 N 
HETATM    7  C   UNL     1      -3.254   6.140 -30.380  1.00  0.00     0.339 C 
HETATM    8  N   UNL     1      -2.152   6.960 -30.250  1.00  0.00    -0.308 N 
HETATM    9  O   UNL     1      -4.423   6.434 -30.152  1.00  0.00    -0.245 OA
HETATM   10  H   UNL     1      -1.258   6.500 -30.319  1.00  0.00     0.170 HD
HETATM   11  H   UNL     1      -2.049   4.713 -31.328  1.00  0.00     0.192 HD
BRANCH   8  12
HETATM   12  C   UNL     1      -2.135   8.321 -29.885  1.00  0.00     0.036 A 
HETATM   13  C   UNL     1      -2.546   9.359 -30.724  1.00  0.00     0.029 A 
HETATM   14  C   UNL     1      -2.502  10.686 -30.284  1.00  0.00     0.002 A 
HETATM   15  C   UNL     1      -2.046  10.987 -29.004  1.00  0.00     0.000 A 
HETATM   16  C   UNL     1      -1.629   9.961 -28.161  1.00  0.00     0.002 A 
HETATM   17  C   UNL     1      -1.671   8.635 -28.600  1.00  0.00     0.029 A 
ENDBRANCH   8  12
ENDBRANCH   3   6
ENDBRANCH   1   2
BRANCH   1  18
HETATM   18  N   UNL     1      -6.117   2.345 -31.835  1.00  0.00    -0.343 N 
HETATM   19  C   UNL     1      -7.225   1.688 -31.356  1.00  0.00     0.259 C 
HETATM   20  O   UNL     1      -7.168   0.498 -31.054  1.00  0.00    -0.267 OA
HETATM   21  H   UNL     1      -6.203   3.348 -31.956  1.00  0.00     0.163 HD
BRANCH  19  22
HETATM   22  C   UNL     1      -8.451   2.467 -31.268  1.00  0.00     0.072 A 
HETATM   23  S   UNL     1      -9.700   2.355 -32.438  1.00  0.00    -0.097 SA
HETATM   24  C   UNL     1     -10.678   3.484 -31.607  1.00  0.00     0.050 A 
HETATM   25  C   UNL     1     -10.070   3.950 -30.463  1.00  0.00     0.009 A 
HETATM   26  C   UNL     1      -8.785   3.368 -30.272  1.00  0.00     0.025 A 
ENDBRANCH  19  22
ENDBRANCH   1  18
BRANCH   1  27
HETATM   27  C   UNL     1      -4.495   0.817 -33.052  1.00  0.00     0.076 C 
BRANCH  27  28
HETATM   28  C   UNL     1      -3.908  -0.494 -32.621  1.00  0.00    -0.028 A 
HETATM   29  C   UNL     1      -4.141  -1.784 -33.198  1.00  0.00    -0.002 A 
HETATM   30  C   UNL     1      -3.380  -2.706 -32.480  1.00  0.00     0.042 A 
HETATM   31  C   UNL     1      -4.931  -2.256 -34.268  1.00  0.00     0.014 A 
HETATM   32  C   UNL     1      -3.360  -4.073 -32.780  1.00  0.00     0.030 A 
HETATM   33  N   UNL     1      -2.719  -2.009 -31.497  1.00  0.00    -0.365 N 
HETATM   34  C   UNL     1      -4.145  -4.513 -33.849  1.00  0.00     0.002 A 
HETATM   35  C   UNL     1      -4.921  -3.620 -34.583  1.00  0.00     0.001 A 
HETATM   36  H   UNL     1      -2.099  -2.425 -30.816  1.00  0.00     0.165 HD
HETATM   37  C   UNL     1      -3.027  -0.679 -31.573  1.00  0.00     0.096 A 
ENDBRANCH  27  28
ENDBRANCH   1  27
TORSDOF 7
ENDMDL
MODEL 10
REMARK VINA RESULT:      -8.4      3.069      7.623
REMARK  7 active torsions:
REMARK  status: ('A' for Active; 'I' for Inactive)
REMARK    1  A    between atoms: C_4  and  N_5 
REMARK       I    between atoms: N_5  and  C_6 
REMARK       I    between atoms: C_6  and  N_7 
REMARK    2  A    between atoms: N_7  and  N_8 
REMARK       I    between atoms: N_8  and  C_9 
REMARK    3  A    between atoms: C_9  and  C_10 
REMARK    4  A    between atoms: C_10  and  N_11 
REMARK    5  A    between atoms: C_10  and  C_19 
REMARK       I    between atoms: N_11  and  C_12 
REMARK    6  A    between atoms: C_12  and  C_13 
REMARK    7  A    between atoms: C_19  and  C_20 
ROOT
HETATM    1  C   UNL     1      -7.106   3.788 -32.073  1.00  0.00     0.183 C 
ENDROOT
BRANCH   1   2
HETATM    2  C   UNL     1      -6.181   2.869 -32.893  1.00  0.00     0.259 C 
HETATM    3  N   UNL     1      -5.494   1.911 -32.181  1.00  0.00    -0.264 N 
HETATM    4  H   UNL     1      -5.682   1.719 -31.189  1.00  0.00     0.190 HD
HETATM    5  O   UNL     1      -5.994   3.043 -34.101  1.00  0.00    -0.269 OA
BRANCH   3   6
HETATM    6  N   UNL     1      -4.765   0.943 -32.886  1.00  0.00    -0.249 N 
HETATM    7  C   UNL     1      -5.349  -0.306 -33.051  1.00  0.00     0.339 C 
HETATM    8  N   UNL     1      -4.502  -1.169 -33.714  1.00  0.00    -0.308 N 
HETATM    9  O   UNL     1      -6.493  -0.539 -32.674  1.00  0.00    -0.245 OA
HETATM   10  H   UNL     1      -3.665  -0.753 -34.092  1.00  0.00     0.170 HD
HETATM   11  H   UNL     1      -3.756   1.032 -32.809  1.00  0.00     0.192 HD
BRANCH   8  12
HETATM   12  C   UNL     1      -4.743  -2.517 -34.051  1.00  0.00     0.036 A 
HETATM   13  C   UNL     1      -5.814  -2.943 -34.839  1.00  0.00     0.029 A 
HETATM   14  C   UNL     1      -5.982  -4.301 -35.132  1.00  0.00     0.002 A 
HETATM   15  C   UNL     1      -5.084  -5.242 -34.639  1.00  0.00     0.000 A 
HETATM   16  C   UNL     1      -4.016  -4.829 -33.847  1.00  0.00     0.002 A 
HETATM   17  C   UNL     1      -3.849  -3.473 -33.553  1.00  0.00     0.029 A 
ENDBRANCH   8  12
ENDBRANCH   3   6
ENDBRANCH   1   2
BRANCH   1  18
HETATM   18  N   UNL     1      -6.404   4.954 -31.522  1.00  0.00    -0.343 N 
HETATM   19  C   UNL     1      -5.644   4.946 -30.377  1.00  0.00     0.259 C 
HETATM   20  O   UNL     1      -5.618   3.957 -29.647  1.00  0.00    -0.267 OA
HETATM   21  H   UNL     1      -6.292   5.754 -32.134  1.00  0.00     0.163 HD
BRANCH  19  22
HETATM   22  C   UNL     1      -4.920   6.172 -30.073  1.00  0.00     0.072 A 
HETATM   23  S   UNL     1      -4.346   7.230 -31.294  1.00  0.00    -0.097 SA
HETATM   24  C   UNL     1      -3.704   8.322 -30.146  1.00  0.00     0.050 A 
HETATM   25  C   UNL     1      -3.910   7.892 -28.854  1.00  0.00     0.009 A 
HETATM   26  C   UNL     1      -4.606   6.650 -28.813  1.00  0.00     0.025 A 
ENDBRANCH  19  22
ENDBRANCH   1  18
BRANCH   1  27
HETATM   27  C   UNL     1      -8.380   4.108 -32.873  1.00  0.00     0.076 C 
BRANCH  27  28
HETATM   28  C   UNL     1      -9.362   2.974 -32.913  1.00  0.00    -0.028 A 
HETATM   29  C   UNL     1     -10.457   2.802 -33.820  1.00  0.00    -0.002 A 
HETATM   30  C   UNL     1     -11.087   1.602 -33.489  1.00  0.00     0.042 A 
HETATM   31  C   UNL     1     -10.972   3.555 -34.895  1.00  0.00     0.014 A 
HETATM   32  C   UNL     1     -12.202   1.113 -34.181  1.00  0.00     0.030 A 
HETATM   33  N   UNL     1     -10.413   1.072 -32.415  1.00  0.00    -0.365 N 
HETATM   34  C   UNL     1     -12.688   1.875 -35.247  1.00  0.00     0.002 A 
HETATM   35  C   UNL     1     -12.085   3.079 -35.600  1.00  0.00     0.001 A 
HETATM   36  H   UNL     1     -10.657   0.205 -31.955  1.00  0.00     0.165 HD
HETATM   37  C   UNL     1      -9.373   1.886 -32.062  1.00  0.00     0.096 A 
ENDBRANCH  27  28
ENDBRANCH   1  27
TORSDOF 7
ENDMDL
