MODEL 1
REMARK VINA RESULT:      -8.6      0.000      0.000
REMARK  6 active torsions:
REMARK  status: ('A' for Active; 'I' for Inactive)
REMARK    1  A    between atoms: O_2  and  C_3 
REMARK    2  A    between atoms: C_4  and  C_5 
REMARK       I    between atoms: C_5  and  N_6 
REMARK    3  A    between atoms: N_6  and  C_7 
REMARK    4  A    between atoms: C_9  and  C_10 
REMARK    5  A    between atoms: C_10  and  C_11 
REMARK    6  A    between atoms: C_11  and  C_12 
ROOT
HETATM    1  C   UNL     1      -7.246   0.692 -32.630  1.00  0.00     0.725 A 
HETATM    2  N   UNL     1      -6.790   1.662 -31.876  1.00  0.00    -0.046 NA
HETATM    3  C   UNL     1      -7.757   2.629 -31.946  1.00  0.00     0.166 A 
HETATM    4  N   UNL     1      -8.814   2.302 -32.701  1.00  0.00    -0.144 NA
HETATM    5  N   UNL     1      -8.460   1.079 -33.131  1.00  0.00    -0.106 N 
HETATM    6  H   UNL     1      -9.086   0.575 -33.744  1.00  0.00     0.208 HD
ENDROOT
BRANCH   1   7
HETATM    7  N   UNL     1      -6.679  -0.522 -32.932  1.00  0.00    -0.152 N 
HETATM    8  C   UNL     1      -6.535  -0.948 -34.243  1.00  0.00     0.272 C 
HETATM    9  O   UNL     1      -6.829  -0.340 -35.261  1.00  0.00    -0.267 OA
HETATM   10  H   UNL     1      -6.400  -1.133 -32.180  1.00  0.00     0.187 HD
BRANCH   8  11
HETATM   11  C   UNL     1      -5.959  -2.312 -34.364  1.00  0.00     0.066 A 
HETATM   12  C   UNL     1      -4.651  -2.596 -33.946  1.00  0.00     0.084 A 
HETATM   13  C   UNL     1      -4.169  -3.907 -34.015  1.00  0.00     0.038 A 
HETATM   14  C   UNL     1      -4.969  -4.927 -34.532  1.00  0.00     0.003 A 
HETATM   15  C   UNL     1      -6.266  -4.649 -34.959  1.00  0.00     0.001 A 
HETATM   16  C   UNL     1      -6.766  -3.347 -34.868  1.00  0.00     0.020 A 
BRANCH  12  17
HETATM   17  O   UNL     1      -3.802  -1.678 -33.388  1.00  0.00    -0.355 OA
HETATM   18  C   UNL     1      -3.350  -2.080 -32.097  1.00  0.00     0.210 C 
ENDBRANCH  12  17
ENDBRANCH   8  11
ENDBRANCH   1   7
BRANCH   3  19
HETATM   19  C   UNL     1      -7.619   3.913 -31.210  1.00  0.00     0.087 C 
BRANCH  19  20
HETATM   20  C   UNL     1      -6.855   4.987 -31.984  1.00  0.00     0.048 C 
BRANCH  20  21
HETATM   21  C   UNL     1      -5.371   4.796 -31.900  1.00  0.00    -0.030 A 
HETATM   22  C   UNL     1      -4.423   4.908 -32.969  1.00  0.00    -0.002 A 
HETATM   23  C   UNL     1      -3.156   4.683 -32.430  1.00  0.00     0.042 A 
HETATM   24  C   UNL     1      -4.524   5.195 -34.346  1.00  0.00     0.014 A 
HETATM   25  C   UNL     1      -1.985   4.735 -33.195  1.00  0.00     0.030 A 
HETATM   26  N   UNL     1      -3.327   4.427 -31.090  1.00  0.00    -0.365 N 
HETATM   27  C   UNL     1      -2.113   5.026 -34.556  1.00  0.00     0.002 A 
HETATM   28  C   UNL     1      -3.363   5.252 -35.127  1.00  0.00     0.001 A 
HETATM   29  H   UNL     1      -2.575   4.229 -30.444  1.00  0.00     0.165 HD
HETATM   30  C   UNL     1      -4.653   4.492 -30.760  1.00  0.00     0.096 A 
ENDBRANCH  20  21
ENDBRANCH  19  20
ENDBRANCH   3  19
TORSDOF 6
ENDMDL
MODEL 2
REMARK VINA RESULT:      -8.6      3.516      7.307
REMARK  6 active torsions:
REMARK  status: ('A' for Active; 'I' for Inactive)
REMARK    1  A    between atoms: O_2  and  C_3 
REMARK    2  A    between atoms: C_4  and  C_5 
REMARK       I    between atoms: C_5  and  N_6 
REMARK    3  A    between atoms: N_6  and  C_7 
REMARK    4  A    between atoms: C_9  and  C_10 
REMARK    5  A    between atoms: C_10  and  C_11 
REMARK    6  A    between atoms: C_11  and  C_12 
ROOT
HETATM    1  C   UNL     1      -8.467   0.968 -31.596  1.00  0.00     0.725 A 
HETATM    2  N   UNL     1      -7.438   0.218 -31.905  1.00  0.00    -0.046 NA
HETATM    3  C   UNL     1      -6.406   0.740 -31.171  1.00  0.00     0.166 A 
HETATM    4  N   UNL     1      -6.746   1.781 -30.399  1.00  0.00    -0.144 NA
HETATM    5  N   UNL     1      -8.051   1.911 -30.696  1.00  0.00    -0.106 N 
HETATM    6  H   UNL     1      -8.584   2.644 -30.250  1.00  0.00     0.208 HD
ENDROOT
BRANCH   1   7
HETATM    7  N   UNL     1      -9.762   0.904 -32.050  1.00  0.00    -0.152 N 
HETATM    8  C   UNL     1     -10.057   0.929 -33.404  1.00  0.00     0.272 C 
HETATM    9  O   UNL     1      -9.272   0.966 -34.338  1.00  0.00    -0.267 OA
HETATM   10  H   UNL     1     -10.515   0.881 -31.379  1.00  0.00     0.187 HD
BRANCH   8  11
HETATM   11  C   UNL     1     -11.515   0.915 -33.693  1.00  0.00     0.066 A 
HETATM   12  C   UNL     1     -12.152   2.005 -34.303  1.00  0.00     0.084 A 
HETATM   13  C   UNL     1     -13.512   1.927 -34.618  1.00  0.00     0.038 A 
HETATM   14  C   UNL     1     -14.247   0.784 -34.297  1.00  0.00     0.003 A 
HETATM   15  C   UNL     1     -13.621  -0.298 -33.682  1.00  0.00     0.001 A 
HETATM   16  C   UNL     1     -12.256  -0.240 -33.387  1.00  0.00     0.020 A 
BRANCH  12  17
HETATM   17  O   UNL     1     -11.515   3.152 -34.693  1.00  0.00    -0.355 OA
HETATM   18  C   UNL     1     -11.783   4.241 -33.813  1.00  0.00     0.210 C 
ENDBRANCH  12  17
ENDBRANCH   8  11
ENDBRANCH   1   7
BRANCH   3  19
HETATM   19  C   UNL     1      -5.040   0.158 -31.235  1.00  0.00     0.087 C 
BRANCH  19  20
HETATM   20  C   UNL     1      -4.563  -0.137 -32.657  1.00  0.00     0.048 C 
BRANCH  20  21
HETATM   21  C   UNL     1      -4.297  -1.596 -32.873  1.00  0.00    -0.030 A 
HETATM   22  C   UNL     1      -5.030  -2.493 -33.717  1.00  0.00    -0.002 A 
HETATM   23  C   UNL     1      -4.412  -3.741 -33.638  1.00  0.00     0.042 A 
HETATM   24  C   UNL     1      -6.157  -2.354 -34.554  1.00  0.00     0.014 A 
HETATM   25  C   UNL     1      -4.859  -4.857 -34.355  1.00  0.00     0.030 A 
HETATM   26  N   UNL     1      -3.355  -3.614 -32.768  1.00  0.00    -0.365 N 
HETATM   27  C   UNL     1      -5.975  -4.691 -35.180  1.00  0.00     0.002 A 
HETATM   28  C   UNL     1      -6.618  -3.459 -35.280  1.00  0.00     0.001 A 
HETATM   29  H   UNL     1      -2.725  -4.364 -32.519  1.00  0.00     0.165 HD
HETATM   30  C   UNL     1      -3.276  -2.330 -32.302  1.00  0.00     0.096 A 
ENDBRANCH  20  21
ENDBRANCH  19  20
ENDBRANCH   3  19
TORSDOF 6
ENDMDL
MODEL 3
REMARK VINA RESULT:      -8.6      1.505      1.949
REMARK  6 active torsions:
REMARK  status: ('A' for Active; 'I' for Inactive)
REMARK    1  A    between atoms: O_2  and  C_3 
REMARK    2  A    between atoms: C_4  and  C_5 
REMARK       I    between atoms: C_5  and  N_6 
REMARK    3  A    between atoms: N_6  and  C_7 
REMARK    4  A    between atoms: C_9  and  C_10 
REMARK    5  A    between atoms: C_10  and  C_11 
REMARK    6  A    between atoms: C_11  and  C_12 
ROOT
HETATM    1  C   UNL     1      -6.360   1.036 -32.716  1.00  0.00     0.725 A 
HETATM    2  N   UNL     1      -5.624   2.073 -32.400  1.00  0.00    -0.046 NA
HETATM    3  C   UNL     1      -6.525   3.089 -32.228  1.00  0.00     0.166 A 
HETATM    4  N   UNL     1      -7.804   2.731 -32.406  1.00  0.00    -0.144 NA
HETATM    5  N   UNL     1      -7.670   1.433 -32.725  1.00  0.00    -0.106 N 
HETATM    6  H   UNL     1      -8.498   0.889 -32.925  1.00  0.00     0.208 HD
ENDROOT
BRANCH   1   7
HETATM    7  N   UNL     1      -5.978  -0.250 -33.012  1.00  0.00    -0.152 N 
HETATM    8  C   UNL     1      -6.264  -0.826 -34.239  1.00  0.00     0.272 C 
HETATM    9  O   UNL     1      -6.821  -0.308 -35.194  1.00  0.00    -0.267 OA
HETATM   10  H   UNL     1      -5.516  -0.799 -32.302  1.00  0.00     0.187 HD
BRANCH   8  11
HETATM   11  C   UNL     1      -5.826  -2.243 -34.346  1.00  0.00     0.066 A 
HETATM   12  C   UNL     1      -4.564  -2.656 -33.900  1.00  0.00     0.084 A 
HETATM   13  C   UNL     1      -4.216  -4.009 -33.958  1.00  0.00     0.038 A 
HETATM   14  C   UNL     1      -5.104  -4.945 -34.491  1.00  0.00     0.003 A 
HETATM   15  C   UNL     1      -6.356  -4.537 -34.946  1.00  0.00     0.001 A 
HETATM   16  C   UNL     1      -6.724  -3.191 -34.867  1.00  0.00     0.020 A 
BRANCH  12  17
HETATM   17  O   UNL     1      -3.638  -1.827 -33.325  1.00  0.00    -0.355 OA
HETATM   18  C   UNL     1      -3.208  -2.304 -32.052  1.00  0.00     0.210 C 
ENDBRANCH  12  17
ENDBRANCH   8  11
ENDBRANCH   1   7
BRANCH   3  19
HETATM   19  C   UNL     1      -6.085   4.457 -31.850  1.00  0.00     0.087 C 
BRANCH  19  20
HETATM   20  C   UNL     1      -6.111   5.454 -33.008  1.00  0.00     0.048 C 
BRANCH  20  21
HETATM   21  C   UNL     1      -4.770   5.598 -33.661  1.00  0.00    -0.030 A 
HETATM   22  C   UNL     1      -3.637   6.319 -33.160  1.00  0.00    -0.002 A 
HETATM   23  C   UNL     1      -2.598   6.155 -34.076  1.00  0.00     0.042 A 
HETATM   24  C   UNL     1      -3.395   7.086 -32.001  1.00  0.00     0.014 A 
HETATM   25  C   UNL     1      -1.328   6.714 -33.892  1.00  0.00     0.030 A 
HETATM   26  N   UNL     1      -3.083   5.380 -35.103  1.00  0.00    -0.365 N 
HETATM   27  C   UNL     1      -1.113   7.465 -32.733  1.00  0.00     0.002 A 
HETATM   28  C   UNL     1      -2.130   7.651 -31.800  1.00  0.00     0.001 A 
HETATM   29  H   UNL     1      -2.546   5.098 -35.911  1.00  0.00     0.165 HD
HETATM   30  C   UNL     1      -4.387   5.040 -34.865  1.00  0.00     0.096 A 
ENDBRANCH  20  21
ENDBRANCH  19  20
ENDBRANCH   3  19
TORSDOF 6
ENDMDL
MODEL 4
REMARK VINA RESULT:      -8.6      4.334      8.298
REMARK  6 active torsions:
REMARK  status: ('A' for Active; 'I' for Inactive)
REMARK    1  A    between atoms: O_2  and  C_3 
REMARK    2  A    between atoms: C_4  and  C_5 
REMARK       I    between atoms: C_5  and  N_6 
REMARK    3  A    between atoms: N_6  and  C_7 
REMARK    4  A    between atoms: C_9  and  C_10 
REMARK    5  A    between atoms: C_10  and  C_11 
REMARK    6  A    between atoms: C_11  and  C_12 
ROOT
HETATM    1  C   UNL     1      -9.866   1.841 -33.491  1.00  0.00     0.725 A 
HETATM    2  N   UNL     1      -9.220   1.072 -34.331  1.00  0.00    -0.046 NA
HETATM    3  C   UNL     1      -7.917   1.483 -34.235  1.00  0.00     0.166 A 
HETATM    4  N   UNL     1      -7.712   2.471 -33.354  1.00  0.00    -0.144 NA
HETATM    5  N   UNL     1      -8.961   2.686 -32.907  1.00  0.00    -0.106 N 
HETATM    6  H   UNL     1      -9.116   3.405 -32.214  1.00  0.00     0.208 HD
ENDROOT
BRANCH   1   7
HETATM    7  N   UNL     1     -11.206   1.877 -33.190  1.00  0.00    -0.152 N 
HETATM    8  C   UNL     1     -12.028   2.887 -33.663  1.00  0.00     0.272 C 
HETATM    9  O   UNL     1     -11.724   3.812 -34.400  1.00  0.00    -0.267 OA
HETATM   10  H   UNL     1     -11.589   1.173 -32.576  1.00  0.00     0.187 HD
BRANCH   8  11
HETATM   11  C   UNL     1     -13.430   2.787 -33.178  1.00  0.00     0.066 A 
HETATM   12  C   UNL     1     -14.254   1.710 -33.532  1.00  0.00     0.084 A 
HETATM   13  C   UNL     1     -15.545   1.620 -33.002  1.00  0.00     0.038 A 
HETATM   14  C   UNL     1     -16.030   2.614 -32.151  1.00  0.00     0.003 A 
HETATM   15  C   UNL     1     -15.218   3.692 -31.804  1.00  0.00     0.001 A 
HETATM   16  C   UNL     1     -13.918   3.777 -32.307  1.00  0.00     0.020 A 
BRANCH  12  17
HETATM   17  O   UNL     1     -13.861   0.666 -34.325  1.00  0.00    -0.355 OA
HETATM   18  C   UNL     1     -13.640  -0.526 -33.572  1.00  0.00     0.210 C 
ENDBRANCH  12  17
ENDBRANCH   8  11
ENDBRANCH   1   7
BRANCH   3  19
HETATM   19  C   UNL     1      -6.844   0.844 -35.040  1.00  0.00     0.087 C 
BRANCH  19  20
HETATM   20  C   UNL     1      -6.913  -0.683 -35.057  1.00  0.00     0.048 C 
BRANCH  20  21
HETATM   21  C   UNL     1      -5.757  -1.309 -34.338  1.00  0.00    -0.030 A 
HETATM   22  C   UNL     1      -5.396  -2.696 -34.323  1.00  0.00    -0.002 A 
HETATM   23  C   UNL     1      -4.237  -2.819 -33.557  1.00  0.00     0.042 A 
HETATM   24  C   UNL     1      -5.943  -3.860 -34.903  1.00  0.00     0.014 A 
HETATM   25  C   UNL     1      -3.592  -4.043 -33.344  1.00  0.00     0.030 A 
HETATM   26  N   UNL     1      -3.913  -1.559 -33.109  1.00  0.00    -0.365 N 
HETATM   27  C   UNL     1      -4.152  -5.180 -33.934  1.00  0.00     0.002 A 
HETATM   28  C   UNL     1      -5.311  -5.093 -34.702  1.00  0.00     0.001 A 
HETATM   29  H   UNL     1      -3.113  -1.345 -32.530  1.00  0.00     0.165 HD
HETATM   30  C   UNL     1      -4.819  -0.644 -33.572  1.00  0.00     0.096 A 
ENDBRANCH  20  21
ENDBRANCH  19  20
ENDBRANCH   3  19
TORSDOF 6
ENDMDL
MODEL 5
REMARK VINA RESULT:      -8.5      2.674      7.969
REMARK  6 active torsions:
REMARK  status: ('A' for Active; 'I' for Inactive)
REMARK    1  A    between atoms: O_2  and  C_3 
REMARK    2  A    between atoms: C_4  and  C_5 
REMARK       I    between atoms: C_5  and  N_6 
REMARK    3  A    between atoms: N_6  and  C_7 
REMARK    4  A    between atoms: C_9  and  C_10 
REMARK    5  A    between atoms: C_10  and  C_11 
REMARK    6  A    between atoms: C_11  and  C_12 
ROOT
HETATM    1  C   UNL     1      -4.801   3.229 -30.854  1.00  0.00     0.725 A 
HETATM    2  N   UNL     1      -5.419   2.627 -31.841  1.00  0.00    -0.046 NA
HETATM    3  C   UNL     1      -6.275   1.755 -31.223  1.00  0.00     0.166 A 
HETATM    4  N   UNL     1      -6.234   1.794 -29.884  1.00  0.00    -0.144 NA
HETATM    5  N   UNL     1      -5.287   2.724 -29.678  1.00  0.00    -0.106 N 
HETATM    6  H   UNL     1      -5.034   2.965 -28.730  1.00  0.00     0.208 HD
ENDROOT
BRANCH   1   7
HETATM    7  N   UNL     1      -3.823   4.194 -30.893  1.00  0.00    -0.152 N 
HETATM    8  C   UNL     1      -2.647   4.004 -31.601  1.00  0.00     0.272 C 
HETATM    9  O   UNL     1      -2.335   3.041 -32.284  1.00  0.00    -0.267 OA
HETATM   10  H   UNL     1      -3.949   5.040 -30.359  1.00  0.00     0.187 HD
BRANCH   8  11
HETATM   11  C   UNL     1      -1.688   5.132 -31.470  1.00  0.00     0.066 A 
HETATM   12  C   UNL     1      -1.874   6.337 -32.161  1.00  0.00     0.084 A 
HETATM   13  C   UNL     1      -0.985   7.398 -31.960  1.00  0.00     0.038 A 
HETATM   14  C   UNL     1       0.107   7.251 -31.104  1.00  0.00     0.003 A 
HETATM   15  C   UNL     1       0.303   6.051 -30.423  1.00  0.00     0.001 A 
HETATM   16  C   UNL     1      -0.596   4.995 -30.596  1.00  0.00     0.020 A 
BRANCH  12  17
HETATM   17  O   UNL     1      -2.933   6.596 -32.990  1.00  0.00    -0.355 OA
HETATM   18  C   UNL     1      -2.643   6.270 -34.348  1.00  0.00     0.210 C 
ENDBRANCH  12  17
ENDBRANCH   8  11
ENDBRANCH   1   7
BRANCH   3  19
HETATM   19  C   UNL     1      -7.176   0.872 -32.007  1.00  0.00     0.087 C 
BRANCH  19  20
HETATM   20  C   UNL     1      -6.701   0.622 -33.438  1.00  0.00     0.048 C 
BRANCH  20  21
HETATM   21  C   UNL     1      -5.687  -0.479 -33.513  1.00  0.00    -0.030 A 
HETATM   22  C   UNL     1      -5.896  -1.817 -33.980  1.00  0.00    -0.002 A 
HETATM   23  C   UNL     1      -4.672  -2.483 -33.904  1.00  0.00     0.042 A 
HETATM   24  C   UNL     1      -7.013  -2.522 -34.475  1.00  0.00     0.014 A 
HETATM   25  C   UNL     1      -4.506  -3.815 -34.302  1.00  0.00     0.030 A 
HETATM   26  N   UNL     1      -3.758  -1.591 -33.395  1.00  0.00    -0.365 N 
HETATM   27  C   UNL     1      -5.628  -4.489 -34.793  1.00  0.00     0.002 A 
HETATM   28  C   UNL     1      -6.865  -3.855 -34.879  1.00  0.00     0.001 A 
HETATM   29  H   UNL     1      -2.783  -1.800 -33.232  1.00  0.00     0.165 HD
HETATM   30  C   UNL     1      -4.356  -0.384 -33.157  1.00  0.00     0.096 A 
ENDBRANCH  20  21
ENDBRANCH  19  20
ENDBRANCH   3  19
TORSDOF 6
ENDMDL
MODEL 6
REMARK VINA RESULT:      -8.5      2.258      7.789
REMARK  6 active torsions:
REMARK  status: ('A' for Active; 'I' for Inactive)
REMARK    1  A    between atoms: O_2  and  C_3 
REMARK    2  A    between atoms: C_4  and  C_5 
REMARK       I    between atoms: C_5  and  N_6 
REMARK    3  A    between atoms: N_6  and  C_7 
REMARK    4  A    between atoms: C_9  and  C_10 
REMARK    5  A    between atoms: C_10  and  C_11 
REMARK    6  A    between atoms: C_11  and  C_12 
ROOT
HETATM    1  C   UNL     1      -5.233   2.454 -32.407  1.00  0.00     0.725 A 
HETATM    2  N   UNL     1      -5.580   1.547 -33.287  1.00  0.00    -0.046 NA
HETATM    3  C   UNL     1      -6.567   0.831 -32.664  1.00  0.00     0.166 A 
HETATM    4  N   UNL     1      -6.869   1.260 -31.431  1.00  0.00    -0.144 NA
HETATM    5  N   UNL     1      -6.004   2.279 -31.290  1.00  0.00    -0.106 N 
HETATM    6  H   UNL     1      -6.001   2.803 -30.426  1.00  0.00     0.208 HD
ENDROOT
BRANCH   1   7
HETATM    7  N   UNL     1      -4.276   3.436 -32.494  1.00  0.00    -0.152 N 
HETATM    8  C   UNL     1      -3.064   3.327 -31.831  1.00  0.00     0.272 C 
HETATM    9  O   UNL     1      -2.669   2.394 -31.150  1.00  0.00    -0.267 OA
HETATM   10  H   UNL     1      -4.480   4.273 -33.019  1.00  0.00     0.187 HD
BRANCH   8  11
HETATM   11  C   UNL     1      -2.189   4.516 -31.996  1.00  0.00     0.066 A 
HETATM   12  C   UNL     1      -1.885   5.034 -33.263  1.00  0.00     0.084 A 
HETATM   13  C   UNL     1      -1.111   6.193 -33.372  1.00  0.00     0.038 A 
HETATM   14  C   UNL     1      -0.609   6.817 -32.229  1.00  0.00     0.003 A 
HETATM   15  C   UNL     1      -0.899   6.301 -30.968  1.00  0.00     0.001 A 
HETATM   16  C   UNL     1      -1.694   5.158 -30.847  1.00  0.00     0.020 A 
BRANCH  12  17
HETATM   17  O   UNL     1      -2.360   4.521 -34.440  1.00  0.00    -0.355 OA
HETATM   18  C   UNL     1      -3.228   5.433 -35.110  1.00  0.00     0.210 C 
ENDBRANCH  12  17
ENDBRANCH   8  11
ENDBRANCH   1   7
BRANCH   3  19
HETATM   19  C   UNL     1      -7.240  -0.307 -33.341  1.00  0.00     0.087 C 
BRANCH  19  20
HETATM   20  C   UNL     1      -6.577  -0.722 -34.655  1.00  0.00     0.048 C 
BRANCH  20  21
HETATM   21  C   UNL     1      -5.904  -2.057 -34.552  1.00  0.00    -0.030 A 
HETATM   22  C   UNL     1      -4.846  -2.426 -33.658  1.00  0.00    -0.002 A 
HETATM   23  C   UNL     1      -4.555  -3.771 -33.887  1.00  0.00     0.042 A 
HETATM   24  C   UNL     1      -4.117  -1.742 -32.663  1.00  0.00     0.014 A 
HETATM   25  C   UNL     1      -3.576  -4.469 -33.170  1.00  0.00     0.030 A 
HETATM   26  N   UNL     1      -5.390  -4.200 -34.892  1.00  0.00    -0.365 N 
HETATM   27  C   UNL     1      -2.872  -3.769 -32.186  1.00  0.00     0.002 A 
HETATM   28  C   UNL     1      -3.135  -2.425 -31.935  1.00  0.00     0.001 A 
HETATM   29  H   UNL     1      -5.402  -5.139 -35.265  1.00  0.00     0.165 HD
HETATM   30  C   UNL     1      -6.205  -3.179 -35.299  1.00  0.00     0.096 A 
ENDBRANCH  20  21
ENDBRANCH  19  20
ENDBRANCH   3  19
TORSDOF 6
ENDMDL
MODEL 7
REMARK VINA RESULT:      -8.5      3.395      6.079
REMARK  6 active torsions:
REMARK  status: ('A' for Active; 'I' for Inactive)
REMARK    1  A    between atoms: O_2  and  C_3 
REMARK    2  A    between atoms: C_4  and  C_5 
REMARK       I    between atoms: C_5  and  N_6 
REMARK    3  A    between atoms: N_6  and  C_7 
REMARK    4  A    between atoms: C_9  and  C_10 
REMARK    5  A    between atoms: C_10  and  C_11 
REMARK    6  A    between atoms: C_11  and  C_12 
ROOT
HETATM    1  C   UNL     1      -7.175   0.662 -32.426  1.00  0.00     0.725 A 
HETATM    2  N   UNL     1      -8.418   1.066 -32.521  1.00  0.00    -0.046 NA
HETATM    3  C   UNL     1      -8.400   2.338 -32.013  1.00  0.00     0.166 A 
HETATM    4  N   UNL     1      -7.191   2.759 -31.617  1.00  0.00    -0.144 NA
HETATM    5  N   UNL     1      -6.439   1.676 -31.878  1.00  0.00    -0.106 N 
HETATM    6  H   UNL     1      -5.450   1.704 -31.667  1.00  0.00     0.208 HD
ENDROOT
BRANCH   1   7
HETATM    7  N   UNL     1      -6.619  -0.546 -32.776  1.00  0.00    -0.152 N 
HETATM    8  C   UNL     1      -6.486  -0.924 -34.102  1.00  0.00     0.272 C 
HETATM    9  O   UNL     1      -6.781  -0.278 -35.095  1.00  0.00    -0.267 OA
HETATM   10  H   UNL     1      -6.341  -1.186 -32.048  1.00  0.00     0.187 HD
BRANCH   8  11
HETATM   11  C   UNL     1      -5.922  -2.288 -34.276  1.00  0.00     0.066 A 
HETATM   12  C   UNL     1      -4.610  -2.594 -33.889  1.00  0.00     0.084 A 
HETATM   13  C   UNL     1      -4.139  -3.905 -34.009  1.00  0.00     0.038 A 
HETATM   14  C   UNL     1      -4.955  -4.903 -34.544  1.00  0.00     0.003 A 
HETATM   15  C   UNL     1      -6.256  -4.602 -34.940  1.00  0.00     0.001 A 
HETATM   16  C   UNL     1      -6.745  -3.300 -34.800  1.00  0.00     0.020 A 
BRANCH  12  17
HETATM   17  O   UNL     1      -3.746  -1.700 -33.317  1.00  0.00    -0.355 OA
HETATM   18  C   UNL     1      -3.276  -2.146 -32.046  1.00  0.00     0.210 C 
ENDBRANCH  12  17
ENDBRANCH   8  11
ENDBRANCH   1   7
BRANCH   3  19
HETATM   19  C   UNL     1      -9.635   3.160 -31.947  1.00  0.00     0.087 C 
BRANCH  19  20
HETATM   20  C   UNL     1     -10.173   3.576 -33.316  1.00  0.00     0.048 C 
BRANCH  20  21
HETATM   21  C   UNL     1     -11.652   3.362 -33.431  1.00  0.00    -0.030 A 
HETATM   22  C   UNL     1     -12.339   2.108 -33.531  1.00  0.00    -0.002 A 
HETATM   23  C   UNL     1     -13.706   2.383 -33.584  1.00  0.00     0.042 A 
HETATM   24  C   UNL     1     -11.924   0.760 -33.568  1.00  0.00     0.014 A 
HETATM   25  C   UNL     1     -14.680   1.381 -33.667  1.00  0.00     0.030 A 
HETATM   26  N   UNL     1     -13.845   3.750 -33.536  1.00  0.00    -0.365 N 
HETATM   27  C   UNL     1     -14.242   0.054 -33.697  1.00  0.00     0.002 A 
HETATM   28  C   UNL     1     -12.885  -0.255 -33.649  1.00  0.00     0.001 A 
HETATM   29  H   UNL     1     -14.730   4.237 -33.556  1.00  0.00     0.165 HD
HETATM   30  C   UNL     1     -12.618   4.349 -33.444  1.00  0.00     0.096 A 
ENDBRANCH  20  21
ENDBRANCH  19  20
ENDBRANCH   3  19
TORSDOF 6
ENDMDL
MODEL 8
REMARK VINA RESULT:      -8.4      3.149      8.404
REMARK  6 active torsions:
REMARK  status: ('A' for Active; 'I' for Inactive)
REMARK    1  A    between atoms: O_2  and  C_3 
REMARK    2  A    between atoms: C_4  and  C_5 
REMARK       I    between atoms: C_5  and  N_6 
REMARK    3  A    between atoms: N_6  and  C_7 
REMARK    4  A    between atoms: C_9  and  C_10 
REMARK    5  A    between atoms: C_10  and  C_11 
REMARK    6  A    between atoms: C_11  and  C_12 
ROOT
HETATM    1  C   UNL     1      -4.555   3.735 -32.480  1.00  0.00     0.725 A 
HETATM    2  N   UNL     1      -5.012   2.555 -32.144  1.00  0.00    -0.046 NA
HETATM    3  C   UNL     1      -5.968   2.281 -33.085  1.00  0.00     0.166 A 
HETATM    4  N   UNL     1      -6.121   3.235 -34.013  1.00  0.00    -0.144 NA
HETATM    5  N   UNL     1      -5.225   4.147 -33.600  1.00  0.00    -0.106 N 
HETATM    6  H   UNL     1      -5.122   5.005 -34.124  1.00  0.00     0.208 HD
ENDROOT
BRANCH   1   7
HETATM    7  N   UNL     1      -3.590   4.504 -31.875  1.00  0.00    -0.152 N 
HETATM    8  C   UNL     1      -2.439   4.882 -32.547  1.00  0.00     0.272 C 
HETATM    9  O   UNL     1      -2.141   4.644 -33.707  1.00  0.00    -0.267 OA
HETATM   10  H   UNL     1      -3.706   4.763 -30.907  1.00  0.00     0.187 HD
BRANCH   8  11
HETATM   11  C   UNL     1      -1.488   5.656 -31.707  1.00  0.00     0.066 A 
HETATM   12  C   UNL     1      -1.877   6.833 -31.053  1.00  0.00     0.084 A 
HETATM   13  C   UNL     1      -0.972   7.496 -30.219  1.00  0.00     0.038 A 
HETATM   14  C   UNL     1       0.328   7.013 -30.062  1.00  0.00     0.003 A 
HETATM   15  C   UNL     1       0.723   5.849 -30.717  1.00  0.00     0.001 A 
HETATM   16  C   UNL     1      -0.183   5.164 -31.531  1.00  0.00     0.020 A 
BRANCH  12  17
HETATM   17  O   UNL     1      -3.136   7.367 -31.109  1.00  0.00    -0.355 OA
HETATM   18  C   UNL     1      -3.178   8.700 -30.602  1.00  0.00     0.210 C 
ENDBRANCH  12  17
ENDBRANCH   8  11
ENDBRANCH   1   7
BRANCH   3  19
HETATM   19  C   UNL     1      -6.734   1.008 -33.061  1.00  0.00     0.087 C 
BRANCH  19  20
HETATM   20  C   UNL     1      -6.506   0.128 -34.290  1.00  0.00     0.048 C 
BRANCH  20  21
HETATM   21  C   UNL     1      -5.511  -0.961 -34.029  1.00  0.00    -0.030 A 
HETATM   22  C   UNL     1      -5.657  -2.356 -34.326  1.00  0.00    -0.002 A 
HETATM   23  C   UNL     1      -4.475  -2.991 -33.945  1.00  0.00     0.042 A 
HETATM   24  C   UNL     1      -6.683  -3.136 -34.898  1.00  0.00     0.014 A 
HETATM   25  C   UNL     1      -4.263  -4.365 -34.111  1.00  0.00     0.030 A 
HETATM   26  N   UNL     1      -3.648  -2.025 -33.422  1.00  0.00    -0.365 N 
HETATM   27  C   UNL     1      -5.294  -5.114 -34.684  1.00  0.00     0.002 A 
HETATM   28  C   UNL     1      -6.488  -4.512 -35.072  1.00  0.00     0.001 A 
HETATM   29  H   UNL     1      -2.718  -2.199 -33.065  1.00  0.00     0.165 HD
HETATM   30  C   UNL     1      -4.259  -0.802 -33.467  1.00  0.00     0.096 A 
ENDBRANCH  20  21
ENDBRANCH  19  20
ENDBRANCH   3  19
TORSDOF 6
ENDMDL
MODEL 9
REMARK VINA RESULT:      -8.3      4.061      6.765
REMARK  6 active torsions:
REMARK  status: ('A' for Active; 'I' for Inactive)
REMARK    1  A    between atoms: O_2  and  C_3 
REMARK    2  A    between atoms: C_4  and  C_5 
REMARK       I    between atoms: C_5  and  N_6 
REMARK    3  A    between atoms: N_6  and  C_7 
REMARK    4  A    between atoms: C_9  and  C_10 
REMARK    5  A    between atoms: C_10  and  C_11 
REMARK    6  A    between atoms: C_11  and  C_12 
ROOT
HETATM    1  C   UNL     1      -7.822   0.371 -32.753  1.00  0.00     0.725 A 
HETATM    2  N   UNL     1      -8.972   0.775 -33.232  1.00  0.00    -0.046 NA
HETATM    3  C   UNL     1      -9.196   1.974 -32.609  1.00  0.00     0.166 A 
HETATM    4  N   UNL     1      -8.224   2.351 -31.767  1.00  0.00    -0.144 NA
HETATM    5  N   UNL     1      -7.374   1.314 -31.868  1.00  0.00    -0.106 N 
HETATM    6  H   UNL     1      -6.524   1.322 -31.322  1.00  0.00     0.208 HD
ENDROOT
BRANCH   1   7
HETATM    7  N   UNL     1      -7.119  -0.780 -33.020  1.00  0.00    -0.152 N 
HETATM    8  C   UNL     1      -6.691  -1.086 -34.302  1.00  0.00     0.272 C 
HETATM    9  O   UNL     1      -6.825  -0.414 -35.313  1.00  0.00    -0.267 OA
HETATM   10  H   UNL     1      -6.949  -1.434 -32.271  1.00  0.00     0.187 HD
BRANCH   8  11
HETATM   11  C   UNL     1      -6.005  -2.400 -34.400  1.00  0.00     0.066 A 
HETATM   12  C   UNL     1      -4.687  -2.575 -33.957  1.00  0.00     0.084 A 
HETATM   13  C   UNL     1      -4.099  -3.843 -34.006  1.00  0.00     0.038 A 
HETATM   14  C   UNL     1      -4.805  -4.928 -34.528  1.00  0.00     0.003 A 
HETATM   15  C   UNL     1      -6.112  -4.758 -34.979  1.00  0.00     0.001 A 
HETATM   16  C   UNL     1      -6.717  -3.501 -34.909  1.00  0.00     0.020 A 
BRANCH  12  17
HETATM   17  O   UNL     1      -3.925  -1.587 -33.393  1.00  0.00    -0.355 OA
HETATM   18  C   UNL     1      -3.400  -1.972 -32.124  1.00  0.00     0.210 C 
ENDBRANCH  12  17
ENDBRANCH   8  11
ENDBRANCH   1   7
BRANCH   3  19
HETATM   19  C   UNL     1     -10.416   2.774 -32.888  1.00  0.00     0.087 C 
BRANCH  19  20
HETATM   20  C   UNL     1     -11.247   2.242 -34.056  1.00  0.00     0.048 C 
BRANCH  20  21
HETATM   21  C   UNL     1     -12.599   1.765 -33.618  1.00  0.00    -0.030 A 
HETATM   22  C   UNL     1     -13.654   2.555 -33.055  1.00  0.00    -0.002 A 
HETATM   23  C   UNL     1     -14.738   1.705 -32.830  1.00  0.00     0.042 A 
HETATM   24  C   UNL     1     -13.793   3.920 -32.728  1.00  0.00     0.014 A 
HETATM   25  C   UNL     1     -15.955   2.150 -32.300  1.00  0.00     0.030 A 
HETATM   26  N   UNL     1     -14.352   0.446 -33.224  1.00  0.00    -0.365 N 
HETATM   27  C   UNL     1     -16.067   3.508 -31.989  1.00  0.00     0.002 A 
HETATM   28  C   UNL     1     -15.003   4.383 -32.198  1.00  0.00     0.001 A 
HETATM   29  H   UNL     1     -14.941  -0.374 -33.177  1.00  0.00     0.165 HD
HETATM   30  C   UNL     1     -13.069   0.469 -33.699  1.00  0.00     0.096 A 
ENDBRANCH  20  21
ENDBRANCH  19  20
ENDBRANCH   3  19
TORSDOF 6
ENDMDL
MODEL 10
REMARK VINA RESULT:      -8.3      4.888      9.645
REMARK  6 active torsions:
REMARK  status: ('A' for Active; 'I' for Inactive)
REMARK    1  A    between atoms: O_2  and  C_3 
REMARK    2  A    between atoms: C_4  and  C_5 
REMARK       I    between atoms: C_5  and  N_6 
REMARK    3  A    between atoms: N_6  and  C_7 
REMARK    4  A    between atoms: C_9  and  C_10 
REMARK    5  A    between atoms: C_10  and  C_11 
REMARK    6  A    between atoms: C_11  and  C_12 
ROOT
HETATM    1  C   UNL     1      -1.556   5.233 -30.966  1.00  0.00     0.725 A 
HETATM    2  N   UNL     1      -1.865   3.978 -31.182  1.00  0.00    -0.046 NA
HETATM    3  C   UNL     1      -2.690   4.015 -32.274  1.00  0.00     0.166 A 
HETATM    4  N   UNL     1      -2.901   5.243 -32.767  1.00  0.00    -0.144 NA
HETATM    5  N   UNL     1      -2.183   5.994 -31.915  1.00  0.00    -0.106 N 
HETATM    6  H   UNL     1      -2.160   6.996 -32.043  1.00  0.00     0.208 HD
ENDROOT
BRANCH   1   7
HETATM    7  N   UNL     1      -0.764   5.782 -29.986  1.00  0.00    -0.152 N 
HETATM    8  C   UNL     1      -1.220   6.814 -29.182  1.00  0.00     0.272 C 
HETATM    9  O   UNL     1      -2.326   7.332 -29.188  1.00  0.00    -0.267 OA
HETATM   10  H   UNL     1       0.183   5.453 -29.880  1.00  0.00     0.187 HD
BRANCH   8  11
HETATM   11  C   UNL     1      -0.199   7.317 -28.225  1.00  0.00     0.066 A 
HETATM   12  C   UNL     1      -0.150   6.864 -26.900  1.00  0.00     0.084 A 
HETATM   13  C   UNL     1       0.866   7.312 -26.050  1.00  0.00     0.038 A 
HETATM   14  C   UNL     1       1.811   8.234 -26.504  1.00  0.00     0.003 A 
HETATM   15  C   UNL     1       1.760   8.695 -27.818  1.00  0.00     0.001 A 
HETATM   16  C   UNL     1       0.765   8.233 -28.682  1.00  0.00     0.020 A 
BRANCH  12  17
HETATM   17  O   UNL     1      -1.002   5.933 -26.370  1.00  0.00    -0.355 OA
HETATM   18  C   UNL     1      -2.120   6.535 -25.722  1.00  0.00     0.210 C 
ENDBRANCH  12  17
ENDBRANCH   8  11
ENDBRANCH   1   7
BRANCH   3  19
HETATM   19  C   UNL     1      -3.265   2.773 -32.851  1.00  0.00     0.087 C 
BRANCH  19  20
HETATM   20  C   UNL     1      -3.958   1.880 -31.822  1.00  0.00     0.048 C 
BRANCH  20  21
HETATM   21  C   UNL     1      -3.922   0.433 -32.213  1.00  0.00    -0.030 A 
HETATM   22  C   UNL     1      -4.802  -0.239 -33.123  1.00  0.00    -0.002 A 
HETATM   23  C   UNL     1      -4.379  -1.566 -33.211  1.00  0.00     0.042 A 
HETATM   24  C   UNL     1      -5.914   0.163 -33.892  1.00  0.00     0.014 A 
HETATM   25  C   UNL     1      -5.007  -2.510 -34.031  1.00  0.00     0.030 A 
HETATM   26  N   UNL     1      -3.295  -1.700 -32.375  1.00  0.00    -0.365 N 
HETATM   27  C   UNL     1      -6.103  -2.085 -34.787  1.00  0.00     0.002 A 
HETATM   28  C   UNL     1      -6.553  -0.768 -34.720  1.00  0.00     0.001 A 
HETATM   29  H   UNL     1      -2.781  -2.559 -32.239  1.00  0.00     0.165 HD
HETATM   30  C   UNL     1      -3.011  -0.506 -31.771  1.00  0.00     0.096 A 
ENDBRANCH  20  21
ENDBRANCH  19  20
ENDBRANCH   3  19
TORSDOF 6
ENDMDL
