MODEL 1
REMARK VINA RESULT:     -10.8      0.000      0.000
REMARK  5 active torsions:
REMARK  status: ('A' for Active; 'I' for Inactive)
REMARK    1  A    between atoms: C_2  and  O_5 
REMARK    2  A    between atoms: O_5  and  C_6 
REMARK    3  A    between atoms: C_10  and  C_12 
REMARK    4  A    between atoms: C_16  and  C_17 
REMARK       I    between atoms: C_17  and  N_19 
REMARK    5  A    between atoms: N_19  and  C_20 
ROOT
HETATM    1  C   UNL     1      -4.830   3.664 -31.304  1.00  0.00     0.061 C 
HETATM    2  C   UNL     1      -5.571   4.758 -30.537  1.00  0.00     0.279 C 
HETATM    3  N   UNL     1      -6.855   4.116 -30.230  1.00  0.00     0.085 N 
HETATM    4  C   UNL     1      -7.258   3.466 -31.479  1.00  0.00     0.284 C 
HETATM    5  C   UNL     1      -5.952   3.006 -32.129  1.00  0.00     0.116 C 
HETATM    6  H   UNL     1      -7.543   4.816 -29.947  1.00  0.00     0.315 HD
ENDROOT
BRANCH   5   7
HETATM    7  C   UNL     1      -5.777   1.496 -32.171  1.00  0.00     0.228 C 
HETATM    8  O   UNL     1      -5.932   0.839 -31.144  1.00  0.00    -0.273 OA
HETATM    9  N   UNL     1      -5.491   0.974 -33.416  1.00  0.00    -0.325 N 
HETATM   10  H   UNL     1      -5.180   1.620 -34.140  1.00  0.00     0.169 HD
BRANCH   9  11
HETATM   11  C   UNL     1      -5.471  -0.395 -33.776  1.00  0.00     0.057 A 
HETATM   12  C   UNL     1      -4.482  -1.275 -33.315  1.00  0.00     0.043 A 
HETATM   13  C   UNL     1      -4.519  -2.632 -33.652  1.00  0.00    -0.017 A 
HETATM   14  C   UNL     1      -3.510  -3.561 -33.140  1.00  0.00     0.029 A 
HETATM   15  C   UNL     1      -5.548  -3.109 -34.477  1.00  0.00     0.044 A 
HETATM   16  C   UNL     1      -3.578  -4.855 -33.475  1.00  0.00     0.092 A 
HETATM   17  N   UNL     1      -4.570  -5.327 -34.292  1.00  0.00    -0.333 N 
HETATM   18  C   UNL     1      -5.573  -4.551 -34.833  1.00  0.00     0.256 A 
HETATM   19  H   UNL     1      -4.600  -6.311 -34.539  1.00  0.00     0.168 HD
HETATM   20  O   UNL     1      -6.440  -5.019 -35.561  1.00  0.00    -0.267 OA
HETATM   21  C   UNL     1      -6.544  -2.249 -34.945  1.00  0.00     0.044 A 
HETATM   22  C   UNL     1      -6.510  -0.903 -34.581  1.00  0.00     0.061 A 
HETATM   23 CL   UNL     1      -7.765   0.135 -35.168  1.00  0.00    -0.082 Cl
ENDBRANCH   9  11
ENDBRANCH   5   7
BRANCH   1  24
HETATM   24  C   UNL     1      -3.593   4.169 -32.024  1.00  0.00    -0.049 A 
HETATM   25  C   UNL     1      -3.702   4.475 -33.391  1.00  0.00     0.007 A 
HETATM   26  C   UNL     1      -2.611   4.965 -34.107  1.00  0.00     0.003 A 
HETATM   27  C   UNL     1      -1.392   5.159 -33.464  1.00  0.00     0.037 A 
HETATM   28  C   UNL     1      -1.251   4.862 -32.108  1.00  0.00     0.078 A 
HETATM   29  C   UNL     1      -2.347   4.354 -31.399  1.00  0.00     0.044 A 
BRANCH  28  30
HETATM   30  O   UNL     1      -0.004   5.106 -31.605  1.00  0.00    -0.255 OA
BRANCH  30  31
HETATM   31  C   UNL     1       0.211   6.334 -30.931  1.00  0.00     0.530 C 
HETATM   32  F   UNL     1      -0.906   7.091 -30.918  1.00  0.00    -0.144 F 
HETATM   33  F   UNL     1       1.177   7.022 -31.579  1.00  0.00    -0.144 F 
HETATM   34  F   UNL     1       0.629   6.123 -29.663  1.00  0.00    -0.144 F 
ENDBRANCH  30  31
ENDBRANCH  28  30
ENDBRANCH   1  24
TORSDOF 5
ENDMDL
MODEL 2
REMARK VINA RESULT:     -10.4      4.849      6.577
REMARK  5 active torsions:
REMARK  status: ('A' for Active; 'I' for Inactive)
REMARK    1  A    between atoms: C_2  and  O_5 
REMARK    2  A    between atoms: O_5  and  C_6 
REMARK    3  A    between atoms: C_10  and  C_12 
REMARK    4  A    between atoms: C_16  and  C_17 
REMARK       I    between atoms: C_17  and  N_19 
REMARK    5  A    between atoms: N_19  and  C_20 
ROOT
HETATM    1  C   UNL     1      -6.934   3.513 -33.601  1.00  0.00     0.061 C 
HETATM    2  C   UNL     1      -6.106   4.767 -33.880  1.00  0.00     0.279 C 
HETATM    3  N   UNL     1      -4.768   4.372 -33.425  1.00  0.00     0.085 N 
HETATM    4  C   UNL     1      -4.988   3.713 -32.136  1.00  0.00     0.284 C 
HETATM    5  C   UNL     1      -6.332   2.996 -32.279  1.00  0.00     0.116 C 
HETATM    6  H   UNL     1      -4.174   5.196 -33.314  1.00  0.00     0.315 HD
ENDROOT
BRANCH   5   7
HETATM    7  C   UNL     1      -6.229   1.479 -32.291  1.00  0.00     0.228 C 
HETATM    8  O   UNL     1      -6.699   0.832 -31.358  1.00  0.00    -0.273 OA
HETATM    9  N   UNL     1      -5.631   0.942 -33.413  1.00  0.00    -0.325 N 
HETATM   10  H   UNL     1      -5.097   1.570 -34.011  1.00  0.00     0.169 HD
BRANCH   9  11
HETATM   11  C   UNL     1      -5.580  -0.427 -33.772  1.00  0.00     0.057 A 
HETATM   12  C   UNL     1      -4.555  -1.277 -33.333  1.00  0.00     0.043 A 
HETATM   13  C   UNL     1      -4.561  -2.635 -33.668  1.00  0.00    -0.017 A 
HETATM   14  C   UNL     1      -3.513  -3.534 -33.180  1.00  0.00     0.029 A 
HETATM   15  C   UNL     1      -5.595  -3.143 -34.467  1.00  0.00     0.044 A 
HETATM   16  C   UNL     1      -3.551  -4.829 -33.511  1.00  0.00     0.092 A 
HETATM   17  N   UNL     1      -4.549  -5.332 -34.303  1.00  0.00    -0.333 N 
HETATM   18  C   UNL     1      -5.586  -4.586 -34.821  1.00  0.00     0.256 A 
HETATM   19  H   UNL     1      -4.556  -6.317 -34.548  1.00  0.00     0.168 HD
HETATM   20  O   UNL     1      -6.457  -5.081 -35.527  1.00  0.00    -0.267 OA
HETATM   21  C   UNL     1      -6.627  -2.314 -34.913  1.00  0.00     0.044 A 
HETATM   22  C   UNL     1      -6.622  -0.967 -34.551  1.00  0.00     0.061 A 
HETATM   23 CL   UNL     1      -7.921   0.033 -35.108  1.00  0.00    -0.082 Cl
ENDBRANCH   9  11
ENDBRANCH   5   7
BRANCH   1  24
HETATM   24  C   UNL     1      -8.430   3.752 -33.678  1.00  0.00    -0.049 A 
HETATM   25  C   UNL     1      -8.878   4.984 -34.185  1.00  0.00     0.007 A 
HETATM   26  C   UNL     1     -10.239   5.260 -34.305  1.00  0.00     0.003 A 
HETATM   27  C   UNL     1     -11.175   4.305 -33.919  1.00  0.00     0.037 A 
HETATM   28  C   UNL     1     -10.763   3.073 -33.410  1.00  0.00     0.078 A 
HETATM   29  C   UNL     1      -9.393   2.810 -33.276  1.00  0.00     0.044 A 
BRANCH  28  30
HETATM   30  O   UNL     1     -11.786   2.231 -33.078  1.00  0.00    -0.255 OA
BRANCH  30  31
HETATM   31  C   UNL     1     -11.898   1.011 -33.791  1.00  0.00     0.530 C 
HETATM   32  F   UNL     1     -11.536   1.160 -35.083  1.00  0.00    -0.144 F 
HETATM   33  F   UNL     1     -13.188   0.608 -33.761  1.00  0.00    -0.144 F 
HETATM   34  F   UNL     1     -11.145   0.045 -33.219  1.00  0.00    -0.144 F 
ENDBRANCH  30  31
ENDBRANCH  28  30
ENDBRANCH   1  24
TORSDOF 5
ENDMDL
MODEL 3
REMARK VINA RESULT:     -10.1      6.091      8.746
REMARK  5 active torsions:
REMARK  status: ('A' for Active; 'I' for Inactive)
REMARK    1  A    between atoms: C_2  and  O_5 
REMARK    2  A    between atoms: O_5  and  C_6 
REMARK    3  A    between atoms: C_10  and  C_12 
REMARK    4  A    between atoms: C_16  and  C_17 
REMARK       I    between atoms: C_17  and  N_19 
REMARK    5  A    between atoms: N_19  and  C_20 
ROOT
HETATM    1  C   UNL     1      -5.558   1.049 -32.559  1.00  0.00     0.061 C 
HETATM    2  C   UNL     1      -4.426   2.056 -32.361  1.00  0.00     0.279 C 
HETATM    3  N   UNL     1      -5.141   3.338 -32.349  1.00  0.00     0.085 N 
HETATM    4  C   UNL     1      -6.082   3.255 -33.468  1.00  0.00     0.284 C 
HETATM    5  C   UNL     1      -6.505   1.787 -33.526  1.00  0.00     0.116 C 
HETATM    6  H   UNL     1      -4.486   4.111 -32.482  1.00  0.00     0.315 HD
ENDROOT
BRANCH   5   7
HETATM    7  C   UNL     1      -7.958   1.544 -33.147  1.00  0.00     0.228 C 
HETATM    8  O   UNL     1      -8.222   0.829 -32.184  1.00  0.00    -0.273 OA
HETATM    9  N   UNL     1      -8.884   2.211 -33.924  1.00  0.00    -0.325 N 
HETATM   10  H   UNL     1      -8.566   2.597 -34.811  1.00  0.00     0.169 HD
BRANCH   9  11
HETATM   11  C   UNL     1     -10.274   2.320 -33.677  1.00  0.00     0.057 A 
HETATM   12  C   UNL     1     -11.204   1.430 -34.232  1.00  0.00     0.043 A 
HETATM   13  C   UNL     1     -12.566   1.539 -33.929  1.00  0.00    -0.017 A 
HETATM   14  C   UNL     1     -13.535   0.587 -34.476  1.00  0.00     0.029 A 
HETATM   15  C   UNL     1     -13.002   2.563 -33.077  1.00  0.00     0.044 A 
HETATM   16  C   UNL     1     -14.829   0.714 -34.161  1.00  0.00     0.092 A 
HETATM   17  N   UNL     1     -15.267   1.720 -33.341  1.00  0.00    -0.333 N 
HETATM   18  C   UNL     1     -14.451   2.672 -32.768  1.00  0.00     0.256 A 
HETATM   19  H   UNL     1     -16.254   1.802 -33.120  1.00  0.00     0.168 HD
HETATM   20  O   UNL     1     -14.890   3.555 -32.041  1.00  0.00    -0.267 OA
HETATM   21  C   UNL     1     -12.091   3.459 -32.512  1.00  0.00     0.044 A 
HETATM   22  C   UNL     1     -10.734   3.324 -32.802  1.00  0.00     0.061 A 
HETATM   23 CL   UNL     1      -9.628   4.442 -32.077  1.00  0.00    -0.082 Cl
ENDBRANCH   9  11
ENDBRANCH   5   7
BRANCH   1  24
HETATM   24  C   UNL     1      -5.068  -0.338 -32.932  1.00  0.00    -0.049 A 
HETATM   25  C   UNL     1      -4.049  -0.912 -32.152  1.00  0.00     0.007 A 
HETATM   26  C   UNL     1      -3.569  -2.192 -32.426  1.00  0.00     0.003 A 
HETATM   27  C   UNL     1      -4.103  -2.919 -33.486  1.00  0.00     0.037 A 
HETATM   28  C   UNL     1      -5.114  -2.376 -34.280  1.00  0.00     0.078 A 
HETATM   29  C   UNL     1      -5.579  -1.083 -34.010  1.00  0.00     0.044 A 
BRANCH  28  30
HETATM   30  O   UNL     1      -5.549  -3.201 -35.279  1.00  0.00    -0.255 OA
BRANCH  30  31
HETATM   31  C   UNL     1      -6.471  -4.222 -34.941  1.00  0.00     0.530 C 
HETATM   32  F   UNL     1      -7.078  -4.721 -36.039  1.00  0.00    -0.144 F 
HETATM   33  F   UNL     1      -7.424  -3.698 -34.138  1.00  0.00    -0.144 F 
HETATM   34  F   UNL     1      -5.862  -5.223 -34.268  1.00  0.00    -0.144 F 
ENDBRANCH  30  31
ENDBRANCH  28  30
ENDBRANCH   1  24
TORSDOF 5
ENDMDL
MODEL 4
REMARK VINA RESULT:     -10.0      1.646      2.064
REMARK  5 active torsions:
REMARK  status: ('A' for Active; 'I' for Inactive)
REMARK    1  A    between atoms: C_2  and  O_5 
REMARK    2  A    between atoms: O_5  and  C_6 
REMARK    3  A    between atoms: C_10  and  C_12 
REMARK    4  A    between atoms: C_16  and  C_17 
REMARK       I    between atoms: C_17  and  N_19 
REMARK    5  A    between atoms: N_19  and  C_20 
ROOT
HETATM    1  C   UNL     1      -5.016   3.435 -31.406  1.00  0.00     0.061 C 
HETATM    2  C   UNL     1      -5.610   4.047 -30.138  1.00  0.00     0.279 C 
HETATM    3  N   UNL     1      -6.874   3.316 -29.994  1.00  0.00     0.085 N 
HETATM    4  C   UNL     1      -7.455   3.302 -31.339  1.00  0.00     0.284 C 
HETATM    5  C   UNL     1      -6.259   3.209 -32.289  1.00  0.00     0.116 C 
HETATM    6  H   UNL     1      -7.491   3.800 -29.339  1.00  0.00     0.315 HD
ENDROOT
BRANCH   5   7
HETATM    7  C   UNL     1      -6.159   1.888 -33.034  1.00  0.00     0.228 C 
HETATM    8  O   UNL     1      -6.359   1.858 -34.246  1.00  0.00    -0.273 OA
HETATM    9  N   UNL     1      -5.796   0.805 -32.259  1.00  0.00    -0.325 N 
HETATM   10  H   UNL     1      -5.864   0.903 -31.247  1.00  0.00     0.169 HD
BRANCH   9  11
HETATM   11  C   UNL     1      -5.443  -0.486 -32.721  1.00  0.00     0.057 A 
HETATM   12  C   UNL     1      -6.315  -1.269 -33.490  1.00  0.00     0.043 A 
HETATM   13  C   UNL     1      -5.916  -2.522 -33.969  1.00  0.00    -0.017 A 
HETATM   14  C   UNL     1      -6.810  -3.326 -34.805  1.00  0.00     0.029 A 
HETATM   15  C   UNL     1      -4.636  -3.003 -33.658  1.00  0.00     0.044 A 
HETATM   16  C   UNL     1      -6.396  -4.516 -35.255  1.00  0.00     0.092 A 
HETATM   17  N   UNL     1      -5.154  -5.001 -34.943  1.00  0.00    -0.333 N 
HETATM   18  C   UNL     1      -4.228  -4.337 -34.167  1.00  0.00     0.256 A 
HETATM   19  H   UNL     1      -4.862  -5.909 -35.289  1.00  0.00     0.168 HD
HETATM   20  O   UNL     1      -3.127  -4.812 -33.915  1.00  0.00    -0.267 OA
HETATM   21  C   UNL     1      -3.752  -2.237 -32.895  1.00  0.00     0.044 A 
HETATM   22  C   UNL     1      -4.153  -0.980 -32.444  1.00  0.00     0.061 A 
HETATM   23 CL   UNL     1      -3.029  -0.050 -31.511  1.00  0.00    -0.082 Cl
ENDBRANCH   9  11
ENDBRANCH   5   7
BRANCH   1  24
HETATM   24  C   UNL     1      -3.854   4.232 -31.970  1.00  0.00    -0.049 A 
HETATM   25  C   UNL     1      -4.133   5.219 -32.930  1.00  0.00     0.007 A 
HETATM   26  C   UNL     1      -3.116   6.003 -33.472  1.00  0.00     0.003 A 
HETATM   27  C   UNL     1      -1.800   5.811 -33.059  1.00  0.00     0.037 A 
HETATM   28  C   UNL     1      -1.491   4.837 -32.108  1.00  0.00     0.078 A 
HETATM   29  C   UNL     1      -2.516   4.042 -31.582  1.00  0.00     0.044 A 
BRANCH  28  30
HETATM   30  O   UNL     1      -0.164   4.763 -31.791  1.00  0.00    -0.255 OA
BRANCH  30  31
HETATM   31  C   UNL     1       0.304   5.548 -30.708  1.00  0.00     0.530 C 
HETATM   32  F   UNL     1      -0.715   5.986 -29.940  1.00  0.00    -0.144 F 
HETATM   33  F   UNL     1       0.950   6.628 -31.203  1.00  0.00    -0.144 F 
HETATM   34  F   UNL     1       1.177   4.852 -29.947  1.00  0.00    -0.144 F 
ENDBRANCH  30  31
ENDBRANCH  28  30
ENDBRANCH   1  24
TORSDOF 5
ENDMDL
MODEL 5
REMARK VINA RESULT:      -9.9      4.870      8.685
REMARK  5 active torsions:
REMARK  status: ('A' for Active; 'I' for Inactive)
REMARK    1  A    between atoms: C_2  and  O_5 
REMARK    2  A    between atoms: O_5  and  C_6 
REMARK    3  A    between atoms: C_10  and  C_12 
REMARK    4  A    between atoms: C_16  and  C_17 
REMARK       I    between atoms: C_17  and  N_19 
REMARK    5  A    between atoms: N_19  and  C_20 
ROOT
HETATM    1  C   UNL     1      -7.440   0.850 -32.623  1.00  0.00     0.061 C 
HETATM    2  C   UNL     1      -8.857   0.297 -32.472  1.00  0.00     0.279 C 
HETATM    3  N   UNL     1      -9.572   1.423 -31.859  1.00  0.00     0.085 N 
HETATM    4  C   UNL     1      -8.680   1.905 -30.802  1.00  0.00     0.284 C 
HETATM    5  C   UNL     1      -7.266   1.696 -31.347  1.00  0.00     0.116 C 
HETATM    6  H   UNL     1     -10.461   1.107 -31.466  1.00  0.00     0.315 HD
ENDROOT
BRANCH   5   7
HETATM    7  C   UNL     1      -6.521   2.986 -31.652  1.00  0.00     0.228 C 
HETATM    8  O   UNL     1      -7.050   4.066 -31.400  1.00  0.00    -0.273 OA
HETATM    9  N   UNL     1      -5.250   2.821 -32.164  1.00  0.00    -0.325 N 
HETATM   10  H   UNL     1      -5.002   1.901 -32.526  1.00  0.00     0.169 HD
BRANCH   9  11
HETATM   11  C   UNL     1      -4.275   3.830 -32.353  1.00  0.00     0.057 A 
HETATM   12  C   UNL     1      -3.148   3.945 -31.528  1.00  0.00     0.043 A 
HETATM   13  C   UNL     1      -2.181   4.926 -31.771  1.00  0.00    -0.017 A 
HETATM   14  C   UNL     1      -0.982   5.023 -30.935  1.00  0.00     0.029 A 
HETATM   15  C   UNL     1      -2.355   5.814 -32.842  1.00  0.00     0.044 A 
HETATM   16  C   UNL     1      -0.072   5.967 -31.199  1.00  0.00     0.092 A 
HETATM   17  N   UNL     1      -0.241   6.849 -32.233  1.00  0.00    -0.333 N 
HETATM   18  C   UNL     1      -1.324   6.854 -33.086  1.00  0.00     0.256 A 
HETATM   19  H   UNL     1       0.459   7.562 -32.412  1.00  0.00     0.168 HD
HETATM   20  O   UNL     1      -1.431   7.666 -33.999  1.00  0.00    -0.267 OA
HETATM   21  C   UNL     1      -3.470   5.716 -33.677  1.00  0.00     0.044 A 
HETATM   22  C   UNL     1      -4.415   4.717 -33.439  1.00  0.00     0.061 A 
HETATM   23 CL   UNL     1      -5.779   4.614 -34.499  1.00  0.00    -0.082 Cl
ENDBRANCH   9  11
ENDBRANCH   5   7
BRANCH   1  24
HETATM   24  C   UNL     1      -6.410  -0.219 -32.938  1.00  0.00    -0.049 A 
HETATM   25  C   UNL     1      -5.280  -0.314 -32.107  1.00  0.00     0.007 A 
HETATM   26  C   UNL     1      -4.307  -1.288 -32.326  1.00  0.00     0.003 A 
HETATM   27  C   UNL     1      -4.451  -2.185 -33.381  1.00  0.00     0.037 A 
HETATM   28  C   UNL     1      -5.561  -2.116 -34.224  1.00  0.00     0.078 A 
HETATM   29  C   UNL     1      -6.525  -1.123 -34.009  1.00  0.00     0.044 A 
BRANCH  28  30
HETATM   30  O   UNL     1      -5.576  -3.060 -35.212  1.00  0.00    -0.255 OA
BRANCH  30  31
HETATM   31  C   UNL     1      -6.294  -4.258 -34.972  1.00  0.00     0.530 C 
HETATM   32  F   UNL     1      -7.380  -4.036 -34.202  1.00  0.00    -0.144 F 
HETATM   33  F   UNL     1      -5.487  -5.124 -34.318  1.00  0.00    -0.144 F 
HETATM   34  F   UNL     1      -6.673  -4.837 -36.133  1.00  0.00    -0.144 F 
ENDBRANCH  30  31
ENDBRANCH  28  30
ENDBRANCH   1  24
TORSDOF 5
ENDMDL
MODEL 6
REMARK VINA RESULT:      -9.6      4.286      6.041
REMARK  5 active torsions:
REMARK  status: ('A' for Active; 'I' for Inactive)
REMARK    1  A    between atoms: C_2  and  O_5 
REMARK    2  A    between atoms: O_5  and  C_6 
REMARK    3  A    between atoms: C_10  and  C_12 
REMARK    4  A    between atoms: C_16  and  C_17 
REMARK       I    between atoms: C_17  and  N_19 
REMARK    5  A    between atoms: N_19  and  C_20 
ROOT
HETATM    1  C   UNL     1      -5.779   3.642 -32.608  1.00  0.00     0.061 C 
HETATM    2  C   UNL     1      -5.387   5.117 -32.680  1.00  0.00     0.279 C 
HETATM    3  N   UNL     1      -3.937   5.049 -32.896  1.00  0.00     0.085 N 
HETATM    4  C   UNL     1      -3.461   4.041 -31.946  1.00  0.00     0.284 C 
HETATM    5  C   UNL     1      -4.587   3.008 -31.863  1.00  0.00     0.116 C 
HETATM    6  H   UNL     1      -3.507   5.957 -32.706  1.00  0.00     0.315 HD
ENDROOT
BRANCH   5   7
HETATM    7  C   UNL     1      -4.234   1.656 -32.462  1.00  0.00     0.228 C 
HETATM    8  O   UNL     1      -3.083   1.235 -32.375  1.00  0.00    -0.273 OA
HETATM    9  N   UNL     1      -5.291   0.976 -33.034  1.00  0.00    -0.325 N 
HETATM   10  H   UNL     1      -6.139   1.503 -33.236  1.00  0.00     0.169 HD
BRANCH   9  11
HETATM   11  C   UNL     1      -5.289  -0.367 -33.484  1.00  0.00     0.057 A 
HETATM   12  C   UNL     1      -4.359  -1.309 -33.023  1.00  0.00     0.043 A 
HETATM   13  C   UNL     1      -4.415  -2.639 -33.453  1.00  0.00    -0.017 A 
HETATM   14  C   UNL     1      -3.469  -3.634 -32.944  1.00  0.00     0.029 A 
HETATM   15  C   UNL     1      -5.402  -3.024 -34.371  1.00  0.00     0.044 A 
HETATM   16  C   UNL     1      -3.555  -4.899 -33.369  1.00  0.00     0.092 A 
HETATM   17  N   UNL     1      -4.506  -5.283 -34.277  1.00  0.00    -0.333 N 
HETATM   18  C   UNL     1      -5.448  -4.438 -34.825  1.00  0.00     0.256 A 
HETATM   19  H   UNL     1      -4.549  -6.246 -34.591  1.00  0.00     0.168 HD
HETATM   20  O   UNL     1      -6.280  -4.827 -35.636  1.00  0.00    -0.267 OA
HETATM   21  C   UNL     1      -6.340  -2.102 -34.841  1.00  0.00     0.044 A 
HETATM   22  C   UNL     1      -6.288  -0.785 -34.385  1.00  0.00     0.061 A 
HETATM   23 CL   UNL     1      -7.471   0.332 -34.977  1.00  0.00    -0.082 Cl
ENDBRANCH   9  11
ENDBRANCH   5   7
BRANCH   1  24
HETATM   24  C   UNL     1      -7.179   3.419 -32.067  1.00  0.00    -0.049 A 
HETATM   25  C   UNL     1      -7.387   3.572 -30.686  1.00  0.00     0.007 A 
HETATM   26  C   UNL     1      -8.654   3.405 -30.127  1.00  0.00     0.003 A 
HETATM   27  C   UNL     1      -9.734   3.083 -30.944  1.00  0.00     0.037 A 
HETATM   28  C   UNL     1      -9.559   2.923 -32.319  1.00  0.00     0.078 A 
HETATM   29  C   UNL     1      -8.281   3.075 -32.871  1.00  0.00     0.044 A 
BRANCH  28  30
HETATM   30  O   UNL     1     -10.704   2.616 -32.999  1.00  0.00    -0.255 OA
BRANCH  30  31
HETATM   31  C   UNL     1     -10.883   1.276 -33.424  1.00  0.00     0.530 C 
HETATM   32  F   UNL     1     -10.163   0.419 -32.669  1.00  0.00    -0.144 F 
HETATM   33  F   UNL     1     -10.459   1.166 -34.703  1.00  0.00    -0.144 F 
HETATM   34  F   UNL     1     -12.188   0.926 -33.385  1.00  0.00    -0.144 F 
ENDBRANCH  30  31
ENDBRANCH  28  30
ENDBRANCH   1  24
TORSDOF 5
ENDMDL
MODEL 7
REMARK VINA RESULT:      -9.6      2.240      3.055
REMARK  5 active torsions:
REMARK  status: ('A' for Active; 'I' for Inactive)
REMARK    1  A    between atoms: C_2  and  O_5 
REMARK    2  A    between atoms: O_5  and  C_6 
REMARK    3  A    between atoms: C_10  and  C_12 
REMARK    4  A    between atoms: C_16  and  C_17 
REMARK       I    between atoms: C_17  and  N_19 
REMARK    5  A    between atoms: N_19  and  C_20 
ROOT
HETATM    1  C   UNL     1      -7.055   4.065 -31.531  1.00  0.00     0.061 C 
HETATM    2  C   UNL     1      -8.295   4.939 -31.351  1.00  0.00     0.279 C 
HETATM    3  N   UNL     1      -9.388   3.996 -31.613  1.00  0.00     0.085 N 
HETATM    4  C   UNL     1      -8.974   3.264 -32.813  1.00  0.00     0.284 C 
HETATM    5  C   UNL     1      -7.453   3.146 -32.702  1.00  0.00     0.116 C 
HETATM    6  H   UNL     1     -10.261   4.501 -31.781  1.00  0.00     0.315 HD
ENDROOT
BRANCH   5   7
HETATM    7  C   UNL     1      -6.956   1.728 -32.468  1.00  0.00     0.228 C 
HETATM    8  O   UNL     1      -7.306   1.121 -31.459  1.00  0.00    -0.273 OA
HETATM    9  N   UNL     1      -6.159   1.215 -33.472  1.00  0.00    -0.325 N 
HETATM   10  H   UNL     1      -5.766   1.870 -34.146  1.00  0.00     0.169 HD
BRANCH   9  11
HETATM   11  C   UNL     1      -5.726  -0.127 -33.605  1.00  0.00     0.057 A 
HETATM   12  C   UNL     1      -6.518  -1.112 -34.210  1.00  0.00     0.043 A 
HETATM   13  C   UNL     1      -6.040  -2.417 -34.368  1.00  0.00    -0.017 A 
HETATM   14  C   UNL     1      -6.850  -3.439 -35.034  1.00  0.00     0.029 A 
HETATM   15  C   UNL     1      -4.760  -2.743 -33.897  1.00  0.00     0.044 A 
HETATM   16  C   UNL     1      -6.361  -4.676 -35.177  1.00  0.00     0.092 A 
HETATM   17  N   UNL     1      -5.118  -5.008 -34.706  1.00  0.00    -0.333 N 
HETATM   18  C   UNL     1      -4.266  -4.134 -34.065  1.00  0.00     0.256 A 
HETATM   19  H   UNL     1      -4.768  -5.954 -34.819  1.00  0.00     0.168 HD
HETATM   20  O   UNL     1      -3.162  -4.478 -33.660  1.00  0.00    -0.267 OA
HETATM   21  C   UNL     1      -3.954  -1.776 -33.293  1.00  0.00     0.044 A 
HETATM   22  C   UNL     1      -4.433  -0.472 -33.164  1.00  0.00     0.061 A 
HETATM   23 CL   UNL     1      -3.405   0.707 -32.422  1.00  0.00    -0.082 Cl
ENDBRANCH   9  11
ENDBRANCH   5   7
BRANCH   1  24
HETATM   24  C   UNL     1      -5.768   4.864 -31.634  1.00  0.00    -0.049 A 
HETATM   25  C   UNL     1      -5.285   5.492 -30.474  1.00  0.00     0.007 A 
HETATM   26  C   UNL     1      -4.097   6.222 -30.493  1.00  0.00     0.003 A 
HETATM   27  C   UNL     1      -3.373   6.334 -31.677  1.00  0.00     0.037 A 
HETATM   28  C   UNL     1      -3.828   5.724 -32.847  1.00  0.00     0.078 A 
HETATM   29  C   UNL     1      -5.031   5.007 -32.823  1.00  0.00     0.044 A 
BRANCH  28  30
HETATM   30  O   UNL     1      -3.017   5.910 -33.930  1.00  0.00    -0.255 OA
BRANCH  30  31
HETATM   31  C   UNL     1      -1.931   5.016 -34.106  1.00  0.00     0.530 C 
HETATM   32  F   UNL     1      -2.166   3.831 -33.505  1.00  0.00    -0.144 F 
HETATM   33  F   UNL     1      -0.827   5.558 -33.545  1.00  0.00    -0.144 F 
HETATM   34  F   UNL     1      -1.677   4.815 -35.418  1.00  0.00    -0.144 F 
ENDBRANCH  30  31
ENDBRANCH  28  30
ENDBRANCH   1  24
TORSDOF 5
ENDMDL
MODEL 8
REMARK VINA RESULT:      -9.5      3.732      7.912
REMARK  5 active torsions:
REMARK  status: ('A' for Active; 'I' for Inactive)
REMARK    1  A    between atoms: C_2  and  O_5 
REMARK    2  A    between atoms: O_5  and  C_6 
REMARK    3  A    between atoms: C_10  and  C_12 
REMARK    4  A    between atoms: C_16  and  C_17 
REMARK       I    between atoms: C_17  and  N_19 
REMARK    5  A    between atoms: N_19  and  C_20 
ROOT
HETATM    1  C   UNL     1      -7.851   0.476 -33.227  1.00  0.00     0.061 C 
HETATM    2  C   UNL     1      -9.252  -0.080 -32.976  1.00  0.00     0.279 C 
HETATM    3  N   UNL     1      -9.971   1.093 -32.465  1.00  0.00     0.085 N 
HETATM    4  C   UNL     1      -9.060   1.699 -31.491  1.00  0.00     0.284 C 
HETATM    5  C   UNL     1      -7.658   1.456 -32.053  1.00  0.00     0.116 C 
HETATM    6  H   UNL     1     -10.843   0.806 -32.015  1.00  0.00     0.315 HD
ENDROOT
BRANCH   5   7
HETATM    7  C   UNL     1      -6.947   2.718 -32.516  1.00  0.00     0.228 C 
HETATM    8  O   UNL     1      -7.539   3.518 -33.236  1.00  0.00    -0.273 OA
HETATM    9  N   UNL     1      -5.665   2.879 -32.029  1.00  0.00    -0.325 N 
HETATM   10  H   UNL     1      -5.208   2.065 -31.622  1.00  0.00     0.169 HD
BRANCH   9  11
HETATM   11  C   UNL     1      -4.858   4.038 -32.138  1.00  0.00     0.057 A 
HETATM   12  C   UNL     1      -3.765   4.108 -33.013  1.00  0.00     0.043 A 
HETATM   13  C   UNL     1      -3.017   5.284 -33.130  1.00  0.00    -0.017 A 
HETATM   14  C   UNL     1      -1.898   5.373 -34.071  1.00  0.00     0.029 A 
HETATM   15  C   UNL     1      -3.356   6.396 -32.347  1.00  0.00     0.044 A 
HETATM   16  C   UNL     1      -1.208   6.515 -34.165  1.00  0.00     0.092 A 
HETATM   17  N   UNL     1      -1.522   7.602 -33.393  1.00  0.00    -0.333 N 
HETATM   18  C   UNL     1      -2.550   7.637 -32.476  1.00  0.00     0.256 A 
HETATM   19  H   UNL     1      -0.981   8.457 -33.475  1.00  0.00     0.168 HD
HETATM   20  O   UNL     1      -2.793   8.635 -31.806  1.00  0.00    -0.267 OA
HETATM   21  C   UNL     1      -4.443   6.348 -31.471  1.00  0.00     0.044 A 
HETATM   22  C   UNL     1      -5.196   5.177 -31.382  1.00  0.00     0.061 A 
HETATM   23 CL   UNL     1      -6.544   5.153 -30.296  1.00  0.00    -0.082 Cl
ENDBRANCH   9  11
ENDBRANCH   5   7
BRANCH   1  24
HETATM   24  C   UNL     1      -6.809  -0.604 -33.456  1.00  0.00    -0.049 A 
HETATM   25  C   UNL     1      -6.985  -1.471 -34.548  1.00  0.00     0.007 A 
HETATM   26  C   UNL     1      -6.054  -2.470 -34.829  1.00  0.00     0.003 A 
HETATM   27  C   UNL     1      -4.931  -2.616 -34.020  1.00  0.00     0.037 A 
HETATM   28  C   UNL     1      -4.729  -1.773 -32.927  1.00  0.00     0.078 A 
HETATM   29  C   UNL     1      -5.678  -0.783 -32.641  1.00  0.00     0.044 A 
BRANCH  28  30
HETATM   30  O   UNL     1      -3.584  -2.024 -32.226  1.00  0.00    -0.255 OA
BRANCH  30  31
HETATM   31  C   UNL     1      -2.738  -0.929 -31.922  1.00  0.00     0.530 C 
HETATM   32  F   UNL     1      -3.192  -0.239 -30.854  1.00  0.00    -0.144 F 
HETATM   33  F   UNL     1      -2.714  -0.091 -32.982  1.00  0.00    -0.144 F 
HETATM   34  F   UNL     1      -1.474  -1.343 -31.688  1.00  0.00    -0.144 F 
ENDBRANCH  30  31
ENDBRANCH  28  30
ENDBRANCH   1  24
TORSDOF 5
ENDMDL
MODEL 9
REMARK VINA RESULT:      -9.3      1.811      2.289
REMARK  5 active torsions:
REMARK  status: ('A' for Active; 'I' for Inactive)
REMARK    1  A    between atoms: C_2  and  O_5 
REMARK    2  A    between atoms: O_5  and  C_6 
REMARK    3  A    between atoms: C_10  and  C_12 
REMARK    4  A    between atoms: C_16  and  C_17 
REMARK       I    between atoms: C_17  and  N_19 
REMARK    5  A    between atoms: N_19  and  C_20 
ROOT
HETATM    1  C   UNL     1      -5.974   4.282 -30.860  1.00  0.00     0.061 C 
HETATM    2  C   UNL     1      -6.955   5.311 -30.298  1.00  0.00     0.279 C 
HETATM    3  N   UNL     1      -8.242   4.617 -30.414  1.00  0.00     0.085 N 
HETATM    4  C   UNL     1      -8.232   4.026 -31.755  1.00  0.00     0.284 C 
HETATM    5  C   UNL     1      -6.774   3.640 -32.009  1.00  0.00     0.116 C 
HETATM    6  H   UNL     1      -9.013   5.280 -30.317  1.00  0.00     0.315 HD
ENDROOT
BRANCH   5   7
HETATM    7  C   UNL     1      -6.530   2.141 -32.065  1.00  0.00     0.228 C 
HETATM    8  O   UNL     1      -6.736   1.455 -31.067  1.00  0.00    -0.273 OA
HETATM    9  N   UNL     1      -6.123   1.659 -33.294  1.00  0.00    -0.325 N 
HETATM   10  H   UNL     1      -5.784   2.334 -33.977  1.00  0.00     0.169 HD
BRANCH   9  11
HETATM   11  C   UNL     1      -6.014   0.300 -33.676  1.00  0.00     0.057 A 
HETATM   12  C   UNL     1      -4.916  -0.493 -33.314  1.00  0.00     0.043 A 
HETATM   13  C   UNL     1      -4.863  -1.845 -33.670  1.00  0.00    -0.017 A 
HETATM   14  C   UNL     1      -3.736  -2.686 -33.259  1.00  0.00     0.029 A 
HETATM   15  C   UNL     1      -5.912  -2.403 -34.413  1.00  0.00     0.044 A 
HETATM   16  C   UNL     1      -3.719  -3.977 -33.608  1.00  0.00     0.092 A 
HETATM   17  N   UNL     1      -4.732  -4.528 -34.347  1.00  0.00    -0.333 N 
HETATM   18  C   UNL     1      -5.840  -3.838 -34.789  1.00  0.00     0.256 A 
HETATM   19  H   UNL     1      -4.696  -5.508 -34.607  1.00  0.00     0.168 HD
HETATM   20  O   UNL     1      -6.722  -4.375 -35.450  1.00  0.00    -0.267 OA
HETATM   21  C   UNL     1      -7.016  -1.631 -34.783  1.00  0.00     0.044 A 
HETATM   22  C   UNL     1      -7.068  -0.290 -34.400  1.00  0.00     0.061 A 
HETATM   23 CL   UNL     1      -8.455   0.637 -34.863  1.00  0.00    -0.082 Cl
ENDBRANCH   9  11
ENDBRANCH   5   7
BRANCH   1  24
HETATM   24  C   UNL     1      -4.603   4.862 -31.158  1.00  0.00    -0.049 A 
HETATM   25  C   UNL     1      -4.093   5.838 -30.285  1.00  0.00     0.007 A 
HETATM   26  C   UNL     1      -2.831   6.394 -30.488  1.00  0.00     0.003 A 
HETATM   27  C   UNL     1      -2.058   5.981 -31.569  1.00  0.00     0.037 A 
HETATM   28  C   UNL     1      -2.537   5.016 -32.455  1.00  0.00     0.078 A 
HETATM   29  C   UNL     1      -3.813   4.474 -32.255  1.00  0.00     0.044 A 
BRANCH  28  30
HETATM   30  O   UNL     1      -1.673   4.701 -33.465  1.00  0.00    -0.255 OA
BRANCH  30  31
HETATM   31  C   UNL     1      -1.767   5.436 -34.673  1.00  0.00     0.530 C 
HETATM   32  F   UNL     1      -2.837   5.052 -35.401  1.00  0.00    -0.144 F 
HETATM   33  F   UNL     1      -0.656   5.208 -35.408  1.00  0.00    -0.144 F 
HETATM   34  F   UNL     1      -1.841   6.763 -34.427  1.00  0.00    -0.144 F 
ENDBRANCH  30  31
ENDBRANCH  28  30
ENDBRANCH   1  24
TORSDOF 5
ENDMDL
MODEL 10
REMARK VINA RESULT:      -9.2      5.102      9.460
REMARK  5 active torsions:
REMARK  status: ('A' for Active; 'I' for Inactive)
REMARK    1  A    between atoms: C_2  and  O_5 
REMARK    2  A    between atoms: O_5  and  C_6 
REMARK    3  A    between atoms: C_10  and  C_12 
REMARK    4  A    between atoms: C_16  and  C_17 
REMARK       I    between atoms: C_17  and  N_19 
REMARK    5  A    between atoms: N_19  and  C_20 
ROOT
HETATM    1  C   UNL     1      -7.689   0.878 -32.896  1.00  0.00     0.061 C 
HETATM    2  C   UNL     1      -9.066   0.276 -32.621  1.00  0.00     0.279 C 
HETATM    3  N   UNL     1      -9.808   1.418 -32.074  1.00  0.00     0.085 N 
HETATM    4  C   UNL     1      -8.892   2.036 -31.112  1.00  0.00     0.284 C 
HETATM    5  C   UNL     1      -7.497   1.844 -31.710  1.00  0.00     0.116 C 
HETATM    6  H   UNL     1     -10.660   1.098 -31.609  1.00  0.00     0.315 HD
ENDROOT
BRANCH   5   7
HETATM    7  C   UNL     1      -6.835   3.135 -32.168  1.00  0.00     0.228 C 
HETATM    8  O   UNL     1      -7.308   3.755 -33.117  1.00  0.00    -0.273 OA
HETATM    9  N   UNL     1      -5.746   3.532 -31.418  1.00  0.00    -0.325 N 
HETATM   10  H   UNL     1      -5.321   2.843 -30.800  1.00  0.00     0.169 HD
BRANCH   9  11
HETATM   11  C   UNL     1      -5.071   4.773 -31.498  1.00  0.00     0.057 A 
HETATM   12  C   UNL     1      -5.589   5.944 -30.928  1.00  0.00     0.043 A 
HETATM   13  C   UNL     1      -4.872   7.145 -30.985  1.00  0.00    -0.017 A 
HETATM   14  C   UNL     1      -5.393   8.361 -30.355  1.00  0.00     0.029 A 
HETATM   15  C   UNL     1      -3.632   7.176 -31.638  1.00  0.00     0.044 A 
HETATM   16  C   UNL     1      -4.679   9.490 -30.421  1.00  0.00     0.092 A 
HETATM   17  N   UNL     1      -3.474   9.535 -31.070  1.00  0.00    -0.333 N 
HETATM   18  C   UNL     1      -2.885   8.458 -31.697  1.00  0.00     0.256 A 
HETATM   19  H   UNL     1      -2.952  10.404 -31.114  1.00  0.00     0.168 HD
HETATM   20  O   UNL     1      -1.804   8.547 -32.268  1.00  0.00    -0.267 OA
HETATM   21  C   UNL     1      -3.098   6.020 -32.212  1.00  0.00     0.044 A 
HETATM   22  C   UNL     1      -3.811   4.824 -32.126  1.00  0.00     0.061 A 
HETATM   23 CL   UNL     1      -3.116   3.406 -32.836  1.00  0.00    -0.082 Cl
ENDBRANCH   9  11
ENDBRANCH   5   7
BRANCH   1  24
HETATM   24  C   UNL     1      -6.621  -0.166 -33.167  1.00  0.00    -0.049 A 
HETATM   25  C   UNL     1      -5.476  -0.169 -32.353  1.00  0.00     0.007 A 
HETATM   26  C   UNL     1      -4.468  -1.115 -32.533  1.00  0.00     0.003 A 
HETATM   27  C   UNL     1      -4.591  -2.075 -33.533  1.00  0.00     0.037 A 
HETATM   28  C   UNL     1      -5.716  -2.098 -34.359  1.00  0.00     0.078 A 
HETATM   29  C   UNL     1      -6.716  -1.133 -34.183  1.00  0.00     0.044 A 
BRANCH  28  30
HETATM   30  O   UNL     1      -5.708  -3.097 -35.291  1.00  0.00    -0.255 OA
BRANCH  30  31
HETATM   31  C   UNL     1      -6.385  -4.302 -34.977  1.00  0.00     0.530 C 
HETATM   32  F   UNL     1      -7.408  -4.084 -34.124  1.00  0.00    -0.144 F 
HETATM   33  F   UNL     1      -5.513  -5.145 -34.379  1.00  0.00    -0.144 F 
HETATM   34  F   UNL     1      -6.847  -4.904 -36.095  1.00  0.00    -0.144 F 
ENDBRANCH  30  31
ENDBRANCH  28  30
ENDBRANCH   1  24
TORSDOF 5
ENDMDL
