MODEL 1
REMARK VINA RESULT:      -9.2      0.000      0.000
REMARK  5 active torsions:
REMARK  status: ('A' for Active; 'I' for Inactive)
REMARK    1  A    between atoms: C_2  and  O_3 
REMARK    2  A    between atoms: O_3  and  C_4 
REMARK    3  A    between atoms: C_5  and  C_6 
REMARK       I    between atoms: C_6  and  N_7 
REMARK    4  A    between atoms: N_10  and  C_11 
REMARK    5  A    between atoms: C_15  and  C_16 
ROOT
HETATM    1  C   UNL     1      -3.778   5.395 -31.011  1.00  0.00     0.256 C 
HETATM    2  N   UNL     1      -4.432   4.257 -31.495  1.00  0.00    -0.346 N 
HETATM    3  C   UNL     1      -4.343   3.762 -32.880  1.00  0.00     0.146 C 
HETATM    4  C   UNL     1      -5.674   3.821 -33.654  1.00  0.00     0.144 C 
HETATM    5  N   UNL     1      -6.638   2.820 -33.163  1.00  0.00    -0.365 N 
HETATM    6  C   UNL     1      -7.515   3.203 -32.050  1.00  0.00     0.126 C 
HETATM    7  C   UNL     1      -6.850   4.097 -31.004  1.00  0.00     0.040 C 
HETATM    8  C   UNL     1      -5.441   3.636 -30.637  1.00  0.00     0.127 C 
HETATM    9  O   UNL     1      -4.025   5.908 -29.921  1.00  0.00    -0.267 OA
ENDROOT
BRANCH   5  10
HETATM   10  C   UNL     1      -6.648   1.558 -33.694  1.00  0.00     0.122 A 
HETATM   11  N   UNL     1      -7.518   1.157 -34.674  1.00  0.00    -0.262 N 
HETATM   12  H   UNL     1      -8.216   1.717 -35.146  1.00  0.00     0.191 HD
HETATM   13  N   UNL     1      -7.407  -0.132 -35.029  1.00  0.00    -0.173 NA
HETATM   14  C   UNL     1      -6.391  -0.596 -34.285  1.00  0.00     0.090 A 
HETATM   15  C   UNL     1      -5.877   0.439 -33.454  1.00  0.00     0.084 A 
BRANCH  14  16
HETATM   16  C   UNL     1      -5.957  -1.996 -34.373  1.00  0.00    -0.005 A 
HETATM   17  C   UNL     1      -6.844  -3.010 -34.771  1.00  0.00     0.017 A 
HETATM   18  C   UNL     1      -6.412  -4.337 -34.861  1.00  0.00     0.043 A 
HETATM   19  C   UNL     1      -5.095  -4.655 -34.555  1.00  0.00     0.116 A 
HETATM   20  F   UNL     1      -4.684  -5.927 -34.646  1.00  0.00    -0.206 F 
HETATM   21  C   UNL     1      -4.199  -3.673 -34.157  1.00  0.00     0.043 A 
HETATM   22  C   UNL     1      -4.630  -2.347 -34.064  1.00  0.00     0.017 A 
ENDBRANCH  14  16
ENDBRANCH   5  10
BRANCH   1  23
HETATM   23  C   UNL     1      -2.683   5.985 -31.810  1.00  0.00     0.065 A 
HETATM   24  C   UNL     1      -1.359   5.576 -31.619  1.00  0.00     0.084 A 
HETATM   25  C   UNL     1      -0.344   6.139 -32.398  1.00  0.00     0.038 A 
HETATM   26  C   UNL     1      -0.657   7.067 -33.394  1.00  0.00     0.003 A 
HETATM   27  C   UNL     1      -1.983   7.440 -33.614  1.00  0.00     0.001 A 
HETATM   28  C   UNL     1      -2.999   6.897 -32.827  1.00  0.00     0.020 A 
BRANCH  24  29
HETATM   29  O   UNL     1      -1.064   4.685 -30.620  1.00  0.00    -0.350 OA
BRANCH  29  30
HETATM   30  C   UNL     1       0.226   4.934 -30.046  1.00  0.00     0.171 C 
HETATM   31  C   UNL     1       0.054   5.884 -28.875  1.00  0.00     0.034 C 
ENDBRANCH  29  30
ENDBRANCH  24  29
ENDBRANCH   1  23
TORSDOF 5
ENDMDL
MODEL 2
REMARK VINA RESULT:      -9.1      1.562      2.421
REMARK  5 active torsions:
REMARK  status: ('A' for Active; 'I' for Inactive)
REMARK    1  A    between atoms: C_2  and  O_3 
REMARK    2  A    between atoms: O_3  and  C_4 
REMARK    3  A    between atoms: C_5  and  C_6 
REMARK       I    between atoms: C_6  and  N_7 
REMARK    4  A    between atoms: N_10  and  C_11 
REMARK    5  A    between atoms: C_15  and  C_16 
ROOT
HETATM    1  C   UNL     1      -3.637   6.369 -30.265  1.00  0.00     0.256 C 
HETATM    2  N   UNL     1      -4.258   5.165 -30.617  1.00  0.00    -0.346 N 
HETATM    3  C   UNL     1      -3.667   4.141 -31.496  1.00  0.00     0.146 C 
HETATM    4  C   UNL     1      -4.425   3.942 -32.824  1.00  0.00     0.144 C 
HETATM    5  N   UNL     1      -5.725   3.279 -32.617  1.00  0.00    -0.365 N 
HETATM    6  C   UNL     1      -6.888   4.128 -32.329  1.00  0.00     0.126 C 
HETATM    7  C   UNL     1      -6.580   5.339 -31.449  1.00  0.00     0.040 C 
HETATM    8  C   UNL     1      -5.670   5.002 -30.270  1.00  0.00     0.127 C 
HETATM    9  O   UNL     1      -4.220   7.296 -29.705  1.00  0.00    -0.267 OA
ENDROOT
BRANCH   5  10
HETATM   10  C   UNL     1      -5.809   1.913 -32.627  1.00  0.00     0.122 A 
HETATM   11  N   UNL     1      -5.987   1.158 -31.497  1.00  0.00    -0.262 N 
HETATM   12  H   UNL     1      -6.113   1.487 -30.549  1.00  0.00     0.191 HD
HETATM   13  N   UNL     1      -5.993  -0.168 -31.703  1.00  0.00    -0.173 NA
HETATM   14  C   UNL     1      -5.857  -0.299 -33.032  1.00  0.00     0.090 A 
HETATM   15  C   UNL     1      -5.761   0.983 -33.645  1.00  0.00     0.084 A 
BRANCH  14  16
HETATM   16  C   UNL     1      -5.805  -1.621 -33.668  1.00  0.00    -0.005 A 
HETATM   17  C   UNL     1      -6.966  -2.236 -34.165  1.00  0.00     0.017 A 
HETATM   18  C   UNL     1      -6.899  -3.490 -34.780  1.00  0.00     0.043 A 
HETATM   19  C   UNL     1      -5.673  -4.134 -34.900  1.00  0.00     0.116 A 
HETATM   20  F   UNL     1      -5.613  -5.334 -35.492  1.00  0.00    -0.206 F 
HETATM   21  C   UNL     1      -4.512  -3.550 -34.415  1.00  0.00     0.043 A 
HETATM   22  C   UNL     1      -4.578  -2.297 -33.799  1.00  0.00     0.017 A 
ENDBRANCH  14  16
ENDBRANCH   5  10
BRANCH   1  23
HETATM   23  C   UNL     1      -2.188   6.525 -30.510  1.00  0.00     0.065 A 
HETATM   24  C   UNL     1      -1.714   6.922 -31.764  1.00  0.00     0.084 A 
HETATM   25  C   UNL     1      -0.339   7.076 -31.966  1.00  0.00     0.038 A 
HETATM   26  C   UNL     1       0.551   6.882 -30.906  1.00  0.00     0.003 A 
HETATM   27  C   UNL     1       0.073   6.529 -29.644  1.00  0.00     0.001 A 
HETATM   28  C   UNL     1      -1.296   6.355 -29.441  1.00  0.00     0.020 A 
BRANCH  24  29
HETATM   29  O   UNL     1      -2.596   7.083 -32.801  1.00  0.00    -0.350 OA
BRANCH  29  30
HETATM   30  C   UNL     1      -1.933   7.085 -34.072  1.00  0.00     0.171 C 
HETATM   31  C   UNL     1      -1.975   5.678 -34.637  1.00  0.00     0.034 C 
ENDBRANCH  29  30
ENDBRANCH  24  29
ENDBRANCH   1  23
TORSDOF 5
ENDMDL
MODEL 3
REMARK VINA RESULT:      -8.8      5.140      8.220
REMARK  5 active torsions:
REMARK  status: ('A' for Active; 'I' for Inactive)
REMARK    1  A    between atoms: C_2  and  O_3 
REMARK    2  A    between atoms: O_3  and  C_4 
REMARK    3  A    between atoms: C_5  and  C_6 
REMARK       I    between atoms: C_6  and  N_7 
REMARK    4  A    between atoms: N_10  and  C_11 
REMARK    5  A    between atoms: C_15  and  C_16 
ROOT
HETATM    1  C   UNL     1     -12.230   3.687 -34.335  1.00  0.00     0.256 C 
HETATM    2  N   UNL     1     -10.961   3.098 -34.304  1.00  0.00    -0.346 N 
HETATM    3  C   UNL     1     -10.577   1.975 -33.431  1.00  0.00     0.146 C 
HETATM    4  C   UNL     1      -9.508   2.334 -32.380  1.00  0.00     0.144 C 
HETATM    5  N   UNL     1      -8.186   2.550 -32.995  1.00  0.00    -0.365 N 
HETATM    6  C   UNL     1      -7.864   3.901 -33.470  1.00  0.00     0.126 C 
HETATM    7  C   UNL     1      -9.046   4.648 -34.088  1.00  0.00     0.040 C 
HETATM    8  C   UNL     1      -9.880   3.774 -35.022  1.00  0.00     0.127 C 
HETATM    9  O   UNL     1     -12.473   4.745 -34.912  1.00  0.00    -0.267 OA
ENDROOT
BRANCH   5  10
HETATM   10  C   UNL     1      -7.332   1.495 -33.171  1.00  0.00     0.122 A 
HETATM   11  N   UNL     1      -5.974   1.585 -33.001  1.00  0.00    -0.262 N 
HETATM   12  H   UNL     1      -5.443   2.392 -32.701  1.00  0.00     0.191 HD
HETATM   13  N   UNL     1      -5.299   0.458 -33.269  1.00  0.00    -0.173 NA
HETATM   14  C   UNL     1      -6.252  -0.433 -33.589  1.00  0.00     0.090 A 
HETATM   15  C   UNL     1      -7.537   0.175 -33.516  1.00  0.00     0.084 A 
BRANCH  14  16
HETATM   16  C   UNL     1      -5.914  -1.811 -33.965  1.00  0.00    -0.005 A 
HETATM   17  C   UNL     1      -6.876  -2.671 -34.519  1.00  0.00     0.017 A 
HETATM   18  C   UNL     1      -6.537  -3.978 -34.884  1.00  0.00     0.043 A 
HETATM   19  C   UNL     1      -5.236  -4.429 -34.696  1.00  0.00     0.116 A 
HETATM   20  F   UNL     1      -4.914  -5.680 -35.049  1.00  0.00    -0.206 F 
HETATM   21  C   UNL     1      -4.267  -3.601 -34.148  1.00  0.00     0.043 A 
HETATM   22  C   UNL     1      -4.606  -2.296 -33.781  1.00  0.00     0.017 A 
ENDBRANCH  14  16
ENDBRANCH   5  10
BRANCH   1  23
HETATM   23  C   UNL     1     -13.363   2.977 -33.706  1.00  0.00     0.065 A 
HETATM   24  C   UNL     1     -13.957   3.471 -32.540  1.00  0.00     0.084 A 
HETATM   25  C   UNL     1     -15.037   2.788 -31.973  1.00  0.00     0.038 A 
HETATM   26  C   UNL     1     -15.551   1.648 -32.595  1.00  0.00     0.003 A 
HETATM   27  C   UNL     1     -14.986   1.182 -33.783  1.00  0.00     0.001 A 
HETATM   28  C   UNL     1     -13.895   1.847 -34.344  1.00  0.00     0.020 A 
BRANCH  24  29
HETATM   29  O   UNL     1     -13.425   4.575 -31.926  1.00  0.00    -0.350 OA
BRANCH  29  30
HETATM   30  C   UNL     1     -13.210   4.356 -30.526  1.00  0.00     0.171 C 
HETATM   31  C   UNL     1     -13.840   5.502 -29.758  1.00  0.00     0.034 C 
ENDBRANCH  29  30
ENDBRANCH  24  29
ENDBRANCH   1  23
TORSDOF 5
ENDMDL
MODEL 4
REMARK VINA RESULT:      -8.7      1.184      2.245
REMARK  5 active torsions:
REMARK  status: ('A' for Active; 'I' for Inactive)
REMARK    1  A    between atoms: C_2  and  O_3 
REMARK    2  A    between atoms: O_3  and  C_4 
REMARK    3  A    between atoms: C_5  and  C_6 
REMARK       I    between atoms: C_6  and  N_7 
REMARK    4  A    between atoms: N_10  and  C_11 
REMARK    5  A    between atoms: C_15  and  C_16 
ROOT
HETATM    1  C   UNL     1      -3.944   5.426 -30.537  1.00  0.00     0.256 C 
HETATM    2  N   UNL     1      -4.551   4.324 -31.149  1.00  0.00    -0.346 N 
HETATM    3  C   UNL     1      -4.277   3.868 -32.522  1.00  0.00     0.146 C 
HETATM    4  C   UNL     1      -5.480   3.992 -33.477  1.00  0.00     0.144 C 
HETATM    5  N   UNL     1      -6.531   3.007 -33.163  1.00  0.00    -0.365 N 
HETATM    6  C   UNL     1      -7.550   3.384 -32.176  1.00  0.00     0.126 C 
HETATM    7  C   UNL     1      -7.019   4.225 -31.015  1.00  0.00     0.040 C 
HETATM    8  C   UNL     1      -5.690   3.709 -30.465  1.00  0.00     0.127 C 
HETATM    9  O   UNL     1      -4.332   5.914 -29.477  1.00  0.00    -0.267 OA
ENDROOT
BRANCH   5  10
HETATM   10  C   UNL     1      -6.498   1.763 -33.733  1.00  0.00     0.122 A 
HETATM   11  N   UNL     1      -7.183   1.434 -34.873  1.00  0.00    -0.262 N 
HETATM   12  H   UNL     1      -7.752   2.042 -35.448  1.00  0.00     0.191 HD
HETATM   13  N   UNL     1      -7.066   0.152 -35.248  1.00  0.00    -0.173 NA
HETATM   14  C   UNL     1      -6.232  -0.385 -34.344  1.00  0.00     0.090 A 
HETATM   15  C   UNL     1      -5.839   0.599 -33.393  1.00  0.00     0.084 A 
BRANCH  14  16
HETATM   16  C   UNL     1      -5.854  -1.803 -34.400  1.00  0.00    -0.005 A 
HETATM   17  C   UNL     1      -4.559  -2.225 -34.055  1.00  0.00     0.017 A 
HETATM   18  C   UNL     1      -4.217  -3.580 -34.102  1.00  0.00     0.043 A 
HETATM   19  C   UNL     1      -5.166  -4.517 -34.493  1.00  0.00     0.116 A 
HETATM   20  F   UNL     1      -4.835  -5.814 -34.533  1.00  0.00    -0.206 F 
HETATM   21  C   UNL     1      -6.451  -4.126 -34.841  1.00  0.00     0.043 A 
HETATM   22  C   UNL     1      -6.793  -2.772 -34.797  1.00  0.00     0.017 A 
ENDBRANCH  14  16
ENDBRANCH   5  10
BRANCH   1  23
HETATM   23  C   UNL     1      -2.730   6.005 -31.150  1.00  0.00     0.065 A 
HETATM   24  C   UNL     1      -2.762   7.275 -31.737  1.00  0.00     0.084 A 
HETATM   25  C   UNL     1      -1.596   7.805 -32.297  1.00  0.00     0.038 A 
HETATM   26  C   UNL     1      -0.397   7.093 -32.225  1.00  0.00     0.003 A 
HETATM   27  C   UNL     1      -0.357   5.846 -31.600  1.00  0.00     0.001 A 
HETATM   28  C   UNL     1      -1.521   5.302 -31.057  1.00  0.00     0.020 A 
BRANCH  24  29
HETATM   29  O   UNL     1      -3.952   7.951 -31.822  1.00  0.00    -0.350 OA
BRANCH  29  30
HETATM   30  C   UNL     1      -3.971   9.107 -30.976  1.00  0.00     0.171 C 
HETATM   31  C   UNL     1      -5.306   9.154 -30.257  1.00  0.00     0.034 C 
ENDBRANCH  29  30
ENDBRANCH  24  29
ENDBRANCH   1  23
TORSDOF 5
ENDMDL
MODEL 5
REMARK VINA RESULT:      -8.5      1.602      1.975
REMARK  5 active torsions:
REMARK  status: ('A' for Active; 'I' for Inactive)
REMARK    1  A    between atoms: C_2  and  O_3 
REMARK    2  A    between atoms: O_3  and  C_4 
REMARK    3  A    between atoms: C_5  and  C_6 
REMARK       I    between atoms: C_6  and  N_7 
REMARK    4  A    between atoms: N_10  and  C_11 
REMARK    5  A    between atoms: C_15  and  C_16 
ROOT
HETATM    1  C   UNL     1      -3.561   6.514 -30.286  1.00  0.00     0.256 C 
HETATM    2  N   UNL     1      -4.157   5.291 -30.614  1.00  0.00    -0.346 N 
HETATM    3  C   UNL     1      -3.576   4.290 -31.526  1.00  0.00     0.146 C 
HETATM    4  C   UNL     1      -4.391   4.069 -32.815  1.00  0.00     0.144 C 
HETATM    5  N   UNL     1      -5.656   3.362 -32.549  1.00  0.00    -0.365 N 
HETATM    6  C   UNL     1      -6.832   4.170 -32.200  1.00  0.00     0.126 C 
HETATM    7  C   UNL     1      -6.522   5.388 -31.330  1.00  0.00     0.040 C 
HETATM    8  C   UNL     1      -5.544   5.078 -30.199  1.00  0.00     0.127 C 
HETATM    9  O   UNL     1      -4.148   7.418 -29.695  1.00  0.00    -0.267 OA
ENDROOT
BRANCH   5  10
HETATM   10  C   UNL     1      -5.694   1.994 -32.562  1.00  0.00     0.122 A 
HETATM   11  N   UNL     1      -5.680   1.226 -31.426  1.00  0.00    -0.262 N 
HETATM   12  H   UNL     1      -5.679   1.545 -30.466  1.00  0.00     0.191 HD
HETATM   13  N   UNL     1      -5.671  -0.097 -31.644  1.00  0.00    -0.173 NA
HETATM   14  C   UNL     1      -5.725  -0.216 -32.980  1.00  0.00     0.090 A 
HETATM   15  C   UNL     1      -5.763   1.072 -33.586  1.00  0.00     0.084 A 
BRANCH  14  16
HETATM   16  C   UNL     1      -5.721  -1.531 -33.631  1.00  0.00    -0.005 A 
HETATM   17  C   UNL     1      -6.903  -2.097 -34.138  1.00  0.00     0.017 A 
HETATM   18  C   UNL     1      -6.882  -3.346 -34.766  1.00  0.00     0.043 A 
HETATM   19  C   UNL     1      -5.681  -4.033 -34.891  1.00  0.00     0.116 A 
HETATM   20  F   UNL     1      -5.664  -5.228 -35.497  1.00  0.00    -0.206 F 
HETATM   21  C   UNL     1      -4.499  -3.499 -34.397  1.00  0.00     0.043 A 
HETATM   22  C   UNL     1      -4.520  -2.251 -33.767  1.00  0.00     0.017 A 
ENDBRANCH  14  16
ENDBRANCH   5  10
BRANCH   1  23
HETATM   23  C   UNL     1      -2.132   6.719 -30.601  1.00  0.00     0.065 A 
HETATM   24  C   UNL     1      -1.169   6.712 -29.587  1.00  0.00     0.084 A 
HETATM   25  C   UNL     1       0.179   6.895 -29.913  1.00  0.00     0.038 A 
HETATM   26  C   UNL     1       0.564   7.032 -31.248  1.00  0.00     0.003 A 
HETATM   27  C   UNL     1      -0.393   6.995 -32.263  1.00  0.00     0.001 A 
HETATM   28  C   UNL     1      -1.741   6.833 -31.943  1.00  0.00     0.020 A 
BRANCH  24  29
HETATM   29  O   UNL     1      -1.565   6.602 -28.279  1.00  0.00    -0.350 OA
BRANCH  29  30
HETATM   30  C   UNL     1      -0.818   7.473 -27.420  1.00  0.00     0.171 C 
HETATM   31  C   UNL     1      -0.107   6.627 -26.380  1.00  0.00     0.034 C 
ENDBRANCH  29  30
ENDBRANCH  24  29
ENDBRANCH   1  23
TORSDOF 5
ENDMDL
MODEL 6
REMARK VINA RESULT:      -8.4      3.416      4.670
REMARK  5 active torsions:
REMARK  status: ('A' for Active; 'I' for Inactive)
REMARK    1  A    between atoms: C_2  and  O_3 
REMARK    2  A    between atoms: O_3  and  C_4 
REMARK    3  A    between atoms: C_5  and  C_6 
REMARK       I    between atoms: C_6  and  N_7 
REMARK    4  A    between atoms: N_10  and  C_11 
REMARK    5  A    between atoms: C_15  and  C_16 
ROOT
HETATM    1  C   UNL     1      -2.117   8.073 -31.560  1.00  0.00     0.256 C 
HETATM    2  N   UNL     1      -2.749   6.884 -31.939  1.00  0.00    -0.346 N 
HETATM    3  C   UNL     1      -3.002   5.743 -31.041  1.00  0.00     0.146 C 
HETATM    4  C   UNL     1      -2.231   4.464 -31.419  1.00  0.00     0.144 C 
HETATM    5  N   UNL     1      -2.758   3.849 -32.650  1.00  0.00    -0.365 N 
HETATM    6  C   UNL     1      -2.207   4.303 -33.933  1.00  0.00     0.126 C 
HETATM    7  C   UNL     1      -1.886   5.797 -33.986  1.00  0.00     0.040 C 
HETATM    8  C   UNL     1      -2.981   6.663 -33.368  1.00  0.00     0.127 C 
HETATM    9  O   UNL     1      -1.731   8.922 -32.361  1.00  0.00    -0.267 OA
ENDROOT
BRANCH   5  10
HETATM   10  C   UNL     1      -3.779   2.940 -32.580  1.00  0.00     0.122 A 
HETATM   11  N   UNL     1      -3.604   1.634 -32.202  1.00  0.00    -0.262 N 
HETATM   12  H   UNL     1      -2.747   1.189 -31.900  1.00  0.00     0.191 HD
HETATM   13  N   UNL     1      -4.715   0.884 -32.244  1.00  0.00    -0.173 NA
HETATM   14  C   UNL     1      -5.679   1.737 -32.624  1.00  0.00     0.090 A 
HETATM   15  C   UNL     1      -5.134   3.038 -32.822  1.00  0.00     0.084 A 
BRANCH  14  16
HETATM   16  C   UNL     1      -7.067   1.293 -32.803  1.00  0.00    -0.005 A 
HETATM   17  C   UNL     1      -7.666   1.268 -34.073  1.00  0.00     0.017 A 
HETATM   18  C   UNL     1      -8.985   0.831 -34.229  1.00  0.00     0.043 A 
HETATM   19  C   UNL     1      -9.709   0.416 -33.118  1.00  0.00     0.116 A 
HETATM   20  F   UNL     1     -10.971  -0.005 -33.271  1.00  0.00    -0.206 F 
HETATM   21  C   UNL     1      -9.142   0.433 -31.851  1.00  0.00     0.043 A 
HETATM   22  C   UNL     1      -7.824   0.872 -31.694  1.00  0.00     0.017 A 
ENDBRANCH  14  16
ENDBRANCH   5  10
BRANCH   1  23
HETATM   23  C   UNL     1      -1.961   8.372 -30.121  1.00  0.00     0.065 A 
HETATM   24  C   UNL     1      -0.847   7.909 -29.412  1.00  0.00     0.084 A 
HETATM   25  C   UNL     1      -0.715   8.218 -28.055  1.00  0.00     0.038 A 
HETATM   26  C   UNL     1      -1.665   9.025 -27.425  1.00  0.00     0.003 A 
HETATM   27  C   UNL     1      -2.751   9.524 -28.144  1.00  0.00     0.001 A 
HETATM   28  C   UNL     1      -2.900   9.203 -29.494  1.00  0.00     0.020 A 
BRANCH  24  29
HETATM   29  O   UNL     1       0.063   7.096 -30.038  1.00  0.00    -0.350 OA
BRANCH  29  30
HETATM   30  C   UNL     1       0.356   5.927 -29.262  1.00  0.00     0.171 C 
HETATM   31  C   UNL     1       1.086   4.934 -30.147  1.00  0.00     0.034 C 
ENDBRANCH  29  30
ENDBRANCH  24  29
ENDBRANCH   1  23
TORSDOF 5
ENDMDL
MODEL 7
REMARK VINA RESULT:      -8.3      2.766      4.490
REMARK  5 active torsions:
REMARK  status: ('A' for Active; 'I' for Inactive)
REMARK    1  A    between atoms: C_2  and  O_3 
REMARK    2  A    between atoms: O_3  and  C_4 
REMARK    3  A    between atoms: C_5  and  C_6 
REMARK       I    between atoms: C_6  and  N_7 
REMARK    4  A    between atoms: N_10  and  C_11 
REMARK    5  A    between atoms: C_15  and  C_16 
ROOT
HETATM    1  C   UNL     1      -2.245   8.675 -31.147  1.00  0.00     0.256 C 
HETATM    2  N   UNL     1      -2.670   7.391 -31.508  1.00  0.00    -0.346 N 
HETATM    3  C   UNL     1      -2.858   6.273 -30.568  1.00  0.00     0.146 C 
HETATM    4  C   UNL     1      -1.887   5.096 -30.790  1.00  0.00     0.144 C 
HETATM    5  N   UNL     1      -2.201   4.354 -32.024  1.00  0.00    -0.365 N 
HETATM    6  C   UNL     1      -1.589   4.815 -33.276  1.00  0.00     0.126 C 
HETATM    7  C   UNL     1      -1.467   6.335 -33.393  1.00  0.00     0.040 C 
HETATM    8  C   UNL     1      -2.725   7.069 -32.935  1.00  0.00     0.127 C 
HETATM    9  O   UNL     1      -1.897   9.528 -31.961  1.00  0.00    -0.267 OA
ENDROOT
BRANCH   5  10
HETATM   10  C   UNL     1      -3.093   3.315 -31.992  1.00  0.00     0.122 A 
HETATM   11  N   UNL     1      -3.783   2.945 -30.867  1.00  0.00    -0.262 N 
HETATM   12  H   UNL     1      -3.762   3.387 -29.957  1.00  0.00     0.191 HD
HETATM   13  N   UNL     1      -4.572   1.872 -31.021  1.00  0.00    -0.173 NA
HETATM   14  C   UNL     1      -4.434   1.540 -32.314  1.00  0.00     0.090 A 
HETATM   15  C   UNL     1      -3.533   2.435 -32.958  1.00  0.00     0.084 A 
BRANCH  14  16
HETATM   16  C   UNL     1      -5.141   0.387 -32.886  1.00  0.00    -0.005 A 
HETATM   17  C   UNL     1      -4.438  -0.698 -33.437  1.00  0.00     0.017 A 
HETATM   18  C   UNL     1      -5.124  -1.795 -33.967  1.00  0.00     0.043 A 
HETATM   19  C   UNL     1      -6.514  -1.812 -33.950  1.00  0.00     0.116 A 
HETATM   20  F   UNL     1      -7.167  -2.865 -34.456  1.00  0.00    -0.206 F 
HETATM   21  C   UNL     1      -7.232  -0.752 -33.415  1.00  0.00     0.043 A 
HETATM   22  C   UNL     1      -6.547   0.346 -32.886  1.00  0.00     0.017 A 
ENDBRANCH  14  16
ENDBRANCH   5  10
BRANCH   1  23
HETATM   23  C   UNL     1      -2.276   9.064 -29.722  1.00  0.00     0.065 A 
HETATM   24  C   UNL     1      -1.198   8.775 -28.879  1.00  0.00     0.084 A 
HETATM   25  C   UNL     1      -1.246   9.166 -27.538  1.00  0.00     0.038 A 
HETATM   26  C   UNL     1      -2.342   9.885 -27.056  1.00  0.00     0.003 A 
HETATM   27  C   UNL     1      -3.397  10.212 -27.909  1.00  0.00     0.001 A 
HETATM   28  C   UNL     1      -3.365   9.807 -29.244  1.00  0.00     0.020 A 
BRANCH  24  29
HETATM   29  O   UNL     1      -0.141   8.045 -29.359  1.00  0.00    -0.350 OA
BRANCH  29  30
HETATM   30  C   UNL     1       0.717   7.591 -28.304  1.00  0.00     0.171 C 
HETATM   31  C   UNL     1       0.645   6.076 -28.247  1.00  0.00     0.034 C 
ENDBRANCH  29  30
ENDBRANCH  24  29
ENDBRANCH   1  23
TORSDOF 5
ENDMDL
MODEL 8
REMARK VINA RESULT:      -8.1      3.167      4.936
REMARK  5 active torsions:
REMARK  status: ('A' for Active; 'I' for Inactive)
REMARK    1  A    between atoms: C_2  and  O_3 
REMARK    2  A    between atoms: O_3  and  C_4 
REMARK    3  A    between atoms: C_5  and  C_6 
REMARK       I    between atoms: C_6  and  N_7 
REMARK    4  A    between atoms: N_10  and  C_11 
REMARK    5  A    between atoms: C_15  and  C_16 
ROOT
HETATM    1  C   UNL     1      -1.814   8.079 -31.309  1.00  0.00     0.256 C 
HETATM    2  N   UNL     1      -2.513   6.923 -31.675  1.00  0.00    -0.346 N 
HETATM    3  C   UNL     1      -2.449   5.639 -30.955  1.00  0.00     0.146 C 
HETATM    4  C   UNL     1      -1.816   4.494 -31.770  1.00  0.00     0.144 C 
HETATM    5  N   UNL     1      -2.697   4.048 -32.863  1.00  0.00    -0.365 N 
HETATM    6  C   UNL     1      -2.590   4.739 -34.155  1.00  0.00     0.126 C 
HETATM    7  C   UNL     1      -2.328   6.241 -34.045  1.00  0.00     0.040 C 
HETATM    8  C   UNL     1      -3.184   6.917 -32.976  1.00  0.00     0.127 C 
HETATM    9  O   UNL     1      -1.716   9.070 -32.031  1.00  0.00    -0.267 OA
ENDROOT
BRANCH   5  10
HETATM   10  C   UNL     1      -3.627   3.069 -32.639  1.00  0.00     0.122 A 
HETATM   11  N   UNL     1      -3.321   1.842 -32.109  1.00  0.00    -0.262 N 
HETATM   12  H   UNL     1      -2.419   1.516 -31.790  1.00  0.00     0.191 HD
HETATM   13  N   UNL     1      -4.359   0.999 -32.013  1.00  0.00    -0.173 NA
HETATM   14  C   UNL     1      -5.409   1.709 -32.456  1.00  0.00     0.090 A 
HETATM   15  C   UNL     1      -4.992   3.016 -32.836  1.00  0.00     0.084 A 
BRANCH  14  16
HETATM   16  C   UNL     1      -6.754   1.125 -32.521  1.00  0.00    -0.005 A 
HETATM   17  C   UNL     1      -7.788   1.584 -31.687  1.00  0.00     0.017 A 
HETATM   18  C   UNL     1      -9.068   1.026 -31.769  1.00  0.00     0.043 A 
HETATM   19  C   UNL     1      -9.319   0.010 -32.682  1.00  0.00     0.116 A 
HETATM   20  F   UNL     1     -10.547  -0.520 -32.759  1.00  0.00    -0.206 F 
HETATM   21  C   UNL     1      -8.315  -0.464 -33.515  1.00  0.00     0.043 A 
HETATM   22  C   UNL     1      -7.035   0.092 -33.433  1.00  0.00     0.017 A 
ENDBRANCH  14  16
ENDBRANCH   5  10
BRANCH   1  23
HETATM   23  C   UNL     1      -1.213   8.155 -29.961  1.00  0.00     0.065 A 
HETATM   24  C   UNL     1      -1.960   8.613 -28.871  1.00  0.00     0.084 A 
HETATM   25  C   UNL     1      -1.372   8.662 -27.603  1.00  0.00     0.038 A 
HETATM   26  C   UNL     1      -0.064   8.207 -27.419  1.00  0.00     0.003 A 
HETATM   27  C   UNL     1       0.664   7.708 -28.500  1.00  0.00     0.001 A 
HETATM   28  C   UNL     1       0.091   7.675 -29.771  1.00  0.00     0.020 A 
BRANCH  24  29
HETATM   29  O   UNL     1      -3.233   9.081 -29.072  1.00  0.00    -0.350 OA
BRANCH  29  30
HETATM   30  C   UNL     1      -4.220   8.180 -28.552  1.00  0.00     0.171 C 
HETATM   31  C   UNL     1      -5.314   8.017 -29.590  1.00  0.00     0.034 C 
ENDBRANCH  29  30
ENDBRANCH  24  29
ENDBRANCH   1  23
TORSDOF 5
ENDMDL
MODEL 9
REMARK VINA RESULT:      -8.1      4.232      5.471
REMARK  5 active torsions:
REMARK  status: ('A' for Active; 'I' for Inactive)
REMARK    1  A    between atoms: C_2  and  O_3 
REMARK    2  A    between atoms: O_3  and  C_4 
REMARK    3  A    between atoms: C_5  and  C_6 
REMARK       I    between atoms: C_6  and  N_7 
REMARK    4  A    between atoms: N_10  and  C_11 
REMARK    5  A    between atoms: C_15  and  C_16 
ROOT
HETATM    1  C   UNL     1      -3.321   3.542 -31.865  1.00  0.00     0.256 C 
HETATM    2  N   UNL     1      -4.698   3.331 -31.988  1.00  0.00    -0.346 N 
HETATM    3  C   UNL     1      -5.653   4.313 -32.533  1.00  0.00     0.146 C 
HETATM    4  C   UNL     1      -6.679   4.828 -31.504  1.00  0.00     0.144 C 
HETATM    5  N   UNL     1      -7.664   3.792 -31.147  1.00  0.00    -0.365 N 
HETATM    6  C   UNL     1      -7.333   2.884 -30.041  1.00  0.00     0.126 C 
HETATM    7  C   UNL     1      -5.857   2.491 -29.971  1.00  0.00     0.040 C 
HETATM    8  C   UNL     1      -5.266   2.150 -31.337  1.00  0.00     0.127 C 
HETATM    9  O   UNL     1      -2.575   2.803 -31.224  1.00  0.00    -0.267 OA
ENDROOT
BRANCH   5  10
HETATM   10  C   UNL     1      -8.811   3.653 -31.881  1.00  0.00     0.122 A 
HETATM   11  N   UNL     1      -9.261   4.597 -32.767  1.00  0.00    -0.262 N 
HETATM   12  H   UNL     1      -8.813   5.468 -33.020  1.00  0.00     0.191 HD
HETATM   13  N   UNL     1     -10.430   4.303 -33.354  1.00  0.00    -0.173 NA
HETATM   14  C   UNL     1     -10.751   3.093 -32.871  1.00  0.00     0.090 A 
HETATM   15  C   UNL     1      -9.749   2.645 -31.963  1.00  0.00     0.084 A 
BRANCH  14  16
HETATM   16  C   UNL     1     -11.991   2.415 -33.268  1.00  0.00    -0.005 A 
HETATM   17  C   UNL     1     -13.234   2.804 -32.741  1.00  0.00     0.017 A 
HETATM   18  C   UNL     1     -14.409   2.157 -33.138  1.00  0.00     0.043 A 
HETATM   19  C   UNL     1     -14.345   1.121 -34.061  1.00  0.00     0.116 A 
HETATM   20  F   UNL     1     -15.473   0.505 -34.442  1.00  0.00    -0.206 F 
HETATM   21  C   UNL     1     -13.130   0.715 -34.595  1.00  0.00     0.043 A 
HETATM   22  C   UNL     1     -11.956   1.360 -34.198  1.00  0.00     0.017 A 
ENDBRANCH  14  16
ENDBRANCH   5  10
BRANCH   1  23
HETATM   23  C   UNL     1      -2.702   4.668 -32.594  1.00  0.00     0.065 A 
HETATM   24  C   UNL     1      -2.495   5.900 -31.965  1.00  0.00     0.084 A 
HETATM   25  C   UNL     1      -1.895   6.945 -32.673  1.00  0.00     0.038 A 
HETATM   26  C   UNL     1      -1.458   6.744 -33.984  1.00  0.00     0.003 A 
HETATM   27  C   UNL     1      -1.624   5.501 -34.596  1.00  0.00     0.001 A 
HETATM   28  C   UNL     1      -2.241   4.459 -33.902  1.00  0.00     0.020 A 
BRANCH  24  29
HETATM   29  O   UNL     1      -2.953   6.091 -30.686  1.00  0.00    -0.350 OA
BRANCH  29  30
HETATM   30  C   UNL     1      -2.027   6.848 -29.896  1.00  0.00     0.171 C 
HETATM   31  C   UNL     1      -2.741   7.322 -28.644  1.00  0.00     0.034 C 
ENDBRANCH  29  30
ENDBRANCH  24  29
ENDBRANCH   1  23
TORSDOF 5
ENDMDL
MODEL 10
REMARK VINA RESULT:      -8.0      2.632      4.743
REMARK  5 active torsions:
REMARK  status: ('A' for Active; 'I' for Inactive)
REMARK    1  A    between atoms: C_2  and  O_3 
REMARK    2  A    between atoms: O_3  and  C_4 
REMARK    3  A    between atoms: C_5  and  C_6 
REMARK       I    between atoms: C_6  and  N_7 
REMARK    4  A    between atoms: N_10  and  C_11 
REMARK    5  A    between atoms: C_15  and  C_16 
ROOT
HETATM    1  C   UNL     1      -6.226   6.267 -31.799  1.00  0.00     0.256 C 
HETATM    2  N   UNL     1      -5.659   5.006 -32.018  1.00  0.00    -0.346 N 
HETATM    3  C   UNL     1      -6.099   3.762 -31.364  1.00  0.00     0.146 C 
HETATM    4  C   UNL     1      -5.045   3.139 -30.428  1.00  0.00     0.144 C 
HETATM    5  N   UNL     1      -3.917   2.561 -31.181  1.00  0.00    -0.365 N 
HETATM    6  C   UNL     1      -2.791   3.443 -31.511  1.00  0.00     0.126 C 
HETATM    7  C   UNL     1      -3.195   4.877 -31.858  1.00  0.00     0.040 C 
HETATM    8  C   UNL     1      -4.411   4.945 -32.779  1.00  0.00     0.127 C 
HETATM    9  O   UNL     1      -5.719   7.316 -32.190  1.00  0.00    -0.267 OA
ENDROOT
BRANCH   5  10
HETATM   10  C   UNL     1      -3.972   1.263 -31.611  1.00  0.00     0.122 A 
HETATM   11  N   UNL     1      -3.107   0.288 -31.185  1.00  0.00    -0.262 N 
HETATM   12  H   UNL     1      -2.368   0.376 -30.501  1.00  0.00     0.191 HD
HETATM   13  N   UNL     1      -3.288  -0.911 -31.758  1.00  0.00    -0.173 NA
HETATM   14  C   UNL     1      -4.345  -0.738 -32.567  1.00  0.00     0.090 A 
HETATM   15  C   UNL     1      -4.814   0.604 -32.484  1.00  0.00     0.084 A 
BRANCH  14  16
HETATM   16  C   UNL     1      -4.861  -1.835 -33.396  1.00  0.00    -0.005 A 
HETATM   17  C   UNL     1      -4.120  -3.013 -33.588  1.00  0.00     0.017 A 
HETATM   18  C   UNL     1      -4.630  -4.054 -34.370  1.00  0.00     0.043 A 
HETATM   19  C   UNL     1      -5.879  -3.922 -34.963  1.00  0.00     0.116 A 
HETATM   20  F   UNL     1      -6.365  -4.922 -35.709  1.00  0.00    -0.206 F 
HETATM   21  C   UNL     1      -6.631  -2.767 -34.792  1.00  0.00     0.043 A 
HETATM   22  C   UNL     1      -6.121  -1.726 -34.011  1.00  0.00     0.017 A 
ENDBRANCH  14  16
ENDBRANCH   5  10
BRANCH   1  23
HETATM   23  C   UNL     1      -7.538   6.353 -31.123  1.00  0.00     0.065 A 
HETATM   24  C   UNL     1      -7.618   6.605 -29.750  1.00  0.00     0.084 A 
HETATM   25  C   UNL     1      -8.872   6.697 -29.137  1.00  0.00     0.038 A 
HETATM   26  C   UNL     1     -10.035   6.587 -29.902  1.00  0.00     0.003 A 
HETATM   27  C   UNL     1      -9.953   6.381 -31.280  1.00  0.00     0.001 A 
HETATM   28  C   UNL     1      -8.706   6.268 -31.894  1.00  0.00     0.020 A 
BRANCH  24  29
HETATM   29  O   UNL     1      -6.468   6.684 -29.008  1.00  0.00    -0.350 OA
BRANCH  29  30
HETATM   30  C   UNL     1      -6.377   5.622 -28.050  1.00  0.00     0.171 C 
HETATM   31  C   UNL     1      -5.207   5.908 -27.126  1.00  0.00     0.034 C 
ENDBRANCH  29  30
ENDBRANCH  24  29
ENDBRANCH   1  23
TORSDOF 5
ENDMDL
