MODEL 1
REMARK VINA RESULT:      -7.1      0.000      0.000
REMARK  6 active torsions:
REMARK  status: ('A' for Active; 'I' for Inactive)
REMARK    1  A    between atoms: C_2  and  S_3 
REMARK    2  A    between atoms: C_2  and  C_11 
REMARK    3  A    between atoms: S_3  and  C_4 
REMARK    4  A    between atoms: C_4  and  C_5 
REMARK       I    between atoms: C_11  and  N_12 
REMARK    5  A    between atoms: N_12  and  C_13 
REMARK    6  A    between atoms: C_15  and  C_16 
ROOT
HETATM    1  C   UNL     1      -7.478   3.821 -30.350  1.00  0.00     0.235 C 
HETATM    2  N   UNL     1      -8.425   2.840 -30.365  1.00  0.00    -0.326 N 
HETATM    3  O   UNL     1      -7.153   4.244 -29.231  1.00  0.00    -0.272 OA
HETATM    4  H   UNL     1      -8.761   2.687 -29.420  1.00  0.00     0.169 HD
ENDROOT
BRANCH   2   5
HETATM    5  C   UNL     1      -9.049   2.060 -31.355  1.00  0.00     0.035 A 
HETATM    6  C   UNL     1      -9.790   2.541 -32.433  1.00  0.00     0.042 A 
HETATM    7  C   UNL     1     -10.382   1.666 -33.364  1.00  0.00    -0.021 A 
HETATM    8  C   UNL     1     -10.217   0.287 -33.206  1.00  0.00     0.012 A 
HETATM    9  C   UNL     1      -9.457  -0.209 -32.150  1.00  0.00     0.003 A 
HETATM   10  C   UNL     1      -8.872   0.672 -31.239  1.00  0.00     0.029 A 
BRANCH   7  11
HETATM   11  C   UNL     1     -11.161   2.180 -34.478  1.00  0.00     0.010 A 
HETATM   12  C   UNL     1     -12.252   1.619 -35.183  1.00  0.00     0.152 A 
HETATM   13  N   UNL     1     -12.692   2.406 -36.168  1.00  0.00    -0.187 NA
HETATM   14  N   UNL     1     -11.882   3.475 -36.101  1.00  0.00    -0.289 N 
HETATM   15  H   UNL     1     -12.021   4.227 -36.768  1.00  0.00     0.188 HD
HETATM   16  C   UNL     1     -10.948   3.388 -35.109  1.00  0.00     0.123 A 
ENDBRANCH   7  11
ENDBRANCH   2   5
BRANCH   1  17
HETATM   17  C   UNL     1      -6.859   4.417 -31.610  1.00  0.00     0.135 C 
HETATM   18  C   UNL     1      -6.286   5.810 -31.337  1.00  0.00     0.031 C 
BRANCH  17  19
HETATM   19  S   UNL     1      -5.560   3.302 -32.288  1.00  0.00    -0.150 SA
BRANCH  19  20
HETATM   20  C   UNL     1      -6.300   2.820 -33.888  1.00  0.00     0.113 C 
BRANCH  20  21
HETATM   21  C   UNL     1      -6.413   1.318 -34.000  1.00  0.00    -0.049 A 
HETATM   22  C   UNL     1      -5.804   0.483 -33.052  1.00  0.00     0.008 A 
HETATM   23  C   UNL     1      -5.911  -0.906 -33.157  1.00  0.00     0.001 A 
HETATM   24  C   UNL     1      -6.626  -1.472 -34.210  1.00  0.00     0.000 A 
HETATM   25  C   UNL     1      -7.230  -0.654 -35.162  1.00  0.00     0.001 A 
HETATM   26  C   UNL     1      -7.121   0.734 -35.061  1.00  0.00     0.008 A 
ENDBRANCH  20  21
ENDBRANCH  19  20
ENDBRANCH  17  19
ENDBRANCH   1  17
TORSDOF 6
ENDMDL
MODEL 2
REMARK VINA RESULT:      -7.0      2.417      3.321
REMARK  6 active torsions:
REMARK  status: ('A' for Active; 'I' for Inactive)
REMARK    1  A    between atoms: C_2  and  S_3 
REMARK    2  A    between atoms: C_2  and  C_11 
REMARK    3  A    between atoms: S_3  and  C_4 
REMARK    4  A    between atoms: C_4  and  C_5 
REMARK       I    between atoms: C_11  and  N_12 
REMARK    5  A    between atoms: N_12  and  C_13 
REMARK    6  A    between atoms: C_15  and  C_16 
ROOT
HETATM    1  C   UNL     1      -6.866   0.546 -31.221  1.00  0.00     0.235 C 
HETATM    2  N   UNL     1      -8.216   0.603 -31.404  1.00  0.00    -0.326 N 
HETATM    3  O   UNL     1      -6.477  -0.107 -30.243  1.00  0.00    -0.272 OA
HETATM    4  H   UNL     1      -8.677   0.145 -30.624  1.00  0.00     0.169 HD
ENDROOT
BRANCH   2   5
HETATM    5  C   UNL     1      -9.079   1.166 -32.360  1.00  0.00     0.035 A 
HETATM    6  C   UNL     1     -10.375   0.738 -32.649  1.00  0.00     0.042 A 
HETATM    7  C   UNL     1     -11.152   1.370 -33.639  1.00  0.00    -0.021 A 
HETATM    8  C   UNL     1     -10.614   2.453 -34.341  1.00  0.00     0.012 A 
HETATM    9  C   UNL     1      -9.333   2.911 -34.045  1.00  0.00     0.003 A 
HETATM   10  C   UNL     1      -8.577   2.276 -33.057  1.00  0.00     0.029 A 
BRANCH   7  11
HETATM   11  C   UNL     1     -12.496   0.908 -33.937  1.00  0.00     0.010 A 
HETATM   12  C   UNL     1     -13.564   1.540 -34.618  1.00  0.00     0.152 A 
HETATM   13  N   UNL     1     -14.662   0.783 -34.676  1.00  0.00    -0.187 NA
HETATM   14  N   UNL     1     -14.305  -0.338 -34.029  1.00  0.00    -0.289 N 
HETATM   15  H   UNL     1     -14.991  -1.080 -33.935  1.00  0.00     0.188 HD
HETATM   16  C   UNL     1     -13.021  -0.313 -33.566  1.00  0.00     0.123 A 
ENDBRANCH   7  11
ENDBRANCH   2   5
BRANCH   1  17
HETATM   17  C   UNL     1      -5.862   1.260 -32.121  1.00  0.00     0.135 C 
HETATM   18  C   UNL     1      -4.956   2.187 -31.308  1.00  0.00     0.031 C 
BRANCH  17  19
HETATM   19  S   UNL     1      -4.860   0.043 -33.073  1.00  0.00    -0.150 SA
BRANCH  19  20
HETATM   20  C   UNL     1      -6.148  -0.774 -34.078  1.00  0.00     0.113 C 
BRANCH  20  21
HETATM   21  C   UNL     1      -5.831  -2.237 -34.277  1.00  0.00    -0.049 A 
HETATM   22  C   UNL     1      -4.549  -2.735 -34.002  1.00  0.00     0.008 A 
HETATM   23  C   UNL     1      -4.258  -4.088 -34.185  1.00  0.00     0.001 A 
HETATM   24  C   UNL     1      -5.245  -4.957 -34.646  1.00  0.00     0.000 A 
HETATM   25  C   UNL     1      -6.521  -4.474 -34.929  1.00  0.00     0.001 A 
HETATM   26  C   UNL     1      -6.812  -3.121 -34.750  1.00  0.00     0.008 A 
ENDBRANCH  20  21
ENDBRANCH  19  20
ENDBRANCH  17  19
ENDBRANCH   1  17
TORSDOF 6
ENDMDL
MODEL 3
REMARK VINA RESULT:      -7.0      3.539      6.018
REMARK  6 active torsions:
REMARK  status: ('A' for Active; 'I' for Inactive)
REMARK    1  A    between atoms: C_2  and  S_3 
REMARK    2  A    between atoms: C_2  and  C_11 
REMARK    3  A    between atoms: S_3  and  C_4 
REMARK    4  A    between atoms: C_4  and  C_5 
REMARK       I    between atoms: C_11  and  N_12 
REMARK    5  A    between atoms: N_12  and  C_13 
REMARK    6  A    between atoms: C_15  and  C_16 
ROOT
HETATM    1  C   UNL     1      -4.954   2.107 -31.670  1.00  0.00     0.235 C 
HETATM    2  N   UNL     1      -4.639   1.381 -32.782  1.00  0.00    -0.326 N 
HETATM    3  O   UNL     1      -4.125   2.961 -31.327  1.00  0.00    -0.272 OA
HETATM    4  H   UNL     1      -3.705   1.633 -33.089  1.00  0.00     0.169 HD
ENDROOT
BRANCH   2   5
HETATM    5  C   UNL     1      -5.267   0.377 -33.538  1.00  0.00     0.035 A 
HETATM    6  C   UNL     1      -4.904  -0.969 -33.576  1.00  0.00     0.042 A 
HETATM    7  C   UNL     1      -5.599  -1.893 -34.381  1.00  0.00    -0.021 A 
HETATM    8  C   UNL     1      -6.678  -1.452 -35.152  1.00  0.00     0.012 A 
HETATM    9  C   UNL     1      -7.070  -0.117 -35.104  1.00  0.00     0.003 A 
HETATM   10  C   UNL     1      -6.374   0.786 -34.298  1.00  0.00     0.029 A 
BRANCH   7  11
HETATM   11  C   UNL     1      -5.204  -3.291 -34.418  1.00  0.00     0.010 A 
HETATM   12  C   UNL     1      -5.856  -4.423 -34.962  1.00  0.00     0.152 A 
HETATM   13  N   UNL     1      -5.169  -5.554 -34.781  1.00  0.00    -0.187 NA
HETATM   14  N   UNL     1      -4.073  -5.152 -34.116  1.00  0.00    -0.289 N 
HETATM   15  H   UNL     1      -3.384  -5.850 -33.855  1.00  0.00     0.188 HD
HETATM   16  C   UNL     1      -4.047  -3.808 -33.874  1.00  0.00     0.123 A 
ENDBRANCH   7  11
ENDBRANCH   2   5
BRANCH   1  17
HETATM   17  C   UNL     1      -6.220   1.885 -30.849  1.00  0.00     0.135 C 
HETATM   18  C   UNL     1      -5.925   1.064 -29.592  1.00  0.00     0.031 C 
BRANCH  17  19
HETATM   19  S   UNL     1      -6.998   3.494 -30.405  1.00  0.00    -0.150 SA
BRANCH  19  20
HETATM   20  C   UNL     1      -8.764   3.032 -30.334  1.00  0.00     0.113 C 
BRANCH  20  21
HETATM   21  C   UNL     1      -9.214   2.419 -31.639  1.00  0.00    -0.049 A 
HETATM   22  C   UNL     1      -9.380   3.214 -32.783  1.00  0.00     0.008 A 
HETATM   23  C   UNL     1      -9.796   2.645 -33.988  1.00  0.00     0.001 A 
HETATM   24  C   UNL     1     -10.051   1.278 -34.063  1.00  0.00     0.000 A 
HETATM   25  C   UNL     1      -9.897   0.478 -32.932  1.00  0.00     0.001 A 
HETATM   26  C   UNL     1      -9.485   1.045 -31.725  1.00  0.00     0.008 A 
ENDBRANCH  20  21
ENDBRANCH  19  20
ENDBRANCH  17  19
ENDBRANCH   1  17
TORSDOF 6
ENDMDL
MODEL 4
REMARK VINA RESULT:      -6.9      2.109      3.075
REMARK  6 active torsions:
REMARK  status: ('A' for Active; 'I' for Inactive)
REMARK    1  A    between atoms: C_2  and  S_3 
REMARK    2  A    between atoms: C_2  and  C_11 
REMARK    3  A    between atoms: S_3  and  C_4 
REMARK    4  A    between atoms: C_4  and  C_5 
REMARK       I    between atoms: C_11  and  N_12 
REMARK    5  A    between atoms: N_12  and  C_13 
REMARK    6  A    between atoms: C_15  and  C_16 
ROOT
HETATM    1  C   UNL     1      -6.871   0.701 -31.192  1.00  0.00     0.235 C 
HETATM    2  N   UNL     1      -8.139   1.060 -30.843  1.00  0.00    -0.326 N 
HETATM    3  O   UNL     1      -6.346  -0.180 -30.496  1.00  0.00    -0.272 OA
HETATM    4  H   UNL     1      -8.400   0.574 -29.992  1.00  0.00     0.169 HD
ENDROOT
BRANCH   2   5
HETATM    5  C   UNL     1      -9.108   1.946 -31.347  1.00  0.00     0.035 A 
HETATM    6  C   UNL     1      -9.768   1.830 -32.570  1.00  0.00     0.042 A 
HETATM    7  C   UNL     1     -10.718   2.784 -32.983  1.00  0.00    -0.021 A 
HETATM    8  C   UNL     1     -11.009   3.866 -32.146  1.00  0.00     0.012 A 
HETATM    9  C   UNL     1     -10.379   3.981 -30.910  1.00  0.00     0.003 A 
HETATM   10  C   UNL     1      -9.443   3.024 -30.513  1.00  0.00     0.029 A 
BRANCH   7  11
HETATM   11  C   UNL     1     -11.392   2.658 -34.264  1.00  0.00     0.010 A 
HETATM   12  C   UNL     1     -12.265   1.659 -34.757  1.00  0.00     0.152 A 
HETATM   13  N   UNL     1     -12.670   1.896 -36.007  1.00  0.00    -0.187 NA
HETATM   14  N   UNL     1     -12.055   3.047 -36.323  1.00  0.00    -0.289 N 
HETATM   15  H   UNL     1     -12.207   3.437 -37.248  1.00  0.00     0.188 HD
HETATM   16  C   UNL     1     -11.278   3.542 -35.316  1.00  0.00     0.123 A 
ENDBRANCH   7  11
ENDBRANCH   2   5
BRANCH   1  17
HETATM   17  C   UNL     1      -6.095   1.346 -32.336  1.00  0.00     0.135 C 
HETATM   18  C   UNL     1      -5.306   2.563 -31.849  1.00  0.00     0.031 C 
BRANCH  17  19
HETATM   19  S   UNL     1      -4.974   0.122 -33.134  1.00  0.00    -0.150 SA
BRANCH  19  20
HETATM   20  C   UNL     1      -6.120  -0.719 -34.282  1.00  0.00     0.113 C 
BRANCH  20  21
HETATM   21  C   UNL     1      -5.798  -2.191 -34.384  1.00  0.00    -0.049 A 
HETATM   22  C   UNL     1      -6.783  -3.113 -34.768  1.00  0.00     0.008 A 
HETATM   23  C   UNL     1      -6.483  -4.474 -34.863  1.00  0.00     0.001 A 
HETATM   24  C   UNL     1      -5.198  -4.926 -34.574  1.00  0.00     0.000 A 
HETATM   25  C   UNL     1      -4.212  -4.021 -34.184  1.00  0.00     0.001 A 
HETATM   26  C   UNL     1      -4.510  -2.661 -34.086  1.00  0.00     0.008 A 
ENDBRANCH  20  21
ENDBRANCH  19  20
ENDBRANCH  17  19
ENDBRANCH   1  17
TORSDOF 6
ENDMDL
MODEL 5
REMARK VINA RESULT:      -6.9      4.297      7.657
REMARK  6 active torsions:
REMARK  status: ('A' for Active; 'I' for Inactive)
REMARK    1  A    between atoms: C_2  and  S_3 
REMARK    2  A    between atoms: C_2  and  C_11 
REMARK    3  A    between atoms: S_3  and  C_4 
REMARK    4  A    between atoms: C_4  and  C_5 
REMARK       I    between atoms: C_11  and  N_12 
REMARK    5  A    between atoms: N_12  and  C_13 
REMARK    6  A    between atoms: C_15  and  C_16 
ROOT
HETATM    1  C   UNL     1      -6.295   4.276 -33.952  1.00  0.00     0.235 C 
HETATM    2  N   UNL     1      -5.349   5.258 -33.992  1.00  0.00    -0.326 N 
HETATM    3  O   UNL     1      -7.446   4.620 -34.256  1.00  0.00    -0.272 OA
HETATM    4  H   UNL     1      -5.798   6.145 -34.196  1.00  0.00     0.169 HD
ENDROOT
BRANCH   2   5
HETATM    5  C   UNL     1      -3.961   5.325 -33.780  1.00  0.00     0.035 A 
HETATM    6  C   UNL     1      -3.325   5.469 -32.547  1.00  0.00     0.042 A 
HETATM    7  C   UNL     1      -1.922   5.536 -32.449  1.00  0.00    -0.021 A 
HETATM    8  C   UNL     1      -1.151   5.451 -33.612  1.00  0.00     0.012 A 
HETATM    9  C   UNL     1      -1.769   5.280 -34.848  1.00  0.00     0.003 A 
HETATM   10  C   UNL     1      -3.161   5.210 -34.927  1.00  0.00     0.029 A 
BRANCH   7  11
HETATM   11  C   UNL     1      -1.272   5.696 -31.159  1.00  0.00     0.010 A 
HETATM   12  C   UNL     1      -0.051   5.179 -30.667  1.00  0.00     0.152 A 
HETATM   13  N   UNL     1       0.197   5.546 -29.407  1.00  0.00    -0.187 NA
HETATM   14  N   UNL     1      -0.868   6.299 -29.084  1.00  0.00    -0.289 N 
HETATM   15  H   UNL     1      -0.913   6.697 -28.152  1.00  0.00     0.188 HD
HETATM   16  C   UNL     1      -1.776   6.417 -30.097  1.00  0.00     0.123 A 
ENDBRANCH   7  11
ENDBRANCH   2   5
BRANCH   1  17
HETATM   17  C   UNL     1      -6.005   2.840 -33.527  1.00  0.00     0.135 C 
HETATM   18  C   UNL     1      -5.917   2.724 -32.004  1.00  0.00     0.031 C 
BRANCH  17  19
HETATM   19  S   UNL     1      -7.282   1.693 -34.194  1.00  0.00    -0.150 SA
BRANCH  19  20
HETATM   20  C   UNL     1      -7.219   0.337 -32.972  1.00  0.00     0.113 C 
BRANCH  20  21
HETATM   21  C   UNL     1      -6.419  -0.830 -33.501  1.00  0.00    -0.049 A 
HETATM   22  C   UNL     1      -5.041  -0.923 -33.257  1.00  0.00     0.008 A 
HETATM   23  C   UNL     1      -4.304  -2.003 -33.747  1.00  0.00     0.001 A 
HETATM   24  C   UNL     1      -4.936  -3.000 -34.486  1.00  0.00     0.000 A 
HETATM   25  C   UNL     1      -6.303  -2.917 -34.742  1.00  0.00     0.001 A 
HETATM   26  C   UNL     1      -7.041  -1.836 -34.256  1.00  0.00     0.008 A 
ENDBRANCH  20  21
ENDBRANCH  19  20
ENDBRANCH  17  19
ENDBRANCH   1  17
TORSDOF 6
ENDMDL
MODEL 6
REMARK VINA RESULT:      -6.9      4.215      6.502
REMARK  6 active torsions:
REMARK  status: ('A' for Active; 'I' for Inactive)
REMARK    1  A    between atoms: C_2  and  S_3 
REMARK    2  A    between atoms: C_2  and  C_11 
REMARK    3  A    between atoms: S_3  and  C_4 
REMARK    4  A    between atoms: C_4  and  C_5 
REMARK       I    between atoms: C_11  and  N_12 
REMARK    5  A    between atoms: N_12  and  C_13 
REMARK    6  A    between atoms: C_15  and  C_16 
ROOT
HETATM    1  C   UNL     1      -6.028   2.176 -31.069  1.00  0.00     0.235 C 
HETATM    2  N   UNL     1      -6.709   1.073 -31.493  1.00  0.00    -0.326 N 
HETATM    3  O   UNL     1      -6.149   2.460 -29.869  1.00  0.00    -0.272 OA
HETATM    4  H   UNL     1      -7.277   0.719 -30.730  1.00  0.00     0.169 HD
ENDROOT
BRANCH   2   5
HETATM    5  C   UNL     1      -6.832   0.372 -32.706  1.00  0.00     0.035 A 
HETATM    6  C   UNL     1      -6.368  -0.919 -32.958  1.00  0.00     0.042 A 
HETATM    7  C   UNL     1      -6.536  -1.525 -34.218  1.00  0.00    -0.021 A 
HETATM    8  C   UNL     1      -7.188  -0.819 -35.234  1.00  0.00     0.012 A 
HETATM    9  C   UNL     1      -7.683   0.459 -34.990  1.00  0.00     0.003 A 
HETATM   10  C   UNL     1      -7.511   1.044 -33.733  1.00  0.00     0.029 A 
BRANCH   7  11
HETATM   11  C   UNL     1      -6.039  -2.866 -34.471  1.00  0.00     0.010 A 
HETATM   12  C   UNL     1      -6.694  -4.020 -34.961  1.00  0.00     0.152 A 
HETATM   13  N   UNL     1      -5.887  -5.081 -35.041  1.00  0.00    -0.187 NA
HETATM   14  N   UNL     1      -4.708  -4.612 -34.599  1.00  0.00    -0.289 N 
HETATM   15  H   UNL     1      -3.919  -5.249 -34.561  1.00  0.00     0.188 HD
HETATM   16  C   UNL     1      -4.747  -3.294 -34.244  1.00  0.00     0.123 A 
ENDBRANCH   7  11
ENDBRANCH   2   5
BRANCH   1  17
HETATM   17  C   UNL     1      -5.189   3.056 -31.990  1.00  0.00     0.135 C 
HETATM   18  C   UNL     1      -5.595   4.527 -31.865  1.00  0.00     0.031 C 
BRANCH  17  19
HETATM   19  S   UNL     1      -3.394   2.845 -31.636  1.00  0.00    -0.150 SA
BRANCH  19  20
HETATM   20  C   UNL     1      -2.645   3.812 -32.993  1.00  0.00     0.113 C 
BRANCH  20  21
HETATM   21  C   UNL     1      -1.771   4.918 -32.449  1.00  0.00    -0.049 A 
HETATM   22  C   UNL     1      -1.210   4.820 -31.167  1.00  0.00     0.008 A 
HETATM   23  C   UNL     1      -0.402   5.843 -30.667  1.00  0.00     0.001 A 
HETATM   24  C   UNL     1      -0.147   6.973 -31.441  1.00  0.00     0.000 A 
HETATM   25  C   UNL     1      -0.705   7.085 -32.714  1.00  0.00     0.001 A 
HETATM   26  C   UNL     1      -1.516   6.065 -33.214  1.00  0.00     0.008 A 
ENDBRANCH  20  21
ENDBRANCH  19  20
ENDBRANCH  17  19
ENDBRANCH   1  17
TORSDOF 6
ENDMDL
MODEL 7
REMARK VINA RESULT:      -6.9      3.506      6.377
REMARK  6 active torsions:
REMARK  status: ('A' for Active; 'I' for Inactive)
REMARK    1  A    between atoms: C_2  and  S_3 
REMARK    2  A    between atoms: C_2  and  C_11 
REMARK    3  A    between atoms: S_3  and  C_4 
REMARK    4  A    between atoms: C_4  and  C_5 
REMARK       I    between atoms: C_11  and  N_12 
REMARK    5  A    between atoms: N_12  and  C_13 
REMARK    6  A    between atoms: C_15  and  C_16 
ROOT
HETATM    1  C   UNL     1      -6.857   2.173 -32.716  1.00  0.00     0.235 C 
HETATM    2  N   UNL     1      -5.675   1.625 -33.118  1.00  0.00    -0.326 N 
HETATM    3  O   UNL     1      -7.013   3.376 -32.972  1.00  0.00    -0.272 OA
HETATM    4  H   UNL     1      -5.083   2.355 -33.500  1.00  0.00     0.169 HD
ENDROOT
BRANCH   2   5
HETATM    5  C   UNL     1      -5.099   0.343 -33.084  1.00  0.00     0.035 A 
HETATM    6  C   UNL     1      -5.596  -0.797 -33.715  1.00  0.00     0.042 A 
HETATM    7  C   UNL     1      -4.941  -2.039 -33.607  1.00  0.00    -0.021 A 
HETATM    8  C   UNL     1      -3.765  -2.128 -32.856  1.00  0.00     0.012 A 
HETATM    9  C   UNL     1      -3.240  -0.993 -32.243  1.00  0.00     0.003 A 
HETATM   10  C   UNL     1      -3.899   0.232 -32.365  1.00  0.00     0.029 A 
BRANCH   7  11
HETATM   11  C   UNL     1      -5.475  -3.222 -34.260  1.00  0.00     0.010 A 
HETATM   12  C   UNL     1      -4.885  -4.480 -34.525  1.00  0.00     0.152 A 
HETATM   13  N   UNL     1      -5.707  -5.313 -35.169  1.00  0.00    -0.187 NA
HETATM   14  N   UNL     1      -6.829  -4.590 -35.322  1.00  0.00    -0.289 N 
HETATM   15  H   UNL     1      -7.616  -5.017 -35.799  1.00  0.00     0.188 HD
HETATM   16  C   UNL     1      -6.740  -3.332 -34.798  1.00  0.00     0.123 A 
ENDBRANCH   7  11
ENDBRANCH   2   5
BRANCH   1  17
HETATM   17  C   UNL     1      -7.933   1.400 -31.959  1.00  0.00     0.135 C 
HETATM   18  C   UNL     1      -8.844   2.348 -31.176  1.00  0.00     0.031 C 
BRANCH  17  19
HETATM   19  S   UNL     1      -8.919   0.357 -33.113  1.00  0.00    -0.150 SA
BRANCH  19  20
HETATM   20  C   UNL     1      -9.791   1.630 -34.091  1.00  0.00     0.113 C 
BRANCH  20  21
HETATM   21  C   UNL     1     -11.273   1.343 -34.151  1.00  0.00    -0.049 A 
HETATM   22  C   UNL     1     -11.808   0.212 -33.518  1.00  0.00     0.008 A 
HETATM   23  C   UNL     1     -13.179  -0.051 -33.574  1.00  0.00     0.001 A 
HETATM   24  C   UNL     1     -14.026   0.813 -34.265  1.00  0.00     0.000 A 
HETATM   25  C   UNL     1     -13.506   1.936 -34.904  1.00  0.00     0.001 A 
HETATM   26  C   UNL     1     -12.136   2.199 -34.852  1.00  0.00     0.008 A 
ENDBRANCH  20  21
ENDBRANCH  19  20
ENDBRANCH  17  19
ENDBRANCH   1  17
TORSDOF 6
ENDMDL
MODEL 8
REMARK VINA RESULT:      -6.8      4.206      6.645
REMARK  6 active torsions:
REMARK  status: ('A' for Active; 'I' for Inactive)
REMARK    1  A    between atoms: C_2  and  S_3 
REMARK    2  A    between atoms: C_2  and  C_11 
REMARK    3  A    between atoms: S_3  and  C_4 
REMARK    4  A    between atoms: C_4  and  C_5 
REMARK       I    between atoms: C_11  and  N_12 
REMARK    5  A    between atoms: N_12  and  C_13 
REMARK    6  A    between atoms: C_15  and  C_16 
ROOT
HETATM    1  C   UNL     1      -3.937   2.253 -31.680  1.00  0.00     0.235 C 
HETATM    2  N   UNL     1      -3.850   1.140 -32.463  1.00  0.00    -0.326 N 
HETATM    3  O   UNL     1      -2.869   2.676 -31.217  1.00  0.00    -0.272 OA
HETATM    4  H   UNL     1      -2.892   0.804 -32.457  1.00  0.00     0.169 HD
ENDROOT
BRANCH   2   5
HETATM    5  C   UNL     1      -4.752   0.361 -33.208  1.00  0.00     0.035 A 
HETATM    6  C   UNL     1      -4.643  -1.007 -33.458  1.00  0.00     0.042 A 
HETATM    7  C   UNL     1      -5.603  -1.690 -34.229  1.00  0.00    -0.021 A 
HETATM    8  C   UNL     1      -6.692  -0.982 -34.748  1.00  0.00     0.012 A 
HETATM    9  C   UNL     1      -6.830   0.378 -34.484  1.00  0.00     0.003 A 
HETATM   10  C   UNL     1      -5.872   1.039 -33.714  1.00  0.00     0.029 A 
BRANCH   7  11
HETATM   11  C   UNL     1      -5.472  -3.113 -34.491  1.00  0.00     0.010 A 
HETATM   12  C   UNL     1      -6.370  -4.033 -35.083  1.00  0.00     0.152 A 
HETATM   13  N   UNL     1      -5.881  -5.274 -35.134  1.00  0.00    -0.187 NA
HETATM   14  N   UNL     1      -4.667  -5.157 -34.570  1.00  0.00    -0.289 N 
HETATM   15  H   UNL     1      -4.091  -5.989 -34.489  1.00  0.00     0.188 HD
HETATM   16  C   UNL     1      -4.376  -3.886 -34.168  1.00  0.00     0.123 A 
ENDBRANCH   7  11
ENDBRANCH   2   5
BRANCH   1  17
HETATM   17  C   UNL     1      -5.254   2.943 -31.337  1.00  0.00     0.135 C 
HETATM   18  C   UNL     1      -5.917   2.290 -30.122  1.00  0.00     0.031 C 
BRANCH  17  19
HETATM   19  S   UNL     1      -4.990   4.742 -31.045  1.00  0.00    -0.150 SA
BRANCH  19  20
HETATM   20  C   UNL     1      -5.079   5.398 -32.748  1.00  0.00     0.113 C 
BRANCH  20  21
HETATM   21  C   UNL     1      -3.700   5.704 -33.282  1.00  0.00    -0.049 A 
HETATM   22  C   UNL     1      -3.100   4.867 -34.234  1.00  0.00     0.008 A 
HETATM   23  C   UNL     1      -1.825   5.152 -34.727  1.00  0.00     0.001 A 
HETATM   24  C   UNL     1      -1.137   6.274 -34.272  1.00  0.00     0.000 A 
HETATM   25  C   UNL     1      -1.718   7.110 -33.321  1.00  0.00     0.001 A 
HETATM   26  C   UNL     1      -2.991   6.825 -32.824  1.00  0.00     0.008 A 
ENDBRANCH  20  21
ENDBRANCH  19  20
ENDBRANCH  17  19
ENDBRANCH   1  17
TORSDOF 6
ENDMDL
MODEL 9
REMARK VINA RESULT:      -6.8      1.537      2.112
REMARK  6 active torsions:
REMARK  status: ('A' for Active; 'I' for Inactive)
REMARK    1  A    between atoms: C_2  and  S_3 
REMARK    2  A    between atoms: C_2  and  C_11 
REMARK    3  A    between atoms: S_3  and  C_4 
REMARK    4  A    between atoms: C_4  and  C_5 
REMARK       I    between atoms: C_11  and  N_12 
REMARK    5  A    between atoms: N_12  and  C_13 
REMARK    6  A    between atoms: C_15  and  C_16 
ROOT
HETATM    1  C   UNL     1      -5.935   2.853 -31.216  1.00  0.00     0.235 C 
HETATM    2  N   UNL     1      -7.296   2.776 -31.182  1.00  0.00    -0.326 N 
HETATM    3  O   UNL     1      -5.415   3.621 -30.395  1.00  0.00    -0.272 OA
HETATM    4  H   UNL     1      -7.651   3.452 -30.514  1.00  0.00     0.169 HD
ENDROOT
BRANCH   2   5
HETATM    5  C   UNL     1      -8.279   2.038 -31.865  1.00  0.00     0.035 A 
HETATM    6  C   UNL     1      -9.119   2.521 -32.868  1.00  0.00     0.042 A 
HETATM    7  C   UNL     1     -10.080   1.694 -33.481  1.00  0.00    -0.021 A 
HETATM    8  C   UNL     1     -10.189   0.360 -33.079  1.00  0.00     0.012 A 
HETATM    9  C   UNL     1      -9.339  -0.146 -32.099  1.00  0.00     0.003 A 
HETATM   10  C   UNL     1      -8.389   0.686 -31.505  1.00  0.00     0.029 A 
BRANCH   7  11
HETATM   11  C   UNL     1     -10.956   2.213 -34.518  1.00  0.00     0.010 A 
HETATM   12  C   UNL     1     -12.093   1.647 -35.139  1.00  0.00     0.152 A 
HETATM   13  N   UNL     1     -12.626   2.441 -36.071  1.00  0.00    -0.187 NA
HETATM   14  N   UNL     1     -11.828   3.522 -36.054  1.00  0.00    -0.289 N 
HETATM   15  H   UNL     1     -12.032   4.282 -36.695  1.00  0.00     0.188 HD
HETATM   16  C   UNL     1     -10.814   3.434 -35.144  1.00  0.00     0.123 A 
ENDBRANCH   7  11
ENDBRANCH   2   5
BRANCH   1  17
HETATM   17  C   UNL     1      -5.071   2.087 -32.213  1.00  0.00     0.135 C 
HETATM   18  C   UNL     1      -3.804   2.872 -32.560  1.00  0.00     0.031 C 
BRANCH  17  19
HETATM   19  S   UNL     1      -4.643   0.420 -31.559  1.00  0.00    -0.150 SA
BRANCH  19  20
HETATM   20  C   UNL     1      -3.885  -0.358 -33.027  1.00  0.00     0.113 C 
BRANCH  20  21
HETATM   21  C   UNL     1      -4.832  -1.349 -33.663  1.00  0.00    -0.049 A 
HETATM   22  C   UNL     1      -4.387  -2.625 -34.037  1.00  0.00     0.008 A 
HETATM   23  C   UNL     1      -5.264  -3.539 -34.623  1.00  0.00     0.001 A 
HETATM   24  C   UNL     1      -6.594  -3.187 -34.843  1.00  0.00     0.000 A 
HETATM   25  C   UNL     1      -7.047  -1.920 -34.483  1.00  0.00     0.001 A 
HETATM   26  C   UNL     1      -6.171  -1.003 -33.900  1.00  0.00     0.008 A 
ENDBRANCH  20  21
ENDBRANCH  19  20
ENDBRANCH  17  19
ENDBRANCH   1  17
TORSDOF 6
ENDMDL
MODEL 10
REMARK VINA RESULT:      -6.8      3.717      6.024
REMARK  6 active torsions:
REMARK  status: ('A' for Active; 'I' for Inactive)
REMARK    1  A    between atoms: C_2  and  S_3 
REMARK    2  A    between atoms: C_2  and  C_11 
REMARK    3  A    between atoms: S_3  and  C_4 
REMARK    4  A    between atoms: C_4  and  C_5 
REMARK       I    between atoms: C_11  and  N_12 
REMARK    5  A    between atoms: N_12  and  C_13 
REMARK    6  A    between atoms: C_15  and  C_16 
ROOT
HETATM    1  C   UNL     1      -7.569   2.136 -31.974  1.00  0.00     0.235 C 
HETATM    2  N   UNL     1      -6.868   1.009 -31.666  1.00  0.00    -0.326 N 
HETATM    3  O   UNL     1      -8.240   2.627 -31.055  1.00  0.00    -0.272 OA
HETATM    4  H   UNL     1      -7.098   0.722 -30.720  1.00  0.00     0.169 HD
ENDROOT
BRANCH   2   5
HETATM    5  C   UNL     1      -5.972   0.164 -32.345  1.00  0.00     0.035 A 
HETATM    6  C   UNL     1      -6.293  -1.043 -32.964  1.00  0.00     0.042 A 
HETATM    7  C   UNL     1      -5.311  -1.819 -33.611  1.00  0.00    -0.021 A 
HETATM    8  C   UNL     1      -3.990  -1.364 -33.637  1.00  0.00     0.012 A 
HETATM    9  C   UNL     1      -3.658  -0.147 -33.048  1.00  0.00     0.003 A 
HETATM   10  C   UNL     1      -4.644   0.612 -32.415  1.00  0.00     0.029 A 
BRANCH   7  11
HETATM   11  C   UNL     1      -5.657  -3.081 -34.244  1.00  0.00     0.010 A 
HETATM   12  C   UNL     1      -4.879  -4.236 -34.492  1.00  0.00     0.152 A 
HETATM   13  N   UNL     1      -5.564  -5.197 -35.118  1.00  0.00    -0.187 NA
HETATM   14  N   UNL     1      -6.785  -4.660 -35.277  1.00  0.00    -0.289 N 
HETATM   15  H   UNL     1      -7.497  -5.212 -35.743  1.00  0.00     0.188 HD
HETATM   16  C   UNL     1      -6.891  -3.395 -34.773  1.00  0.00     0.123 A 
ENDBRANCH   7  11
ENDBRANCH   2   5
BRANCH   1  17
HETATM   17  C   UNL     1      -7.586   2.767 -33.364  1.00  0.00     0.135 C 
HETATM   18  C   UNL     1      -8.955   2.599 -34.028  1.00  0.00     0.031 C 
BRANCH  17  19
HETATM   19  S   UNL     1      -7.121   4.547 -33.277  1.00  0.00    -0.150 SA
BRANCH  19  20
HETATM   20  C   UNL     1      -5.614   4.473 -32.246  1.00  0.00     0.113 C 
BRANCH  20  21
HETATM   21  C   UNL     1      -4.374   4.653 -33.090  1.00  0.00    -0.049 A 
HETATM   22  C   UNL     1      -3.108   4.333 -32.578  1.00  0.00     0.008 A 
HETATM   23  C   UNL     1      -1.963   4.499 -33.359  1.00  0.00     0.001 A 
HETATM   24  C   UNL     1      -2.072   4.988 -34.659  1.00  0.00     0.000 A 
HETATM   25  C   UNL     1      -3.323   5.316 -35.178  1.00  0.00     0.001 A 
HETATM   26  C   UNL     1      -4.468   5.154 -34.397  1.00  0.00     0.008 A 
ENDBRANCH  20  21
ENDBRANCH  19  20
ENDBRANCH  17  19
ENDBRANCH   1  17
TORSDOF 6
ENDMDL
