MODEL 1
REMARK VINA RESULT:      -8.8      0.000      0.000
REMARK  2 active torsions:
REMARK  status: ('A' for Active; 'I' for Inactive)
REMARK    1  A    between atoms: C_2  and  C_3 
REMARK    2  A    between atoms: C_7  and  C_8 
REMARK       I    between atoms: C_8  and  N_9 
ROOT
HETATM    1  C   UNL     1      -9.990   1.329 -33.750  1.00  0.00     0.271 C 
HETATM    2  N   UNL     1      -8.705   0.775 -33.814  1.00  0.00    -0.347 N 
HETATM    3  C   UNL     1      -7.815   0.970 -34.955  1.00  0.00     0.128 C 
HETATM    4  C   UNL     1      -6.362   0.964 -34.503  1.00  0.00     0.055 C 
HETATM    5  C   UNL     1      -6.004  -0.332 -33.747  1.00  0.00     0.100 C 
HETATM    6  N   UNL     1      -6.025  -1.468 -34.719  1.00  0.00    -0.273 NA
HETATM    7  C   UNL     1      -5.341  -2.625 -34.269  1.00  0.00     0.036 A 
HETATM    8  C   UNL     1      -4.277  -2.551 -33.355  1.00  0.00     0.056 A 
HETATM    9  N   UNL     1      -3.916  -1.314 -32.812  1.00  0.00    -0.324 N 
HETATM   10  C   UNL     1      -4.609  -0.161 -33.082  1.00  0.00     0.245 C 
HETATM   11  O   UNL     1      -4.160   0.923 -32.708  1.00  0.00    -0.271 OA
HETATM   12  C   UNL     1      -5.612  -3.848 -34.888  1.00  0.00     0.026 A 
HETATM   13  C   UNL     1      -4.879  -4.988 -34.557  1.00  0.00     0.002 A 
HETATM   14  C   UNL     1      -3.845  -4.908 -33.624  1.00  0.00     0.002 A 
HETATM   15  C   UNL     1      -3.535  -3.687 -33.026  1.00  0.00     0.031 A 
HETATM   16  C   UNL     1      -7.032  -0.584 -32.620  1.00  0.00     0.055 C 
HETATM   17  C   UNL     1      -8.475  -0.476 -33.099  1.00  0.00     0.128 C 
HETATM   18  O   UNL     1     -10.924   0.717 -33.232  1.00  0.00    -0.266 OA
HETATM   19  H   UNL     1      -5.556  -1.192 -35.586  1.00  0.00     0.129 HD
HETATM   20  H   UNL     1      -3.063  -1.218 -32.278  1.00  0.00     0.169 HD
ENDROOT
BRANCH   1  21
HETATM   21  C   UNL     1     -10.203   2.655 -34.277  1.00  0.00     0.119 A 
HETATM   22  N   UNL     1     -11.041   2.870 -35.339  1.00  0.00    -0.273 N 
HETATM   23  N   UNL     1     -11.120   4.152 -35.731  1.00  0.00    -0.179 NA
HETATM   24  H   UNL     1     -11.577   2.167 -35.841  1.00  0.00     0.189 HD
HETATM   25  C   UNL     1     -10.355   4.807 -34.851  1.00  0.00     0.060 A 
HETATM   26  C   UNL     1      -9.800   3.921 -33.896  1.00  0.00     0.066 A 
BRANCH  25  27
HETATM   27  C   UNL     1     -10.171   6.297 -34.923  1.00  0.00     0.031 C 
HETATM   28  C   UNL     1     -10.073   6.915 -33.528  1.00  0.00     0.016 C 
HETATM   29  C   UNL     1     -11.266   6.990 -35.740  1.00  0.00     0.016 C 
ENDBRANCH  25  27
ENDBRANCH   1  21
TORSDOF 2
ENDMDL
MODEL 2
REMARK VINA RESULT:      -8.6      5.278      8.465
REMARK  2 active torsions:
REMARK  status: ('A' for Active; 'I' for Inactive)
REMARK    1  A    between atoms: C_2  and  C_3 
REMARK    2  A    between atoms: C_7  and  C_8 
REMARK       I    between atoms: C_8  and  N_9 
ROOT
HETATM    1  C   UNL     1      -5.512   0.925 -31.146  1.00  0.00     0.271 C 
HETATM    2  N   UNL     1      -4.719   2.039 -31.448  1.00  0.00    -0.347 N 
HETATM    3  C   UNL     1      -3.600   1.984 -32.384  1.00  0.00     0.128 C 
HETATM    4  C   UNL     1      -3.427   3.323 -33.086  1.00  0.00     0.055 C 
HETATM    5  C   UNL     1      -3.238   4.476 -32.078  1.00  0.00     0.100 C 
HETATM    6  N   UNL     1      -1.910   4.308 -31.410  1.00  0.00    -0.273 NA
HETATM    7  C   UNL     1      -1.434   5.480 -30.772  1.00  0.00     0.036 A 
HETATM    8  C   UNL     1      -1.804   6.765 -31.202  1.00  0.00     0.056 A 
HETATM    9  N   UNL     1      -2.722   6.905 -32.247  1.00  0.00    -0.324 N 
HETATM   10  C   UNL     1      -3.342   5.831 -32.834  1.00  0.00     0.245 C 
HETATM   11  O   UNL     1      -4.019   5.995 -33.849  1.00  0.00    -0.271 OA
HETATM   12  C   UNL     1      -0.431   5.357 -29.807  1.00  0.00     0.026 A 
HETATM   13  C   UNL     1       0.148   6.493 -29.238  1.00  0.00     0.002 A 
HETATM   14  C   UNL     1      -0.250   7.763 -29.652  1.00  0.00     0.002 A 
HETATM   15  C   UNL     1      -1.223   7.903 -30.643  1.00  0.00     0.031 A 
HETATM   16  C   UNL     1      -4.366   4.441 -31.022  1.00  0.00     0.055 C 
HETATM   17  C   UNL     1      -4.567   3.058 -30.414  1.00  0.00     0.128 C 
HETATM   18  O   UNL     1      -5.949   0.741 -30.010  1.00  0.00    -0.266 OA
HETATM   19  H   UNL     1      -1.200   4.067 -32.105  1.00  0.00     0.129 HD
HETATM   20  H   UNL     1      -2.882   7.809 -32.671  1.00  0.00     0.169 HD
ENDROOT
BRANCH   1  21
HETATM   21  C   UNL     1      -5.843  -0.000 -32.203  1.00  0.00     0.119 A 
HETATM   22  N   UNL     1      -7.062   0.044 -32.827  1.00  0.00    -0.273 N 
HETATM   23  N   UNL     1      -7.232  -0.894 -33.774  1.00  0.00    -0.179 NA
HETATM   24  H   UNL     1      -7.819   0.692 -32.633  1.00  0.00     0.189 HD
HETATM   25  C   UNL     1      -6.057  -1.531 -33.813  1.00  0.00     0.060 A 
HETATM   26  C   UNL     1      -5.143  -0.976 -32.885  1.00  0.00     0.066 A 
BRANCH  25  27
HETATM   27  C   UNL     1      -5.810  -2.669 -34.763  1.00  0.00     0.031 C 
HETATM   28  C   UNL     1      -6.906  -3.729 -34.662  1.00  0.00     0.016 C 
HETATM   29  C   UNL     1      -4.429  -3.306 -34.577  1.00  0.00     0.016 C 
ENDBRANCH  25  27
ENDBRANCH   1  21
TORSDOF 2
ENDMDL
MODEL 3
REMARK VINA RESULT:      -8.6      5.658      9.171
REMARK  2 active torsions:
REMARK  status: ('A' for Active; 'I' for Inactive)
REMARK    1  A    between atoms: C_2  and  C_3 
REMARK    2  A    between atoms: C_7  and  C_8 
REMARK       I    between atoms: C_8  and  N_9 
ROOT
HETATM    1  C   UNL     1      -5.371   1.539 -30.963  1.00  0.00     0.271 C 
HETATM    2  N   UNL     1      -4.644   2.707 -31.227  1.00  0.00    -0.347 N 
HETATM    3  C   UNL     1      -3.243   2.692 -31.635  1.00  0.00     0.128 C 
HETATM    4  C   UNL     1      -2.940   3.876 -32.542  1.00  0.00     0.055 C 
HETATM    5  C   UNL     1      -3.299   5.218 -31.870  1.00  0.00     0.100 C 
HETATM    6  N   UNL     1      -2.347   5.450 -30.740  1.00  0.00    -0.273 NA
HETATM    7  C   UNL     1      -2.296   6.794 -30.296  1.00  0.00     0.036 A 
HETATM    8  C   UNL     1      -2.591   7.871 -31.149  1.00  0.00     0.056 A 
HETATM    9  N   UNL     1      -3.016   7.620 -32.457  1.00  0.00    -0.324 N 
HETATM   10  C   UNL     1      -3.228   6.351 -32.933  1.00  0.00     0.245 C 
HETATM   11  O   UNL     1      -3.447   6.176 -34.132  1.00  0.00    -0.271 OA
HETATM   12  C   UNL     1      -1.764   7.064 -29.032  1.00  0.00     0.026 A 
HETATM   13  C   UNL     1      -1.588   8.381 -28.604  1.00  0.00     0.002 A 
HETATM   14  C   UNL     1      -1.914   9.441 -29.449  1.00  0.00     0.002 A 
HETATM   15  C   UNL     1      -2.410   9.189 -30.728  1.00  0.00     0.031 A 
HETATM   16  C   UNL     1      -4.748   5.167 -31.336  1.00  0.00     0.055 C 
HETATM   17  C   UNL     1      -5.033   3.918 -30.510  1.00  0.00     0.128 C 
HETATM   18  O   UNL     1      -6.209   1.498 -30.063  1.00  0.00    -0.266 OA
HETATM   19  H   UNL     1      -1.394   5.222 -31.036  1.00  0.00     0.129 HD
HETATM   20  H   UNL     1      -3.082   8.373 -33.128  1.00  0.00     0.169 HD
ENDROOT
BRANCH   1  21
HETATM   21  C   UNL     1      -5.146   0.378 -31.790  1.00  0.00     0.119 A 
HETATM   22  N   UNL     1      -4.198  -0.554 -31.460  1.00  0.00    -0.273 N 
HETATM   23  N   UNL     1      -4.088  -1.566 -32.337  1.00  0.00    -0.179 NA
HETATM   24  H   UNL     1      -3.590  -0.538 -30.646  1.00  0.00     0.189 HD
HETATM   25  C   UNL     1      -5.045  -1.317 -33.238  1.00  0.00     0.060 A 
HETATM   26  C   UNL     1      -5.762  -0.140 -32.912  1.00  0.00     0.066 A 
BRANCH  25  27
HETATM   27  C   UNL     1      -5.278  -2.228 -34.410  1.00  0.00     0.031 C 
HETATM   28  C   UNL     1      -6.755  -2.596 -34.547  1.00  0.00     0.016 C 
HETATM   29  C   UNL     1      -4.413  -3.492 -34.359  1.00  0.00     0.016 C 
ENDBRANCH  25  27
ENDBRANCH   1  21
TORSDOF 2
ENDMDL
MODEL 4
REMARK VINA RESULT:      -8.5      5.697      7.857
REMARK  2 active torsions:
REMARK  status: ('A' for Active; 'I' for Inactive)
REMARK    1  A    between atoms: C_2  and  C_3 
REMARK    2  A    between atoms: C_7  and  C_8 
REMARK       I    between atoms: C_8  and  N_9 
ROOT
HETATM    1  C   UNL     1      -1.983   4.903 -32.351  1.00  0.00     0.271 C 
HETATM    2  N   UNL     1      -3.004   3.955 -32.210  1.00  0.00    -0.347 N 
HETATM    3  C   UNL     1      -3.067   3.020 -31.091  1.00  0.00     0.128 C 
HETATM    4  C   UNL     1      -4.513   2.685 -30.758  1.00  0.00     0.055 C 
HETATM    5  C   UNL     1      -5.266   2.122 -31.981  1.00  0.00     0.100 C 
HETATM    6  N   UNL     1      -4.706   0.772 -32.301  1.00  0.00    -0.273 NA
HETATM    7  C   UNL     1      -5.545  -0.019 -33.124  1.00  0.00     0.036 A 
HETATM    8  C   UNL     1      -6.941   0.143 -33.140  1.00  0.00     0.056 A 
HETATM    9  N   UNL     1      -7.526   1.157 -32.377  1.00  0.00    -0.324 N 
HETATM   10  C   UNL     1      -6.785   2.060 -31.657  1.00  0.00     0.245 C 
HETATM   11  O   UNL     1      -7.348   2.831 -30.879  1.00  0.00    -0.271 OA
HETATM   12  C   UNL     1      -4.987  -1.107 -33.801  1.00  0.00     0.026 A 
HETATM   13  C   UNL     1      -5.798  -1.980 -34.528  1.00  0.00     0.002 A 
HETATM   14  C   UNL     1      -7.179  -1.790 -34.561  1.00  0.00     0.002 A 
HETATM   15  C   UNL     1      -7.755  -0.731 -33.859  1.00  0.00     0.031 A 
HETATM   16  C   UNL     1      -5.084   3.067 -33.191  1.00  0.00     0.055 C 
HETATM   17  C   UNL     1      -3.628   3.451 -33.430  1.00  0.00     0.128 C 
HETATM   18  O   UNL     1      -1.533   5.197 -33.458  1.00  0.00    -0.266 OA
HETATM   19  H   UNL     1      -4.582   0.234 -31.439  1.00  0.00     0.129 HD
HETATM   20  H   UNL     1      -8.529   1.192 -32.253  1.00  0.00     0.169 HD
ENDROOT
BRANCH   1  21
HETATM   21  C   UNL     1      -1.481   5.566 -31.171  1.00  0.00     0.119 A 
HETATM   22  N   UNL     1      -2.220   6.522 -30.527  1.00  0.00    -0.273 N 
HETATM   23  N   UNL     1      -1.613   7.064 -29.458  1.00  0.00    -0.179 NA
HETATM   24  H   UNL     1      -3.147   6.850 -30.787  1.00  0.00     0.189 HD
HETATM   25  C   UNL     1      -0.462   6.390 -29.365  1.00  0.00     0.060 A 
HETATM   26  C   UNL     1      -0.357   5.411 -30.383  1.00  0.00     0.066 A 
BRANCH  25  27
HETATM   27  C   UNL     1       0.534   6.680 -28.277  1.00  0.00     0.031 C 
HETATM   28  C   UNL     1      -0.041   6.372 -26.895  1.00  0.00     0.016 C 
HETATM   29  C   UNL     1       1.066   8.116 -28.329  1.00  0.00     0.016 C 
ENDBRANCH  25  27
ENDBRANCH   1  21
TORSDOF 2
ENDMDL
MODEL 5
REMARK VINA RESULT:      -8.4      3.193      3.672
REMARK  2 active torsions:
REMARK  status: ('A' for Active; 'I' for Inactive)
REMARK    1  A    between atoms: C_2  and  C_3 
REMARK    2  A    between atoms: C_7  and  C_8 
REMARK       I    between atoms: C_8  and  N_9 
ROOT
HETATM    1  C   UNL     1      -7.466   2.858 -31.482  1.00  0.00     0.271 C 
HETATM    2  N   UNL     1      -6.458   1.934 -31.782  1.00  0.00    -0.347 N 
HETATM    3  C   UNL     1      -5.467   2.155 -32.830  1.00  0.00     0.128 C 
HETATM    4  C   UNL     1      -4.151   1.481 -32.470  1.00  0.00     0.055 C 
HETATM    5  C   UNL     1      -4.335  -0.027 -32.203  1.00  0.00     0.100 C 
HETATM    6  N   UNL     1      -4.676  -0.698 -33.495  1.00  0.00    -0.273 NA
HETATM    7  C   UNL     1      -4.482  -2.101 -33.485  1.00  0.00     0.036 A 
HETATM    8  C   UNL     1      -3.538  -2.716 -32.645  1.00  0.00     0.056 A 
HETATM    9  N   UNL     1      -2.811  -1.939 -31.739  1.00  0.00    -0.324 N 
HETATM   10  C   UNL     1      -3.029  -0.594 -31.579  1.00  0.00     0.245 C 
HETATM   11  O   UNL     1      -2.259   0.072 -30.887  1.00  0.00    -0.271 OA
HETATM   12  C   UNL     1      -5.116  -2.873 -34.462  1.00  0.00     0.026 A 
HETATM   13  C   UNL     1      -4.860  -4.242 -34.560  1.00  0.00     0.002 A 
HETATM   14  C   UNL     1      -3.945  -4.846 -33.699  1.00  0.00     0.002 A 
HETATM   15  C   UNL     1      -3.274  -4.083 -32.744  1.00  0.00     0.031 A 
HETATM   16  C   UNL     1      -5.474  -0.245 -31.180  1.00  0.00     0.055 C 
HETATM   17  C   UNL     1      -6.743   0.524 -31.533  1.00  0.00     0.128 C 
HETATM   18  O   UNL     1      -8.595   2.490 -31.156  1.00  0.00    -0.266 OA
HETATM   19  H   UNL     1      -4.072  -0.343 -34.241  1.00  0.00     0.129 HD
HETATM   20  H   UNL     1      -2.025  -2.334 -31.240  1.00  0.00     0.169 HD
ENDROOT
BRANCH   1  21
HETATM   21  C   UNL     1      -7.154   4.267 -31.530  1.00  0.00     0.119 A 
HETATM   22  N   UNL     1      -7.758   5.096 -32.437  1.00  0.00    -0.273 N 
HETATM   23  N   UNL     1      -7.350   6.374 -32.375  1.00  0.00    -0.179 NA
HETATM   24  H   UNL     1      -8.451   4.832 -33.132  1.00  0.00     0.189 HD
HETATM   25  C   UNL     1      -6.496   6.391 -31.346  1.00  0.00     0.060 A 
HETATM   26  C   UNL     1      -6.379   5.109 -30.757  1.00  0.00     0.066 A 
BRANCH  25  27
HETATM   27  C   UNL     1      -5.803   7.655 -30.919  1.00  0.00     0.031 C 
HETATM   28  C   UNL     1      -6.551   8.895 -31.408  1.00  0.00     0.016 C 
HETATM   29  C   UNL     1      -4.337   7.704 -31.361  1.00  0.00     0.016 C 
ENDBRANCH  25  27
ENDBRANCH   1  21
TORSDOF 2
ENDMDL
MODEL 6
REMARK VINA RESULT:      -8.3      4.353      8.472
REMARK  2 active torsions:
REMARK  status: ('A' for Active; 'I' for Inactive)
REMARK    1  A    between atoms: C_2  and  C_3 
REMARK    2  A    between atoms: C_7  and  C_8 
REMARK       I    between atoms: C_8  and  N_9 
ROOT
HETATM    1  C   UNL     1      -6.320   0.905 -33.861  1.00  0.00     0.271 C 
HETATM    2  N   UNL     1      -5.657   1.770 -32.982  1.00  0.00    -0.347 N 
HETATM    3  C   UNL     1      -5.063   1.320 -31.726  1.00  0.00     0.128 C 
HETATM    4  C   UNL     1      -3.845   2.165 -31.381  1.00  0.00     0.055 C 
HETATM    5  C   UNL     1      -4.192   3.667 -31.314  1.00  0.00     0.100 C 
HETATM    6  N   UNL     1      -5.069   3.897 -30.124  1.00  0.00    -0.273 NA
HETATM    7  C   UNL     1      -5.135   5.251 -29.711  1.00  0.00     0.036 A 
HETATM    8  C   UNL     1      -4.086   6.154 -29.949  1.00  0.00     0.056 A 
HETATM    9  N   UNL     1      -2.966   5.737 -30.674  1.00  0.00    -0.324 N 
HETATM   10  C   UNL     1      -2.873   4.487 -31.233  1.00  0.00     0.245 C 
HETATM   11  O   UNL     1      -1.807   4.115 -31.723  1.00  0.00    -0.271 OA
HETATM   12  C   UNL     1      -6.192   5.649 -28.888  1.00  0.00     0.026 A 
HETATM   13  C   UNL     1      -6.233   6.943 -28.364  1.00  0.00     0.002 A 
HETATM   14  C   UNL     1      -5.201   7.840 -28.633  1.00  0.00     0.002 A 
HETATM   15  C   UNL     1      -4.119   7.445 -29.421  1.00  0.00     0.031 A 
HETATM   16  C   UNL     1      -4.930   4.094 -32.602  1.00  0.00     0.055 C 
HETATM   17  C   UNL     1      -6.085   3.165 -32.961  1.00  0.00     0.128 C 
HETATM   18  O   UNL     1      -7.314   1.270 -34.488  1.00  0.00    -0.266 OA
HETATM   19  H   UNL     1      -4.703   3.382 -29.319  1.00  0.00     0.129 HD
HETATM   20  H   UNL     1      -2.140   6.318 -30.721  1.00  0.00     0.169 HD
ENDROOT
BRANCH   1  21
HETATM   21  C   UNL     1      -5.798  -0.428 -34.051  1.00  0.00     0.119 A 
HETATM   22  N   UNL     1      -4.534  -0.758 -33.641  1.00  0.00    -0.273 N 
HETATM   23  N   UNL     1      -4.181  -2.027 -33.905  1.00  0.00    -0.179 NA
HETATM   24  H   UNL     1      -3.865  -0.146 -33.183  1.00  0.00     0.189 HD
HETATM   25  C   UNL     1      -5.280  -2.561 -34.450  1.00  0.00     0.060 A 
HETATM   26  C   UNL     1      -6.330  -1.614 -34.517  1.00  0.00     0.066 A 
BRANCH  25  27
HETATM   27  C   UNL     1      -5.321  -3.997 -34.893  1.00  0.00     0.031 C 
HETATM   28  C   UNL     1      -6.758  -4.502 -35.016  1.00  0.00     0.016 C 
HETATM   29  C   UNL     1      -4.504  -4.920 -33.984  1.00  0.00     0.016 C 
ENDBRANCH  25  27
ENDBRANCH   1  21
TORSDOF 2
ENDMDL
MODEL 7
REMARK VINA RESULT:      -8.1      4.446      7.488
REMARK  2 active torsions:
REMARK  status: ('A' for Active; 'I' for Inactive)
REMARK    1  A    between atoms: C_2  and  C_3 
REMARK    2  A    between atoms: C_7  and  C_8 
REMARK       I    between atoms: C_8  and  N_9 
ROOT
HETATM    1  C   UNL     1      -5.528   4.886 -31.002  1.00  0.00     0.271 C 
HETATM    2  N   UNL     1      -6.343   3.975 -31.685  1.00  0.00    -0.347 N 
HETATM    3  C   UNL     1      -6.159   3.653 -33.097  1.00  0.00     0.128 C 
HETATM    4  C   UNL     1      -6.580   2.217 -33.375  1.00  0.00     0.055 C 
HETATM    5  C   UNL     1      -8.037   1.955 -32.940  1.00  0.00     0.100 C 
HETATM    6  N   UNL     1      -8.947   2.720 -33.849  1.00  0.00    -0.273 NA
HETATM    7  C   UNL     1     -10.291   2.272 -33.830  1.00  0.00     0.036 A 
HETATM    8  C   UNL     1     -10.629   0.945 -33.513  1.00  0.00     0.056 A 
HETATM    9  N   UNL     1      -9.625   0.048 -33.137  1.00  0.00    -0.324 N 
HETATM   10  C   UNL     1      -8.314   0.426 -32.993  1.00  0.00     0.245 C 
HETATM   11  O   UNL     1      -7.447  -0.430 -32.816  1.00  0.00    -0.271 OA
HETATM   12  C   UNL     1     -11.288   3.123 -34.313  1.00  0.00     0.026 A 
HETATM   13  C   UNL     1     -12.607   2.678 -34.421  1.00  0.00     0.002 A 
HETATM   14  C   UNL     1     -12.935   1.368 -34.074  1.00  0.00     0.002 A 
HETATM   15  C   UNL     1     -11.944   0.495 -33.626  1.00  0.00     0.031 A 
HETATM   16  C   UNL     1      -8.242   2.417 -31.480  1.00  0.00     0.055 C 
HETATM   17  C   UNL     1      -7.720   3.827 -31.225  1.00  0.00     0.128 C 
HETATM   18  O   UNL     1      -5.990   5.635 -30.141  1.00  0.00    -0.266 OA
HETATM   19  H   UNL     1      -8.637   2.616 -34.818  1.00  0.00     0.129 HD
HETATM   20  H   UNL     1      -9.824  -0.940 -33.058  1.00  0.00     0.169 HD
ENDROOT
BRANCH   1  21
HETATM   21  C   UNL     1      -4.116   4.916 -31.300  1.00  0.00     0.119 A 
HETATM   22  N   UNL     1      -3.327   3.814 -31.105  1.00  0.00    -0.273 N 
HETATM   23  N   UNL     1      -2.032   4.001 -31.405  1.00  0.00    -0.179 NA
HETATM   24  H   UNL     1      -3.627   2.908 -30.756  1.00  0.00     0.189 HD
HETATM   25  C   UNL     1      -1.986   5.252 -31.875  1.00  0.00     0.060 A 
HETATM   26  C   UNL     1      -3.271   5.847 -31.873  1.00  0.00     0.066 A 
BRANCH  25  27
HETATM   27  C   UNL     1      -0.699   5.871 -32.342  1.00  0.00     0.031 C 
HETATM   28  C   UNL     1       0.107   6.437 -31.172  1.00  0.00     0.016 C 
HETATM   29  C   UNL     1      -0.913   6.945 -33.413  1.00  0.00     0.016 C 
ENDBRANCH  25  27
ENDBRANCH   1  21
TORSDOF 2
ENDMDL
MODEL 8
REMARK VINA RESULT:      -8.0      4.454      5.226
REMARK  2 active torsions:
REMARK  status: ('A' for Active; 'I' for Inactive)
REMARK    1  A    between atoms: C_2  and  C_3 
REMARK    2  A    between atoms: C_7  and  C_8 
REMARK       I    between atoms: C_8  and  N_9 
ROOT
HETATM    1  C   UNL     1      -6.727   3.544 -29.797  1.00  0.00     0.271 C 
HETATM    2  N   UNL     1      -5.956   2.611 -30.501  1.00  0.00    -0.347 N 
HETATM    3  C   UNL     1      -5.082   2.981 -31.610  1.00  0.00     0.128 C 
HETATM    4  C   UNL     1      -3.881   2.050 -31.675  1.00  0.00     0.055 C 
HETATM    5  C   UNL     1      -4.308   0.572 -31.788  1.00  0.00     0.100 C 
HETATM    6  N   UNL     1      -4.930   0.361 -33.132  1.00  0.00    -0.273 NA
HETATM    7  C   UNL     1      -5.002  -0.998 -33.527  1.00  0.00     0.036 A 
HETATM    8  C   UNL     1      -4.091  -1.959 -33.057  1.00  0.00     0.056 A 
HETATM    9  N   UNL     1      -3.122  -1.592 -32.119  1.00  0.00    -0.324 N 
HETATM   10  C   UNL     1      -3.062  -0.333 -31.575  1.00  0.00     0.245 C 
HETATM   11  O   UNL     1      -2.099  -0.015 -30.876  1.00  0.00    -0.271 OA
HETATM   12  C   UNL     1      -5.888  -1.354 -34.547  1.00  0.00     0.026 A 
HETATM   13  C   UNL     1      -5.907  -2.658 -35.046  1.00  0.00     0.002 A 
HETATM   14  C   UNL     1      -5.019  -3.611 -34.548  1.00  0.00     0.002 A 
HETATM   15  C   UNL     1      -4.101  -3.261 -33.557  1.00  0.00     0.031 A 
HETATM   16  C   UNL     1      -5.328   0.234 -30.678  1.00  0.00     0.055 C 
HETATM   17  C   UNL     1      -6.465   1.245 -30.588  1.00  0.00     0.128 C 
HETATM   18  O   UNL     1      -7.853   3.263 -29.388  1.00  0.00    -0.266 OA
HETATM   19  H   UNL     1      -4.369   0.825 -33.851  1.00  0.00     0.129 HD
HETATM   20  H   UNL     1      -2.367  -2.223 -31.887  1.00  0.00     0.169 HD
ENDROOT
BRANCH   1  21
HETATM   21  C   UNL     1      -6.166   4.845 -29.525  1.00  0.00     0.119 A 
HETATM   22  N   UNL     1      -5.288   5.036 -28.491  1.00  0.00    -0.273 N 
HETATM   23  N   UNL     1      -4.869   6.304 -28.347  1.00  0.00    -0.179 NA
HETATM   24  H   UNL     1      -4.950   4.328 -27.844  1.00  0.00     0.189 HD
HETATM   25  C   UNL     1      -5.445   6.951 -29.365  1.00  0.00     0.060 A 
HETATM   26  C   UNL     1      -6.225   6.072 -30.156  1.00  0.00     0.066 A 
BRANCH  25  27
HETATM   27  C   UNL     1      -5.229   8.422 -29.587  1.00  0.00     0.031 C 
HETATM   28  C   UNL     1      -3.747   8.788 -29.505  1.00  0.00     0.016 C 
HETATM   29  C   UNL     1      -6.049   9.292 -28.628  1.00  0.00     0.016 C 
ENDBRANCH  25  27
ENDBRANCH   1  21
TORSDOF 2
ENDMDL
MODEL 9
REMARK VINA RESULT:      -8.0      6.168      8.014
REMARK  2 active torsions:
REMARK  status: ('A' for Active; 'I' for Inactive)
REMARK    1  A    between atoms: C_2  and  C_3 
REMARK    2  A    between atoms: C_7  and  C_8 
REMARK       I    between atoms: C_8  and  N_9 
ROOT
HETATM    1  C   UNL     1      -1.523   5.290 -31.237  1.00  0.00     0.271 C 
HETATM    2  N   UNL     1      -2.727   4.735 -31.686  1.00  0.00    -0.347 N 
HETATM    3  C   UNL     1      -3.916   4.636 -30.845  1.00  0.00     0.128 C 
HETATM    4  C   UNL     1      -5.177   4.740 -31.691  1.00  0.00     0.055 C 
HETATM    5  C   UNL     1      -5.207   3.673 -32.806  1.00  0.00     0.100 C 
HETATM    6  N   UNL     1      -5.376   2.330 -32.170  1.00  0.00    -0.273 NA
HETATM    7  C   UNL     1      -5.815   1.321 -33.064  1.00  0.00     0.036 A 
HETATM    8  C   UNL     1      -6.579   1.619 -34.205  1.00  0.00     0.056 A 
HETATM    9  N   UNL     1      -6.863   2.951 -34.518  1.00  0.00    -0.324 N 
HETATM   10  C   UNL     1      -6.365   4.002 -33.790  1.00  0.00     0.245 C 
HETATM   11  O   UNL     1      -6.770   5.144 -34.009  1.00  0.00    -0.271 OA
HETATM   12  C   UNL     1      -5.639  -0.017 -32.703  1.00  0.00     0.026 A 
HETATM   13  C   UNL     1      -6.160  -1.040 -33.498  1.00  0.00     0.002 A 
HETATM   14  C   UNL     1      -6.890  -0.732 -34.645  1.00  0.00     0.002 A 
HETATM   15  C   UNL     1      -7.109   0.600 -34.998  1.00  0.00     0.031 A 
HETATM   16  C   UNL     1      -3.886   3.713 -33.607  1.00  0.00     0.055 C 
HETATM   17  C   UNL     1      -2.650   3.702 -32.715  1.00  0.00     0.128 C 
HETATM   18  O   UNL     1      -0.437   4.830 -31.589  1.00  0.00    -0.266 OA
HETATM   19  H   UNL     1      -6.091   2.379 -31.440  1.00  0.00     0.129 HD
HETATM   20  H   UNL     1      -7.535   3.177 -35.239  1.00  0.00     0.169 HD
ENDROOT
BRANCH   1  21
HETATM   21  C   UNL     1      -1.569   6.443 -30.370  1.00  0.00     0.119 A 
HETATM   22  N   UNL     1      -1.322   6.330 -29.027  1.00  0.00    -0.273 N 
HETATM   23  N   UNL     1      -1.423   7.484 -28.347  1.00  0.00    -0.179 NA
HETATM   24  H   UNL     1      -1.088   5.479 -28.523  1.00  0.00     0.189 HD
HETATM   25  C   UNL     1      -1.683   8.393 -29.292  1.00  0.00     0.060 A 
HETATM   26  C   UNL     1      -1.736   7.798 -30.576  1.00  0.00     0.066 A 
BRANCH  25  27
HETATM   27  C   UNL     1      -1.866   9.847 -28.957  1.00  0.00     0.031 C 
HETATM   28  C   UNL     1      -1.118  10.224 -27.678  1.00  0.00     0.016 C 
HETATM   29  C   UNL     1      -3.341  10.250 -28.854  1.00  0.00     0.016 C 
ENDBRANCH  25  27
ENDBRANCH   1  21
TORSDOF 2
ENDMDL
MODEL 10
REMARK VINA RESULT:      -8.0      4.683      6.782
REMARK  2 active torsions:
REMARK  status: ('A' for Active; 'I' for Inactive)
REMARK    1  A    between atoms: C_2  and  C_3 
REMARK    2  A    between atoms: C_7  and  C_8 
REMARK       I    between atoms: C_8  and  N_9 
ROOT
HETATM    1  C   UNL     1      -7.126   1.045 -33.746  1.00  0.00     0.271 C 
HETATM    2  N   UNL     1      -6.536   2.179 -33.172  1.00  0.00    -0.347 N 
HETATM    3  C   UNL     1      -7.183   3.487 -33.160  1.00  0.00     0.128 C 
HETATM    4  C   UNL     1      -6.773   4.272 -31.923  1.00  0.00     0.055 C 
HETATM    5  C   UNL     1      -5.240   4.421 -31.822  1.00  0.00     0.100 C 
HETATM    6  N   UNL     1      -4.780   5.323 -32.923  1.00  0.00    -0.273 NA
HETATM    7  C   UNL     1      -3.485   5.863 -32.721  1.00  0.00     0.036 A 
HETATM    8  C   UNL     1      -2.950   6.053 -31.436  1.00  0.00     0.056 A 
HETATM    9  N   UNL     1      -3.677   5.639 -30.316  1.00  0.00    -0.324 N 
HETATM   10  C   UNL     1      -4.877   4.981 -30.418  1.00  0.00     0.245 C 
HETATM   11  O   UNL     1      -5.551   4.779 -29.408  1.00  0.00    -0.271 OA
HETATM   12  C   UNL     1      -2.798   6.386 -33.820  1.00  0.00     0.026 A 
HETATM   13  C   UNL     1      -1.572   7.031 -33.647  1.00  0.00     0.002 A 
HETATM   14  C   UNL     1      -1.037   7.186 -32.369  1.00  0.00     0.002 A 
HETATM   15  C   UNL     1      -1.729   6.704 -31.258  1.00  0.00     0.031 A 
HETATM   16  C   UNL     1      -4.568   3.036 -31.962  1.00  0.00     0.055 C 
HETATM   17  C   UNL     1      -5.078   2.246 -33.162  1.00  0.00     0.128 C 
HETATM   18  O   UNL     1      -6.450   0.206 -34.342  1.00  0.00    -0.266 OA
HETATM   19  H   UNL     1      -5.405   6.130 -32.994  1.00  0.00     0.129 HD
HETATM   20  H   UNL     1      -3.383   5.905 -29.387  1.00  0.00     0.169 HD
ENDROOT
BRANCH   1  21
HETATM   21  C   UNL     1      -8.548   0.852 -33.600  1.00  0.00     0.119 A 
HETATM   22  N   UNL     1      -9.052  -0.052 -32.703  1.00  0.00    -0.273 N 
HETATM   23  N   UNL     1     -10.393  -0.137 -32.697  1.00  0.00    -0.179 NA
HETATM   24  H   UNL     1      -8.517  -0.647 -32.076  1.00  0.00     0.189 HD
HETATM   25  C   UNL     1     -10.779   0.793 -33.576  1.00  0.00     0.060 A 
HETATM   26  C   UNL     1      -9.665   1.469 -34.130  1.00  0.00     0.066 A 
BRANCH  25  27
HETATM   27  C   UNL     1     -12.232   1.042 -33.872  1.00  0.00     0.031 C 
HETATM   28  C   UNL     1     -13.069  -0.219 -33.662  1.00  0.00     0.016 C 
HETATM   29  C   UNL     1     -12.461   1.609 -35.277  1.00  0.00     0.016 C 
ENDBRANCH  25  27
ENDBRANCH   1  21
TORSDOF 2
ENDMDL
