MODEL 1
REMARK VINA RESULT:      -8.0      0.000      0.000
REMARK  4 active torsions:
REMARK  status: ('A' for Active; 'I' for Inactive)
REMARK    1  A    between atoms: C_5  and  C_6 
REMARK       I    between atoms: C_6  and  N_7 
REMARK    2  A    between atoms: N_7  and  C_8 
REMARK    3  A    between atoms: C_8  and  N_9 
REMARK    4  A    between atoms: N_9  and  C_10 
ROOT
HETATM    1  C   UNL     1      -4.215   0.200 -32.282  1.00  0.00     0.257 C 
HETATM    2  N   UNL     1      -5.083   1.250 -32.007  1.00  0.00    -0.299 N 
HETATM    3  O   UNL     1      -3.015   0.165 -32.036  1.00  0.00    -0.267 OA
HETATM    4  H   UNL     1      -5.899   1.304 -32.599  1.00  0.00     0.171 HD
ENDROOT
BRANCH   2   5
HETATM    5  C   UNL     1      -4.775   2.433 -31.409  1.00  0.00     0.180 C 
HETATM    6  S   UNL     1      -6.006   3.533 -31.127  1.00  0.00    -0.040 SA
BRANCH   5   7
HETATM    7  N   UNL     1      -3.506   2.765 -31.083  1.00  0.00    -0.318 N 
HETATM    8  H   UNL     1      -3.033   2.111 -30.475  1.00  0.00     0.170 HD
BRANCH   7   9
HETATM    9  C   UNL     1      -2.658   3.618 -31.811  1.00  0.00     0.129 A 
HETATM   10  N   UNL     1      -1.667   4.291 -31.188  1.00  0.00    -0.236 NA
HETATM   11  C   UNL     1      -0.950   5.182 -31.916  1.00  0.00     0.033 A 
HETATM   12  C   UNL     1       0.127   5.941 -31.202  1.00  0.00     0.070 C 
HETATM   13  C   UNL     1      -1.212   5.445 -33.257  1.00  0.00     0.027 A 
HETATM   14  C   UNL     1      -2.237   4.750 -33.883  1.00  0.00     0.006 A 
HETATM   15  C   UNL     1      -2.974   3.825 -33.150  1.00  0.00     0.050 A 
ENDBRANCH   7   9
ENDBRANCH   5   7
ENDBRANCH   2   5
BRANCH   1  16
HETATM   16  C   UNL     1      -4.825  -0.882 -33.101  1.00  0.00     0.032 A 
HETATM   17  C   UNL     1      -6.188  -0.803 -33.407  1.00  0.00     0.017 A 
HETATM   18  C   UNL     1      -6.809  -1.842 -34.103  1.00  0.00     0.007 A 
HETATM   19  C   UNL     1      -6.075  -2.963 -34.507  1.00  0.00    -0.062 A 
HETATM   20  C   UNL     1      -6.735  -4.081 -35.259  1.00  0.00     0.048 C 
HETATM   21  C   UNL     1      -4.701  -3.018 -34.231  1.00  0.00     0.007 A 
HETATM   22  C   UNL     1      -4.075  -1.984 -33.529  1.00  0.00     0.017 A 
ENDBRANCH   1  16
TORSDOF 4
ENDMDL
MODEL 2
REMARK VINA RESULT:      -7.8      1.341      1.994
REMARK  4 active torsions:
REMARK  status: ('A' for Active; 'I' for Inactive)
REMARK    1  A    between atoms: C_5  and  C_6 
REMARK       I    between atoms: C_6  and  N_7 
REMARK    2  A    between atoms: N_7  and  C_8 
REMARK    3  A    between atoms: C_8  and  N_9 
REMARK    4  A    between atoms: N_9  and  C_10 
ROOT
HETATM    1  C   UNL     1      -5.369   1.001 -33.065  1.00  0.00     0.257 C 
HETATM    2  N   UNL     1      -4.534   1.036 -31.953  1.00  0.00    -0.299 N 
HETATM    3  O   UNL     1      -6.048   1.926 -33.493  1.00  0.00    -0.267 OA
HETATM    4  H   UNL     1      -4.370   0.145 -31.508  1.00  0.00     0.171 HD
ENDROOT
BRANCH   2   5
HETATM    5  C   UNL     1      -4.305   2.097 -31.132  1.00  0.00     0.180 C 
HETATM    6  S   UNL     1      -5.549   2.631 -30.147  1.00  0.00    -0.040 SA
BRANCH   5   7
HETATM    7  N   UNL     1      -3.127   2.759 -31.125  1.00  0.00    -0.318 N 
HETATM    8  H   UNL     1      -2.347   2.245 -30.739  1.00  0.00     0.170 HD
BRANCH   7   9
HETATM    9  C   UNL     1      -2.774   3.835 -31.958  1.00  0.00     0.129 A 
HETATM   10  N   UNL     1      -3.438   4.049 -33.115  1.00  0.00    -0.236 NA
HETATM   11  C   UNL     1      -2.987   5.033 -33.932  1.00  0.00     0.033 A 
HETATM   12  C   UNL     1      -3.717   5.238 -35.224  1.00  0.00     0.070 C 
HETATM   13  C   UNL     1      -1.864   5.800 -33.639  1.00  0.00     0.027 A 
HETATM   14  C   UNL     1      -1.188   5.565 -32.450  1.00  0.00     0.006 A 
HETATM   15  C   UNL     1      -1.647   4.566 -31.597  1.00  0.00     0.050 A 
ENDBRANCH   7   9
ENDBRANCH   5   7
ENDBRANCH   2   5
BRANCH   1  16
HETATM   16  C   UNL     1      -5.536  -0.358 -33.645  1.00  0.00     0.032 A 
HETATM   17  C   UNL     1      -6.779  -0.708 -34.184  1.00  0.00     0.017 A 
HETATM   18  C   UNL     1      -6.994  -2.002 -34.662  1.00  0.00     0.007 A 
HETATM   19  C   UNL     1      -5.969  -2.955 -34.613  1.00  0.00    -0.062 A 
HETATM   20  C   UNL     1      -6.192  -4.347 -35.129  1.00  0.00     0.048 C 
HETATM   21  C   UNL     1      -4.714  -2.587 -34.107  1.00  0.00     0.007 A 
HETATM   22  C   UNL     1      -4.496  -1.294 -33.621  1.00  0.00     0.017 A 
ENDBRANCH   1  16
TORSDOF 4
ENDMDL
MODEL 3
REMARK VINA RESULT:      -7.8      4.872      7.032
REMARK  4 active torsions:
REMARK  status: ('A' for Active; 'I' for Inactive)
REMARK    1  A    between atoms: C_5  and  C_6 
REMARK       I    between atoms: C_6  and  N_7 
REMARK    2  A    between atoms: N_7  and  C_8 
REMARK    3  A    between atoms: C_8  and  N_9 
REMARK    4  A    between atoms: N_9  and  C_10 
ROOT
HETATM    1  C   UNL     1      -7.524  -0.257 -33.918  1.00  0.00     0.257 C 
HETATM    2  N   UNL     1      -7.893   0.044 -32.611  1.00  0.00    -0.299 N 
HETATM    3  O   UNL     1      -8.060   0.158 -34.938  1.00  0.00    -0.267 OA
HETATM    4  H   UNL     1      -7.642  -0.649 -31.921  1.00  0.00     0.171 HD
ENDROOT
BRANCH   2   5
HETATM    5  C   UNL     1      -8.909   0.856 -32.213  1.00  0.00     0.180 C 
HETATM    6  S   UNL     1      -8.538   2.232 -31.334  1.00  0.00    -0.040 SA
BRANCH   5   7
HETATM    7  N   UNL     1     -10.204   0.561 -32.461  1.00  0.00    -0.318 N 
HETATM    8  H   UNL     1     -10.714   0.170 -31.681  1.00  0.00     0.170 HD
BRANCH   7   9
HETATM    9  C   UNL     1     -11.005   1.124 -33.469  1.00  0.00     0.129 A 
HETATM   10  N   UNL     1     -10.638   2.278 -34.069  1.00  0.00    -0.236 NA
HETATM   11  C   UNL     1     -11.499   2.833 -34.956  1.00  0.00     0.033 A 
HETATM   12  C   UNL     1     -11.089   4.128 -35.590  1.00  0.00     0.070 C 
HETATM   13  C   UNL     1     -12.743   2.281 -35.248  1.00  0.00     0.027 A 
HETATM   14  C   UNL     1     -13.109   1.099 -34.620  1.00  0.00     0.006 A 
HETATM   15  C   UNL     1     -12.230   0.512 -33.715  1.00  0.00     0.050 A 
ENDBRANCH   7   9
ENDBRANCH   5   7
ENDBRANCH   2   5
BRANCH   1  16
HETATM   16  C   UNL     1      -6.483  -1.315 -34.018  1.00  0.00     0.032 A 
HETATM   17  C   UNL     1      -6.799  -2.506 -34.681  1.00  0.00     0.017 A 
HETATM   18  C   UNL     1      -5.874  -3.551 -34.721  1.00  0.00     0.007 A 
HETATM   19  C   UNL     1      -4.624  -3.414 -34.107  1.00  0.00    -0.062 A 
HETATM   20  C   UNL     1      -3.622  -4.531 -34.150  1.00  0.00     0.048 C 
HETATM   21  C   UNL     1      -4.299  -2.203 -33.476  1.00  0.00     0.007 A 
HETATM   22  C   UNL     1      -5.224  -1.157 -33.428  1.00  0.00     0.017 A 
ENDBRANCH   1  16
TORSDOF 4
ENDMDL
MODEL 4
REMARK VINA RESULT:      -7.7      4.737      7.291
REMARK  4 active torsions:
REMARK  status: ('A' for Active; 'I' for Inactive)
REMARK    1  A    between atoms: C_5  and  C_6 
REMARK       I    between atoms: C_6  and  N_7 
REMARK    2  A    between atoms: N_7  and  C_8 
REMARK    3  A    between atoms: C_8  and  N_9 
REMARK    4  A    between atoms: N_9  and  C_10 
ROOT
HETATM    1  C   UNL     1      -7.011   0.080 -34.424  1.00  0.00     0.257 C 
HETATM    2  N   UNL     1      -7.555   0.546 -33.233  1.00  0.00    -0.299 N 
HETATM    3  O   UNL     1      -7.254   0.502 -35.548  1.00  0.00    -0.267 OA
HETATM    4  H   UNL     1      -7.577  -0.123 -32.476  1.00  0.00     0.171 HD
ENDROOT
BRANCH   2   5
HETATM    5  C   UNL     1      -8.453   1.557 -33.081  1.00  0.00     0.180 C 
HETATM    6  S   UNL     1      -8.719   2.170 -31.546  1.00  0.00    -0.040 SA
BRANCH   5   7
HETATM    7  N   UNL     1      -9.168   2.045 -34.119  1.00  0.00    -0.318 N 
HETATM    8  H   UNL     1      -8.661   2.127 -34.990  1.00  0.00     0.170 HD
BRANCH   7   9
HETATM    9  C   UNL     1     -10.567   2.020 -34.248  1.00  0.00     0.129 A 
HETATM   10  N   UNL     1     -11.272   0.948 -33.828  1.00  0.00    -0.236 NA
HETATM   11  C   UNL     1     -12.606   0.930 -34.074  1.00  0.00     0.033 A 
HETATM   12  C   UNL     1     -13.369  -0.281 -33.629  1.00  0.00     0.070 C 
HETATM   13  C   UNL     1     -13.260   1.949 -34.759  1.00  0.00     0.027 A 
HETATM   14  C   UNL     1     -12.522   3.042 -35.190  1.00  0.00     0.006 A 
HETATM   15  C   UNL     1     -11.154   3.078 -34.933  1.00  0.00     0.050 A 
ENDBRANCH   7   9
ENDBRANCH   5   7
ENDBRANCH   2   5
BRANCH   1  16
HETATM   16  C   UNL     1      -6.193  -1.152 -34.267  1.00  0.00     0.032 A 
HETATM   17  C   UNL     1      -5.005  -1.079 -33.531  1.00  0.00     0.017 A 
HETATM   18  C   UNL     1      -4.173  -2.196 -33.433  1.00  0.00     0.007 A 
HETATM   19  C   UNL     1      -4.523  -3.397 -34.063  1.00  0.00    -0.062 A 
HETATM   20  C   UNL     1      -3.636  -4.603 -33.958  1.00  0.00     0.048 C 
HETATM   21  C   UNL     1      -5.733  -3.475 -34.767  1.00  0.00     0.007 A 
HETATM   22  C   UNL     1      -6.566  -2.358 -34.873  1.00  0.00     0.017 A 
ENDBRANCH   1  16
TORSDOF 4
ENDMDL
MODEL 5
REMARK VINA RESULT:      -7.6      1.671      2.150
REMARK  4 active torsions:
REMARK  status: ('A' for Active; 'I' for Inactive)
REMARK    1  A    between atoms: C_5  and  C_6 
REMARK       I    between atoms: C_6  and  N_7 
REMARK    2  A    between atoms: N_7  and  C_8 
REMARK    3  A    between atoms: C_8  and  N_9 
REMARK    4  A    between atoms: N_9  and  C_10 
ROOT
HETATM    1  C   UNL     1      -5.986   1.006 -33.647  1.00  0.00     0.257 C 
HETATM    2  N   UNL     1      -5.476   1.365 -32.404  1.00  0.00    -0.299 N 
HETATM    3  O   UNL     1      -6.566   1.743 -34.435  1.00  0.00    -0.267 OA
HETATM    4  H   UNL     1      -5.398   0.613 -31.735  1.00  0.00     0.171 HD
ENDROOT
BRANCH   2   5
HETATM    5  C   UNL     1      -5.516   2.596 -31.826  1.00  0.00     0.180 C 
HETATM    6  S   UNL     1      -5.657   2.695 -30.160  1.00  0.00    -0.040 SA
BRANCH   5   7
HETATM    7  N   UNL     1      -5.495   3.734 -32.555  1.00  0.00    -0.318 N 
HETATM    8  H   UNL     1      -6.214   4.406 -32.326  1.00  0.00     0.170 HD
BRANCH   7   9
HETATM    9  C   UNL     1      -4.384   4.263 -33.234  1.00  0.00     0.129 A 
HETATM   10  N   UNL     1      -3.207   4.429 -32.592  1.00  0.00    -0.236 NA
HETATM   11  C   UNL     1      -2.200   5.044 -33.263  1.00  0.00     0.033 A 
HETATM   12  C   UNL     1      -0.911   5.246 -32.527  1.00  0.00     0.070 C 
HETATM   13  C   UNL     1      -2.343   5.528 -34.559  1.00  0.00     0.027 A 
HETATM   14  C   UNL     1      -3.560   5.356 -35.204  1.00  0.00     0.006 A 
HETATM   15  C   UNL     1      -4.597   4.717 -34.532  1.00  0.00     0.050 A 
ENDBRANCH   7   9
ENDBRANCH   5   7
ENDBRANCH   2   5
BRANCH   1  16
HETATM   16  C   UNL     1      -5.937  -0.456 -33.914  1.00  0.00     0.032 A 
HETATM   17  C   UNL     1      -4.717  -1.124 -33.767  1.00  0.00     0.017 A 
HETATM   18  C   UNL     1      -4.618  -2.480 -34.089  1.00  0.00     0.007 A 
HETATM   19  C   UNL     1      -5.738  -3.181 -34.552  1.00  0.00    -0.062 A 
HETATM   20  C   UNL     1      -5.641  -4.639 -34.895  1.00  0.00     0.048 C 
HETATM   21  C   UNL     1      -6.968  -2.514 -34.661  1.00  0.00     0.007 A 
HETATM   22  C   UNL     1      -7.069  -1.157 -34.346  1.00  0.00     0.017 A 
ENDBRANCH   1  16
TORSDOF 4
ENDMDL
MODEL 6
REMARK VINA RESULT:      -7.3      5.721      8.494
REMARK  4 active torsions:
REMARK  status: ('A' for Active; 'I' for Inactive)
REMARK    1  A    between atoms: C_5  and  C_6 
REMARK       I    between atoms: C_6  and  N_7 
REMARK    2  A    between atoms: N_7  and  C_8 
REMARK    3  A    between atoms: C_8  and  N_9 
REMARK    4  A    between atoms: N_9  and  C_10 
ROOT
HETATM    1  C   UNL     1      -8.913   0.646 -32.829  1.00  0.00     0.257 C 
HETATM    2  N   UNL     1      -9.211   1.678 -33.712  1.00  0.00    -0.299 N 
HETATM    3  O   UNL     1      -9.471   0.419 -31.762  1.00  0.00    -0.267 OA
HETATM    4  H   UNL     1      -8.450   1.971 -34.308  1.00  0.00     0.171 HD
ENDROOT
BRANCH   2   5
HETATM    5  C   UNL     1     -10.177   2.626 -33.570  1.00  0.00     0.180 C 
HETATM    6  S   UNL     1      -9.987   4.090 -34.361  1.00  0.00    -0.040 SA
BRANCH   5   7
HETATM    7  N   UNL     1     -11.254   2.441 -32.774  1.00  0.00    -0.318 N 
HETATM    8  H   UNL     1     -11.243   2.960 -31.908  1.00  0.00     0.170 HD
BRANCH   7   9
HETATM    9  C   UNL     1     -12.524   2.002 -33.187  1.00  0.00     0.129 A 
HETATM   10  N   UNL     1     -13.637   2.465 -32.579  1.00  0.00    -0.236 NA
HETATM   11  C   UNL     1     -14.828   1.927 -32.942  1.00  0.00     0.033 A 
HETATM   12  C   UNL     1     -16.051   2.431 -32.236  1.00  0.00     0.070 C 
HETATM   13  C   UNL     1     -14.940   0.910 -33.884  1.00  0.00     0.027 A 
HETATM   14  C   UNL     1     -13.787   0.440 -34.497  1.00  0.00     0.006 A 
HETATM   15  C   UNL     1     -12.560   0.991 -34.142  1.00  0.00     0.050 A 
ENDBRANCH   7   9
ENDBRANCH   5   7
ENDBRANCH   2   5
BRANCH   1  16
HETATM   16  C   UNL     1      -7.687  -0.114 -33.189  1.00  0.00     0.032 A 
HETATM   17  C   UNL     1      -7.655  -0.793 -34.412  1.00  0.00     0.017 A 
HETATM   18  C   UNL     1      -6.552  -1.583 -34.745  1.00  0.00     0.007 A 
HETATM   19  C   UNL     1      -5.470  -1.696 -33.864  1.00  0.00    -0.062 A 
HETATM   20  C   UNL     1      -4.280  -2.540 -34.217  1.00  0.00     0.048 C 
HETATM   21  C   UNL     1      -5.492  -0.982 -32.657  1.00  0.00     0.007 A 
HETATM   22  C   UNL     1      -6.596  -0.195 -32.317  1.00  0.00     0.017 A 
ENDBRANCH   1  16
TORSDOF 4
ENDMDL
MODEL 7
REMARK VINA RESULT:      -7.2      4.285      5.855
REMARK  4 active torsions:
REMARK  status: ('A' for Active; 'I' for Inactive)
REMARK    1  A    between atoms: C_5  and  C_6 
REMARK       I    between atoms: C_6  and  N_7 
REMARK    2  A    between atoms: N_7  and  C_8 
REMARK    3  A    between atoms: C_8  and  N_9 
REMARK    4  A    between atoms: N_9  and  C_10 
ROOT
HETATM    1  C   UNL     1      -6.317   0.332 -33.188  1.00  0.00     0.257 C 
HETATM    2  N   UNL     1      -6.823   0.324 -31.892  1.00  0.00    -0.299 N 
HETATM    3  O   UNL     1      -6.243   1.301 -33.933  1.00  0.00    -0.267 OA
HETATM    4  H   UNL     1      -7.179  -0.565 -31.572  1.00  0.00     0.171 HD
ENDROOT
BRANCH   2   5
HETATM    5  C   UNL     1      -7.325   1.384 -31.202  1.00  0.00     0.180 C 
HETATM    6  S   UNL     1      -6.288   2.272 -30.232  1.00  0.00    -0.040 SA
BRANCH   5   7
HETATM    7  N   UNL     1      -8.636   1.709 -31.237  1.00  0.00    -0.318 N 
HETATM    8  H   UNL     1      -8.972   2.232 -30.440  1.00  0.00     0.170 HD
BRANCH   7   9
HETATM    9  C   UNL     1      -9.436   1.804 -32.389  1.00  0.00     0.129 A 
HETATM   10  N   UNL     1      -9.491   2.958 -33.089  1.00  0.00    -0.236 NA
HETATM   11  C   UNL     1     -10.360   3.030 -34.127  1.00  0.00     0.033 A 
HETATM   12  C   UNL     1     -10.430   4.327 -34.874  1.00  0.00     0.070 C 
HETATM   13  C   UNL     1     -11.207   1.982 -34.475  1.00  0.00     0.027 A 
HETATM   14  C   UNL     1     -11.144   0.804 -33.743  1.00  0.00     0.006 A 
HETATM   15  C   UNL     1     -10.248   0.713 -32.683  1.00  0.00     0.050 A 
ENDBRANCH   7   9
ENDBRANCH   5   7
ENDBRANCH   2   5
BRANCH   1  16
HETATM   16  C   UNL     1      -6.009  -1.023 -33.718  1.00  0.00     0.032 A 
HETATM   17  C   UNL     1      -7.055  -1.794 -34.235  1.00  0.00     0.017 A 
HETATM   18  C   UNL     1      -6.815  -3.101 -34.665  1.00  0.00     0.007 A 
HETATM   19  C   UNL     1      -5.528  -3.646 -34.589  1.00  0.00    -0.062 A 
HETATM   20  C   UNL     1      -5.261  -5.048 -35.053  1.00  0.00     0.048 C 
HETATM   21  C   UNL     1      -4.476  -2.855 -34.104  1.00  0.00     0.007 A 
HETATM   22  C   UNL     1      -4.713  -1.549 -33.667  1.00  0.00     0.017 A 
ENDBRANCH   1  16
TORSDOF 4
ENDMDL
MODEL 8
REMARK VINA RESULT:      -7.1      1.847      2.223
REMARK  4 active torsions:
REMARK  status: ('A' for Active; 'I' for Inactive)
REMARK    1  A    between atoms: C_5  and  C_6 
REMARK       I    between atoms: C_6  and  N_7 
REMARK    2  A    between atoms: N_7  and  C_8 
REMARK    3  A    between atoms: C_8  and  N_9 
REMARK    4  A    between atoms: N_9  and  C_10 
ROOT
HETATM    1  C   UNL     1      -5.899   1.084 -32.818  1.00  0.00     0.257 C 
HETATM    2  N   UNL     1      -6.498   2.080 -33.581  1.00  0.00    -0.299 N 
HETATM    3  O   UNL     1      -5.308   1.238 -31.756  1.00  0.00    -0.267 OA
HETATM    4  H   UNL     1      -6.580   1.880 -34.567  1.00  0.00     0.171 HD
ENDROOT
BRANCH   2   5
HETATM    5  C   UNL     1      -6.552   3.410 -33.297  1.00  0.00     0.180 C 
HETATM    6  S   UNL     1      -7.750   3.962 -32.266  1.00  0.00    -0.040 SA
BRANCH   5   7
HETATM    7  N   UNL     1      -5.702   4.299 -33.857  1.00  0.00    -0.318 N 
HETATM    8  H   UNL     1      -6.142   5.047 -34.375  1.00  0.00     0.170 HD
BRANCH   7   9
HETATM    9  C   UNL     1      -4.383   4.557 -33.447  1.00  0.00     0.129 A 
HETATM   10  N   UNL     1      -3.440   4.894 -34.354  1.00  0.00    -0.236 NA
HETATM   11  C   UNL     1      -2.162   5.026 -33.920  1.00  0.00     0.033 A 
HETATM   12  C   UNL     1      -1.123   5.371 -34.943  1.00  0.00     0.070 C 
HETATM   13  C   UNL     1      -1.787   4.802 -32.598  1.00  0.00     0.027 A 
HETATM   14  C   UNL     1      -2.765   4.450 -31.680  1.00  0.00     0.006 A 
HETATM   15  C   UNL     1      -4.083   4.323 -32.109  1.00  0.00     0.050 A 
ENDBRANCH   7   9
ENDBRANCH   5   7
ENDBRANCH   2   5
BRANCH   1  16
HETATM   16  C   UNL     1      -5.861  -0.243 -33.490  1.00  0.00     0.032 A 
HETATM   17  C   UNL     1      -7.030  -0.724 -34.089  1.00  0.00     0.017 A 
HETATM   18  C   UNL     1      -7.051  -2.000 -34.656  1.00  0.00     0.007 A 
HETATM   19  C   UNL     1      -5.904  -2.803 -34.637  1.00  0.00    -0.062 A 
HETATM   20  C   UNL     1      -5.918  -4.173 -35.248  1.00  0.00     0.048 C 
HETATM   21  C   UNL     1      -4.724  -2.299 -34.069  1.00  0.00     0.007 A 
HETATM   22  C   UNL     1      -4.700  -1.025 -33.494  1.00  0.00     0.017 A 
ENDBRANCH   1  16
TORSDOF 4
ENDMDL
MODEL 9
REMARK VINA RESULT:      -7.0      3.813      4.948
REMARK  4 active torsions:
REMARK  status: ('A' for Active; 'I' for Inactive)
REMARK    1  A    between atoms: C_5  and  C_6 
REMARK       I    between atoms: C_6  and  N_7 
REMARK    2  A    between atoms: N_7  and  C_8 
REMARK    3  A    between atoms: C_8  and  N_9 
REMARK    4  A    between atoms: N_9  and  C_10 
ROOT
HETATM    1  C   UNL     1      -7.098   0.494 -33.201  1.00  0.00     0.257 C 
HETATM    2  N   UNL     1      -8.291   0.142 -32.579  1.00  0.00    -0.299 N 
HETATM    3  O   UNL     1      -6.797   1.605 -33.619  1.00  0.00    -0.267 OA
HETATM    4  H   UNL     1      -8.548  -0.832 -32.657  1.00  0.00     0.171 HD
ENDROOT
BRANCH   2   5
HETATM    5  C   UNL     1      -9.346   0.957 -32.308  1.00  0.00     0.180 C 
HETATM    6  S   UNL     1     -10.460   1.255 -33.522  1.00  0.00    -0.040 SA
BRANCH   5   7
HETATM    7  N   UNL     1      -9.494   1.567 -31.111  1.00  0.00    -0.318 N 
HETATM    8  H   UNL     1      -9.762   0.961 -30.349  1.00  0.00     0.170 HD
BRANCH   7   9
HETATM    9  C   UNL     1      -8.909   2.785 -30.723  1.00  0.00     0.129 A 
HETATM   10  N   UNL     1      -7.586   2.853 -30.462  1.00  0.00    -0.236 NA
HETATM   11  C   UNL     1      -7.093   4.024 -29.986  1.00  0.00     0.033 A 
HETATM   12  C   UNL     1      -5.628   4.074 -29.674  1.00  0.00     0.070 C 
HETATM   13  C   UNL     1      -7.895   5.133 -29.735  1.00  0.00     0.027 A 
HETATM   14  C   UNL     1      -9.254   5.046 -30.003  1.00  0.00     0.006 A 
HETATM   15  C   UNL     1      -9.770   3.854 -30.502  1.00  0.00     0.050 A 
ENDBRANCH   7   9
ENDBRANCH   5   7
ENDBRANCH   2   5
BRANCH   1  16
HETATM   16  C   UNL     1      -6.218  -0.666 -33.508  1.00  0.00     0.032 A 
HETATM   17  C   UNL     1      -6.713  -1.683 -34.330  1.00  0.00     0.017 A 
HETATM   18  C   UNL     1      -5.944  -2.824 -34.571  1.00  0.00     0.007 A 
HETATM   19  C   UNL     1      -4.673  -2.955 -33.999  1.00  0.00    -0.062 A 
HETATM   20  C   UNL     1      -3.839  -4.176 -34.257  1.00  0.00     0.048 C 
HETATM   21  C   UNL     1      -4.167  -1.914 -33.206  1.00  0.00     0.007 A 
HETATM   22  C   UNL     1      -4.936  -0.773 -32.957  1.00  0.00     0.017 A 
ENDBRANCH   1  16
TORSDOF 4
ENDMDL
MODEL 10
REMARK VINA RESULT:      -6.9     15.710     16.746
REMARK  4 active torsions:
REMARK  status: ('A' for Active; 'I' for Inactive)
REMARK    1  A    between atoms: C_5  and  C_6 
REMARK       I    between atoms: C_6  and  N_7 
REMARK    2  A    between atoms: N_7  and  C_8 
REMARK    3  A    between atoms: C_8  and  N_9 
REMARK    4  A    between atoms: N_9  and  C_10 
ROOT
HETATM    1  C   UNL     1      -4.655 -12.604 -38.406  1.00  0.00     0.257 C 
HETATM    2  N   UNL     1      -4.414 -13.711 -37.600  1.00  0.00    -0.299 N 
HETATM    3  O   UNL     1      -3.883 -11.677 -38.617  1.00  0.00    -0.267 OA
HETATM    4  H   UNL     1      -5.236 -14.155 -37.216  1.00  0.00     0.171 HD
ENDROOT
BRANCH   2   5
HETATM    5  C   UNL     1      -3.280 -13.984 -36.898  1.00  0.00     0.180 C 
HETATM    6  S   UNL     1      -3.399 -14.922 -35.516  1.00  0.00    -0.040 SA
BRANCH   5   7
HETATM    7  N   UNL     1      -2.077 -13.482 -37.254  1.00  0.00    -0.318 N 
HETATM    8  H   UNL     1      -1.683 -12.811 -36.609  1.00  0.00     0.170 HD
BRANCH   7   9
HETATM    9  C   UNL     1      -1.150 -14.085 -38.122  1.00  0.00     0.129 A 
HETATM   10  N   UNL     1      -0.169 -14.874 -37.632  1.00  0.00    -0.236 NA
HETATM   11  C   UNL     1       0.761 -15.341 -38.501  1.00  0.00     0.033 A 
HETATM   12  C   UNL     1       1.860 -16.191 -37.937  1.00  0.00     0.070 C 
HETATM   13  C   UNL     1       0.758 -15.020 -39.855  1.00  0.00     0.027 A 
HETATM   14  C   UNL     1      -0.253 -14.204 -40.342  1.00  0.00     0.006 A 
HETATM   15  C   UNL     1      -1.220 -13.727 -39.464  1.00  0.00     0.050 A 
ENDBRANCH   7   9
ENDBRANCH   5   7
ENDBRANCH   2   5
BRANCH   1  16
HETATM   16  C   UNL     1      -6.057 -12.514 -38.894  1.00  0.00     0.032 A 
HETATM   17  C   UNL     1      -7.098 -12.771 -37.996  1.00  0.00     0.017 A 
HETATM   18  C   UNL     1      -8.421 -12.775 -38.440  1.00  0.00     0.007 A 
HETATM   19  C   UNL     1      -8.718 -12.515 -39.784  1.00  0.00    -0.062 A 
HETATM   20  C   UNL     1     -10.138 -12.513 -40.268  1.00  0.00     0.048 C 
HETATM   21  C   UNL     1      -7.672 -12.221 -40.672  1.00  0.00     0.007 A 
HETATM   22  C   UNL     1      -6.346 -12.222 -40.232  1.00  0.00     0.017 A 
ENDBRANCH   1  16
TORSDOF 4
ENDMDL
