MODEL 1
REMARK VINA RESULT:      -8.7      0.000      0.000
REMARK  5 active torsions:
REMARK  status: ('A' for Active; 'I' for Inactive)
REMARK    1  A    between atoms: C_6  and  C_7 
REMARK    2  A    between atoms: C_7  and  C_8 
REMARK    3  A    between atoms: C_8  and  C_9 
REMARK    4  A    between atoms: C_9  and  N_10 
REMARK       I    between atoms: N_10  and  C_11 
REMARK    5  A    between atoms: C_11  and  C_12 
ROOT
HETATM    1  N   UNL     1      -2.484   4.079 -31.559  1.00  0.00    -0.356 N 
HETATM    2  C   UNL     1      -1.395   4.848 -31.914  1.00  0.00     0.272 C 
HETATM    3  O   UNL     1      -1.163   5.185 -33.071  1.00  0.00    -0.266 OA
HETATM    4  H   UNL     1      -2.594   3.925 -30.558  1.00  0.00     0.162 HD
ENDROOT
BRANCH   1   5
HETATM    5  C   UNL     1      -3.480   3.632 -32.499  1.00  0.00     0.123 C 
BRANCH   5   6
HETATM    6  C   UNL     1      -4.376   2.549 -31.906  1.00  0.00     0.027 C 
BRANCH   6   7
HETATM    7  C   UNL     1      -3.547   1.518 -31.146  1.00  0.00     0.080 C 
BRANCH   7   8
HETATM    8  C   UNL     1      -3.626   0.172 -31.780  1.00  0.00     0.105 A 
HETATM    9  N   UNL     1      -4.258  -0.132 -32.894  1.00  0.00    -0.233 NA
HETATM   10  C   UNL     1      -4.076  -1.482 -33.066  1.00  0.00     0.085 A 
HETATM   11  C   UNL     1      -3.311  -2.016 -32.034  1.00  0.00     0.062 A 
HETATM   12  C   UNL     1      -4.538  -2.329 -34.084  1.00  0.00     0.034 A 
HETATM   13  C   UNL     1      -2.974  -3.368 -31.949  1.00  0.00     0.032 A 
HETATM   14  N   UNL     1      -3.032  -0.939 -31.233  1.00  0.00    -0.343 N 
HETATM   15  C   UNL     1      -3.448  -4.199 -32.972  1.00  0.00     0.002 A 
HETATM   16  C   UNL     1      -4.216  -3.691 -34.023  1.00  0.00     0.002 A 
HETATM   17  H   UNL     1      -2.486  -0.959 -30.383  1.00  0.00     0.167 HD
ENDBRANCH   7   8
ENDBRANCH   6   7
ENDBRANCH   5   6
ENDBRANCH   1   5
BRANCH   2  18
HETATM   18  C   UNL     1      -0.559   5.225 -30.756  1.00  0.00     0.152 A 
HETATM   19  N   UNL     1       0.264   4.317 -30.183  1.00  0.00    -0.169 NA
HETATM   20  N   UNL     1       0.848   4.982 -29.178  1.00  0.00    -0.281 N 
HETATM   21  H   UNL     1       1.513   4.484 -28.595  1.00  0.00     0.189 HD
HETATM   22  C   UNL     1       0.441   6.278 -29.062  1.00  0.00     0.036 A 
HETATM   23  C   UNL     1      -0.470   6.483 -30.083  1.00  0.00     0.002 A 
HETATM   24  C   UNL     1       0.938   7.164 -27.973  1.00  0.00     0.059 C 
HETATM   25  C   UNL     1      -1.170   7.763 -30.376  1.00  0.00     0.043 C 
HETATM   26  C   UNL     1      -2.006   8.288 -29.206  1.00  0.00     0.005 C 
HETATM   27  C   UNL     1      -1.322   8.367 -27.830  1.00  0.00     0.001 C 
HETATM   28  C   UNL     1       0.203   8.505 -27.858  1.00  0.00     0.006 C 
ENDBRANCH   2  18
TORSDOF 5
ENDMDL
MODEL 2
REMARK VINA RESULT:      -8.7      3.150      4.031
REMARK  5 active torsions:
REMARK  status: ('A' for Active; 'I' for Inactive)
REMARK    1  A    between atoms: C_6  and  C_7 
REMARK    2  A    between atoms: C_7  and  C_8 
REMARK    3  A    between atoms: C_8  and  C_9 
REMARK    4  A    between atoms: C_9  and  N_10 
REMARK       I    between atoms: N_10  and  C_11 
REMARK    5  A    between atoms: C_11  and  C_12 
ROOT
HETATM    1  N   UNL     1      -5.664   3.513 -32.934  1.00  0.00    -0.356 N 
HETATM    2  C   UNL     1      -5.800   4.601 -33.771  1.00  0.00     0.272 C 
HETATM    3  O   UNL     1      -6.877   4.945 -34.252  1.00  0.00    -0.266 OA
HETATM    4  H   UNL     1      -4.729   3.377 -32.556  1.00  0.00     0.162 HD
ENDROOT
BRANCH   1   5
HETATM    5  C   UNL     1      -6.772   2.699 -32.505  1.00  0.00     0.123 C 
BRANCH   5   6
HETATM    6  C   UNL     1      -6.326   1.293 -32.115  1.00  0.00     0.027 C 
BRANCH   6   7
HETATM    7  C   UNL     1      -5.109   0.866 -32.930  1.00  0.00     0.080 C 
BRANCH   7   8
HETATM    8  C   UNL     1      -5.243  -0.532 -33.427  1.00  0.00     0.105 A 
HETATM    9  N   UNL     1      -6.309  -1.065 -33.986  1.00  0.00    -0.233 NA
HETATM   10  C   UNL     1      -5.973  -2.370 -34.252  1.00  0.00     0.085 A 
HETATM   11  C   UNL     1      -4.670  -2.640 -33.849  1.00  0.00     0.062 A 
HETATM   12  C   UNL     1      -6.734  -3.393 -34.837  1.00  0.00     0.034 A 
HETATM   13  C   UNL     1      -4.066  -3.891 -33.993  1.00  0.00     0.032 A 
HETATM   14  N   UNL     1      -4.225  -1.450 -33.334  1.00  0.00    -0.343 N 
HETATM   15  C   UNL     1      -4.842  -4.900 -34.576  1.00  0.00     0.002 A 
HETATM   16  C   UNL     1      -6.154  -4.658 -34.993  1.00  0.00     0.002 A 
HETATM   17  H   UNL     1      -3.308  -1.278 -32.947  1.00  0.00     0.167 HD
ENDBRANCH   7   8
ENDBRANCH   6   7
ENDBRANCH   5   6
ENDBRANCH   1   5
BRANCH   2  18
HETATM   18  C   UNL     1      -4.523   5.304 -34.010  1.00  0.00     0.152 A 
HETATM   19  N   UNL     1      -3.909   5.214 -35.212  1.00  0.00    -0.169 NA
HETATM   20  N   UNL     1      -2.797   5.947 -35.074  1.00  0.00    -0.281 N 
HETATM   21  H   UNL     1      -2.166   6.016 -35.867  1.00  0.00     0.189 HD
HETATM   22  C   UNL     1      -2.652   6.506 -33.839  1.00  0.00     0.036 A 
HETATM   23  C   UNL     1      -3.766   6.121 -33.115  1.00  0.00     0.002 A 
HETATM   24  C   UNL     1      -1.453   7.313 -33.477  1.00  0.00     0.059 C 
HETATM   25  C   UNL     1      -4.063   6.512 -31.710  1.00  0.00     0.043 C 
HETATM   26  C   UNL     1      -2.980   6.095 -30.713  1.00  0.00     0.005 C 
HETATM   27  C   UNL     1      -1.525   6.456 -31.061  1.00  0.00     0.001 C 
HETATM   28  C   UNL     1      -1.348   7.663 -31.987  1.00  0.00     0.006 C 
ENDBRANCH   2  18
TORSDOF 5
ENDMDL
MODEL 3
REMARK VINA RESULT:      -8.6      3.806      9.020
REMARK  5 active torsions:
REMARK  status: ('A' for Active; 'I' for Inactive)
REMARK    1  A    between atoms: C_6  and  C_7 
REMARK    2  A    between atoms: C_7  and  C_8 
REMARK    3  A    between atoms: C_8  and  C_9 
REMARK    4  A    between atoms: C_9  and  N_10 
REMARK       I    between atoms: N_10  and  C_11 
REMARK    5  A    between atoms: C_11  and  C_12 
ROOT
HETATM    1  N   UNL     1      -6.921   0.361 -31.646  1.00  0.00    -0.356 N 
HETATM    2  C   UNL     1      -6.377   0.401 -32.913  1.00  0.00     0.272 C 
HETATM    3  O   UNL     1      -6.015   1.442 -33.454  1.00  0.00    -0.266 OA
HETATM    4  H   UNL     1      -7.119  -0.573 -31.293  1.00  0.00     0.162 HD
ENDROOT
BRANCH   1   5
HETATM    5  C   UNL     1      -7.078   1.526 -30.814  1.00  0.00     0.123 C 
BRANCH   5   6
HETATM    6  C   UNL     1      -5.817   1.825 -30.009  1.00  0.00     0.027 C 
BRANCH   6   7
HETATM    7  C   UNL     1      -5.532   3.324 -29.986  1.00  0.00     0.080 C 
BRANCH   7   8
HETATM    8  C   UNL     1      -4.789   3.761 -31.200  1.00  0.00     0.105 A 
HETATM    9  N   UNL     1      -3.480   3.822 -31.338  1.00  0.00    -0.233 NA
HETATM   10  C   UNL     1      -3.264   4.302 -32.606  1.00  0.00     0.085 A 
HETATM   11  C   UNL     1      -4.468   4.535 -33.262  1.00  0.00     0.062 A 
HETATM   12  C   UNL     1      -2.059   4.568 -33.272  1.00  0.00     0.034 A 
HETATM   13  C   UNL     1      -4.548   5.031 -34.565  1.00  0.00     0.032 A 
HETATM   14  N   UNL     1      -5.423   4.175 -32.346  1.00  0.00    -0.343 N 
HETATM   15  C   UNL     1      -3.335   5.295 -35.213  1.00  0.00     0.002 A 
HETATM   16  C   UNL     1      -2.110   5.067 -34.580  1.00  0.00     0.002 A 
HETATM   17  H   UNL     1      -6.423   4.213 -32.488  1.00  0.00     0.167 HD
ENDBRANCH   7   8
ENDBRANCH   6   7
ENDBRANCH   5   6
ENDBRANCH   1   5
BRANCH   2  18
HETATM   18  C   UNL     1      -6.269  -0.937 -33.532  1.00  0.00     0.152 A 
HETATM   19  N   UNL     1      -7.345  -1.504 -34.124  1.00  0.00    -0.169 NA
HETATM   20  N   UNL     1      -6.900  -2.691 -34.557  1.00  0.00    -0.281 N 
HETATM   21  H   UNL     1      -7.554  -3.303 -35.035  1.00  0.00     0.189 HD
HETATM   22  C   UNL     1      -5.588  -2.928 -34.271  1.00  0.00     0.036 A 
HETATM   23  C   UNL     1      -5.133  -1.801 -33.612  1.00  0.00     0.002 A 
HETATM   24  C   UNL     1      -4.927  -4.214 -34.626  1.00  0.00     0.059 C 
HETATM   25  C   UNL     1      -3.744  -1.585 -33.122  1.00  0.00     0.043 C 
HETATM   26  C   UNL     1      -3.273  -2.646 -32.125  1.00  0.00     0.005 C 
HETATM   27  C   UNL     1      -3.466  -4.120 -32.521  1.00  0.00     0.001 C 
HETATM   28  C   UNL     1      -3.527  -4.397 -34.026  1.00  0.00     0.006 C 
ENDBRANCH   2  18
TORSDOF 5
ENDMDL
MODEL 4
REMARK VINA RESULT:      -8.5      5.360      8.916
REMARK  5 active torsions:
REMARK  status: ('A' for Active; 'I' for Inactive)
REMARK    1  A    between atoms: C_6  and  C_7 
REMARK    2  A    between atoms: C_7  and  C_8 
REMARK    3  A    between atoms: C_8  and  C_9 
REMARK    4  A    between atoms: C_9  and  N_10 
REMARK       I    between atoms: N_10  and  C_11 
REMARK    5  A    between atoms: C_11  and  C_12 
ROOT
HETATM    1  N   UNL     1      -8.165   2.331 -30.730  1.00  0.00    -0.356 N 
HETATM    2  C   UNL     1      -8.464   2.540 -32.060  1.00  0.00     0.272 C 
HETATM    3  O   UNL     1      -7.836   3.319 -32.773  1.00  0.00    -0.266 OA
HETATM    4  H   UNL     1      -8.723   1.613 -30.272  1.00  0.00     0.162 HD
ENDROOT
BRANCH   1   5
HETATM    5  C   UNL     1      -7.065   2.969 -30.054  1.00  0.00     0.123 C 
BRANCH   5   6
HETATM    6  C   UNL     1      -5.735   2.291 -30.371  1.00  0.00     0.027 C 
BRANCH   6   7
HETATM    7  C   UNL     1      -5.768   0.820 -29.969  1.00  0.00     0.080 C 
BRANCH   7   8
HETATM    8  C   UNL     1      -5.593  -0.076 -31.146  1.00  0.00     0.105 A 
HETATM    9  N   UNL     1      -4.482  -0.680 -31.513  1.00  0.00    -0.233 NA
HETATM   10  C   UNL     1      -4.797  -1.369 -32.658  1.00  0.00     0.085 A 
HETATM   11  C   UNL     1      -6.132  -1.185 -32.998  1.00  0.00     0.062 A 
HETATM   12  C   UNL     1      -3.988  -2.177 -33.471  1.00  0.00     0.034 A 
HETATM   13  C   UNL     1      -6.724  -1.764 -34.122  1.00  0.00     0.032 A 
HETATM   14  N   UNL     1      -6.618  -0.363 -32.014  1.00  0.00    -0.343 N 
HETATM   15  C   UNL     1      -5.901  -2.564 -34.924  1.00  0.00     0.002 A 
HETATM   16  C   UNL     1      -4.555  -2.770 -34.606  1.00  0.00     0.002 A 
HETATM   17  H   UNL     1      -7.567  -0.023 -31.943  1.00  0.00     0.167 HD
ENDBRANCH   7   8
ENDBRANCH   6   7
ENDBRANCH   5   6
ENDBRANCH   1   5
BRANCH   2  18
HETATM   18  C   UNL     1      -9.601   1.721 -32.528  1.00  0.00     0.152 A 
HETATM   19  N   UNL     1      -9.580   0.377 -32.383  1.00  0.00    -0.169 NA
HETATM   20  N   UNL     1     -10.738  -0.035 -32.914  1.00  0.00    -0.281 N 
HETATM   21  H   UNL     1     -10.936  -1.031 -32.921  1.00  0.00     0.189 HD
HETATM   22  C   UNL     1     -11.511   0.975 -33.407  1.00  0.00     0.036 A 
HETATM   23  C   UNL     1     -10.810   2.142 -33.163  1.00  0.00     0.002 A 
HETATM   24  C   UNL     1     -12.811   0.711 -34.084  1.00  0.00     0.059 C 
HETATM   25  C   UNL     1     -11.271   3.516 -33.503  1.00  0.00     0.043 C 
HETATM   26  C   UNL     1     -11.554   3.718 -34.993  1.00  0.00     0.005 C 
HETATM   27  C   UNL     1     -12.448   2.678 -35.689  1.00  0.00     0.001 C 
HETATM   28  C   UNL     1     -13.427   1.933 -34.776  1.00  0.00     0.006 C 
ENDBRANCH   2  18
TORSDOF 5
ENDMDL
MODEL 5
REMARK VINA RESULT:      -8.4      5.182      8.421
REMARK  5 active torsions:
REMARK  status: ('A' for Active; 'I' for Inactive)
REMARK    1  A    between atoms: C_6  and  C_7 
REMARK    2  A    between atoms: C_7  and  C_8 
REMARK    3  A    between atoms: C_8  and  C_9 
REMARK    4  A    between atoms: C_9  and  N_10 
REMARK       I    between atoms: N_10  and  C_11 
REMARK    5  A    between atoms: C_11  and  C_12 
ROOT
HETATM    1  N   UNL     1      -7.205   3.518 -31.833  1.00  0.00    -0.356 N 
HETATM    2  C   UNL     1      -7.245   3.102 -33.148  1.00  0.00     0.272 C 
HETATM    3  O   UNL     1      -6.317   2.508 -33.691  1.00  0.00    -0.266 OA
HETATM    4  H   UNL     1      -8.064   3.942 -31.490  1.00  0.00     0.162 HD
ENDROOT
BRANCH   1   5
HETATM    5  C   UNL     1      -6.093   3.260 -30.954  1.00  0.00     0.123 C 
BRANCH   5   6
HETATM    6  C   UNL     1      -6.282   1.968 -30.163  1.00  0.00     0.027 C 
BRANCH   6   7
HETATM    7  C   UNL     1      -5.069   1.057 -30.320  1.00  0.00     0.080 C 
BRANCH   7   8
HETATM    8  C   UNL     1      -5.250   0.086 -31.435  1.00  0.00     0.105 A 
HETATM    9  N   UNL     1      -4.308  -0.634 -32.007  1.00  0.00    -0.233 NA
HETATM   10  C   UNL     1      -4.940  -1.353 -32.992  1.00  0.00     0.085 A 
HETATM   11  C   UNL     1      -6.300  -1.070 -33.020  1.00  0.00     0.062 A 
HETATM   12  C   UNL     1      -4.413  -2.274 -33.910  1.00  0.00     0.034 A 
HETATM   13  C   UNL     1      -7.187  -1.654 -33.926  1.00  0.00     0.032 A 
HETATM   14  N   UNL     1      -6.473  -0.155 -32.013  1.00  0.00    -0.343 N 
HETATM   15  C   UNL     1      -6.643  -2.567 -34.838  1.00  0.00     0.002 A 
HETATM   16  C   UNL     1      -5.280  -2.875 -34.831  1.00  0.00     0.002 A 
HETATM   17  H   UNL     1      -7.348   0.272 -31.745  1.00  0.00     0.167 HD
ENDBRANCH   7   8
ENDBRANCH   6   7
ENDBRANCH   5   6
ENDBRANCH   1   5
BRANCH   2  18
HETATM   18  C   UNL     1      -8.519   3.437 -33.816  1.00  0.00     0.152 A 
HETATM   19  N   UNL     1      -8.830   4.725 -34.088  1.00  0.00    -0.169 NA
HETATM   20  N   UNL     1     -10.033   4.662 -34.671  1.00  0.00    -0.281 N 
HETATM   21  H   UNL     1     -10.473   5.531 -34.959  1.00  0.00     0.189 HD
HETATM   22  C   UNL     1     -10.527   3.397 -34.786  1.00  0.00     0.036 A 
HETATM   23  C   UNL     1      -9.563   2.563 -34.251  1.00  0.00     0.002 A 
HETATM   24  C   UNL     1     -11.875   3.128 -35.361  1.00  0.00     0.059 C 
HETATM   25  C   UNL     1      -9.645   1.078 -34.178  1.00  0.00     0.043 C 
HETATM   26  C   UNL     1     -10.858   0.567 -33.398  1.00  0.00     0.005 C 
HETATM   27  C   UNL     1     -12.232   1.150 -33.769  1.00  0.00     0.001 C 
HETATM   28  C   UNL     1     -12.359   1.682 -35.199  1.00  0.00     0.006 C 
ENDBRANCH   2  18
TORSDOF 5
ENDMDL
MODEL 6
REMARK VINA RESULT:      -8.3      2.261      9.445
REMARK  5 active torsions:
REMARK  status: ('A' for Active; 'I' for Inactive)
REMARK    1  A    between atoms: C_6  and  C_7 
REMARK    2  A    between atoms: C_7  and  C_8 
REMARK    3  A    between atoms: C_8  and  C_9 
REMARK    4  A    between atoms: C_9  and  N_10 
REMARK       I    between atoms: N_10  and  C_11 
REMARK    5  A    between atoms: C_11  and  C_12 
ROOT
HETATM    1  N   UNL     1      -5.884   1.935 -33.347  1.00  0.00    -0.356 N 
HETATM    2  C   UNL     1      -6.315   0.895 -32.549  1.00  0.00     0.272 C 
HETATM    3  O   UNL     1      -6.688   1.051 -31.390  1.00  0.00    -0.266 OA
HETATM    4  H   UNL     1      -5.663   1.678 -34.306  1.00  0.00     0.162 HD
ENDROOT
BRANCH   1   5
HETATM    5  C   UNL     1      -5.871   3.310 -32.918  1.00  0.00     0.123 C 
BRANCH   5   6
HETATM    6  C   UNL     1      -4.517   3.969 -33.164  1.00  0.00     0.027 C 
BRANCH   6   7
HETATM    7  C   UNL     1      -3.441   3.338 -32.285  1.00  0.00     0.080 C 
BRANCH   7   8
HETATM    8  C   UNL     1      -2.568   4.370 -31.659  1.00  0.00     0.105 A 
HETATM    9  N   UNL     1      -1.263   4.481 -31.799  1.00  0.00    -0.233 NA
HETATM   10  C   UNL     1      -0.898   5.553 -31.021  1.00  0.00     0.085 A 
HETATM   11  C   UNL     1      -2.006   6.113 -30.395  1.00  0.00     0.062 A 
HETATM   12  C   UNL     1       0.369   6.110 -30.798  1.00  0.00     0.034 A 
HETATM   13  C   UNL     1      -1.928   7.214 -29.539  1.00  0.00     0.032 A 
HETATM   14  N   UNL     1      -3.058   5.345 -30.824  1.00  0.00    -0.343 N 
HETATM   15  C   UNL     1      -0.654   7.754 -29.325  1.00  0.00     0.002 A 
HETATM   16  C   UNL     1       0.477   7.214 -29.943  1.00  0.00     0.002 A 
HETATM   17  H   UNL     1      -4.026   5.471 -30.567  1.00  0.00     0.167 HD
ENDBRANCH   7   8
ENDBRANCH   6   7
ENDBRANCH   5   6
ENDBRANCH   1   5
BRANCH   2  18
HETATM   18  C   UNL     1      -6.287  -0.408 -33.244  1.00  0.00     0.152 A 
HETATM   19  N   UNL     1      -7.416  -0.914 -33.791  1.00  0.00    -0.169 NA
HETATM   20  N   UNL     1      -7.036  -2.086 -34.316  1.00  0.00    -0.281 N 
HETATM   21  H   UNL     1      -7.738  -2.654 -34.781  1.00  0.00     0.189 HD
HETATM   22  C   UNL     1      -5.717  -2.374 -34.131  1.00  0.00     0.036 A 
HETATM   23  C   UNL     1      -5.186  -1.297 -33.445  1.00  0.00     0.002 A 
HETATM   24  C   UNL     1      -5.119  -3.656 -34.597  1.00  0.00     0.059 C 
HETATM   25  C   UNL     1      -3.762  -1.145 -33.038  1.00  0.00     0.043 C 
HETATM   26  C   UNL     1      -3.259  -2.271 -32.132  1.00  0.00     0.005 C 
HETATM   27  C   UNL     1      -3.522  -3.716 -32.591  1.00  0.00     0.001 C 
HETATM   28  C   UNL     1      -3.689  -3.909 -34.101  1.00  0.00     0.006 C 
ENDBRANCH   2  18
TORSDOF 5
ENDMDL
MODEL 7
REMARK VINA RESULT:      -8.2      3.035      4.193
REMARK  5 active torsions:
REMARK  status: ('A' for Active; 'I' for Inactive)
REMARK    1  A    between atoms: C_6  and  C_7 
REMARK    2  A    between atoms: C_7  and  C_8 
REMARK    3  A    between atoms: C_8  and  C_9 
REMARK    4  A    between atoms: C_9  and  N_10 
REMARK       I    between atoms: N_10  and  C_11 
REMARK    5  A    between atoms: C_11  and  C_12 
ROOT
HETATM    1  N   UNL     1      -5.953   2.695 -31.431  1.00  0.00    -0.356 N 
HETATM    2  C   UNL     1      -4.580   2.822 -31.391  1.00  0.00     0.272 C 
HETATM    3  O   UNL     1      -3.816   1.863 -31.473  1.00  0.00    -0.266 OA
HETATM    4  H   UNL     1      -6.466   3.573 -31.416  1.00  0.00     0.162 HD
ENDROOT
BRANCH   1   5
HETATM    5  C   UNL     1      -6.628   1.436 -31.616  1.00  0.00     0.123 C 
BRANCH   5   6
HETATM    6  C   UNL     1      -7.362   1.377 -32.953  1.00  0.00     0.027 C 
BRANCH   6   7
HETATM    7  C   UNL     1      -6.391   1.085 -34.092  1.00  0.00     0.080 C 
BRANCH   7   8
HETATM    8  C   UNL     1      -6.045  -0.362 -34.163  1.00  0.00     0.105 A 
HETATM    9  N   UNL     1      -4.898  -0.911 -33.823  1.00  0.00    -0.233 NA
HETATM   10  C   UNL     1      -5.037  -2.252 -34.083  1.00  0.00     0.085 A 
HETATM   11  C   UNL     1      -6.302  -2.531 -34.591  1.00  0.00     0.062 A 
HETATM   12  C   UNL     1      -4.121  -3.300 -33.913  1.00  0.00     0.034 A 
HETATM   13  C   UNL     1      -6.718  -3.814 -34.950  1.00  0.00     0.032 A 
HETATM   14  N   UNL     1      -6.925  -1.311 -34.624  1.00  0.00    -0.343 N 
HETATM   15  C   UNL     1      -5.789  -4.848 -34.777  1.00  0.00     0.002 A 
HETATM   16  C   UNL     1      -4.512  -4.598 -34.266  1.00  0.00     0.002 A 
HETATM   17  H   UNL     1      -7.870  -1.137 -34.939  1.00  0.00     0.167 HD
ENDBRANCH   7   8
ENDBRANCH   6   7
ENDBRANCH   5   6
ENDBRANCH   1   5
BRANCH   2  18
HETATM   18  C   UNL     1      -4.138   4.225 -31.253  1.00  0.00     0.152 A 
HETATM   19  N   UNL     1      -4.771   5.059 -30.396  1.00  0.00    -0.169 NA
HETATM   20  N   UNL     1      -4.131   6.227 -30.533  1.00  0.00    -0.281 N 
HETATM   21  H   UNL     1      -4.448   7.016 -29.979  1.00  0.00     0.189 HD
HETATM   22  C   UNL     1      -3.116   6.198 -31.443  1.00  0.00     0.036 A 
HETATM   23  C   UNL     1      -3.077   4.904 -31.928  1.00  0.00     0.002 A 
HETATM   24  C   UNL     1      -2.321   7.414 -31.772  1.00  0.00     0.059 C 
HETATM   25  C   UNL     1      -2.109   4.383 -32.933  1.00  0.00     0.043 C 
HETATM   26  C   UNL     1      -2.145   5.133 -34.266  1.00  0.00     0.005 C 
HETATM   27  C   UNL     1      -2.070   6.669 -34.213  1.00  0.00     0.001 C 
HETATM   28  C   UNL     1      -1.383   7.254 -32.976  1.00  0.00     0.006 C 
ENDBRANCH   2  18
TORSDOF 5
ENDMDL
MODEL 8
REMARK VINA RESULT:      -8.2      2.765      8.854
REMARK  5 active torsions:
REMARK  status: ('A' for Active; 'I' for Inactive)
REMARK    1  A    between atoms: C_6  and  C_7 
REMARK    2  A    between atoms: C_7  and  C_8 
REMARK    3  A    between atoms: C_8  and  C_9 
REMARK    4  A    between atoms: C_9  and  N_10 
REMARK       I    between atoms: N_10  and  C_11 
REMARK    5  A    between atoms: C_11  and  C_12 
ROOT
HETATM    1  N   UNL     1      -5.957   2.746 -33.643  1.00  0.00    -0.356 N 
HETATM    2  C   UNL     1      -6.071   1.856 -32.595  1.00  0.00     0.272 C 
HETATM    3  O   UNL     1      -6.875   2.000 -31.678  1.00  0.00    -0.266 OA
HETATM    4  H   UNL     1      -5.296   2.475 -34.367  1.00  0.00     0.162 HD
ENDROOT
BRANCH   1   5
HETATM    5  C   UNL     1      -6.797   3.908 -33.790  1.00  0.00     0.123 C 
BRANCH   5   6
HETATM    6  C   UNL     1      -5.978   5.193 -33.876  1.00  0.00     0.027 C 
BRANCH   6   7
HETATM    7  C   UNL     1      -4.666   4.950 -34.615  1.00  0.00     0.080 C 
BRANCH   7   8
HETATM    8  C   UNL     1      -3.487   5.208 -33.743  1.00  0.00     0.105 A 
HETATM    9  N   UNL     1      -3.044   4.433 -32.775  1.00  0.00    -0.233 NA
HETATM   10  C   UNL     1      -1.963   5.089 -32.241  1.00  0.00     0.085 A 
HETATM   11  C   UNL     1      -1.736   6.292 -32.900  1.00  0.00     0.062 A 
HETATM   12  C   UNL     1      -1.120   4.718 -31.183  1.00  0.00     0.034 A 
HETATM   13  C   UNL     1      -0.703   7.169 -32.562  1.00  0.00     0.032 A 
HETATM   14  N   UNL     1      -2.716   6.340 -33.857  1.00  0.00    -0.343 N 
HETATM   15  C   UNL     1       0.126   6.784 -31.501  1.00  0.00     0.002 A 
HETATM   16  C   UNL     1      -0.076   5.579 -30.821  1.00  0.00     0.002 A 
HETATM   17  H   UNL     1      -2.853   7.083 -34.528  1.00  0.00     0.167 HD
ENDBRANCH   7   8
ENDBRANCH   6   7
ENDBRANCH   5   6
ENDBRANCH   1   5
BRANCH   2  18
HETATM   18  C   UNL     1      -5.136   0.717 -32.707  1.00  0.00     0.152 A 
HETATM   19  N   UNL     1      -3.820   0.886 -32.443  1.00  0.00    -0.169 NA
HETATM   20  N   UNL     1      -3.281  -0.322 -32.651  1.00  0.00    -0.281 N 
HETATM   21  H   UNL     1      -2.280  -0.430 -32.517  1.00  0.00     0.189 HD
HETATM   22  C   UNL     1      -4.179  -1.269 -33.046  1.00  0.00     0.036 A 
HETATM   23  C   UNL     1      -5.407  -0.635 -33.083  1.00  0.00     0.002 A 
HETATM   24  C   UNL     1      -3.761  -2.660 -33.376  1.00  0.00     0.059 C 
HETATM   25  C   UNL     1      -6.703  -1.276 -33.437  1.00  0.00     0.043 C 
HETATM   26  C   UNL     1      -6.719  -1.900 -34.834  1.00  0.00     0.005 C 
HETATM   27  C   UNL     1      -5.553  -2.835 -35.201  1.00  0.00     0.001 C 
HETATM   28  C   UNL     1      -4.857  -3.518 -34.020  1.00  0.00     0.006 C 
ENDBRANCH   2  18
TORSDOF 5
ENDMDL
MODEL 9
REMARK VINA RESULT:      -8.2      2.605      3.729
REMARK  5 active torsions:
REMARK  status: ('A' for Active; 'I' for Inactive)
REMARK    1  A    between atoms: C_6  and  C_7 
REMARK    2  A    between atoms: C_7  and  C_8 
REMARK    3  A    between atoms: C_8  and  C_9 
REMARK    4  A    between atoms: C_9  and  N_10 
REMARK       I    between atoms: N_10  and  C_11 
REMARK    5  A    between atoms: C_11  and  C_12 
ROOT
HETATM    1  N   UNL     1      -3.015   6.761 -32.457  1.00  0.00    -0.356 N 
HETATM    2  C   UNL     1      -2.194   7.866 -32.546  1.00  0.00     0.272 C 
HETATM    3  O   UNL     1      -1.589   8.169 -33.571  1.00  0.00    -0.266 OA
HETATM    4  H   UNL     1      -3.505   6.660 -31.571  1.00  0.00     0.162 HD
ENDROOT
BRANCH   1   5
HETATM    5  C   UNL     1      -3.279   5.878 -33.565  1.00  0.00     0.123 C 
BRANCH   5   6
HETATM    6  C   UNL     1      -2.443   4.604 -33.488  1.00  0.00     0.027 C 
BRANCH   6   7
HETATM    7  C   UNL     1      -2.351   4.104 -32.049  1.00  0.00     0.080 C 
BRANCH   7   8
HETATM    8  C   UNL     1      -3.302   2.987 -31.793  1.00  0.00     0.105 A 
HETATM    9  N   UNL     1      -3.471   1.916 -32.539  1.00  0.00    -0.233 NA
HETATM   10  C   UNL     1      -4.463   1.191 -31.925  1.00  0.00     0.085 A 
HETATM   11  C   UNL     1      -4.907   1.831 -30.774  1.00  0.00     0.062 A 
HETATM   12  C   UNL     1      -5.042  -0.032 -32.296  1.00  0.00     0.034 A 
HETATM   13  C   UNL     1      -5.916   1.322 -29.953  1.00  0.00     0.032 A 
HETATM   14  N   UNL     1      -4.146   2.970 -30.709  1.00  0.00    -0.343 N 
HETATM   15  C   UNL     1      -6.485   0.102 -30.341  1.00  0.00     0.002 A 
HETATM   16  C   UNL     1      -6.056  -0.566 -31.491  1.00  0.00     0.002 A 
HETATM   17  H   UNL     1      -4.200   3.678 -29.990  1.00  0.00     0.167 HD
ENDBRANCH   7   8
ENDBRANCH   6   7
ENDBRANCH   5   6
ENDBRANCH   1   5
BRANCH   2  18
HETATM   18  C   UNL     1      -2.137   8.640 -31.289  1.00  0.00     0.152 A 
HETATM   19  N   UNL     1      -2.693   9.871 -31.220  1.00  0.00    -0.169 NA
HETATM   20  N   UNL     1      -2.451  10.277 -29.967  1.00  0.00    -0.281 N 
HETATM   21  H   UNL     1      -2.778  11.196 -29.688  1.00  0.00     0.189 HD
HETATM   22  C   UNL     1      -1.758   9.373 -29.217  1.00  0.00     0.036 A 
HETATM   23  C   UNL     1      -1.543   8.282 -30.039  1.00  0.00     0.002 A 
HETATM   24  C   UNL     1      -1.348   9.665 -27.815  1.00  0.00     0.059 C 
HETATM   25  C   UNL     1      -0.845   7.027 -29.649  1.00  0.00     0.043 C 
HETATM   26  C   UNL     1       0.592   7.247 -29.171  1.00  0.00     0.005 C 
HETATM   27  C   UNL     1       0.822   8.328 -28.102  1.00  0.00     0.001 C 
HETATM   28  C   UNL     1      -0.382   8.639 -27.208  1.00  0.00     0.006 C 
ENDBRANCH   2  18
TORSDOF 5
ENDMDL
MODEL 10
REMARK VINA RESULT:      -8.2      2.228      9.011
REMARK  5 active torsions:
REMARK  status: ('A' for Active; 'I' for Inactive)
REMARK    1  A    between atoms: C_6  and  C_7 
REMARK    2  A    between atoms: C_7  and  C_8 
REMARK    3  A    between atoms: C_8  and  C_9 
REMARK    4  A    between atoms: C_9  and  N_10 
REMARK       I    between atoms: N_10  and  C_11 
REMARK    5  A    between atoms: C_11  and  C_12 
ROOT
HETATM    1  N   UNL     1      -2.367   4.108 -33.136  1.00  0.00    -0.356 N 
HETATM    2  C   UNL     1      -3.683   3.960 -32.748  1.00  0.00     0.272 C 
HETATM    3  O   UNL     1      -4.493   4.883 -32.766  1.00  0.00    -0.266 OA
HETATM    4  H   UNL     1      -1.819   3.250 -33.133  1.00  0.00     0.162 HD
ENDROOT
BRANCH   1   5
HETATM    5  C   UNL     1      -1.823   5.342 -33.640  1.00  0.00     0.123 C 
BRANCH   5   6
HETATM    6  C   UNL     1      -1.173   6.170 -32.535  1.00  0.00     0.027 C 
BRANCH   6   7
HETATM    7  C   UNL     1      -0.383   5.276 -31.584  1.00  0.00     0.080 C 
BRANCH   7   8
HETATM    8  C   UNL     1      -0.020   5.993 -30.330  1.00  0.00     0.105 A 
HETATM    9  N   UNL     1       0.616   7.143 -30.241  1.00  0.00    -0.233 NA
HETATM   10  C   UNL     1       0.746   7.391 -28.897  1.00  0.00     0.085 A 
HETATM   11  C   UNL     1       0.174   6.371 -28.145  1.00  0.00     0.062 A 
HETATM   12  C   UNL     1       1.348   8.473 -28.237  1.00  0.00     0.034 A 
HETATM   13  C   UNL     1       0.166   6.358 -26.749  1.00  0.00     0.032 A 
HETATM   14  N   UNL     1      -0.314   5.497 -29.083  1.00  0.00    -0.343 N 
HETATM   15  C   UNL     1       0.775   7.444 -26.108  1.00  0.00     0.002 A 
HETATM   16  C   UNL     1       1.356   8.486 -26.837  1.00  0.00     0.002 A 
HETATM   17  H   UNL     1      -0.801   4.633 -28.890  1.00  0.00     0.167 HD
ENDBRANCH   7   8
ENDBRANCH   6   7
ENDBRANCH   5   6
ENDBRANCH   1   5
BRANCH   2  18
HETATM   18  C   UNL     1      -4.005   2.581 -32.327  1.00  0.00     0.152 A 
HETATM   19  N   UNL     1      -3.149   1.890 -31.540  1.00  0.00    -0.169 NA
HETATM   20  N   UNL     1      -3.739   0.700 -31.368  1.00  0.00    -0.281 N 
HETATM   21  H   UNL     1      -3.261   0.004 -30.805  1.00  0.00     0.189 HD
HETATM   22  C   UNL     1      -4.935   0.578 -32.012  1.00  0.00     0.036 A 
HETATM   23  C   UNL     1      -5.153   1.791 -32.641  1.00  0.00     0.002 A 
HETATM   24  C   UNL     1      -5.717  -0.689 -31.983  1.00  0.00     0.059 C 
HETATM   25  C   UNL     1      -6.351   2.143 -33.451  1.00  0.00     0.043 C 
HETATM   26  C   UNL     1      -6.581   1.214 -34.645  1.00  0.00     0.005 C 
HETATM   27  C   UNL     1      -6.558  -0.300 -34.375  1.00  0.00     0.001 C 
HETATM   28  C   UNL     1      -6.912  -0.721 -32.945  1.00  0.00     0.006 C 
ENDBRANCH   2  18
TORSDOF 5
ENDMDL
