MODEL 1
REMARK VINA RESULT:      -9.8      0.000      0.000
REMARK  7 active torsions:
REMARK  status: ('A' for Active; 'I' for Inactive)
REMARK    1  A    between atoms: C_2  and  C_3 
REMARK    2  A    between atoms: C_3  and  C_4 
REMARK    3  A    between atoms: C_7  and  C_8 
REMARK    4  A    between atoms: C_14  and  C_15 
REMARK    5  A    between atoms: C_18  and  O_19 
REMARK    6  A    between atoms: O_19  and  C_20 
REMARK       I    between atoms: C_20  and  N_21 
REMARK    7  A    between atoms: C_33  and  N_34 
ROOT
HETATM    1  C   UNL     1      -9.028   1.590 -33.246  1.00  0.00     0.099 A 
HETATM    2  N   UNL     1     -10.169   1.685 -33.961  1.00  0.00    -0.172 NA
HETATM    3  N   UNL     1     -10.831   2.724 -33.424  1.00  0.00    -0.256 N 
HETATM    4  H   UNL     1     -11.738   2.974 -33.801  1.00  0.00     0.191 HD
HETATM    5  C   UNL     1     -10.150   3.313 -32.414  1.00  0.00     0.175 A 
HETATM    6  C   UNL     1      -8.976   2.618 -32.261  1.00  0.00     0.040 A 
HETATM    7  C   UNL     1      -8.007   3.047 -31.210  1.00  0.00     0.106 A 
HETATM    8  C   UNL     1      -8.562   4.229 -30.409  1.00  0.00     0.081 A 
HETATM    9  C   UNL     1      -7.785   4.668 -29.297  1.00  0.00     0.100 C 
HETATM   10  N   UNL     1      -7.161   5.025 -28.387  1.00  0.00    -0.191 NA
HETATM   11  C   UNL     1      -9.761   4.811 -30.683  1.00  0.00     0.140 A 
HETATM   12  O   UNL     1     -10.582   4.367 -31.732  1.00  0.00    -0.279 OA
ENDROOT
BRANCH   7  13
HETATM   13  C   UNL     1      -6.695   3.375 -31.913  1.00  0.00    -0.044 A 
HETATM   14  C   UNL     1      -5.484   2.725 -31.605  1.00  0.00     0.011 A 
HETATM   15  C   UNL     1      -4.306   3.050 -32.283  1.00  0.00     0.038 A 
HETATM   16  C   UNL     1      -4.339   4.003 -33.296  1.00  0.00     0.081 A 
HETATM   17  C   UNL     1      -5.522   4.658 -33.625  1.00  0.00     0.038 A 
HETATM   18  C   UNL     1      -6.696   4.333 -32.945  1.00  0.00     0.011 A 
BRANCH  16  19
HETATM   19  O   UNL     1      -3.118   4.353 -33.892  1.00  0.00    -0.261 OA
BRANCH  19  20
HETATM   20  C   UNL     1      -2.738   5.694 -33.860  1.00  0.00     0.368 C 
HETATM   21  N   UNL     1      -1.850   5.963 -32.829  1.00  0.00    -0.324 N 
HETATM   22  C   UNL     1      -1.197   7.269 -32.784  1.00  0.00     0.154 C 
HETATM   23  C   UNL     1      -1.194   4.912 -32.051  1.00  0.00     0.154 C 
HETATM   24  C   UNL     1      -0.826   7.658 -31.351  1.00  0.00     0.187 C 
HETATM   25  O   UNL     1      -0.060   6.623 -30.715  1.00  0.00    -0.388 OA
HETATM   26  C   UNL     1      -0.820   5.408 -30.651  1.00  0.00     0.187 C 
HETATM   27  O   UNL     1      -3.140   6.549 -34.643  1.00  0.00    -0.238 OA
ENDBRANCH  19  20
ENDBRANCH  16  19
ENDBRANCH   7  13
BRANCH  11  28
HETATM   28  N   UNL     1     -10.314   5.865 -29.990  1.00  0.00    -0.282 NA
HETATM   29  H   UNL     1     -11.208   5.675 -29.543  1.00  0.00     0.126 HD
HETATM   30  H   UNL     1      -9.644   6.309 -29.368  1.00  0.00     0.126 HD
ENDBRANCH  11  28
BRANCH   1  31
HETATM   31  C   UNL     1      -8.044   0.554 -33.568  1.00  0.00    -0.005 A 
HETATM   32  C   UNL     1      -7.764   0.257 -34.910  1.00  0.00     0.014 A 
HETATM   33  C   UNL     1      -6.819  -0.714 -35.248  1.00  0.00     0.008 A 
HETATM   34  C   UNL     1      -6.130  -1.409 -34.249  1.00  0.00    -0.058 A 
HETATM   35  C   UNL     1      -6.417  -1.127 -32.908  1.00  0.00     0.008 A 
HETATM   36  C   UNL     1      -7.373  -0.161 -32.571  1.00  0.00     0.014 A 
BRANCH  34  37
HETATM   37  C   UNL     1      -5.089  -2.440 -34.614  1.00  0.00     0.042 C 
BRANCH  37  38
HETATM   38  C   UNL     1      -5.520  -3.890 -34.317  1.00  0.00    -0.019 C 
HETATM   39  C   UNL     1      -4.322  -4.816 -34.094  1.00  0.00     0.010 C 
HETATM   40  C   UNL     1      -6.371  -4.421 -35.474  1.00  0.00     0.010 C 
ENDBRANCH  37  38
ENDBRANCH  34  37
ENDBRANCH   1  31
TORSDOF 7
ENDMDL
MODEL 2
REMARK VINA RESULT:      -9.3      2.969      7.193
REMARK  7 active torsions:
REMARK  status: ('A' for Active; 'I' for Inactive)
REMARK    1  A    between atoms: C_2  and  C_3 
REMARK    2  A    between atoms: C_3  and  C_4 
REMARK    3  A    between atoms: C_7  and  C_8 
REMARK    4  A    between atoms: C_14  and  C_15 
REMARK    5  A    between atoms: C_18  and  O_19 
REMARK    6  A    between atoms: O_19  and  C_20 
REMARK       I    between atoms: C_20  and  N_21 
REMARK    7  A    between atoms: C_33  and  N_34 
ROOT
HETATM    1  C   UNL     1      -8.934   4.395 -31.415  1.00  0.00     0.099 A 
HETATM    2  N   UNL     1      -9.293   4.811 -30.182  1.00  0.00    -0.172 NA
HETATM    3  N   UNL     1     -10.634   4.728 -30.164  1.00  0.00    -0.256 N 
HETATM    4  H   UNL     1     -11.130   5.009 -29.326  1.00  0.00     0.191 HD
HETATM    5  C   UNL     1     -11.146   4.253 -31.324  1.00  0.00     0.175 A 
HETATM    6  C   UNL     1     -10.086   4.020 -32.165  1.00  0.00     0.040 A 
HETATM    7  C   UNL     1     -10.346   3.482 -33.532  1.00  0.00     0.106 A 
HETATM    8  C   UNL     1     -11.850   3.329 -33.779  1.00  0.00     0.081 A 
HETATM    9  C   UNL     1     -12.246   2.929 -35.089  1.00  0.00     0.100 C 
HETATM   10  N   UNL     1     -12.573   2.612 -36.156  1.00  0.00    -0.191 NA
HETATM   11  C   UNL     1     -12.788   3.611 -32.834  1.00  0.00     0.140 A 
HETATM   12  O   UNL     1     -12.439   4.064 -31.551  1.00  0.00    -0.279 OA
ENDROOT
BRANCH   7  13
HETATM   13  C   UNL     1      -9.592   2.163 -33.649  1.00  0.00    -0.044 A 
HETATM   14  C   UNL     1      -9.888   1.043 -32.850  1.00  0.00     0.011 A 
HETATM   15  C   UNL     1      -9.177  -0.151 -33.000  1.00  0.00     0.038 A 
HETATM   16  C   UNL     1      -8.187  -0.241 -33.974  1.00  0.00     0.081 A 
HETATM   17  C   UNL     1      -7.876   0.849 -34.781  1.00  0.00     0.038 A 
HETATM   18  C   UNL     1      -8.586   2.040 -34.628  1.00  0.00     0.011 A 
BRANCH  16  19
HETATM   19  O   UNL     1      -7.446  -1.431 -34.033  1.00  0.00    -0.261 OA
BRANCH  19  20
HETATM   20  C   UNL     1      -6.176  -1.438 -33.460  1.00  0.00     0.368 C 
HETATM   21  N   UNL     1      -5.453  -2.572 -33.799  1.00  0.00    -0.324 N 
HETATM   22  C   UNL     1      -4.035  -2.635 -33.452  1.00  0.00     0.154 C 
HETATM   23  C   UNL     1      -5.879  -3.501 -34.845  1.00  0.00     0.154 C 
HETATM   24  C   UNL     1      -3.570  -4.080 -33.264  1.00  0.00     0.187 C 
HETATM   25  O   UNL     1      -3.907  -4.885 -34.405  1.00  0.00    -0.388 OA
HETATM   26  C   UNL     1      -5.329  -4.909 -34.597  1.00  0.00     0.187 C 
HETATM   27  O   UNL     1      -5.737  -0.554 -32.730  1.00  0.00    -0.238 OA
ENDBRANCH  19  20
ENDBRANCH  16  19
ENDBRANCH   7  13
BRANCH  11  28
HETATM   28  N   UNL     1     -14.150   3.504 -33.003  1.00  0.00    -0.282 NA
HETATM   29  H   UNL     1     -14.661   3.113 -32.215  1.00  0.00     0.126 HD
HETATM   30  H   UNL     1     -14.562   4.364 -33.356  1.00  0.00     0.126 HD
ENDBRANCH  11  28
BRANCH   1  31
HETATM   31  C   UNL     1      -7.518   4.345 -31.789  1.00  0.00    -0.005 A 
HETATM   32  C   UNL     1      -6.769   3.192 -31.513  1.00  0.00     0.014 A 
HETATM   33  C   UNL     1      -5.422   3.108 -31.873  1.00  0.00     0.008 A 
HETATM   34  C   UNL     1      -4.795   4.177 -32.521  1.00  0.00    -0.058 A 
HETATM   35  C   UNL     1      -5.535   5.336 -32.785  1.00  0.00     0.008 A 
HETATM   36  C   UNL     1      -6.881   5.423 -32.414  1.00  0.00     0.014 A 
BRANCH  34  37
HETATM   37  C   UNL     1      -3.346   4.077 -32.934  1.00  0.00     0.042 C 
BRANCH  37  38
HETATM   38  C   UNL     1      -2.767   5.392 -33.493  1.00  0.00    -0.019 C 
HETATM   39  C   UNL     1      -2.070   5.191 -34.841  1.00  0.00     0.010 C 
HETATM   40  C   UNL     1      -1.778   5.987 -32.487  1.00  0.00     0.010 C 
ENDBRANCH  37  38
ENDBRANCH  34  37
ENDBRANCH   1  31
TORSDOF 7
ENDMDL
MODEL 3
REMARK VINA RESULT:      -9.0      2.973      6.526
REMARK  7 active torsions:
REMARK  status: ('A' for Active; 'I' for Inactive)
REMARK    1  A    between atoms: C_2  and  C_3 
REMARK    2  A    between atoms: C_3  and  C_4 
REMARK    3  A    between atoms: C_7  and  C_8 
REMARK    4  A    between atoms: C_14  and  C_15 
REMARK    5  A    between atoms: C_18  and  O_19 
REMARK    6  A    between atoms: O_19  and  C_20 
REMARK       I    between atoms: C_20  and  N_21 
REMARK    7  A    between atoms: C_33  and  N_34 
ROOT
HETATM    1  C   UNL     1      -8.858   4.647 -31.773  1.00  0.00     0.099 A 
HETATM    2  N   UNL     1      -9.203   5.207 -30.594  1.00  0.00    -0.172 NA
HETATM    3  N   UNL     1     -10.544   5.129 -30.551  1.00  0.00    -0.256 N 
HETATM    4  H   UNL     1     -11.030   5.509 -29.746  1.00  0.00     0.191 HD
HETATM    5  C   UNL     1     -11.069   4.520 -31.639  1.00  0.00     0.175 A 
HETATM    6  C   UNL     1     -10.020   4.187 -32.459  1.00  0.00     0.040 A 
HETATM    7  C   UNL     1     -10.297   3.490 -33.749  1.00  0.00     0.106 A 
HETATM    8  C   UNL     1     -11.803   3.311 -33.958  1.00  0.00     0.081 A 
HETATM    9  C   UNL     1     -12.215   2.758 -35.206  1.00  0.00     0.100 C 
HETATM   10  N   UNL     1     -12.556   2.317 -36.223  1.00  0.00    -0.191 NA
HETATM   11  C   UNL     1     -12.729   3.706 -33.042  1.00  0.00     0.140 A 
HETATM   12  O   UNL     1     -12.365   4.308 -31.827  1.00  0.00    -0.279 OA
ENDROOT
BRANCH   7  13
HETATM   13  C   UNL     1      -9.544   2.165 -33.717  1.00  0.00    -0.044 A 
HETATM   14  C   UNL     1      -8.467   1.881 -34.578  1.00  0.00     0.011 A 
HETATM   15  C   UNL     1      -7.798   0.656 -34.506  1.00  0.00     0.038 A 
HETATM   16  C   UNL     1      -8.181  -0.279 -33.549  1.00  0.00     0.081 A 
HETATM   17  C   UNL     1      -9.239  -0.023 -32.682  1.00  0.00     0.038 A 
HETATM   18  C   UNL     1      -9.906   1.199 -32.758  1.00  0.00     0.011 A 
BRANCH  16  19
HETATM   19  O   UNL     1      -7.534  -1.524 -33.569  1.00  0.00    -0.261 OA
BRANCH  19  20
HETATM   20  C   UNL     1      -6.196  -1.556 -33.957  1.00  0.00     0.368 C 
HETATM   21  N   UNL     1      -5.350  -1.080 -32.966  1.00  0.00    -0.324 N 
HETATM   22  C   UNL     1      -3.908  -1.239 -33.132  1.00  0.00     0.154 C 
HETATM   23  C   UNL     1      -5.795  -0.834 -31.594  1.00  0.00     0.154 C 
HETATM   24  C   UNL     1      -3.135  -0.149 -32.386  1.00  0.00     0.187 C 
HETATM   25  O   UNL     1      -3.539  -0.079 -31.009  1.00  0.00    -0.388 OA
HETATM   26  C   UNL     1      -4.936   0.237 -30.914  1.00  0.00     0.187 C 
HETATM   27  O   UNL     1      -5.797  -1.951 -35.048  1.00  0.00    -0.238 OA
ENDBRANCH  19  20
ENDBRANCH  16  19
ENDBRANCH   7  13
BRANCH  11  28
HETATM   28  N   UNL     1     -14.094   3.581 -33.181  1.00  0.00    -0.282 NA
HETATM   29  H   UNL     1     -14.509   2.771 -32.727  1.00  0.00     0.126 HD
HETATM   30  H   UNL     1     -14.582   4.448 -32.969  1.00  0.00     0.126 HD
ENDBRANCH  11  28
BRANCH   1  31
HETATM   31  C   UNL     1      -7.447   4.549 -32.156  1.00  0.00    -0.005 A 
HETATM   32  C   UNL     1      -7.019   5.104 -33.370  1.00  0.00     0.014 A 
HETATM   33  C   UNL     1      -5.677   5.041 -33.754  1.00  0.00     0.008 A 
HETATM   34  C   UNL     1      -4.733   4.423 -32.928  1.00  0.00    -0.058 A 
HETATM   35  C   UNL     1      -5.159   3.855 -31.721  1.00  0.00     0.008 A 
HETATM   36  C   UNL     1      -6.506   3.909 -31.343  1.00  0.00     0.014 A 
BRANCH  34  37
HETATM   37  C   UNL     1      -3.279   4.379 -33.330  1.00  0.00     0.042 C 
BRANCH  37  38
HETATM   38  C   UNL     1      -2.813   5.622 -34.113  1.00  0.00    -0.019 C 
HETATM   39  C   UNL     1      -1.545   5.353 -34.927  1.00  0.00     0.010 C 
HETATM   40  C   UNL     1      -2.562   6.779 -33.141  1.00  0.00     0.010 C 
ENDBRANCH  37  38
ENDBRANCH  34  37
ENDBRANCH   1  31
TORSDOF 7
ENDMDL
MODEL 4
REMARK VINA RESULT:      -8.9      1.321      2.049
REMARK  7 active torsions:
REMARK  status: ('A' for Active; 'I' for Inactive)
REMARK    1  A    between atoms: C_2  and  C_3 
REMARK    2  A    between atoms: C_3  and  C_4 
REMARK    3  A    between atoms: C_7  and  C_8 
REMARK    4  A    between atoms: C_14  and  C_15 
REMARK    5  A    between atoms: C_18  and  O_19 
REMARK    6  A    between atoms: O_19  and  C_20 
REMARK       I    between atoms: C_20  and  N_21 
REMARK    7  A    between atoms: C_33  and  N_34 
ROOT
HETATM    1  C   UNL     1      -9.639   1.668 -33.712  1.00  0.00     0.099 A 
HETATM    2  N   UNL     1     -10.651   1.515 -34.593  1.00  0.00    -0.172 NA
HETATM    3  N   UNL     1     -11.502   2.519 -34.323  1.00  0.00    -0.256 N 
HETATM    4  H   UNL     1     -12.357   2.593 -34.863  1.00  0.00     0.191 HD
HETATM    5  C   UNL     1     -11.066   3.323 -33.325  1.00  0.00     0.175 A 
HETATM    6  C   UNL     1      -9.864   2.816 -32.898  1.00  0.00     0.040 A 
HETATM    7  C   UNL     1      -9.135   3.507 -31.794  1.00  0.00     0.106 A 
HETATM    8  C   UNL     1      -9.940   4.700 -31.272  1.00  0.00     0.081 A 
HETATM    9  C   UNL     1      -9.411   5.383 -30.139  1.00  0.00     0.100 C 
HETATM   10  N   UNL     1      -8.988   5.937 -29.211  1.00  0.00    -0.191 NA
HETATM   11  C   UNL     1     -11.136   5.075 -31.805  1.00  0.00     0.140 A 
HETATM   12  O   UNL     1     -11.718   4.390 -32.883  1.00  0.00    -0.279 OA
ENDROOT
BRANCH   7  13
HETATM   13  C   UNL     1      -7.769   3.910 -32.338  1.00  0.00    -0.044 A 
HETATM   14  C   UNL     1      -7.610   4.835 -33.387  1.00  0.00     0.011 A 
HETATM   15  C   UNL     1      -6.337   5.183 -33.846  1.00  0.00     0.038 A 
HETATM   16  C   UNL     1      -5.213   4.633 -33.236  1.00  0.00     0.081 A 
HETATM   17  C   UNL     1      -5.341   3.719 -32.194  1.00  0.00     0.038 A 
HETATM   18  C   UNL     1      -6.613   3.372 -31.739  1.00  0.00     0.011 A 
BRANCH  16  19
HETATM   19  O   UNL     1      -3.962   4.951 -33.784  1.00  0.00    -0.261 OA
BRANCH  19  20
HETATM   20  C   UNL     1      -2.824   4.500 -33.115  1.00  0.00     0.368 C 
HETATM   21  N   UNL     1      -2.146   5.530 -32.481  1.00  0.00    -0.324 N 
HETATM   22  C   UNL     1      -1.054   5.200 -31.569  1.00  0.00     0.154 C 
HETATM   23  C   UNL     1      -2.711   6.869 -32.315  1.00  0.00     0.154 C 
HETATM   24  C   UNL     1      -0.028   6.332 -31.492  1.00  0.00     0.187 C 
HETATM   25  O   UNL     1      -0.660   7.584 -31.183  1.00  0.00    -0.388 OA
HETATM   26  C   UNL     1      -1.610   7.928 -32.202  1.00  0.00     0.187 C 
HETATM   27  O   UNL     1      -2.450   3.332 -33.089  1.00  0.00    -0.238 OA
ENDBRANCH  19  20
ENDBRANCH  16  19
ENDBRANCH   7  13
BRANCH  11  28
HETATM   28  N   UNL     1     -11.908   6.129 -31.370  1.00  0.00    -0.282 NA
HETATM   29  H   UNL     1     -11.912   6.948 -31.973  1.00  0.00     0.126 HD
HETATM   30  H   UNL     1     -12.841   5.833 -31.095  1.00  0.00     0.126 HD
ENDBRANCH  11  28
BRANCH   1  31
HETATM   31  C   UNL     1      -8.507   0.739 -33.725  1.00  0.00    -0.005 A 
HETATM   32  C   UNL     1      -7.840   0.476 -34.929  1.00  0.00     0.014 A 
HETATM   33  C   UNL     1      -6.747  -0.393 -34.970  1.00  0.00     0.008 A 
HETATM   34  C   UNL     1      -6.295  -1.016 -33.802  1.00  0.00    -0.058 A 
HETATM   35  C   UNL     1      -6.966  -0.767 -32.599  1.00  0.00     0.008 A 
HETATM   36  C   UNL     1      -8.069   0.095 -32.563  1.00  0.00     0.014 A 
BRANCH  34  37
HETATM   37  C   UNL     1      -5.097  -1.934 -33.840  1.00  0.00     0.042 C 
BRANCH  37  38
HETATM   38  C   UNL     1      -4.172  -1.799 -32.614  1.00  0.00    -0.019 C 
HETATM   39  C   UNL     1      -3.216  -0.610 -32.736  1.00  0.00     0.010 C 
HETATM   40  C   UNL     1      -3.366  -3.089 -32.433  1.00  0.00     0.010 C 
ENDBRANCH  37  38
ENDBRANCH  34  37
ENDBRANCH   1  31
TORSDOF 7
ENDMDL
MODEL 5
REMARK VINA RESULT:      -8.7      2.170      3.344
REMARK  7 active torsions:
REMARK  status: ('A' for Active; 'I' for Inactive)
REMARK    1  A    between atoms: C_2  and  C_3 
REMARK    2  A    between atoms: C_3  and  C_4 
REMARK    3  A    between atoms: C_7  and  C_8 
REMARK    4  A    between atoms: C_14  and  C_15 
REMARK    5  A    between atoms: C_18  and  O_19 
REMARK    6  A    between atoms: O_19  and  C_20 
REMARK       I    between atoms: C_20  and  N_21 
REMARK    7  A    between atoms: C_33  and  N_34 
ROOT
HETATM    1  C   UNL     1     -10.745   1.594 -33.810  1.00  0.00     0.099 A 
HETATM    2  N   UNL     1     -11.446   1.097 -34.851  1.00  0.00    -0.172 NA
HETATM    3  N   UNL     1     -12.518   1.899 -34.964  1.00  0.00    -0.256 N 
HETATM    4  H   UNL     1     -13.202   1.702 -35.685  1.00  0.00     0.191 HD
HETATM    5  C   UNL     1     -12.519   2.903 -34.057  1.00  0.00     0.175 A 
HETATM    6  C   UNL     1     -11.392   2.752 -33.288  1.00  0.00     0.040 A 
HETATM    7  C   UNL     1     -11.121   3.729 -32.193  1.00  0.00     0.106 A 
HETATM    8  C   UNL     1     -12.252   4.756 -32.089  1.00  0.00     0.081 A 
HETATM    9  C   UNL     1     -12.176   5.684 -31.008  1.00  0.00     0.100 C 
HETATM   10  N   UNL     1     -12.123   6.436 -30.126  1.00  0.00    -0.191 NA
HETATM   11  C   UNL     1     -13.319   4.770 -32.933  1.00  0.00     0.140 A 
HETATM   12  O   UNL     1     -13.459   3.836 -33.971  1.00  0.00    -0.279 OA
ENDROOT
BRANCH   7  13
HETATM   13  C   UNL     1      -9.768   4.368 -32.483  1.00  0.00    -0.044 A 
HETATM   14  C   UNL     1      -9.534   5.177 -33.611  1.00  0.00     0.011 A 
HETATM   15  C   UNL     1      -8.280   5.752 -33.831  1.00  0.00     0.038 A 
HETATM   16  C   UNL     1      -7.260   5.548 -32.905  1.00  0.00     0.081 A 
HETATM   17  C   UNL     1      -7.465   4.757 -31.779  1.00  0.00     0.038 A 
HETATM   18  C   UNL     1      -8.717   4.183 -31.563  1.00  0.00     0.011 A 
BRANCH  16  19
HETATM   19  O   UNL     1      -5.998   6.078 -33.210  1.00  0.00    -0.261 OA
BRANCH  19  20
HETATM   20  C   UNL     1      -5.115   5.283 -33.939  1.00  0.00     0.368 C 
HETATM   21  N   UNL     1      -3.794   5.667 -33.762  1.00  0.00    -0.324 N 
HETATM   22  C   UNL     1      -2.734   4.811 -34.290  1.00  0.00     0.154 C 
HETATM   23  C   UNL     1      -3.374   6.611 -32.727  1.00  0.00     0.154 C 
HETATM   24  C   UNL     1      -1.477   5.618 -34.620  1.00  0.00     0.187 C 
HETATM   25  O   UNL     1      -1.057   6.407 -33.495  1.00  0.00    -0.388 OA
HETATM   26  C   UNL     1      -2.085   7.337 -33.126  1.00  0.00     0.187 C 
HETATM   27  O   UNL     1      -5.454   4.353 -34.665  1.00  0.00    -0.238 OA
ENDBRANCH  19  20
ENDBRANCH  16  19
ENDBRANCH   7  13
BRANCH  11  28
HETATM   28  N   UNL     1     -14.369   5.660 -32.879  1.00  0.00    -0.282 NA
HETATM   29  H   UNL     1     -15.282   5.276 -33.110  1.00  0.00     0.126 HD
HETATM   30  H   UNL     1     -14.371   6.199 -32.016  1.00  0.00     0.126 HD
ENDBRANCH  11  28
BRANCH   1  31
HETATM   31  C   UNL     1      -9.488   0.963 -33.402  1.00  0.00    -0.005 A 
HETATM   32  C   UNL     1      -8.519   0.659 -34.369  1.00  0.00     0.014 A 
HETATM   33  C   UNL     1      -7.304   0.072 -34.008  1.00  0.00     0.008 A 
HETATM   34  C   UNL     1      -7.031  -0.222 -32.668  1.00  0.00    -0.058 A 
HETATM   35  C   UNL     1      -8.001   0.066 -31.701  1.00  0.00     0.008 A 
HETATM   36  C   UNL     1      -9.223   0.643 -32.066  1.00  0.00     0.014 A 
BRANCH  34  37
HETATM   37  C   UNL     1      -5.707  -0.832 -32.274  1.00  0.00     0.042 C 
BRANCH  37  38
HETATM   38  C   UNL     1      -4.710  -0.959 -33.443  1.00  0.00    -0.019 C 
HETATM   39  C   UNL     1      -4.519  -2.411 -33.887  1.00  0.00     0.010 C 
HETATM   40  C   UNL     1      -3.358  -0.366 -33.032  1.00  0.00     0.010 C 
ENDBRANCH  37  38
ENDBRANCH  34  37
ENDBRANCH   1  31
TORSDOF 7
ENDMDL
MODEL 6
REMARK VINA RESULT:      -8.7      3.886      8.059
REMARK  7 active torsions:
REMARK  status: ('A' for Active; 'I' for Inactive)
REMARK    1  A    between atoms: C_2  and  C_3 
REMARK    2  A    between atoms: C_3  and  C_4 
REMARK    3  A    between atoms: C_7  and  C_8 
REMARK    4  A    between atoms: C_14  and  C_15 
REMARK    5  A    between atoms: C_18  and  O_19 
REMARK    6  A    between atoms: O_19  and  C_20 
REMARK       I    between atoms: C_20  and  N_21 
REMARK    7  A    between atoms: C_33  and  N_34 
ROOT
HETATM    1  C   UNL     1      -3.127   5.470 -33.353  1.00  0.00     0.099 A 
HETATM    2  N   UNL     1      -2.991   5.631 -34.687  1.00  0.00    -0.172 NA
HETATM    3  N   UNL     1      -4.125   5.138 -35.214  1.00  0.00    -0.256 N 
HETATM    4  H   UNL     1      -4.238   5.143 -36.221  1.00  0.00     0.191 HD
HETATM    5  C   UNL     1      -4.990   4.692 -34.273  1.00  0.00     0.175 A 
HETATM    6  C   UNL     1      -4.392   4.887 -33.053  1.00  0.00     0.040 A 
HETATM    7  C   UNL     1      -5.121   4.489 -31.814  1.00  0.00     0.106 A 
HETATM    8  C   UNL     1      -6.468   3.846 -32.157  1.00  0.00     0.081 A 
HETATM    9  C   UNL     1      -7.220   3.316 -31.069  1.00  0.00     0.100 C 
HETATM   10  N   UNL     1      -7.833   2.875 -30.187  1.00  0.00    -0.191 NA
HETATM   11  C   UNL     1      -6.922   3.718 -33.434  1.00  0.00     0.140 A 
HETATM   12  O   UNL     1      -6.182   4.174 -34.537  1.00  0.00    -0.279 OA
ENDROOT
BRANCH   7  13
HETATM   13  C   UNL     1      -5.266   5.739 -30.954  1.00  0.00    -0.044 A 
HETATM   14  C   UNL     1      -5.984   6.874 -31.376  1.00  0.00     0.011 A 
HETATM   15  C   UNL     1      -6.100   7.995 -30.550  1.00  0.00     0.038 A 
HETATM   16  C   UNL     1      -5.528   7.974 -29.281  1.00  0.00     0.081 A 
HETATM   17  C   UNL     1      -4.817   6.863 -28.836  1.00  0.00     0.038 A 
HETATM   18  C   UNL     1      -4.701   5.747 -29.664  1.00  0.00     0.011 A 
BRANCH  16  19
HETATM   19  O   UNL     1      -5.602   9.150 -28.521  1.00  0.00    -0.261 OA
BRANCH  19  20
HETATM   20  C   UNL     1      -5.859   9.029 -27.156  1.00  0.00     0.368 C 
HETATM   21  N   UNL     1      -4.718   9.211 -26.389  1.00  0.00    -0.324 N 
HETATM   22  C   UNL     1      -4.853   9.321 -24.939  1.00  0.00     0.154 C 
HETATM   23  C   UNL     1      -3.467   9.733 -26.939  1.00  0.00     0.154 C 
HETATM   24  C   UNL     1      -3.585   8.853 -24.222  1.00  0.00     0.187 C 
HETATM   25  O   UNL     1      -2.423   9.526 -24.733  1.00  0.00    -0.388 OA
HETATM   26  C   UNL     1      -2.259   9.248 -26.131  1.00  0.00     0.187 C 
HETATM   27  O   UNL     1      -6.960   8.782 -26.675  1.00  0.00    -0.238 OA
ENDBRANCH  19  20
ENDBRANCH  16  19
ENDBRANCH   7  13
BRANCH  11  28
HETATM   28  N   UNL     1      -8.116   3.139 -33.803  1.00  0.00    -0.282 NA
HETATM   29  H   UNL     1      -8.248   2.176 -33.502  1.00  0.00     0.126 HD
HETATM   30  H   UNL     1      -8.913   3.735 -33.591  1.00  0.00     0.126 HD
ENDBRANCH  11  28
BRANCH   1  31
HETATM   31  C   UNL     1      -2.064   5.914 -32.448  1.00  0.00    -0.005 A 
HETATM   32  C   UNL     1      -2.102   7.212 -31.920  1.00  0.00     0.014 A 
HETATM   33  C   UNL     1      -1.112   7.658 -31.041  1.00  0.00     0.008 A 
HETATM   34  C   UNL     1      -0.061   6.812 -30.670  1.00  0.00    -0.058 A 
HETATM   35  C   UNL     1      -0.012   5.520 -31.207  1.00  0.00     0.008 A 
HETATM   36  C   UNL     1      -0.998   5.079 -32.096  1.00  0.00     0.014 A 
BRANCH  34  37
HETATM   37  C   UNL     1       0.994   7.284 -29.699  1.00  0.00     0.042 C 
BRANCH  37  38
HETATM   38  C   UNL     1       0.431   7.709 -28.328  1.00  0.00    -0.019 C 
HETATM   39  C   UNL     1       1.445   8.513 -27.510  1.00  0.00     0.010 C 
HETATM   40  C   UNL     1       0.006   6.467 -27.540  1.00  0.00     0.010 C 
ENDBRANCH  37  38
ENDBRANCH  34  37
ENDBRANCH   1  31
TORSDOF 7
ENDMDL
MODEL 7
REMARK VINA RESULT:      -8.4      2.979      7.316
REMARK  7 active torsions:
REMARK  status: ('A' for Active; 'I' for Inactive)
REMARK    1  A    between atoms: C_2  and  C_3 
REMARK    2  A    between atoms: C_3  and  C_4 
REMARK    3  A    between atoms: C_7  and  C_8 
REMARK    4  A    between atoms: C_14  and  C_15 
REMARK    5  A    between atoms: C_18  and  O_19 
REMARK    6  A    between atoms: O_19  and  C_20 
REMARK       I    between atoms: C_20  and  N_21 
REMARK    7  A    between atoms: C_33  and  N_34 
ROOT
HETATM    1  C   UNL     1      -5.896   1.270 -31.666  1.00  0.00     0.099 A 
HETATM    2  N   UNL     1      -5.347   0.539 -30.674  1.00  0.00    -0.172 NA
HETATM    3  N   UNL     1      -4.122   1.060 -30.494  1.00  0.00    -0.256 N 
HETATM    4  H   UNL     1      -3.513   0.650 -29.795  1.00  0.00     0.191 HD
HETATM    5  C   UNL     1      -3.874   2.109 -31.312  1.00  0.00     0.175 A 
HETATM    6  C   UNL     1      -4.992   2.286 -32.088  1.00  0.00     0.040 A 
HETATM    7  C   UNL     1      -5.012   3.388 -33.095  1.00  0.00     0.106 A 
HETATM    8  C   UNL     1      -3.674   4.133 -33.113  1.00  0.00     0.081 A 
HETATM    9  C   UNL     1      -3.515   5.140 -34.110  1.00  0.00     0.100 C 
HETATM   10  N   UNL     1      -3.379   5.955 -34.923  1.00  0.00    -0.191 NA
HETATM   11  C   UNL     1      -2.646   3.829 -32.273  1.00  0.00     0.140 A 
HETATM   12  O   UNL     1      -2.743   2.804 -31.319  1.00  0.00    -0.279 OA
ENDROOT
BRANCH   7  13
HETATM   13  C   UNL     1      -6.187   4.295 -32.748  1.00  0.00    -0.044 A 
HETATM   14  C   UNL     1      -6.259   5.021 -31.544  1.00  0.00     0.011 A 
HETATM   15  C   UNL     1      -7.351   5.850 -31.273  1.00  0.00     0.038 A 
HETATM   16  C   UNL     1      -8.362   5.983 -32.220  1.00  0.00     0.081 A 
HETATM   17  C   UNL     1      -8.315   5.281 -33.421  1.00  0.00     0.038 A 
HETATM   18  C   UNL     1      -7.224   4.453 -33.688  1.00  0.00     0.011 A 
BRANCH  16  19
HETATM   19  O   UNL     1      -9.475   6.762 -31.870  1.00  0.00    -0.261 OA
BRANCH  19  20
HETATM   20  C   UNL     1     -10.514   6.867 -32.793  1.00  0.00     0.368 C 
HETATM   21  N   UNL     1     -11.613   6.100 -32.437  1.00  0.00    -0.324 N 
HETATM   22  C   UNL     1     -12.857   6.260 -33.185  1.00  0.00     0.154 C 
HETATM   23  C   UNL     1     -11.755   5.480 -31.119  1.00  0.00     0.154 C 
HETATM   24  C   UNL     1     -13.694   4.979 -33.158  1.00  0.00     0.187 C 
HETATM   25  O   UNL     1     -13.901   4.524 -31.811  1.00  0.00    -0.388 OA
HETATM   26  C   UNL     1     -12.644   4.234 -31.183  1.00  0.00     0.187 C 
HETATM   27  O   UNL     1     -10.472   7.549 -33.813  1.00  0.00    -0.238 OA
ENDBRANCH  19  20
ENDBRANCH  16  19
ENDBRANCH   7  13
BRANCH  11  28
HETATM   28  N   UNL     1      -1.420   4.455 -32.253  1.00  0.00    -0.282 NA
HETATM   29  H   UNL     1      -0.645   3.891 -31.911  1.00  0.00     0.126 HD
HETATM   30  H   UNL     1      -1.213   4.923 -33.132  1.00  0.00     0.126 HD
ENDBRANCH  11  28
BRANCH   1  31
HETATM   31  C   UNL     1      -7.258   0.981 -32.125  1.00  0.00    -0.005 A 
HETATM   32  C   UNL     1      -8.343   1.632 -31.523  1.00  0.00     0.014 A 
HETATM   33  C   UNL     1      -9.652   1.390 -31.950  1.00  0.00     0.008 A 
HETATM   34  C   UNL     1      -9.901   0.491 -32.991  1.00  0.00    -0.058 A 
HETATM   35  C   UNL     1      -8.821  -0.173 -33.585  1.00  0.00     0.008 A 
HETATM   36  C   UNL     1      -7.512   0.062 -33.148  1.00  0.00     0.014 A 
BRANCH  34  37
HETATM   37  C   UNL     1     -11.312   0.249 -33.471  1.00  0.00     0.042 C 
BRANCH  37  38
HETATM   38  C   UNL     1     -12.135   1.539 -33.653  1.00  0.00    -0.019 C 
HETATM   39  C   UNL     1     -13.636   1.299 -33.472  1.00  0.00     0.010 C 
HETATM   40  C   UNL     1     -11.874   2.124 -35.044  1.00  0.00     0.010 C 
ENDBRANCH  37  38
ENDBRANCH  34  37
ENDBRANCH   1  31
TORSDOF 7
ENDMDL
MODEL 8
REMARK VINA RESULT:      -8.2      5.123      7.396
REMARK  7 active torsions:
REMARK  status: ('A' for Active; 'I' for Inactive)
REMARK    1  A    between atoms: C_2  and  C_3 
REMARK    2  A    between atoms: C_3  and  C_4 
REMARK    3  A    between atoms: C_7  and  C_8 
REMARK    4  A    between atoms: C_14  and  C_15 
REMARK    5  A    between atoms: C_18  and  O_19 
REMARK    6  A    between atoms: O_19  and  C_20 
REMARK       I    between atoms: C_20  and  N_21 
REMARK    7  A    between atoms: C_33  and  N_34 
ROOT
HETATM    1  C   UNL     1     -12.673   0.792 -33.608  1.00  0.00     0.099 A 
HETATM    2  N   UNL     1     -13.311  -0.228 -34.220  1.00  0.00    -0.172 NA
HETATM    3  N   UNL     1     -14.619   0.028 -34.052  1.00  0.00    -0.256 N 
HETATM    4  H   UNL     1     -15.298  -0.626 -34.425  1.00  0.00     0.191 HD
HETATM    5  C   UNL     1     -14.845   1.181 -33.380  1.00  0.00     0.175 A 
HETATM    6  C   UNL     1     -13.618   1.714 -33.073  1.00  0.00     0.040 A 
HETATM    7  C   UNL     1     -13.551   3.005 -32.327  1.00  0.00     0.106 A 
HETATM    8  C   UNL     1     -14.956   3.502 -31.973  1.00  0.00     0.081 A 
HETATM    9  C   UNL     1     -15.035   4.671 -31.160  1.00  0.00     0.100 C 
HETATM   10  N   UNL     1     -15.105   5.616 -30.492  1.00  0.00    -0.191 NA
HETATM   11  C   UNL     1     -16.089   2.848 -32.350  1.00  0.00     0.140 A 
HETATM   12  O   UNL     1     -16.049   1.662 -33.100  1.00  0.00    -0.279 OA
ENDROOT
BRANCH   7  13
HETATM   13  C   UNL     1     -12.779   3.990 -33.197  1.00  0.00    -0.044 A 
HETATM   14  C   UNL     1     -13.212   4.374 -34.480  1.00  0.00     0.011 A 
HETATM   15  C   UNL     1     -12.477   5.289 -35.238  1.00  0.00     0.038 A 
HETATM   16  C   UNL     1     -11.321   5.852 -34.703  1.00  0.00     0.081 A 
HETATM   17  C   UNL     1     -10.872   5.494 -33.435  1.00  0.00     0.038 A 
HETATM   18  C   UNL     1     -11.607   4.579 -32.682  1.00  0.00     0.011 A 
BRANCH  16  19
HETATM   19  O   UNL     1     -10.575   6.702 -35.532  1.00  0.00    -0.261 OA
BRANCH  19  20
HETATM   20  C   UNL     1     -10.566   8.063 -35.230  1.00  0.00     0.368 C 
HETATM   21  N   UNL     1     -11.116   8.830 -36.247  1.00  0.00    -0.324 N 
HETATM   22  C   UNL     1     -11.371  10.247 -36.003  1.00  0.00     0.154 C 
HETATM   23  C   UNL     1     -11.856   8.248 -37.368  1.00  0.00     0.154 C 
HETATM   24  C   UNL     1     -11.321  11.055 -37.302  1.00  0.00     0.187 C 
HETATM   25  O   UNL     1     -12.188  10.490 -38.297  1.00  0.00    -0.388 OA
HETATM   26  C   UNL     1     -11.786   9.148 -38.606  1.00  0.00     0.187 C 
HETATM   27  O   UNL     1     -10.120   8.543 -34.193  1.00  0.00    -0.238 OA
ENDBRANCH  19  20
ENDBRANCH  16  19
ENDBRANCH   7  13
BRANCH  11  28
HETATM   28  N   UNL     1     -17.375   3.241 -32.050  1.00  0.00    -0.282 NA
HETATM   29  H   UNL     1     -17.605   3.272 -31.060  1.00  0.00     0.126 HD
HETATM   30  H   UNL     1     -17.643   4.086 -32.547  1.00  0.00     0.126 HD
ENDBRANCH  11  28
BRANCH   1  31
HETATM   31  C   UNL     1     -11.209   0.845 -33.602  1.00  0.00    -0.005 A 
HETATM   32  C   UNL     1     -10.489   0.012 -32.735  1.00  0.00     0.014 A 
HETATM   33  C   UNL     1      -9.092   0.028 -32.719  1.00  0.00     0.008 A 
HETATM   34  C   UNL     1      -8.385   0.880 -33.575  1.00  0.00    -0.058 A 
HETATM   35  C   UNL     1      -9.100   1.724 -34.432  1.00  0.00     0.008 A 
HETATM   36  C   UNL     1     -10.500   1.715 -34.438  1.00  0.00     0.014 A 
BRANCH  34  37
HETATM   37  C   UNL     1      -6.875   0.879 -33.577  1.00  0.00     0.042 C 
BRANCH  37  38
HETATM   38  C   UNL     1      -6.255  -0.532 -33.540  1.00  0.00    -0.019 C 
HETATM   39  C   UNL     1      -4.780  -0.506 -33.132  1.00  0.00     0.010 C 
HETATM   40  C   UNL     1      -6.394  -1.191 -34.916  1.00  0.00     0.010 C 
ENDBRANCH  37  38
ENDBRANCH  34  37
ENDBRANCH   1  31
TORSDOF 7
ENDMDL
MODEL 9
REMARK VINA RESULT:      -8.1      3.135      6.767
REMARK  7 active torsions:
REMARK  status: ('A' for Active; 'I' for Inactive)
REMARK    1  A    between atoms: C_2  and  C_3 
REMARK    2  A    between atoms: C_3  and  C_4 
REMARK    3  A    between atoms: C_7  and  C_8 
REMARK    4  A    between atoms: C_14  and  C_15 
REMARK    5  A    between atoms: C_18  and  O_19 
REMARK    6  A    between atoms: O_19  and  C_20 
REMARK       I    between atoms: C_20  and  N_21 
REMARK    7  A    between atoms: C_33  and  N_34 
ROOT
HETATM    1  C   UNL     1      -5.613   0.980 -31.895  1.00  0.00     0.099 A 
HETATM    2  N   UNL     1      -4.934  -0.039 -31.327  1.00  0.00    -0.172 NA
HETATM    3  N   UNL     1      -3.714   0.460 -31.062  1.00  0.00    -0.256 N 
HETATM    4  H   UNL     1      -3.020  -0.145 -30.639  1.00  0.00     0.191 HD
HETATM    5  C   UNL     1      -3.593   1.761 -31.412  1.00  0.00     0.175 A 
HETATM    6  C   UNL     1      -4.794   2.145 -31.953  1.00  0.00     0.040 A 
HETATM    7  C   UNL     1      -4.962   3.549 -32.431  1.00  0.00     0.106 A 
HETATM    8  C   UNL     1      -3.660   4.338 -32.268  1.00  0.00     0.081 A 
HETATM    9  C   UNL     1      -3.645   5.665 -32.790  1.00  0.00     0.100 C 
HETATM   10  N   UNL     1      -3.626   6.742 -33.220  1.00  0.00    -0.191 NA
HETATM   11  C   UNL     1      -2.537   3.807 -31.711  1.00  0.00     0.140 A 
HETATM   12  O   UNL     1      -2.494   2.485 -31.240  1.00  0.00    -0.279 OA
ENDROOT
BRANCH   7  13
HETATM   13  C   UNL     1      -6.122   4.157 -31.652  1.00  0.00    -0.044 A 
HETATM   14  C   UNL     1      -7.341   4.516 -32.258  1.00  0.00     0.011 A 
HETATM   15  C   UNL     1      -8.382   5.060 -31.501  1.00  0.00     0.038 A 
HETATM   16  C   UNL     1      -8.223   5.217 -30.128  1.00  0.00     0.081 A 
HETATM   17  C   UNL     1      -7.030   4.866 -29.501  1.00  0.00     0.038 A 
HETATM   18  C   UNL     1      -5.992   4.325 -30.259  1.00  0.00     0.011 A 
BRANCH  16  19
HETATM   19  O   UNL     1      -9.264   5.841 -29.425  1.00  0.00    -0.261 OA
BRANCH  19  20
HETATM   20  C   UNL     1      -8.960   6.985 -28.688  1.00  0.00     0.368 C 
HETATM   21  N   UNL     1      -9.337   8.147 -29.344  1.00  0.00    -0.324 N 
HETATM   22  C   UNL     1      -9.278   9.415 -28.622  1.00  0.00     0.154 C 
HETATM   23  C   UNL     1     -10.190   8.147 -30.533  1.00  0.00     0.154 C 
HETATM   24  C   UNL     1      -9.061  10.592 -29.576  1.00  0.00     0.187 C 
HETATM   25  O   UNL     1     -10.035  10.589 -30.632  1.00  0.00    -0.388 OA
HETATM   26  C   UNL     1      -9.934   9.382 -31.401  1.00  0.00     0.187 C 
HETATM   27  O   UNL     1      -8.414   6.980 -27.589  1.00  0.00    -0.238 OA
ENDBRANCH  19  20
ENDBRANCH  16  19
ENDBRANCH   7  13
BRANCH  11  28
HETATM   28  N   UNL     1      -1.337   4.463 -31.550  1.00  0.00    -0.282 NA
HETATM   29  H   UNL     1      -1.053   4.628 -30.587  1.00  0.00     0.126 HD
HETATM   30  H   UNL     1      -0.598   4.058 -32.118  1.00  0.00     0.126 HD
ENDBRANCH  11  28
BRANCH   1  31
HETATM   31  C   UNL     1      -7.005   0.794 -32.310  1.00  0.00    -0.005 A 
HETATM   32  C   UNL     1      -8.030   0.891 -31.358  1.00  0.00     0.014 A 
HETATM   33  C   UNL     1      -9.369   0.735 -31.727  1.00  0.00     0.008 A 
HETATM   34  C   UNL     1      -9.710   0.481 -33.059  1.00  0.00    -0.058 A 
HETATM   35  C   UNL     1      -8.689   0.369 -34.010  1.00  0.00     0.008 A 
HETATM   36  C   UNL     1      -7.348   0.514 -33.637  1.00  0.00     0.014 A 
BRANCH  34  37
HETATM   37  C   UNL     1     -11.158   0.339 -33.463  1.00  0.00     0.042 C 
BRANCH  37  38
HETATM   38  C   UNL     1     -11.656   1.461 -34.396  1.00  0.00    -0.019 C 
HETATM   39  C   UNL     1     -11.506   2.847 -33.765  1.00  0.00     0.010 C 
HETATM   40  C   UNL     1     -13.124   1.218 -34.756  1.00  0.00     0.010 C 
ENDBRANCH  37  38
ENDBRANCH  34  37
ENDBRANCH   1  31
TORSDOF 7
ENDMDL
MODEL 10
REMARK VINA RESULT:      -7.8      3.980      8.771
REMARK  7 active torsions:
REMARK  status: ('A' for Active; 'I' for Inactive)
REMARK    1  A    between atoms: C_2  and  C_3 
REMARK    2  A    between atoms: C_3  and  C_4 
REMARK    3  A    between atoms: C_7  and  C_8 
REMARK    4  A    between atoms: C_14  and  C_15 
REMARK    5  A    between atoms: C_18  and  O_19 
REMARK    6  A    between atoms: O_19  and  C_20 
REMARK       I    between atoms: C_20  and  N_21 
REMARK    7  A    between atoms: C_33  and  N_34 
ROOT
HETATM    1  C   UNL     1      -1.729   8.035 -28.065  1.00  0.00     0.099 A 
HETATM    2  N   UNL     1      -0.686   7.897 -27.219  1.00  0.00    -0.172 NA
HETATM    3  N   UNL     1      -1.161   8.265 -26.017  1.00  0.00    -0.256 N 
HETATM    4  H   UNL     1      -0.535   8.253 -25.220  1.00  0.00     0.191 HD
HETATM    5  C   UNL     1      -2.470   8.607 -26.053  1.00  0.00     0.175 A 
HETATM    6  C   UNL     1      -2.885   8.473 -27.354  1.00  0.00     0.040 A 
HETATM    7  C   UNL     1      -4.303   8.781 -27.702  1.00  0.00     0.106 A 
HETATM    8  C   UNL     1      -5.070   9.273 -26.471  1.00  0.00     0.081 A 
HETATM    9  C   UNL     1      -6.410   9.711 -26.684  1.00  0.00     0.100 C 
HETATM   10  N   UNL     1      -7.498  10.076 -26.854  1.00  0.00    -0.191 NA
HETATM   11  C   UNL     1      -4.508   9.357 -25.234  1.00  0.00     0.140 A 
HETATM   12  O   UNL     1      -3.173   8.991 -24.996  1.00  0.00    -0.279 OA
ENDROOT
BRANCH   7  13
HETATM   13  C   UNL     1      -4.905   7.518 -28.306  1.00  0.00    -0.044 A 
HETATM   14  C   UNL     1      -5.089   6.334 -27.567  1.00  0.00     0.011 A 
HETATM   15  C   UNL     1      -5.656   5.202 -28.159  1.00  0.00     0.038 A 
HETATM   16  C   UNL     1      -6.072   5.258 -29.486  1.00  0.00     0.081 A 
HETATM   17  C   UNL     1      -5.906   6.417 -30.239  1.00  0.00     0.038 A 
HETATM   18  C   UNL     1      -5.338   7.544 -29.646  1.00  0.00     0.011 A 
BRANCH  16  19
HETATM   19  O   UNL     1      -6.560   4.075 -30.060  1.00  0.00    -0.261 OA
BRANCH  19  20
HETATM   20  C   UNL     1      -5.666   3.281 -30.777  1.00  0.00     0.368 C 
HETATM   21  N   UNL     1      -6.297   2.222 -31.411  1.00  0.00    -0.324 N 
HETATM   22  C   UNL     1      -5.539   1.419 -32.368  1.00  0.00     0.154 C 
HETATM   23  C   UNL     1      -7.752   2.120 -31.529  1.00  0.00     0.154 C 
HETATM   24  C   UNL     1      -6.084  -0.008 -32.456  1.00  0.00     0.187 C 
HETATM   25  O   UNL     1      -7.497  -0.008 -32.715  1.00  0.00    -0.388 OA
HETATM   26  C   UNL     1      -8.199   0.660 -31.657  1.00  0.00     0.187 C 
HETATM   27  O   UNL     1      -4.456   3.479 -30.841  1.00  0.00    -0.238 OA
ENDBRANCH  19  20
ENDBRANCH  16  19
ENDBRANCH   7  13
BRANCH  11  28
HETATM   28  N   UNL     1      -5.144   9.802 -24.096  1.00  0.00    -0.282 NA
HETATM   29  H   UNL     1      -5.458  10.770 -24.119  1.00  0.00     0.126 HD
HETATM   30  H   UNL     1      -5.865   9.157 -23.782  1.00  0.00     0.126 HD
ENDBRANCH  11  28
BRANCH   1  31
HETATM   31  C   UNL     1      -1.574   7.706 -29.484  1.00  0.00    -0.005 A 
HETATM   32  C   UNL     1      -1.982   8.628 -30.457  1.00  0.00     0.014 A 
HETATM   33  C   UNL     1      -1.831   8.350 -31.818  1.00  0.00     0.008 A 
HETATM   34  C   UNL     1      -1.265   7.141 -32.234  1.00  0.00    -0.058 A 
HETATM   35  C   UNL     1      -0.869   6.210 -31.265  1.00  0.00     0.008 A 
HETATM   36  C   UNL     1      -1.032   6.486 -29.903  1.00  0.00     0.014 A 
BRANCH  34  37
HETATM   37  C   UNL     1      -1.077   6.851 -33.704  1.00  0.00     0.042 C 
BRANCH  37  38
HETATM   38  C   UNL     1      -2.293   6.170 -34.362  1.00  0.00    -0.019 C 
HETATM   39  C   UNL     1      -3.437   5.943 -33.371  1.00  0.00     0.010 C 
HETATM   40  C   UNL     1      -1.867   4.830 -34.969  1.00  0.00     0.010 C 
ENDBRANCH  37  38
ENDBRANCH  34  37
ENDBRANCH   1  31
TORSDOF 7
ENDMDL
