MODEL 1
REMARK VINA RESULT:      -8.6      0.000      0.000
REMARK  6 active torsions:
REMARK  status: ('A' for Active; 'I' for Inactive)
REMARK    1  A    between atoms: C_5  and  N_6 
REMARK    2  A    between atoms: N_6  and  C_7 
REMARK    3  A    between atoms: C_7  and  C_8 
REMARK    4  A    between atoms: N_10  and  C_12 
REMARK    5  A    between atoms: C_12  and  C_13 
REMARK    6  A    between atoms: C_14  and  C_15 
ROOT
HETATM    1  C   UNL     1      -5.622   3.995 -30.834  1.00  0.00     0.031 C 
HETATM    2  C   UNL     1      -6.334   4.557 -32.070  1.00  0.00     0.241 C 
HETATM    3  N   UNL     1      -7.728   3.957 -32.046  1.00  0.00    -0.067 N 
HETATM    4  H   UNL     1      -8.401   4.734 -31.980  1.00  0.00     0.280 HD
HETATM    5  C   UNL     1      -7.869   3.162 -30.766  1.00  0.00     0.235 C 
HETATM    6  C   UNL     1      -6.783   3.733 -29.877  1.00  0.00     0.035 C 
ENDROOT
BRANCH   3   7
HETATM    7  C   UNL     1      -8.109   3.225 -33.315  1.00  0.00     0.277 C 
BRANCH   7   8
HETATM    8  C   UNL     1      -9.129   2.166 -33.125  1.00  0.00     0.016 A 
HETATM    9  C   UNL     1      -8.923   0.749 -33.121  1.00  0.00     0.102 A 
HETATM   10  N   UNL     1     -10.070   0.109 -32.867  1.00  0.00    -0.174 NA
HETATM   11  N   UNL     1     -11.009   1.057 -32.832  1.00  0.00    -0.288 N 
HETATM   12  H   UNL     1     -11.979   0.770 -32.713  1.00  0.00     0.188 HD
HETATM   13  C   UNL     1     -10.495   2.316 -32.956  1.00  0.00     0.120 A 
BRANCH   9  14
HETATM   14  C   UNL     1      -7.702  -0.013 -33.338  1.00  0.00     0.072 A 
HETATM   15  C   UNL     1      -6.812  -0.286 -32.296  1.00  0.00     0.132 A 
HETATM   16  F   UNL     1      -7.035   0.202 -31.063  1.00  0.00    -0.205 F 
HETATM   17  C   UNL     1      -5.652  -1.035 -32.509  1.00  0.00     0.043 A 
HETATM   18  C   UNL     1      -5.367  -1.525 -33.783  1.00  0.00     0.006 A 
HETATM   19  C   UNL     1      -6.238  -1.254 -34.837  1.00  0.00     0.043 A 
HETATM   20  C   UNL     1      -7.392  -0.506 -34.609  1.00  0.00     0.132 A 
HETATM   21  F   UNL     1      -8.183  -0.229 -35.658  1.00  0.00    -0.205 F 
ENDBRANCH   9  14
ENDBRANCH   7   8
ENDBRANCH   3   7
BRANCH   1  22
HETATM   22  C   UNL     1      -4.804   2.727 -31.162  1.00  0.00     0.127 C 
BRANCH  22  23
HETATM   23  N   UNL     1      -3.379   2.972 -30.919  1.00  0.00    -0.376 N 
HETATM   24  H   UNL     1      -3.118   2.915 -29.937  1.00  0.00     0.161 HD
BRANCH  23  25
HETATM   25  C   UNL     1      -2.657   3.865 -31.695  1.00  0.00     0.101 A 
HETATM   26  N   UNL     1      -1.755   4.654 -31.080  1.00  0.00    -0.347 N 
HETATM   27  C   UNL     1      -0.962   5.539 -31.715  1.00  0.00     0.007 A 
HETATM   28  H   UNL     1      -1.658   4.565 -30.074  1.00  0.00     0.167 HD
HETATM   29  C   UNL     1      -0.000   6.359 -30.915  1.00  0.00     0.068 C 
HETATM   30  C   UNL     1      -1.047   5.657 -33.100  1.00  0.00     0.025 A 
HETATM   31  C   UNL     1      -1.941   4.852 -33.791  1.00  0.00     0.006 A 
HETATM   32  C   UNL     1      -2.740   3.952 -33.091  1.00  0.00     0.048 A 
ENDBRANCH  23  25
ENDBRANCH  22  23
ENDBRANCH   1  22
TORSDOF 6
ENDMDL
MODEL 2
REMARK VINA RESULT:      -8.5      3.027      6.767
REMARK  6 active torsions:
REMARK  status: ('A' for Active; 'I' for Inactive)
REMARK    1  A    between atoms: C_5  and  N_6 
REMARK    2  A    between atoms: N_6  and  C_7 
REMARK    3  A    between atoms: C_7  and  C_8 
REMARK    4  A    between atoms: N_10  and  C_12 
REMARK    5  A    between atoms: C_12  and  C_13 
REMARK    6  A    between atoms: C_14  and  C_15 
ROOT
HETATM    1  C   UNL     1      -4.663   0.656 -30.852  1.00  0.00     0.031 C 
HETATM    2  C   UNL     1      -5.075   2.105 -31.137  1.00  0.00     0.241 C 
HETATM    3  N   UNL     1      -6.272   2.013 -32.065  1.00  0.00    -0.067 N 
HETATM    4  H   UNL     1      -7.071   2.456 -31.588  1.00  0.00     0.280 HD
HETATM    5  C   UNL     1      -6.627   0.551 -32.222  1.00  0.00     0.235 C 
HETATM    6  C   UNL     1      -5.980  -0.099 -31.015  1.00  0.00     0.035 C 
ENDROOT
BRANCH   3   7
HETATM    7  C   UNL     1      -6.116   2.789 -33.355  1.00  0.00     0.277 C 
BRANCH   7   8
HETATM    8  C   UNL     1      -6.370   4.244 -33.228  1.00  0.00     0.016 A 
HETATM    9  C   UNL     1      -5.408   5.303 -33.274  1.00  0.00     0.102 A 
HETATM   10  N   UNL     1      -6.013   6.491 -33.177  1.00  0.00    -0.174 NA
HETATM   11  N   UNL     1      -7.301   6.221 -32.949  1.00  0.00    -0.288 N 
HETATM   12  H   UNL     1      -7.934   6.999 -32.778  1.00  0.00     0.188 HD
HETATM   13  C   UNL     1      -7.576   4.883 -32.995  1.00  0.00     0.120 A 
BRANCH   9  14
HETATM   14  C   UNL     1      -3.960   5.238 -33.413  1.00  0.00     0.072 A 
HETATM   15  C   UNL     1      -3.341   5.233 -34.665  1.00  0.00     0.132 A 
HETATM   16  F   UNL     1      -4.079   5.233 -35.790  1.00  0.00    -0.205 F 
HETATM   17  C   UNL     1      -1.950   5.190 -34.788  1.00  0.00     0.043 A 
HETATM   18  C   UNL     1      -1.154   5.151 -33.645  1.00  0.00     0.006 A 
HETATM   19  C   UNL     1      -1.754   5.145 -32.386  1.00  0.00     0.043 A 
HETATM   20  C   UNL     1      -3.143   5.189 -32.279  1.00  0.00     0.132 A 
HETATM   21  F   UNL     1      -3.684   5.136 -31.052  1.00  0.00    -0.205 F 
ENDBRANCH   9  14
ENDBRANCH   7   8
ENDBRANCH   3   7
BRANCH   1  22
HETATM   22  C   UNL     1      -3.556   0.168 -31.812  1.00  0.00     0.127 C 
BRANCH  22  23
HETATM   23  N   UNL     1      -3.115  -1.176 -31.428  1.00  0.00    -0.376 N 
HETATM   24  H   UNL     1      -2.211  -1.190 -30.962  1.00  0.00     0.161 HD
BRANCH  23  25
HETATM   25  C   UNL     1      -3.425  -2.286 -32.199  1.00  0.00     0.101 A 
HETATM   26  N   UNL     1      -4.202  -2.107 -33.284  1.00  0.00    -0.347 N 
HETATM   27  C   UNL     1      -4.551  -3.089 -34.139  1.00  0.00     0.007 A 
HETATM   28  H   UNL     1      -4.535  -1.168 -33.477  1.00  0.00     0.167 HD
HETATM   29  C   UNL     1      -5.423  -2.759 -35.309  1.00  0.00     0.068 C 
HETATM   30  C   UNL     1      -4.080  -4.380 -33.920  1.00  0.00     0.025 A 
HETATM   31  C   UNL     1      -3.254  -4.621 -32.831  1.00  0.00     0.006 A 
HETATM   32  C   UNL     1      -2.921  -3.574 -31.975  1.00  0.00     0.048 A 
ENDBRANCH  23  25
ENDBRANCH  22  23
ENDBRANCH   1  22
TORSDOF 6
ENDMDL
MODEL 3
REMARK VINA RESULT:      -8.5      3.539      8.465
REMARK  6 active torsions:
REMARK  status: ('A' for Active; 'I' for Inactive)
REMARK    1  A    between atoms: C_5  and  N_6 
REMARK    2  A    between atoms: N_6  and  C_7 
REMARK    3  A    between atoms: C_7  and  C_8 
REMARK    4  A    between atoms: N_10  and  C_12 
REMARK    5  A    between atoms: C_12  and  C_13 
REMARK    6  A    between atoms: C_14  and  C_15 
ROOT
HETATM    1  C   UNL     1      -5.243   2.410 -31.572  1.00  0.00     0.031 C 
HETATM    2  C   UNL     1      -3.797   2.646 -31.122  1.00  0.00     0.241 C 
HETATM    3  N   UNL     1      -3.465   4.066 -31.544  1.00  0.00    -0.067 N 
HETATM    4  H   UNL     1      -3.241   4.601 -30.693  1.00  0.00     0.280 HD
HETATM    5  C   UNL     1      -4.721   4.686 -32.117  1.00  0.00     0.235 C 
HETATM    6  C   UNL     1      -5.829   3.820 -31.550  1.00  0.00     0.035 C 
ENDROOT
BRANCH   3   7
HETATM    7  C   UNL     1      -2.228   4.182 -32.409  1.00  0.00     0.277 C 
BRANCH   7   8
HETATM    8  C   UNL     1      -2.052   5.507 -33.048  1.00  0.00     0.016 A 
HETATM    9  C   UNL     1      -1.593   6.716 -32.434  1.00  0.00     0.102 A 
HETATM   10  N   UNL     1      -1.511   7.699 -33.337  1.00  0.00    -0.174 NA
HETATM   11  N   UNL     1      -2.015   7.193 -34.465  1.00  0.00    -0.288 N 
HETATM   12  H   UNL     1      -2.105   7.808 -35.271  1.00  0.00     0.188 HD
HETATM   13  C   UNL     1      -2.333   5.869 -34.355  1.00  0.00     0.120 A 
BRANCH   9  14
HETATM   14  C   UNL     1      -1.226   6.973 -31.049  1.00  0.00     0.072 A 
HETATM   15  C   UNL     1      -2.189   7.154 -30.055  1.00  0.00     0.132 A 
HETATM   16  F   UNL     1      -3.498   7.150 -30.365  1.00  0.00    -0.205 F 
HETATM   17  C   UNL     1      -1.828   7.380 -28.724  1.00  0.00     0.043 A 
HETATM   18  C   UNL     1      -0.480   7.429 -28.371  1.00  0.00     0.006 A 
HETATM   19  C   UNL     1       0.497   7.261 -29.352  1.00  0.00     0.043 A 
HETATM   20  C   UNL     1       0.121   7.035 -30.675  1.00  0.00     0.132 A 
HETATM   21  F   UNL     1       1.089   6.923 -31.597  1.00  0.00    -0.205 F 
ENDBRANCH   9  14
ENDBRANCH   7   8
ENDBRANCH   3   7
BRANCH   1  22
HETATM   22  C   UNL     1      -5.316   1.740 -32.962  1.00  0.00     0.127 C 
BRANCH  22  23
HETATM   23  N   UNL     1      -4.568   0.480 -32.952  1.00  0.00    -0.376 N 
HETATM   24  H   UNL     1      -3.559   0.604 -32.964  1.00  0.00     0.161 HD
BRANCH  23  25
HETATM   25  C   UNL     1      -5.054  -0.653 -33.586  1.00  0.00     0.101 A 
HETATM   26  N   UNL     1      -4.315  -1.778 -33.529  1.00  0.00    -0.347 N 
HETATM   27  C   UNL     1      -4.682  -2.956 -34.070  1.00  0.00     0.007 A 
HETATM   28  H   UNL     1      -3.430  -1.737 -33.035  1.00  0.00     0.167 HD
HETATM   29  C   UNL     1      -3.768  -4.133 -33.938  1.00  0.00     0.068 C 
HETATM   30  C   UNL     1      -5.908  -3.052 -34.723  1.00  0.00     0.025 A 
HETATM   31  C   UNL     1      -6.724  -1.933 -34.792  1.00  0.00     0.006 A 
HETATM   32  C   UNL     1      -6.302  -0.736 -34.218  1.00  0.00     0.048 A 
ENDBRANCH  23  25
ENDBRANCH  22  23
ENDBRANCH   1  22
TORSDOF 6
ENDMDL
MODEL 4
REMARK VINA RESULT:      -8.4      1.683      2.330
REMARK  6 active torsions:
REMARK  status: ('A' for Active; 'I' for Inactive)
REMARK    1  A    between atoms: C_5  and  N_6 
REMARK    2  A    between atoms: N_6  and  C_7 
REMARK    3  A    between atoms: C_7  and  C_8 
REMARK    4  A    between atoms: N_10  and  C_12 
REMARK    5  A    between atoms: C_12  and  C_13 
REMARK    6  A    between atoms: C_14  and  C_15 
ROOT
HETATM    1  C   UNL     1      -5.635   2.144 -29.747  1.00  0.00     0.031 C 
HETATM    2  C   UNL     1      -7.087   2.534 -30.047  1.00  0.00     0.241 C 
HETATM    3  N   UNL     1      -7.735   1.286 -30.619  1.00  0.00    -0.067 N 
HETATM    4  H   UNL     1      -8.510   1.022 -29.994  1.00  0.00     0.280 HD
HETATM    5  C   UNL     1      -6.724   0.162 -30.544  1.00  0.00     0.235 C 
HETATM    6  C   UNL     1      -5.744   0.642 -29.492  1.00  0.00     0.035 C 
ENDROOT
BRANCH   3   7
HETATM    7  C   UNL     1      -8.384   1.491 -31.971  1.00  0.00     0.277 C 
BRANCH   7   8
HETATM    8  C   UNL     1      -7.537   2.210 -32.952  1.00  0.00     0.016 A 
HETATM    9  C   UNL     1      -6.625   1.641 -33.897  1.00  0.00     0.102 A 
HETATM   10  N   UNL     1      -6.077   2.597 -34.655  1.00  0.00    -0.174 NA
HETATM   11  N   UNL     1      -6.512   3.752 -34.146  1.00  0.00    -0.288 N 
HETATM   12  H   UNL     1      -6.156   4.618 -34.543  1.00  0.00     0.188 HD
HETATM   13  C   UNL     1      -7.415   3.577 -33.135  1.00  0.00     0.120 A 
BRANCH   9  14
HETATM   14  C   UNL     1      -6.262   0.248 -34.115  1.00  0.00     0.072 A 
HETATM   15  C   UNL     1      -5.062  -0.283 -33.636  1.00  0.00     0.132 A 
HETATM   16  F   UNL     1      -4.175   0.503 -32.999  1.00  0.00    -0.205 F 
HETATM   17  C   UNL     1      -4.731  -1.626 -33.832  1.00  0.00     0.043 A 
HETATM   18  C   UNL     1      -5.608  -2.462 -34.521  1.00  0.00     0.006 A 
HETATM   19  C   UNL     1      -6.806  -1.949 -35.016  1.00  0.00     0.043 A 
HETATM   20  C   UNL     1      -7.124  -0.606 -34.811  1.00  0.00     0.132 A 
HETATM   21  F   UNL     1      -8.264  -0.138 -35.341  1.00  0.00    -0.205 F 
ENDBRANCH   9  14
ENDBRANCH   7   8
ENDBRANCH   3   7
BRANCH   1  22
HETATM   22  C   UNL     1      -4.687   2.498 -30.914  1.00  0.00     0.127 C 
BRANCH  22  23
HETATM   23  N   UNL     1      -4.103   3.825 -30.701  1.00  0.00    -0.376 N 
HETATM   24  H   UNL     1      -4.760   4.504 -30.322  1.00  0.00     0.161 HD
BRANCH  23  25
HETATM   25  C   UNL     1      -3.122   4.326 -31.543  1.00  0.00     0.101 A 
HETATM   26  N   UNL     1      -1.958   4.724 -30.993  1.00  0.00    -0.347 N 
HETATM   27  C   UNL     1      -0.909   5.196 -31.695  1.00  0.00     0.007 A 
HETATM   28  H   UNL     1      -1.862   4.651 -29.986  1.00  0.00     0.167 HD
HETATM   29  C   UNL     1       0.329   5.608 -30.965  1.00  0.00     0.068 C 
HETATM   30  C   UNL     1      -0.999   5.274 -33.083  1.00  0.00     0.025 A 
HETATM   31  C   UNL     1      -2.165   4.855 -33.707  1.00  0.00     0.006 A 
HETATM   32  C   UNL     1      -3.223   4.374 -32.939  1.00  0.00     0.048 A 
ENDBRANCH  23  25
ENDBRANCH  22  23
ENDBRANCH   1  22
TORSDOF 6
ENDMDL
MODEL 5
REMARK VINA RESULT:      -8.4      1.239      1.962
REMARK  6 active torsions:
REMARK  status: ('A' for Active; 'I' for Inactive)
REMARK    1  A    between atoms: C_5  and  N_6 
REMARK    2  A    between atoms: N_6  and  C_7 
REMARK    3  A    between atoms: C_7  and  C_8 
REMARK    4  A    between atoms: N_10  and  C_12 
REMARK    5  A    between atoms: C_12  and  C_13 
REMARK    6  A    between atoms: C_14  and  C_15 
ROOT
HETATM    1  C   UNL     1      -4.384   4.116 -33.216  1.00  0.00     0.031 C 
HETATM    2  C   UNL     1      -5.203   2.855 -32.915  1.00  0.00     0.241 C 
HETATM    3  N   UNL     1      -6.641   3.215 -33.241  1.00  0.00    -0.067 N 
HETATM    4  H   UNL     1      -6.960   2.582 -33.988  1.00  0.00     0.280 HD
HETATM    5  C   UNL     1      -6.649   4.609 -33.831  1.00  0.00     0.235 C 
HETATM    6  C   UNL     1      -5.219   4.800 -34.297  1.00  0.00     0.035 C 
ENDROOT
BRANCH   3   7
HETATM    7  C   UNL     1      -7.610   2.984 -32.101  1.00  0.00     0.277 C 
BRANCH   7   8
HETATM    8  C   UNL     1      -8.748   2.096 -32.438  1.00  0.00     0.016 A 
HETATM    9  C   UNL     1      -8.689   0.750 -32.921  1.00  0.00     0.102 A 
HETATM   10  N   UNL     1      -9.920   0.247 -33.063  1.00  0.00    -0.174 NA
HETATM   11  N   UNL     1     -10.752   1.259 -32.805  1.00  0.00    -0.288 N 
HETATM   12  H   UNL     1     -11.751   1.102 -32.921  1.00  0.00     0.188 HD
HETATM   13  C   UNL     1     -10.101   2.389 -32.399  1.00  0.00     0.120 A 
BRANCH   9  14
HETATM   14  C   UNL     1      -7.530  -0.072 -33.243  1.00  0.00     0.072 A 
HETATM   15  C   UNL     1      -6.612  -0.461 -32.265  1.00  0.00     0.132 A 
HETATM   16  F   UNL     1      -6.745  -0.037 -30.996  1.00  0.00    -0.205 F 
HETATM   17  C   UNL     1      -5.514  -1.266 -32.579  1.00  0.00     0.043 A 
HETATM   18  C   UNL     1      -5.321  -1.695 -33.892  1.00  0.00     0.006 A 
HETATM   19  C   UNL     1      -6.222  -1.308 -34.883  1.00  0.00     0.043 A 
HETATM   20  C   UNL     1      -7.314  -0.505 -34.555  1.00  0.00     0.132 A 
HETATM   21  F   UNL     1      -8.133  -0.117 -35.544  1.00  0.00    -0.205 F 
ENDBRANCH   9  14
ENDBRANCH   7   8
ENDBRANCH   3   7
BRANCH   1  22
HETATM   22  C   UNL     1      -4.180   4.989 -31.959  1.00  0.00     0.127 C 
BRANCH  22  23
HETATM   23  N   UNL     1      -2.980   4.557 -31.237  1.00  0.00    -0.376 N 
HETATM   24  H   UNL     1      -3.178   3.968 -30.432  1.00  0.00     0.161 HD
BRANCH  23  25
HETATM   25  C   UNL     1      -1.863   5.372 -31.140  1.00  0.00     0.101 A 
HETATM   26  N   UNL     1      -1.157   5.347 -29.992  1.00  0.00    -0.347 N 
HETATM   27  C   UNL     1      -0.034   6.059 -29.776  1.00  0.00     0.007 A 
HETATM   28  H   UNL     1      -1.487   4.740 -29.249  1.00  0.00     0.167 HD
HETATM   29  C   UNL     1       0.657   5.944 -28.454  1.00  0.00     0.068 C 
HETATM   30  C   UNL     1       0.462   6.872 -30.791  1.00  0.00     0.025 A 
HETATM   31  C   UNL     1      -0.209   6.921 -32.004  1.00  0.00     0.006 A 
HETATM   32  C   UNL     1      -1.366   6.166 -32.182  1.00  0.00     0.048 A 
ENDBRANCH  23  25
ENDBRANCH  22  23
ENDBRANCH   1  22
TORSDOF 6
ENDMDL
MODEL 6
REMARK VINA RESULT:      -8.4      2.331      3.232
REMARK  6 active torsions:
REMARK  status: ('A' for Active; 'I' for Inactive)
REMARK    1  A    between atoms: C_5  and  N_6 
REMARK    2  A    between atoms: N_6  and  C_7 
REMARK    3  A    between atoms: C_7  and  C_8 
REMARK    4  A    between atoms: N_10  and  C_12 
REMARK    5  A    between atoms: C_12  and  C_13 
REMARK    6  A    between atoms: C_14  and  C_15 
ROOT
HETATM    1  C   UNL     1      -3.586   4.350 -32.539  1.00  0.00     0.031 C 
HETATM    2  C   UNL     1      -4.280   2.986 -32.625  1.00  0.00     0.241 C 
HETATM    3  N   UNL     1      -5.521   3.211 -33.469  1.00  0.00    -0.067 N 
HETATM    4  H   UNL     1      -5.444   2.613 -34.304  1.00  0.00     0.280 HD
HETATM    5  C   UNL     1      -5.492   4.641 -33.965  1.00  0.00     0.235 C 
HETATM    6  C   UNL     1      -4.032   5.028 -33.833  1.00  0.00     0.035 C 
ENDROOT
BRANCH   3   7
HETATM    7  C   UNL     1      -6.809   2.778 -32.803  1.00  0.00     0.277 C 
BRANCH   7   8
HETATM    8  C   UNL     1      -6.619   1.972 -31.574  1.00  0.00     0.016 A 
HETATM    9  C   UNL     1      -6.279   0.584 -31.486  1.00  0.00     0.102 A 
HETATM   10  N   UNL     1      -6.140   0.215 -30.208  1.00  0.00    -0.174 NA
HETATM   11  N   UNL     1      -6.498   1.279 -29.486  1.00  0.00    -0.288 N 
HETATM   12  H   UNL     1      -6.525   1.187 -28.473  1.00  0.00     0.188 HD
HETATM   13  C   UNL     1      -6.771   2.373 -30.257  1.00  0.00     0.120 A 
BRANCH   9  14
HETATM   14  C   UNL     1      -6.074  -0.391 -32.547  1.00  0.00     0.072 A 
HETATM   15  C   UNL     1      -4.801  -0.865 -32.874  1.00  0.00     0.132 A 
HETATM   16  F   UNL     1      -3.713  -0.386 -32.246  1.00  0.00    -0.205 F 
HETATM   17  C   UNL     1      -4.616  -1.816 -33.881  1.00  0.00     0.043 A 
HETATM   18  C   UNL     1      -5.717  -2.308 -34.580  1.00  0.00     0.006 A 
HETATM   19  C   UNL     1      -6.995  -1.840 -34.275  1.00  0.00     0.043 A 
HETATM   20  C   UNL     1      -7.164  -0.891 -33.267  1.00  0.00     0.132 A 
HETATM   21  F   UNL     1      -8.403  -0.431 -33.033  1.00  0.00    -0.205 F 
ENDBRANCH   9  14
ENDBRANCH   7   8
ENDBRANCH   3   7
BRANCH   1  22
HETATM   22  C   UNL     1      -3.995   5.129 -31.270  1.00  0.00     0.127 C 
BRANCH  22  23
HETATM   23  N   UNL     1      -3.335   6.438 -31.250  1.00  0.00    -0.376 N 
HETATM   24  H   UNL     1      -3.646   7.063 -31.991  1.00  0.00     0.161 HD
BRANCH  23  25
HETATM   25  C   UNL     1      -2.016   6.576 -30.846  1.00  0.00     0.101 A 
HETATM   26  N   UNL     1      -1.738   6.446 -29.535  1.00  0.00    -0.347 N 
HETATM   27  C   UNL     1      -0.499   6.520 -29.010  1.00  0.00     0.007 A 
HETATM   28  H   UNL     1      -2.512   6.265 -28.904  1.00  0.00     0.167 HD
HETATM   29  C   UNL     1      -0.324   6.359 -27.533  1.00  0.00     0.068 C 
HETATM   30  C   UNL     1       0.586   6.730 -29.856  1.00  0.00     0.025 A 
HETATM   31  C   UNL     1       0.364   6.848 -31.221  1.00  0.00     0.006 A 
HETATM   32  C   UNL     1      -0.935   6.764 -31.717  1.00  0.00     0.048 A 
ENDBRANCH  23  25
ENDBRANCH  22  23
ENDBRANCH   1  22
TORSDOF 6
ENDMDL
MODEL 7
REMARK VINA RESULT:      -8.4      2.455      4.229
REMARK  6 active torsions:
REMARK  status: ('A' for Active; 'I' for Inactive)
REMARK    1  A    between atoms: C_5  and  N_6 
REMARK    2  A    between atoms: N_6  and  C_7 
REMARK    3  A    between atoms: C_7  and  C_8 
REMARK    4  A    between atoms: N_10  and  C_12 
REMARK    5  A    between atoms: C_12  and  C_13 
REMARK    6  A    between atoms: C_14  and  C_15 
ROOT
HETATM    1  C   UNL     1      -2.291   4.408 -31.655  1.00  0.00     0.031 C 
HETATM    2  C   UNL     1      -3.140   3.134 -31.580  1.00  0.00     0.241 C 
HETATM    3  N   UNL     1      -4.031   3.164 -32.808  1.00  0.00    -0.067 N 
HETATM    4  H   UNL     1      -3.813   2.331 -33.373  1.00  0.00     0.280 HD
HETATM    5  C   UNL     1      -3.631   4.361 -33.643  1.00  0.00     0.235 C 
HETATM    6  C   UNL     1      -2.229   4.674 -33.158  1.00  0.00     0.035 C 
ENDROOT
BRANCH   3   7
HETATM    7  C   UNL     1      -5.509   3.046 -32.504  1.00  0.00     0.277 C 
BRANCH   7   8
HETATM    8  C   UNL     1      -5.824   2.208 -31.322  1.00  0.00     0.016 A 
HETATM    9  C   UNL     1      -5.916   0.781 -31.267  1.00  0.00     0.102 A 
HETATM   10  N   UNL     1      -6.165   0.374 -30.018  1.00  0.00    -0.174 NA
HETATM   11  N   UNL     1      -6.355   1.490 -29.309  1.00  0.00    -0.288 N 
HETATM   12  H   UNL     1      -6.624   1.399 -28.331  1.00  0.00     0.188 HD
HETATM   13  C   UNL     1      -6.136   2.624 -30.039  1.00  0.00     0.120 A 
BRANCH   9  14
HETATM   14  C   UNL     1      -5.771  -0.201 -32.332  1.00  0.00     0.072 A 
HETATM   15  C   UNL     1      -6.872  -0.674 -33.050  1.00  0.00     0.132 A 
HETATM   16  F   UNL     1      -8.116  -0.271 -32.736  1.00  0.00    -0.205 F 
HETATM   17  C   UNL     1      -6.721  -1.602 -34.084  1.00  0.00     0.043 A 
HETATM   18  C   UNL     1      -5.451  -2.072 -34.414  1.00  0.00     0.006 A 
HETATM   19  C   UNL     1      -4.341  -1.619 -33.702  1.00  0.00     0.043 A 
HETATM   20  C   UNL     1      -4.507  -0.693 -32.673  1.00  0.00     0.132 A 
HETATM   21  F   UNL     1      -3.420  -0.315 -31.982  1.00  0.00    -0.205 F 
ENDBRANCH   9  14
ENDBRANCH   7   8
ENDBRANCH   3   7
BRANCH   1  22
HETATM   22  C   UNL     1      -2.918   5.571 -30.855  1.00  0.00     0.127 C 
BRANCH  22  23
HETATM   23  N   UNL     1      -1.984   6.698 -30.794  1.00  0.00    -0.376 N 
HETATM   24  H   UNL     1      -1.559   6.926 -31.690  1.00  0.00     0.161 HD
BRANCH  23  25
HETATM   25  C   UNL     1      -1.205   6.931 -29.670  1.00  0.00     0.101 A 
HETATM   26  N   UNL     1      -1.743   6.675 -28.462  1.00  0.00    -0.347 N 
HETATM   27  C   UNL     1      -1.090   6.822 -27.293  1.00  0.00     0.007 A 
HETATM   28  H   UNL     1      -2.699   6.336 -28.434  1.00  0.00     0.167 HD
HETATM   29  C   UNL     1      -1.802   6.504 -26.017  1.00  0.00     0.068 C 
HETATM   30  C   UNL     1       0.235   7.250 -27.304  1.00  0.00     0.025 A 
HETATM   31  C   UNL     1       0.851   7.506 -28.520  1.00  0.00     0.006 A 
HETATM   32  C   UNL     1       0.134   7.341 -29.703  1.00  0.00     0.048 A 
ENDBRANCH  23  25
ENDBRANCH  22  23
ENDBRANCH   1  22
TORSDOF 6
ENDMDL
MODEL 8
REMARK VINA RESULT:      -8.1      2.581      7.070
REMARK  6 active torsions:
REMARK  status: ('A' for Active; 'I' for Inactive)
REMARK    1  A    between atoms: C_5  and  N_6 
REMARK    2  A    between atoms: N_6  and  C_7 
REMARK    3  A    between atoms: C_7  and  C_8 
REMARK    4  A    between atoms: N_10  and  C_12 
REMARK    5  A    between atoms: C_12  and  C_13 
REMARK    6  A    between atoms: C_14  and  C_15 
ROOT
HETATM    1  C   UNL     1      -8.731   1.731 -32.570  1.00  0.00     0.031 C 
HETATM    2  C   UNL     1      -8.180   2.688 -31.507  1.00  0.00     0.241 C 
HETATM    3  N   UNL     1      -6.898   3.252 -32.091  1.00  0.00    -0.067 N 
HETATM    4  H   UNL     1      -7.012   4.273 -32.167  1.00  0.00     0.280 HD
HETATM    5  C   UNL     1      -6.764   2.732 -33.506  1.00  0.00     0.235 C 
HETATM    6  C   UNL     1      -8.179   2.324 -33.865  1.00  0.00     0.035 C 
ENDROOT
BRANCH   3   7
HETATM    7  C   UNL     1      -5.681   3.064 -31.210  1.00  0.00     0.277 C 
BRANCH   7   8
HETATM    8  C   UNL     1      -5.177   4.313 -30.592  1.00  0.00     0.016 A 
HETATM    9  C   UNL     1      -4.257   5.254 -31.154  1.00  0.00     0.102 A 
HETATM   10  N   UNL     1      -4.077   6.289 -30.326  1.00  0.00    -0.174 NA
HETATM   11  N   UNL     1      -4.751   5.980 -29.216  1.00  0.00    -0.288 N 
HETATM   12  H   UNL     1      -4.691   6.616 -28.423  1.00  0.00     0.188 HD
HETATM   13  C   UNL     1      -5.453   4.814 -29.330  1.00  0.00     0.120 A 
BRANCH   9  14
HETATM   14  C   UNL     1      -3.556   5.218 -32.430  1.00  0.00     0.072 A 
HETATM   15  C   UNL     1      -2.199   4.897 -32.515  1.00  0.00     0.132 A 
HETATM   16  F   UNL     1      -1.483   4.662 -31.400  1.00  0.00    -0.205 F 
HETATM   17  C   UNL     1      -1.539   4.845 -33.745  1.00  0.00     0.043 A 
HETATM   18  C   UNL     1      -2.239   5.119 -34.919  1.00  0.00     0.006 A 
HETATM   19  C   UNL     1      -3.592   5.452 -34.854  1.00  0.00     0.043 A 
HETATM   20  C   UNL     1      -4.237   5.499 -33.619  1.00  0.00     0.132 A 
HETATM   21  F   UNL     1      -5.527   5.867 -33.593  1.00  0.00    -0.205 F 
ENDBRANCH   9  14
ENDBRANCH   7   8
ENDBRANCH   3   7
BRANCH   1  22
HETATM   22  C   UNL     1      -8.282   0.273 -32.327  1.00  0.00     0.127 C 
BRANCH  22  23
HETATM   23  N   UNL     1      -8.053  -0.402 -33.607  1.00  0.00    -0.376 N 
HETATM   24  H   UNL     1      -8.908  -0.699 -34.071  1.00  0.00     0.161 HD
BRANCH  23  25
HETATM   25  C   UNL     1      -6.936  -1.196 -33.815  1.00  0.00     0.101 A 
HETATM   26  N   UNL     1      -7.108  -2.386 -34.424  1.00  0.00    -0.347 N 
HETATM   27  C   UNL     1      -6.109  -3.240 -34.719  1.00  0.00     0.007 A 
HETATM   28  H   UNL     1      -8.052  -2.648 -34.689  1.00  0.00     0.167 HD
HETATM   29  C   UNL     1      -6.433  -4.533 -35.396  1.00  0.00     0.068 C 
HETATM   30  C   UNL     1      -4.799  -2.890 -34.400  1.00  0.00     0.025 A 
HETATM   31  C   UNL     1      -4.557  -1.666 -33.794  1.00  0.00     0.006 A 
HETATM   32  C   UNL     1      -5.623  -0.816 -33.508  1.00  0.00     0.048 A 
ENDBRANCH  23  25
ENDBRANCH  22  23
ENDBRANCH   1  22
TORSDOF 6
ENDMDL
MODEL 9
REMARK VINA RESULT:      -8.1      2.069      2.991
REMARK  6 active torsions:
REMARK  status: ('A' for Active; 'I' for Inactive)
REMARK    1  A    between atoms: C_5  and  N_6 
REMARK    2  A    between atoms: N_6  and  C_7 
REMARK    3  A    between atoms: C_7  and  C_8 
REMARK    4  A    between atoms: N_10  and  C_12 
REMARK    5  A    between atoms: C_12  and  C_13 
REMARK    6  A    between atoms: C_14  and  C_15 
ROOT
HETATM    1  C   UNL     1      -4.326   4.700 -32.876  1.00  0.00     0.031 C 
HETATM    2  C   UNL     1      -5.317   3.793 -33.613  1.00  0.00     0.241 C 
HETATM    3  N   UNL     1      -6.690   4.375 -33.331  1.00  0.00    -0.067 N 
HETATM    4  H   UNL     1      -7.107   4.644 -34.234  1.00  0.00     0.280 HD
HETATM    5  C   UNL     1      -6.500   5.658 -32.551  1.00  0.00     0.235 C 
HETATM    6  C   UNL     1      -5.063   6.038 -32.848  1.00  0.00     0.035 C 
ENDROOT
BRANCH   3   7
HETATM    7  C   UNL     1      -7.670   3.388 -32.734  1.00  0.00     0.277 C 
BRANCH   7   8
HETATM    8  C   UNL     1      -7.204   2.748 -31.481  1.00  0.00     0.016 A 
HETATM    9  C   UNL     1      -6.616   1.451 -31.331  1.00  0.00     0.102 A 
HETATM   10  N   UNL     1      -6.272   1.236 -30.057  1.00  0.00    -0.174 NA
HETATM   11  N   UNL     1      -6.728   2.291 -29.379  1.00  0.00    -0.288 N 
HETATM   12  H   UNL     1      -6.625   2.295 -28.366  1.00  0.00     0.188 HD
HETATM   13  C   UNL     1      -7.276   3.245 -30.190  1.00  0.00     0.120 A 
BRANCH   9  14
HETATM   14  C   UNL     1      -6.363   0.425 -32.333  1.00  0.00     0.072 A 
HETATM   15  C   UNL     1      -7.401  -0.305 -32.916  1.00  0.00     0.132 A 
HETATM   16  F   UNL     1      -8.673  -0.114 -32.523  1.00  0.00    -0.205 F 
HETATM   17  C   UNL     1      -7.151  -1.273 -33.891  1.00  0.00     0.043 A 
HETATM   18  C   UNL     1      -5.841  -1.526 -34.297  1.00  0.00     0.006 A 
HETATM   19  C   UNL     1      -4.790  -0.814 -33.719  1.00  0.00     0.043 A 
HETATM   20  C   UNL     1      -5.056   0.150 -32.748  1.00  0.00     0.132 A 
HETATM   21  F   UNL     1      -4.015   0.782 -32.183  1.00  0.00    -0.205 F 
ENDBRANCH   9  14
ENDBRANCH   7   8
ENDBRANCH   3   7
BRANCH   1  22
HETATM   22  C   UNL     1      -3.982   4.163 -31.470  1.00  0.00     0.127 C 
BRANCH  22  23
HETATM   23  N   UNL     1      -2.533   3.980 -31.343  1.00  0.00    -0.376 N 
HETATM   24  H   UNL     1      -2.269   3.080 -30.951  1.00  0.00     0.161 HD
BRANCH  23  25
HETATM   25  C   UNL     1      -1.694   5.045 -31.053  1.00  0.00     0.101 A 
HETATM   26  N   UNL     1      -2.053   5.885 -30.063  1.00  0.00    -0.347 N 
HETATM   27  C   UNL     1      -1.317   6.936 -29.654  1.00  0.00     0.007 A 
HETATM   28  H   UNL     1      -2.930   5.704 -29.586  1.00  0.00     0.167 HD
HETATM   29  C   UNL     1      -1.830   7.795 -28.542  1.00  0.00     0.068 C 
HETATM   30  C   UNL     1      -0.092   7.187 -30.265  1.00  0.00     0.025 A 
HETATM   31  C   UNL     1       0.344   6.342 -31.275  1.00  0.00     0.006 A 
HETATM   32  C   UNL     1      -0.453   5.267 -31.664  1.00  0.00     0.048 A 
ENDBRANCH  23  25
ENDBRANCH  22  23
ENDBRANCH   1  22
TORSDOF 6
ENDMDL
MODEL 10
REMARK VINA RESULT:      -8.0      2.390      4.155
REMARK  6 active torsions:
REMARK  status: ('A' for Active; 'I' for Inactive)
REMARK    1  A    between atoms: C_5  and  N_6 
REMARK    2  A    between atoms: N_6  and  C_7 
REMARK    3  A    between atoms: C_7  and  C_8 
REMARK    4  A    between atoms: N_10  and  C_12 
REMARK    5  A    between atoms: C_12  and  C_13 
REMARK    6  A    between atoms: C_14  and  C_15 
ROOT
HETATM    1  C   UNL     1      -5.655   3.029 -32.047  1.00  0.00     0.031 C 
HETATM    2  C   UNL     1      -6.383   1.770 -32.530  1.00  0.00     0.241 C 
HETATM    3  N   UNL     1      -6.619   0.932 -31.287  1.00  0.00    -0.067 N 
HETATM    4  H   UNL     1      -7.637   0.816 -31.177  1.00  0.00     0.280 HD
HETATM    5  C   UNL     1      -6.150   1.733 -30.092  1.00  0.00     0.235 C 
HETATM    6  C   UNL     1      -6.143   3.159 -30.605  1.00  0.00     0.035 C 
ENDROOT
BRANCH   3   7
HETATM    7  C   UNL     1      -6.079  -0.479 -31.380  1.00  0.00     0.277 C 
BRANCH   7   8
HETATM    8  C   UNL     1      -4.601  -0.562 -31.451  1.00  0.00     0.016 A 
HETATM    9  C   UNL     1      -3.816  -1.437 -32.269  1.00  0.00     0.102 A 
HETATM   10  N   UNL     1      -2.512  -1.190 -32.105  1.00  0.00    -0.174 NA
HETATM   11  N   UNL     1      -2.440  -0.281 -31.130  1.00  0.00    -0.288 N 
HETATM   12  H   UNL     1      -1.518   0.002 -30.802  1.00  0.00     0.188 HD
HETATM   13  C   UNL     1      -3.668   0.151 -30.717  1.00  0.00     0.120 A 
BRANCH   9  14
HETATM   14  C   UNL     1      -4.244  -2.478 -33.193  1.00  0.00     0.072 A 
HETATM   15  C   UNL     1      -5.074  -2.199 -34.281  1.00  0.00     0.132 A 
HETATM   16  F   UNL     1      -5.548  -0.956 -34.476  1.00  0.00    -0.205 F 
HETATM   17  C   UNL     1      -5.463  -3.201 -35.174  1.00  0.00     0.043 A 
HETATM   18  C   UNL     1      -5.022  -4.509 -34.983  1.00  0.00     0.006 A 
HETATM   19  C   UNL     1      -4.202  -4.809 -33.897  1.00  0.00     0.043 A 
HETATM   20  C   UNL     1      -3.820  -3.799 -33.014  1.00  0.00     0.132 A 
HETATM   21  F   UNL     1      -3.067  -4.135 -31.956  1.00  0.00    -0.205 F 
ENDBRANCH   9  14
ENDBRANCH   7   8
ENDBRANCH   3   7
BRANCH   1  22
HETATM   22  C   UNL     1      -4.120   2.892 -32.161  1.00  0.00     0.127 C 
BRANCH  22  23
HETATM   23  N   UNL     1      -3.464   3.750 -31.171  1.00  0.00    -0.376 N 
HETATM   24  H   UNL     1      -4.074   4.030 -30.406  1.00  0.00     0.161 HD
BRANCH  23  25
HETATM   25  C   UNL     1      -2.486   4.661 -31.539  1.00  0.00     0.101 A 
HETATM   26  N   UNL     1      -1.839   5.326 -30.563  1.00  0.00    -0.347 N 
HETATM   27  C   UNL     1      -0.845   6.210 -30.776  1.00  0.00     0.007 A 
HETATM   28  H   UNL     1      -2.109   5.136 -29.603  1.00  0.00     0.167 HD
HETATM   29  C   UNL     1      -0.207   6.885 -29.604  1.00  0.00     0.068 C 
HETATM   30  C   UNL     1      -0.428   6.463 -32.081  1.00  0.00     0.025 A 
HETATM   31  C   UNL     1      -1.041   5.789 -33.127  1.00  0.00     0.006 A 
HETATM   32  C   UNL     1      -2.065   4.883 -32.857  1.00  0.00     0.048 A 
ENDBRANCH  23  25
ENDBRANCH  22  23
ENDBRANCH   1  22
TORSDOF 6
ENDMDL
