MODEL 1
REMARK VINA RESULT:      -9.0      0.000      0.000
REMARK  5 active torsions:
REMARK  status: ('A' for Active; 'I' for Inactive)
REMARK    1  A    between atoms: C_2  and  C_3 
REMARK    2  A    between atoms: C_5  and  C_6 
REMARK    3  A    between atoms: C_6  and  C_7 
REMARK       I    between atoms: C_7  and  N_8 
REMARK    4  A    between atoms: N_8  and  C_9 
REMARK    5  A    between atoms: C_11  and  C_12 
ROOT
HETATM    1  C   UNL     1      -3.725   1.743 -32.152  1.00  0.00     0.226 C 
HETATM    2  N   UNL     1      -5.051   1.785 -32.554  1.00  0.00    -0.327 N 
HETATM    3  O   UNL     1      -2.919   0.848 -32.388  1.00  0.00    -0.273 OA
HETATM    4  H   UNL     1      -5.578   2.604 -32.274  1.00  0.00     0.169 HD
ENDROOT
BRANCH   2   5
HETATM    5  C   UNL     1      -5.722   0.878 -33.402  1.00  0.00     0.035 A 
HETATM    6  C   UNL     1      -5.421  -0.486 -33.483  1.00  0.00     0.042 A 
HETATM    7  C   UNL     1      -6.094  -1.333 -34.380  1.00  0.00    -0.021 A 
HETATM    8  C   UNL     1      -7.098  -0.788 -35.189  1.00  0.00     0.012 A 
HETATM    9  C   UNL     1      -7.417   0.568 -35.109  1.00  0.00     0.003 A 
HETATM   10  C   UNL     1      -6.730   1.397 -34.221  1.00  0.00     0.029 A 
BRANCH   7  11
HETATM   11  C   UNL     1      -5.760  -2.749 -34.480  1.00  0.00     0.010 A 
HETATM   12  C   UNL     1      -6.530  -3.859 -34.907  1.00  0.00     0.152 A 
HETATM   13  N   UNL     1      -5.855  -5.012 -34.870  1.00  0.00    -0.187 NA
HETATM   14  N   UNL     1      -4.646  -4.649 -34.414  1.00  0.00    -0.289 N 
HETATM   15  H   UNL     1      -3.940  -5.367 -34.295  1.00  0.00     0.188 HD
HETATM   16  C   UNL     1      -4.537  -3.310 -34.173  1.00  0.00     0.123 A 
ENDBRANCH   7  11
ENDBRANCH   2   5
BRANCH   1  17
HETATM   17  C   UNL     1      -3.312   2.960 -31.337  1.00  0.00     0.141 C 
BRANCH  17  18
HETATM   18  C   UNL     1      -2.499   4.000 -32.081  1.00  0.00    -0.049 A 
HETATM   19  C   UNL     1      -1.574   4.840 -31.436  1.00  0.00     0.014 A 
HETATM   20  C   UNL     1      -0.828   5.791 -32.149  1.00  0.00    -0.058 A 
HETATM   21  C   UNL     1      -1.074   5.939 -33.521  1.00  0.00     0.007 A 
HETATM   22  C   UNL     1      -2.016   5.141 -34.169  1.00  0.00     0.001 A 
HETATM   23  C   UNL     1      -2.721   4.174 -33.454  1.00  0.00     0.007 A 
BRANCH  20  24
HETATM   24  C   UNL     1       0.188   6.699 -31.493  1.00  0.00     0.034 C 
HETATM   25  C   UNL     1       0.327   6.577 -29.980  1.00  0.00     0.010 C 
ENDBRANCH  20  24
ENDBRANCH  17  18
ENDBRANCH   1  17
TORSDOF 5
ENDMDL
MODEL 2
REMARK VINA RESULT:      -8.8      4.705      8.308
REMARK  5 active torsions:
REMARK  status: ('A' for Active; 'I' for Inactive)
REMARK    1  A    between atoms: C_2  and  C_3 
REMARK    2  A    between atoms: C_5  and  C_6 
REMARK    3  A    between atoms: C_6  and  C_7 
REMARK       I    between atoms: C_7  and  N_8 
REMARK    4  A    between atoms: N_8  and  C_9 
REMARK    5  A    between atoms: C_11  and  C_12 
ROOT
HETATM    1  C   UNL     1      -9.930   1.077 -34.029  1.00  0.00     0.226 C 
HETATM    2  N   UNL     1      -8.822   0.856 -34.832  1.00  0.00    -0.327 N 
HETATM    3  O   UNL     1     -10.085   0.688 -32.875  1.00  0.00    -0.273 OA
HETATM    4  H   UNL     1      -8.858   1.254 -35.763  1.00  0.00     0.169 HD
ENDROOT
BRANCH   2   5
HETATM    5  C   UNL     1      -7.606   0.240 -34.468  1.00  0.00     0.035 A 
HETATM    6  C   UNL     1      -7.302  -1.102 -34.723  1.00  0.00     0.042 A 
HETATM    7  C   UNL     1      -6.090  -1.673 -34.297  1.00  0.00    -0.021 A 
HETATM    8  C   UNL     1      -5.170  -0.862 -33.620  1.00  0.00     0.012 A 
HETATM    9  C   UNL     1      -5.456   0.481 -33.371  1.00  0.00     0.003 A 
HETATM   10  C   UNL     1      -6.669   1.027 -33.791  1.00  0.00     0.029 A 
BRANCH   7  11
HETATM   11  C   UNL     1      -5.787  -3.078 -34.541  1.00  0.00     0.010 A 
HETATM   12  C   UNL     1      -6.537  -4.094 -35.184  1.00  0.00     0.152 A 
HETATM   13  N   UNL     1      -5.903  -5.269 -35.223  1.00  0.00    -0.187 NA
HETATM   14  N   UNL     1      -4.742  -5.017 -34.600  1.00  0.00    -0.289 N 
HETATM   15  H   UNL     1      -4.074  -5.773 -34.500  1.00  0.00     0.188 HD
HETATM   16  C   UNL     1      -4.621  -3.723 -34.181  1.00  0.00     0.123 A 
ENDBRANCH   7  11
ENDBRANCH   2   5
BRANCH   1  17
HETATM   17  C   UNL     1     -11.016   1.885 -34.724  1.00  0.00     0.141 C 
BRANCH  17  18
HETATM   18  C   UNL     1     -12.399   1.785 -34.114  1.00  0.00    -0.049 A 
HETATM   19  C   UNL     1     -12.872   2.701 -33.157  1.00  0.00     0.014 A 
HETATM   20  C   UNL     1     -14.160   2.590 -32.612  1.00  0.00    -0.058 A 
HETATM   21  C   UNL     1     -14.952   1.497 -32.990  1.00  0.00     0.007 A 
HETATM   22  C   UNL     1     -14.483   0.558 -33.908  1.00  0.00     0.001 A 
HETATM   23  C   UNL     1     -13.217   0.704 -34.470  1.00  0.00     0.007 A 
BRANCH  20  24
HETATM   24  C   UNL     1     -14.709   3.566 -31.595  1.00  0.00     0.034 C 
HETATM   25  C   UNL     1     -13.682   4.362 -30.799  1.00  0.00     0.010 C 
ENDBRANCH  20  24
ENDBRANCH  17  18
ENDBRANCH   1  17
TORSDOF 5
ENDMDL
MODEL 3
REMARK VINA RESULT:      -8.5      2.636      8.863
REMARK  5 active torsions:
REMARK  status: ('A' for Active; 'I' for Inactive)
REMARK    1  A    between atoms: C_2  and  C_3 
REMARK    2  A    between atoms: C_5  and  C_6 
REMARK    3  A    between atoms: C_6  and  C_7 
REMARK       I    between atoms: C_7  and  N_8 
REMARK    4  A    between atoms: N_8  and  C_9 
REMARK    5  A    between atoms: C_11  and  C_12 
ROOT
HETATM    1  C   UNL     1      -3.890   1.482 -31.688  1.00  0.00     0.226 C 
HETATM    2  N   UNL     1      -3.990   2.778 -32.169  1.00  0.00    -0.327 N 
HETATM    3  O   UNL     1      -2.855   0.890 -31.397  1.00  0.00    -0.273 OA
HETATM    4  H   UNL     1      -4.928   3.115 -32.356  1.00  0.00     0.169 HD
ENDROOT
BRANCH   2   5
HETATM    5  C   UNL     1      -2.953   3.722 -32.322  1.00  0.00     0.035 A 
HETATM    6  C   UNL     1      -2.285   4.330 -31.253  1.00  0.00     0.042 A 
HETATM    7  C   UNL     1      -1.288   5.298 -31.466  1.00  0.00    -0.021 A 
HETATM    8  C   UNL     1      -0.955   5.636 -32.784  1.00  0.00     0.012 A 
HETATM    9  C   UNL     1      -1.604   5.028 -33.859  1.00  0.00     0.003 A 
HETATM   10  C   UNL     1      -2.600   4.078 -33.628  1.00  0.00     0.029 A 
BRANCH   7  11
HETATM   11  C   UNL     1      -0.612   5.948 -30.350  1.00  0.00     0.010 A 
HETATM   12  C   UNL     1       0.335   5.454 -29.419  1.00  0.00     0.152 A 
HETATM   13  N   UNL     1       0.737   6.376 -28.540  1.00  0.00    -0.187 NA
HETATM   14  N   UNL     1       0.046   7.469 -28.898  1.00  0.00    -0.289 N 
HETATM   15  H   UNL     1       0.181   8.321 -28.365  1.00  0.00     0.188 HD
HETATM   16  C   UNL     1      -0.767   7.268 -29.975  1.00  0.00     0.123 A 
ENDBRANCH   7  11
ENDBRANCH   2   5
BRANCH   1  17
HETATM   17  C   UNL     1      -5.240   0.796 -31.542  1.00  0.00     0.141 C 
BRANCH  17  18
HETATM   18  C   UNL     1      -5.767   0.115 -32.788  1.00  0.00    -0.049 A 
HETATM   19  C   UNL     1      -5.411  -1.199 -33.141  1.00  0.00     0.014 A 
HETATM   20  C   UNL     1      -5.918  -1.809 -34.298  1.00  0.00    -0.058 A 
HETATM   21  C   UNL     1      -6.742  -1.053 -35.144  1.00  0.00     0.007 A 
HETATM   22  C   UNL     1      -7.075   0.264 -34.828  1.00  0.00     0.001 A 
HETATM   23  C   UNL     1      -6.594   0.843 -33.655  1.00  0.00     0.007 A 
BRANCH  20  24
HETATM   24  C   UNL     1      -5.572  -3.225 -34.701  1.00  0.00     0.034 C 
HETATM   25  C   UNL     1      -6.746  -4.170 -34.928  1.00  0.00     0.010 C 
ENDBRANCH  20  24
ENDBRANCH  17  18
ENDBRANCH   1  17
TORSDOF 5
ENDMDL
MODEL 4
REMARK VINA RESULT:      -8.5      4.078      7.576
REMARK  5 active torsions:
REMARK  status: ('A' for Active; 'I' for Inactive)
REMARK    1  A    between atoms: C_2  and  C_3 
REMARK    2  A    between atoms: C_5  and  C_6 
REMARK    3  A    between atoms: C_6  and  C_7 
REMARK       I    between atoms: C_7  and  N_8 
REMARK    4  A    between atoms: N_8  and  C_9 
REMARK    5  A    between atoms: C_11  and  C_12 
ROOT
HETATM    1  C   UNL     1      -8.343   1.794 -32.648  1.00  0.00     0.226 C 
HETATM    2  N   UNL     1      -7.386   1.518 -33.613  1.00  0.00    -0.327 N 
HETATM    3  O   UNL     1      -8.547   1.158 -31.619  1.00  0.00    -0.273 OA
HETATM    4  H   UNL     1      -7.351   2.152 -34.403  1.00  0.00     0.169 HD
ENDROOT
BRANCH   2   5
HETATM    5  C   UNL     1      -6.382   0.527 -33.569  1.00  0.00     0.035 A 
HETATM    6  C   UNL     1      -6.548  -0.776 -34.050  1.00  0.00     0.042 A 
HETATM    7  C   UNL     1      -5.525  -1.734 -33.939  1.00  0.00    -0.021 A 
HETATM    8  C   UNL     1      -4.314  -1.354 -33.349  1.00  0.00     0.012 A 
HETATM    9  C   UNL     1      -4.131  -0.054 -32.877  1.00  0.00     0.003 A 
HETATM   10  C   UNL     1      -5.162   0.881 -32.985  1.00  0.00     0.029 A 
BRANCH   7  11
HETATM   11  C   UNL     1      -5.711  -3.099 -34.418  1.00  0.00     0.010 A 
HETATM   12  C   UNL     1      -4.825  -4.205 -34.443  1.00  0.00     0.152 A 
HETATM   13  N   UNL     1      -5.379  -5.309 -34.954  1.00  0.00    -0.187 NA
HETATM   14  N   UNL     1      -6.624  -4.917 -35.264  1.00  0.00    -0.289 N 
HETATM   15  H   UNL     1      -7.254  -5.595 -35.679  1.00  0.00     0.188 HD
HETATM   16  C   UNL     1      -6.874  -3.610 -34.958  1.00  0.00     0.123 A 
ENDBRANCH   7  11
ENDBRANCH   2   5
BRANCH   1  17
HETATM   17  C   UNL     1      -9.183   3.019 -32.978  1.00  0.00     0.141 C 
BRANCH  17  18
HETATM   18  C   UNL     1     -10.437   2.755 -33.787  1.00  0.00    -0.049 A 
HETATM   19  C   UNL     1     -11.295   1.673 -33.520  1.00  0.00     0.014 A 
HETATM   20  C   UNL     1     -12.454   1.453 -34.280  1.00  0.00    -0.058 A 
HETATM   21  C   UNL     1     -12.708   2.301 -35.368  1.00  0.00     0.007 A 
HETATM   22  C   UNL     1     -11.847   3.355 -35.670  1.00  0.00     0.001 A 
HETATM   23  C   UNL     1     -10.720   3.583 -34.882  1.00  0.00     0.007 A 
BRANCH  20  24
HETATM   24  C   UNL     1     -13.409   0.312 -34.012  1.00  0.00     0.034 C 
HETATM   25  C   UNL     1     -14.884   0.588 -34.282  1.00  0.00     0.010 C 
ENDBRANCH  20  24
ENDBRANCH  17  18
ENDBRANCH   1  17
TORSDOF 5
ENDMDL
MODEL 5
REMARK VINA RESULT:      -8.4      5.437      9.182
REMARK  5 active torsions:
REMARK  status: ('A' for Active; 'I' for Inactive)
REMARK    1  A    between atoms: C_2  and  C_3 
REMARK    2  A    between atoms: C_5  and  C_6 
REMARK    3  A    between atoms: C_6  and  C_7 
REMARK       I    between atoms: C_7  and  N_8 
REMARK    4  A    between atoms: N_8  and  C_9 
REMARK    5  A    between atoms: C_11  and  C_12 
ROOT
HETATM    1  C   UNL     1      -9.226   0.749 -34.182  1.00  0.00     0.226 C 
HETATM    2  N   UNL     1     -10.196   1.598 -34.691  1.00  0.00    -0.327 N 
HETATM    3  O   UNL     1      -9.294   0.104 -33.140  1.00  0.00    -0.273 OA
HETATM    4  H   UNL     1      -9.977   2.052 -35.570  1.00  0.00     0.169 HD
ENDROOT
BRANCH   2   5
HETATM    5  C   UNL     1     -11.497   1.816 -34.189  1.00  0.00     0.035 A 
HETATM    6  C   UNL     1     -11.805   2.756 -33.199  1.00  0.00     0.042 A 
HETATM    7  C   UNL     1     -13.114   2.899 -32.706  1.00  0.00    -0.021 A 
HETATM    8  C   UNL     1     -14.122   2.088 -33.241  1.00  0.00     0.012 A 
HETATM    9  C   UNL     1     -13.830   1.156 -34.238  1.00  0.00     0.003 A 
HETATM   10  C   UNL     1     -12.523   1.020 -34.707  1.00  0.00     0.029 A 
BRANCH   7  11
HETATM   11  C   UNL     1     -13.427   3.861 -31.655  1.00  0.00     0.010 A 
HETATM   12  C   UNL     1     -14.510   4.763 -31.513  1.00  0.00     0.152 A 
HETATM   13  N   UNL     1     -14.451   5.479 -30.386  1.00  0.00    -0.187 NA
HETATM   14  N   UNL     1     -13.326   5.043 -29.799  1.00  0.00    -0.289 N 
HETATM   15  H   UNL     1     -13.058   5.448 -28.910  1.00  0.00     0.188 HD
HETATM   16  C   UNL     1     -12.682   4.074 -30.513  1.00  0.00     0.123 A 
ENDBRANCH   7  11
ENDBRANCH   2   5
BRANCH   1  17
HETATM   17  C   UNL     1      -7.984   0.672 -35.059  1.00  0.00     0.141 C 
BRANCH  17  18
HETATM   18  C   UNL     1      -6.859  -0.192 -34.527  1.00  0.00    -0.049 A 
HETATM   19  C   UNL     1      -6.744  -1.559 -34.837  1.00  0.00     0.014 A 
HETATM   20  C   UNL     1      -5.689  -2.337 -34.336  1.00  0.00    -0.058 A 
HETATM   21  C   UNL     1      -4.778  -1.737 -33.455  1.00  0.00     0.007 A 
HETATM   22  C   UNL     1      -4.901  -0.392 -33.107  1.00  0.00     0.001 A 
HETATM   23  C   UNL     1      -5.932   0.377 -33.643  1.00  0.00     0.007 A 
BRANCH  20  24
HETATM   24  C   UNL     1      -5.522  -3.804 -34.661  1.00  0.00     0.034 C 
HETATM   25  C   UNL     1      -6.672  -4.465 -35.413  1.00  0.00     0.010 C 
ENDBRANCH  20  24
ENDBRANCH  17  18
ENDBRANCH   1  17
TORSDOF 5
ENDMDL
MODEL 6
REMARK VINA RESULT:      -8.0      3.182      8.634
REMARK  5 active torsions:
REMARK  status: ('A' for Active; 'I' for Inactive)
REMARK    1  A    between atoms: C_2  and  C_3 
REMARK    2  A    between atoms: C_5  and  C_6 
REMARK    3  A    between atoms: C_6  and  C_7 
REMARK       I    between atoms: C_7  and  N_8 
REMARK    4  A    between atoms: N_8  and  C_9 
REMARK    5  A    between atoms: C_11  and  C_12 
ROOT
HETATM    1  C   UNL     1      -5.237   4.285 -33.093  1.00  0.00     0.226 C 
HETATM    2  N   UNL     1      -3.931   4.248 -33.555  1.00  0.00    -0.327 N 
HETATM    3  O   UNL     1      -5.670   4.984 -32.182  1.00  0.00    -0.273 OA
HETATM    4  H   UNL     1      -3.745   3.612 -34.321  1.00  0.00     0.169 HD
ENDROOT
BRANCH   2   5
HETATM    5  C   UNL     1      -2.856   5.073 -33.161  1.00  0.00     0.035 A 
HETATM    6  C   UNL     1      -2.059   4.834 -32.036  1.00  0.00     0.042 A 
HETATM    7  C   UNL     1      -1.028   5.716 -31.667  1.00  0.00    -0.021 A 
HETATM    8  C   UNL     1      -0.796   6.844 -32.464  1.00  0.00     0.012 A 
HETATM    9  C   UNL     1      -1.575   7.086 -33.596  1.00  0.00     0.003 A 
HETATM   10  C   UNL     1      -2.601   6.206 -33.940  1.00  0.00     0.029 A 
BRANCH   7  11
HETATM   11  C   UNL     1      -0.216   5.479 -30.479  1.00  0.00     0.010 A 
HETATM   12  C   UNL     1      -0.141   6.177 -29.248  1.00  0.00     0.152 A 
HETATM   13  N   UNL     1       0.726   5.633 -28.389  1.00  0.00    -0.187 NA
HETATM   14  N   UNL     1       1.217   4.583 -29.065  1.00  0.00    -0.289 N 
HETATM   15  H   UNL     1       1.912   4.000 -28.612  1.00  0.00     0.188 HD
HETATM   16  C   UNL     1       0.682   4.444 -30.313  1.00  0.00     0.123 A 
ENDBRANCH   7  11
ENDBRANCH   2   5
BRANCH   1  17
HETATM   17  C   UNL     1      -6.158   3.329 -33.838  1.00  0.00     0.141 C 
BRANCH  17  18
HETATM   18  C   UNL     1      -6.070   1.876 -33.420  1.00  0.00    -0.049 A 
HETATM   19  C   UNL     1      -6.421   0.819 -34.279  1.00  0.00     0.014 A 
HETATM   20  C   UNL     1      -6.325  -0.520 -33.870  1.00  0.00    -0.058 A 
HETATM   21  C   UNL     1      -5.933  -0.787 -32.550  1.00  0.00     0.007 A 
HETATM   22  C   UNL     1      -5.619   0.251 -31.674  1.00  0.00     0.001 A 
HETATM   23  C   UNL     1      -5.682   1.574 -32.107  1.00  0.00     0.007 A 
BRANCH  20  24
HETATM   24  C   UNL     1      -6.676  -1.682 -34.770  1.00  0.00     0.034 C 
HETATM   25  C   UNL     1      -5.626  -2.780 -34.899  1.00  0.00     0.010 C 
ENDBRANCH  20  24
ENDBRANCH  17  18
ENDBRANCH   1  17
TORSDOF 5
ENDMDL
MODEL 7
REMARK VINA RESULT:      -8.0      4.664      7.749
REMARK  5 active torsions:
REMARK  status: ('A' for Active; 'I' for Inactive)
REMARK    1  A    between atoms: C_2  and  C_3 
REMARK    2  A    between atoms: C_5  and  C_6 
REMARK    3  A    between atoms: C_6  and  C_7 
REMARK       I    between atoms: C_7  and  N_8 
REMARK    4  A    between atoms: N_8  and  C_9 
REMARK    5  A    between atoms: C_11  and  C_12 
ROOT
HETATM    1  C   UNL     1      -7.124   1.718 -32.612  1.00  0.00     0.226 C 
HETATM    2  N   UNL     1      -7.916   2.542 -33.397  1.00  0.00    -0.327 N 
HETATM    3  O   UNL     1      -7.451   1.181 -31.558  1.00  0.00    -0.273 OA
HETATM    4  H   UNL     1      -7.487   2.900 -34.243  1.00  0.00     0.169 HD
ENDROOT
BRANCH   2   5
HETATM    5  C   UNL     1      -9.282   2.848 -33.219  1.00  0.00     0.035 A 
HETATM    6  C   UNL     1     -10.326   1.971 -33.532  1.00  0.00     0.042 A 
HETATM    7  C   UNL     1     -11.672   2.348 -33.374  1.00  0.00    -0.021 A 
HETATM    8  C   UNL     1     -11.954   3.625 -32.874  1.00  0.00     0.012 A 
HETATM    9  C   UNL     1     -10.921   4.503 -32.545  1.00  0.00     0.003 A 
HETATM   10  C   UNL     1      -9.592   4.117 -32.720  1.00  0.00     0.029 A 
BRANCH   7  11
HETATM   11  C   UNL     1     -12.759   1.442 -33.726  1.00  0.00     0.010 A 
HETATM   12  C   UNL     1     -14.048   1.696 -34.256  1.00  0.00     0.152 A 
HETATM   13  N   UNL     1     -14.760   0.584 -34.460  1.00  0.00    -0.187 NA
HETATM   14  N   UNL     1     -13.933  -0.393 -34.057  1.00  0.00    -0.289 N 
HETATM   15  H   UNL     1     -14.256  -1.352 -34.115  1.00  0.00     0.188 HD
HETATM   16  C   UNL     1     -12.725   0.066 -33.618  1.00  0.00     0.123 A 
ENDBRANCH   7  11
ENDBRANCH   2   5
BRANCH   1  17
HETATM   17  C   UNL     1      -5.727   1.518 -33.180  1.00  0.00     0.141 C 
BRANCH  17  18
HETATM   18  C   UNL     1      -5.321   0.080 -33.429  1.00  0.00    -0.049 A 
HETATM   19  C   UNL     1      -6.092  -0.799 -34.211  1.00  0.00     0.014 A 
HETATM   20  C   UNL     1      -5.691  -2.126 -34.432  1.00  0.00    -0.058 A 
HETATM   21  C   UNL     1      -4.529  -2.586 -33.795  1.00  0.00     0.007 A 
HETATM   22  C   UNL     1      -3.774  -1.738 -32.985  1.00  0.00     0.001 A 
HETATM   23  C   UNL     1      -4.165  -0.412 -32.807  1.00  0.00     0.007 A 
BRANCH  20  24
HETATM   24  C   UNL     1      -6.484  -3.094 -35.280  1.00  0.00     0.034 C 
HETATM   25  C   UNL     1      -6.592  -4.521 -34.755  1.00  0.00     0.010 C 
ENDBRANCH  20  24
ENDBRANCH  17  18
ENDBRANCH   1  17
TORSDOF 5
ENDMDL
MODEL 8
REMARK VINA RESULT:      -7.9      4.539      6.989
REMARK  5 active torsions:
REMARK  status: ('A' for Active; 'I' for Inactive)
REMARK    1  A    between atoms: C_2  and  C_3 
REMARK    2  A    between atoms: C_5  and  C_6 
REMARK    3  A    between atoms: C_6  and  C_7 
REMARK       I    between atoms: C_7  and  N_8 
REMARK    4  A    between atoms: N_8  and  C_9 
REMARK    5  A    between atoms: C_11  and  C_12 
ROOT
HETATM    1  C   UNL     1      -7.340  -0.321 -34.668  1.00  0.00     0.226 C 
HETATM    2  N   UNL     1      -8.256  -0.279 -33.628  1.00  0.00    -0.327 N 
HETATM    3  O   UNL     1      -7.270   0.460 -35.612  1.00  0.00    -0.273 OA
HETATM    4  H   UNL     1      -8.168  -1.003 -32.925  1.00  0.00     0.169 HD
ENDROOT
BRANCH   2   5
HETATM    5  C   UNL     1      -9.222   0.718 -33.373  1.00  0.00     0.035 A 
HETATM    6  C   UNL     1     -10.588   0.565 -33.630  1.00  0.00     0.042 A 
HETATM    7  C   UNL     1     -11.499   1.611 -33.396  1.00  0.00    -0.021 A 
HETATM    8  C   UNL     1     -11.014   2.817 -32.878  1.00  0.00     0.012 A 
HETATM    9  C   UNL     1      -9.655   2.977 -32.604  1.00  0.00     0.003 A 
HETATM   10  C   UNL     1      -8.764   1.933 -32.854  1.00  0.00     0.029 A 
BRANCH   7  11
HETATM   11  C   UNL     1     -12.920   1.458 -33.690  1.00  0.00     0.010 A 
HETATM   12  C   UNL     1     -13.616   0.471 -34.430  1.00  0.00     0.152 A 
HETATM   13  N   UNL     1     -14.937   0.672 -34.461  1.00  0.00    -0.187 NA
HETATM   14  N   UNL     1     -15.096   1.794 -33.742  1.00  0.00    -0.289 N 
HETATM   15  H   UNL     1     -16.034   2.159 -33.620  1.00  0.00     0.188 HD
HETATM   16  C   UNL     1     -13.925   2.298 -33.256  1.00  0.00     0.123 A 
ENDBRANCH   7  11
ENDBRANCH   2   5
BRANCH   1  17
HETATM   17  C   UNL     1      -6.364  -1.483 -34.553  1.00  0.00     0.141 C 
BRANCH  17  18
HETATM   18  C   UNL     1      -5.213  -1.280 -33.590  1.00  0.00    -0.049 A 
HETATM   19  C   UNL     1      -4.862  -0.014 -33.087  1.00  0.00     0.014 A 
HETATM   20  C   UNL     1      -3.795   0.147 -32.190  1.00  0.00    -0.058 A 
HETATM   21  C   UNL     1      -3.031  -0.980 -31.853  1.00  0.00     0.007 A 
HETATM   22  C   UNL     1      -3.343  -2.236 -32.373  1.00  0.00     0.001 A 
HETATM   23  C   UNL     1      -4.430  -2.386 -33.232  1.00  0.00     0.007 A 
BRANCH  20  24
HETATM   24  C   UNL     1      -3.399   1.488 -31.616  1.00  0.00     0.034 C 
HETATM   25  C   UNL     1      -3.952   2.718 -32.327  1.00  0.00     0.010 C 
ENDBRANCH  20  24
ENDBRANCH  17  18
ENDBRANCH   1  17
TORSDOF 5
ENDMDL
MODEL 9
REMARK VINA RESULT:      -7.9     15.685     17.474
REMARK  5 active torsions:
REMARK  status: ('A' for Active; 'I' for Inactive)
REMARK    1  A    between atoms: C_2  and  C_3 
REMARK    2  A    between atoms: C_5  and  C_6 
REMARK    3  A    between atoms: C_6  and  C_7 
REMARK       I    between atoms: C_7  and  N_8 
REMARK    4  A    between atoms: N_8  and  C_9 
REMARK    5  A    between atoms: C_11  and  C_12 
ROOT
HETATM    1  C   UNL     1      -4.239 -12.321 -39.384  1.00  0.00     0.226 C 
HETATM    2  N   UNL     1      -3.556 -13.407 -39.909  1.00  0.00    -0.327 N 
HETATM    3  O   UNL     1      -3.917 -11.664 -38.398  1.00  0.00    -0.273 OA
HETATM    4  H   UNL     1      -3.961 -13.834 -40.735  1.00  0.00     0.169 HD
ENDROOT
BRANCH   2   5
HETATM    5  C   UNL     1      -2.305 -13.917 -39.500  1.00  0.00     0.035 A 
HETATM    6  C   UNL     1      -2.023 -14.341 -38.197  1.00  0.00     0.042 A 
HETATM    7  C   UNL     1      -0.744 -14.799 -37.836  1.00  0.00    -0.021 A 
HETATM    8  C   UNL     1       0.253 -14.842 -38.819  1.00  0.00     0.012 A 
HETATM    9  C   UNL     1      -0.019 -14.434 -40.125  1.00  0.00     0.003 A 
HETATM   10  C   UNL     1      -1.292 -13.971 -40.462  1.00  0.00     0.029 A 
BRANCH   7  11
HETATM   11  C   UNL     1      -0.445 -15.216 -36.471  1.00  0.00     0.010 A 
HETATM   12  C   UNL     1       0.590 -16.033 -35.953  1.00  0.00     0.152 A 
HETATM   13  N   UNL     1       0.534 -16.172 -34.625  1.00  0.00    -0.187 NA
HETATM   14  N   UNL     1      -0.542 -15.446 -34.282  1.00  0.00    -0.289 N 
HETATM   15  H   UNL     1      -0.798 -15.397 -33.302  1.00  0.00     0.188 HD
HETATM   16  C   UNL     1      -1.156 -14.851 -35.346  1.00  0.00     0.123 A 
ENDBRANCH   7  11
ENDBRANCH   2   5
BRANCH   1  17
HETATM   17  C   UNL     1      -5.502 -11.981 -40.161  1.00  0.00     0.141 C 
BRANCH  17  18
HETATM   18  C   UNL     1      -6.794 -12.512 -39.575  1.00  0.00    -0.049 A 
HETATM   19  C   UNL     1      -8.043 -12.307 -40.188  1.00  0.00     0.014 A 
HETATM   20  C   UNL     1      -9.226 -12.815 -39.628  1.00  0.00    -0.058 A 
HETATM   21  C   UNL     1      -9.148 -13.478 -38.396  1.00  0.00     0.007 A 
HETATM   22  C   UNL     1      -7.922 -13.656 -37.755  1.00  0.00     0.001 A 
HETATM   23  C   UNL     1      -6.752 -13.180 -38.343  1.00  0.00     0.007 A 
BRANCH  20  24
HETATM   24  C   UNL     1     -10.583 -12.630 -40.267  1.00  0.00     0.034 C 
HETATM   25  C   UNL     1     -10.991 -11.197 -40.588  1.00  0.00     0.010 C 
ENDBRANCH  20  24
ENDBRANCH  17  18
ENDBRANCH   1  17
TORSDOF 5
ENDMDL
MODEL 10
REMARK VINA RESULT:      -7.7      3.069      8.219
REMARK  5 active torsions:
REMARK  status: ('A' for Active; 'I' for Inactive)
REMARK    1  A    between atoms: C_2  and  C_3 
REMARK    2  A    between atoms: C_5  and  C_6 
REMARK    3  A    between atoms: C_6  and  C_7 
REMARK       I    between atoms: C_7  and  N_8 
REMARK    4  A    between atoms: N_8  and  C_9 
REMARK    5  A    between atoms: C_11  and  C_12 
ROOT
HETATM    1  C   UNL     1      -6.632   1.640 -31.556  1.00  0.00     0.226 C 
HETATM    2  N   UNL     1      -5.432   2.112 -31.047  1.00  0.00    -0.327 N 
HETATM    3  O   UNL     1      -7.495   2.302 -32.124  1.00  0.00    -0.273 OA
HETATM    4  H   UNL     1      -4.830   1.424 -30.610  1.00  0.00     0.169 HD
ENDROOT
BRANCH   2   5
HETATM    5  C   UNL     1      -4.900   3.413 -31.167  1.00  0.00     0.035 A 
HETATM    6  C   UNL     1      -3.980   3.793 -32.150  1.00  0.00     0.042 A 
HETATM    7  C   UNL     1      -3.449   5.095 -32.193  1.00  0.00    -0.021 A 
HETATM    8  C   UNL     1      -3.875   6.023 -31.235  1.00  0.00     0.012 A 
HETATM    9  C   UNL     1      -4.802   5.659 -30.257  1.00  0.00     0.003 A 
HETATM   10  C   UNL     1      -5.309   4.360 -30.222  1.00  0.00     0.029 A 
BRANCH   7  11
HETATM   11  C   UNL     1      -2.471   5.481 -33.203  1.00  0.00     0.010 A 
HETATM   12  C   UNL     1      -2.070   4.843 -34.403  1.00  0.00     0.152 A 
HETATM   13  N   UNL     1      -1.142   5.528 -35.077  1.00  0.00    -0.187 NA
HETATM   14  N   UNL     1      -0.938   6.611 -34.311  1.00  0.00    -0.289 N 
HETATM   15  H   UNL     1      -0.259   7.298 -34.618  1.00  0.00     0.188 HD
HETATM   16  C   UNL     1      -1.710   6.633 -33.186  1.00  0.00     0.123 A 
ENDBRANCH   7  11
ENDBRANCH   2   5
BRANCH   1  17
HETATM   17  C   UNL     1      -6.822   0.145 -31.342  1.00  0.00     0.141 C 
BRANCH  17  18
HETATM   18  C   UNL     1      -5.925  -0.754 -32.169  1.00  0.00    -0.049 A 
HETATM   19  C   UNL     1      -6.380  -1.423 -33.320  1.00  0.00     0.014 A 
HETATM   20  C   UNL     1      -5.528  -2.245 -34.073  1.00  0.00    -0.058 A 
HETATM   21  C   UNL     1      -4.218  -2.445 -33.615  1.00  0.00     0.007 A 
HETATM   22  C   UNL     1      -3.763  -1.819 -32.455  1.00  0.00     0.001 A 
HETATM   23  C   UNL     1      -4.610  -0.975 -31.739  1.00  0.00     0.007 A 
BRANCH  20  24
HETATM   24  C   UNL     1      -5.976  -2.967 -35.324  1.00  0.00     0.034 C 
HETATM   25  C   UNL     1      -6.701  -4.291 -35.118  1.00  0.00     0.010 C 
ENDBRANCH  20  24
ENDBRANCH  17  18
ENDBRANCH   1  17
TORSDOF 5
ENDMDL
