MODEL 1
REMARK VINA RESULT:      -8.9      0.000      0.000
REMARK  6 active torsions:
REMARK  status: ('A' for Active; 'I' for Inactive)
REMARK    1  A    between atoms: C_2  and  C_3 
REMARK    2  A    between atoms: C_3  and  C_4 
REMARK    3  A    between atoms: C_7  and  C_8 
REMARK    4  A    between atoms: C_14  and  C_15 
REMARK    5  A    between atoms: C_18  and  N_19 
REMARK       I    between atoms: N_19  and  C_20 
REMARK    6  A    between atoms: C_28  and  N_29 
ROOT
HETATM    1  C   UNL     1      -8.851   1.772 -33.472  1.00  0.00     0.099 A 
HETATM    2  N   UNL     1      -9.969   1.861 -34.224  1.00  0.00    -0.172 NA
HETATM    3  N   UNL     1     -10.631   2.924 -33.740  1.00  0.00    -0.256 N 
HETATM    4  H   UNL     1     -11.522   3.177 -34.153  1.00  0.00     0.191 HD
HETATM    5  C   UNL     1      -9.984   3.521 -32.713  1.00  0.00     0.175 A 
HETATM    6  C   UNL     1      -8.813   2.829 -32.516  1.00  0.00     0.040 A 
HETATM    7  C   UNL     1      -7.862   3.285 -31.458  1.00  0.00     0.105 C 
HETATM    8  C   UNL     1      -8.521   4.361 -30.593  1.00  0.00     0.067 C 
HETATM    9  C   UNL     1      -7.884   4.669 -29.247  1.00  0.00     0.020 C 
HETATM   10  N   UNL     1      -7.358   4.923 -28.131  1.00  0.00    -0.096 N 
HETATM   11  C   UNL     1      -9.716   4.937 -30.897  1.00  0.00     0.139 C 
HETATM   12  O   UNL     1     -10.441   4.573 -32.044  1.00  0.00    -0.279 OA
ENDROOT
BRANCH   7  13
HETATM   13  C   UNL     1      -6.636   3.791 -32.207  1.00  0.00    -0.044 A 
HETATM   14  C   UNL     1      -6.667   4.957 -32.991  1.00  0.00     0.010 A 
HETATM   15  C   UNL     1      -5.544   5.375 -33.714  1.00  0.00     0.030 A 
HETATM   16  C   UNL     1      -4.360   4.644 -33.669  1.00  0.00     0.034 A 
HETATM   17  C   UNL     1      -4.311   3.495 -32.871  1.00  0.00     0.030 A 
HETATM   18  C   UNL     1      -5.432   3.075 -32.145  1.00  0.00     0.010 A 
BRANCH  16  19
HETATM   19  N   UNL     1      -3.199   4.977 -34.396  1.00  0.00    -0.328 N 
HETATM   20  C   UNL     1      -1.914   5.127 -33.907  1.00  0.00     0.218 C 
HETATM   21  C   UNL     1      -0.941   5.543 -34.983  1.00  0.00     0.117 C 
HETATM   22  O   UNL     1      -1.531   4.937 -32.759  1.00  0.00    -0.274 OA
HETATM   23  H   UNL     1      -3.329   5.133 -35.388  1.00  0.00     0.169 HD
ENDBRANCH  16  19
ENDBRANCH   7  13
BRANCH  11  24
HETATM   24  N   UNL     1     -10.360   5.893 -30.143  1.00  0.00    -0.282 NA
HETATM   25  H   UNL     1     -10.288   6.847 -30.490  1.00  0.00     0.126 HD
HETATM   26  H   UNL     1     -11.315   5.624 -29.923  1.00  0.00     0.126 HD
ENDBRANCH  11  24
BRANCH   1  27
HETATM   27  C   UNL     1      -7.889   0.698 -33.720  1.00  0.00    -0.005 A 
HETATM   28  C   UNL     1      -7.573   0.342 -35.038  1.00  0.00     0.014 A 
HETATM   29  C   UNL     1      -6.681  -0.699 -35.307  1.00  0.00     0.008 A 
HETATM   30  C   UNL     1      -6.082  -1.406 -34.258  1.00  0.00    -0.058 A 
HETATM   31  C   UNL     1      -6.394  -1.053 -32.940  1.00  0.00     0.008 A 
HETATM   32  C   UNL     1      -7.298  -0.018 -32.673  1.00  0.00     0.014 A 
BRANCH  30  33
HETATM   33  C   UNL     1      -5.123  -2.537 -34.548  1.00  0.00     0.042 C 
BRANCH  33  34
HETATM   34  C   UNL     1      -5.715  -3.936 -34.290  1.00  0.00    -0.019 C 
HETATM   35  C   UNL     1      -4.629  -5.007 -34.156  1.00  0.00     0.010 C 
HETATM   36  C   UNL     1      -6.666  -4.312 -35.430  1.00  0.00     0.010 C 
ENDBRANCH  33  34
ENDBRANCH  30  33
ENDBRANCH   1  27
TORSDOF 6
ENDMDL
MODEL 2
REMARK VINA RESULT:      -8.5     16.434     19.664
REMARK  6 active torsions:
REMARK  status: ('A' for Active; 'I' for Inactive)
REMARK    1  A    between atoms: C_2  and  C_3 
REMARK    2  A    between atoms: C_3  and  C_4 
REMARK    3  A    between atoms: C_7  and  C_8 
REMARK    4  A    between atoms: C_14  and  C_15 
REMARK    5  A    between atoms: C_18  and  N_19 
REMARK       I    between atoms: N_19  and  C_20 
REMARK    6  A    between atoms: C_28  and  N_29 
ROOT
HETATM    1  C   UNL     1      -3.844 -12.527 -38.826  1.00  0.00     0.099 A 
HETATM    2  N   UNL     1      -3.215 -11.343 -38.676  1.00  0.00    -0.172 NA
HETATM    3  N   UNL     1      -1.906 -11.644 -38.646  1.00  0.00    -0.256 N 
HETATM    4  H   UNL     1      -1.233 -10.896 -38.525  1.00  0.00     0.191 HD
HETATM    5  C   UNL     1      -1.672 -12.971 -38.770  1.00  0.00     0.175 A 
HETATM    6  C   UNL     1      -2.893 -13.584 -38.916  1.00  0.00     0.040 A 
HETATM    7  C   UNL     1      -2.949 -15.065 -39.114  1.00  0.00     0.105 C 
HETATM    8  C   UNL     1      -1.568 -15.676 -38.872  1.00  0.00     0.067 C 
HETATM    9  C   UNL     1      -1.494 -17.176 -38.638  1.00  0.00     0.020 C 
HETATM   10  N   UNL     1      -1.433 -18.420 -38.442  1.00  0.00    -0.096 N 
HETATM   11  C   UNL     1      -0.439 -14.933 -38.706  1.00  0.00     0.139 C 
HETATM   12  O   UNL     1      -0.468 -13.529 -38.743  1.00  0.00    -0.279 OA
ENDROOT
BRANCH   7  13
HETATM   13  C   UNL     1      -3.447 -15.264 -40.539  1.00  0.00    -0.044 A 
HETATM   14  C   UNL     1      -2.701 -14.852 -41.657  1.00  0.00     0.010 A 
HETATM   15  C   UNL     1      -3.200 -14.996 -42.957  1.00  0.00     0.030 A 
HETATM   16  C   UNL     1      -4.455 -15.559 -43.174  1.00  0.00     0.034 A 
HETATM   17  C   UNL     1      -5.196 -15.995 -42.070  1.00  0.00     0.030 A 
HETATM   18  C   UNL     1      -4.698 -15.854 -40.768  1.00  0.00     0.010 A 
BRANCH  16  19
HETATM   19  N   UNL     1      -5.044 -15.703 -44.447  1.00  0.00    -0.328 N 
HETATM   20  C   UNL     1      -5.133 -16.857 -45.206  1.00  0.00     0.218 C 
HETATM   21  C   UNL     1      -5.786 -16.607 -46.544  1.00  0.00     0.117 C 
HETATM   22  O   UNL     1      -4.773 -17.983 -44.888  1.00  0.00    -0.274 OA
HETATM   23  H   UNL     1      -5.435 -14.862 -44.850  1.00  0.00     0.169 HD
ENDBRANCH  16  19
ENDBRANCH   7  13
BRANCH  11  24
HETATM   24  N   UNL     1       0.821 -15.433 -38.466  1.00  0.00    -0.282 NA
HETATM   25  H   UNL     1       1.028 -16.329 -38.900  1.00  0.00     0.126 HD
HETATM   26  H   UNL     1       1.544 -14.738 -38.634  1.00  0.00     0.126 HD
ENDBRANCH  11  24
BRANCH   1  27
HETATM   27  C   UNL     1      -5.306 -12.574 -38.886  1.00  0.00    -0.005 A 
HETATM   28  C   UNL     1      -6.035 -12.943 -37.747  1.00  0.00     0.014 A 
HETATM   29  C   UNL     1      -7.429 -13.025 -37.783  1.00  0.00     0.008 A 
HETATM   30  C   UNL     1      -8.125 -12.736 -38.962  1.00  0.00    -0.058 A 
HETATM   31  C   UNL     1      -7.401 -12.367 -40.101  1.00  0.00     0.008 A 
HETATM   32  C   UNL     1      -6.003 -12.298 -40.068  1.00  0.00     0.014 A 
BRANCH  30  33
HETATM   33  C   UNL     1      -9.632 -12.833 -39.003  1.00  0.00     0.042 C 
BRANCH  33  34
HETATM   34  C   UNL     1     -10.228 -12.651 -40.412  1.00  0.00    -0.019 C 
HETATM   35  C   UNL     1     -10.878 -11.276 -40.592  1.00  0.00     0.010 C 
HETATM   36  C   UNL     1     -11.267 -13.745 -40.677  1.00  0.00     0.010 C 
ENDBRANCH  33  34
ENDBRANCH  30  33
ENDBRANCH   1  27
TORSDOF 6
ENDMDL
MODEL 3
REMARK VINA RESULT:      -8.5      2.186      6.374
REMARK  6 active torsions:
REMARK  status: ('A' for Active; 'I' for Inactive)
REMARK    1  A    between atoms: C_2  and  C_3 
REMARK    2  A    between atoms: C_3  and  C_4 
REMARK    3  A    between atoms: C_7  and  C_8 
REMARK    4  A    between atoms: C_14  and  C_15 
REMARK    5  A    between atoms: C_18  and  N_19 
REMARK       I    between atoms: N_19  and  C_20 
REMARK    6  A    between atoms: C_28  and  N_29 
ROOT
HETATM    1  C   UNL     1      -7.151   4.068 -31.445  1.00  0.00     0.099 A 
HETATM    2  N   UNL     1      -7.227   4.253 -30.110  1.00  0.00    -0.172 NA
HETATM    3  N   UNL     1      -8.520   4.054 -29.804  1.00  0.00    -0.256 N 
HETATM    4  H   UNL     1      -8.817   4.154 -28.840  1.00  0.00     0.191 HD
HETATM    5  C   UNL     1      -9.272   3.748 -30.886  1.00  0.00     0.175 A 
HETATM    6  C   UNL     1      -8.429   3.718 -31.969  1.00  0.00     0.040 A 
HETATM    7  C   UNL     1      -8.978   3.367 -33.314  1.00  0.00     0.105 C 
HETATM    8  C   UNL     1     -10.506   3.330 -33.261  1.00  0.00     0.067 C 
HETATM    9  C   UNL     1     -11.257   3.381 -34.582  1.00  0.00     0.020 C 
HETATM   10  N   UNL     1     -11.880   3.425 -35.676  1.00  0.00    -0.096 N 
HETATM   11  C   UNL     1     -11.216   3.406 -32.102  1.00  0.00     0.139 C 
HETATM   12  O   UNL     1     -10.582   3.532 -30.855  1.00  0.00    -0.279 OA
ENDROOT
BRANCH   7  13
HETATM   13  C   UNL     1      -8.360   2.019 -33.664  1.00  0.00    -0.044 A 
HETATM   14  C   UNL     1      -7.310   1.896 -34.590  1.00  0.00     0.010 A 
HETATM   15  C   UNL     1      -6.792   0.643 -34.937  1.00  0.00     0.030 A 
HETATM   16  C   UNL     1      -7.305  -0.519 -34.365  1.00  0.00     0.034 A 
HETATM   17  C   UNL     1      -8.334  -0.405 -33.423  1.00  0.00     0.030 A 
HETATM   18  C   UNL     1      -8.853   0.848 -33.072  1.00  0.00     0.010 A 
BRANCH  16  19
HETATM   19  N   UNL     1      -6.865  -1.818 -34.689  1.00  0.00    -0.328 N 
HETATM   20  C   UNL     1      -5.637  -2.387 -34.400  1.00  0.00     0.218 C 
HETATM   21  C   UNL     1      -5.512  -3.783 -34.958  1.00  0.00     0.117 C 
HETATM   22  O   UNL     1      -4.724  -1.889 -33.752  1.00  0.00    -0.274 OA
HETATM   23  H   UNL     1      -7.523  -2.392 -35.201  1.00  0.00     0.169 HD
ENDBRANCH  16  19
ENDBRANCH   7  13
BRANCH  11  24
HETATM   24  N   UNL     1     -12.589   3.397 -32.002  1.00  0.00    -0.282 NA
HETATM   25  H   UNL     1     -12.963   3.598 -31.078  1.00  0.00     0.126 HD
HETATM   26  H   UNL     1     -13.027   3.951 -32.733  1.00  0.00     0.126 HD
ENDBRANCH  11  24
BRANCH   1  27
HETATM   27  C   UNL     1      -5.867   4.223 -32.130  1.00  0.00    -0.005 A 
HETATM   28  C   UNL     1      -5.652   5.334 -32.957  1.00  0.00     0.014 A 
HETATM   29  C   UNL     1      -4.448   5.493 -33.647  1.00  0.00     0.008 A 
HETATM   30  C   UNL     1      -3.429   4.541 -33.522  1.00  0.00    -0.058 A 
HETATM   31  C   UNL     1      -3.639   3.430 -32.697  1.00  0.00     0.008 A 
HETATM   32  C   UNL     1      -4.852   3.265 -32.016  1.00  0.00     0.014 A 
BRANCH  30  33
HETATM   33  C   UNL     1      -2.130   4.709 -34.274  1.00  0.00     0.042 C 
BRANCH  33  34
HETATM   34  C   UNL     1      -1.106   5.608 -33.555  1.00  0.00    -0.019 C 
HETATM   35  C   UNL     1      -0.992   5.277 -32.064  1.00  0.00     0.010 C 
HETATM   36  C   UNL     1      -1.502   7.078 -33.722  1.00  0.00     0.010 C 
ENDBRANCH  33  34
ENDBRANCH  30  33
ENDBRANCH   1  27
TORSDOF 6
ENDMDL
MODEL 4
REMARK VINA RESULT:      -8.4     16.778     18.455
REMARK  6 active torsions:
REMARK  status: ('A' for Active; 'I' for Inactive)
REMARK    1  A    between atoms: C_2  and  C_3 
REMARK    2  A    between atoms: C_3  and  C_4 
REMARK    3  A    between atoms: C_7  and  C_8 
REMARK    4  A    between atoms: C_14  and  C_15 
REMARK    5  A    between atoms: C_18  and  N_19 
REMARK       I    between atoms: N_19  and  C_20 
REMARK    6  A    between atoms: C_28  and  N_29 
ROOT
HETATM    1  C   UNL     1      -5.694 -12.976 -40.354  1.00  0.00     0.099 A 
HETATM    2  N   UNL     1      -5.846 -11.745 -40.885  1.00  0.00    -0.172 NA
HETATM    3  N   UNL     1      -7.174 -11.554 -40.949  1.00  0.00    -0.256 N 
HETATM    4  H   UNL     1      -7.527 -10.686 -41.334  1.00  0.00     0.191 HD
HETATM    5  C   UNL     1      -7.877 -12.611 -40.480  1.00  0.00     0.175 A 
HETATM    6  C   UNL     1      -6.965 -13.548 -40.059  1.00  0.00     0.040 A 
HETATM    7  C   UNL     1      -7.454 -14.823 -39.451  1.00  0.00     0.105 C 
HETATM    8  C   UNL     1      -8.967 -14.943 -39.637  1.00  0.00     0.067 C 
HETATM    9  C   UNL     1      -9.592 -16.316 -39.448  1.00  0.00     0.020 C 
HETATM   10  N   UNL     1     -10.110 -17.455 -39.293  1.00  0.00    -0.096 N 
HETATM   11  C   UNL     1      -9.746 -13.930 -40.105  1.00  0.00     0.139 C 
HETATM   12  O   UNL     1      -9.203 -12.684 -40.460  1.00  0.00    -0.279 OA
ENDROOT
BRANCH   7  13
HETATM   13  C   UNL     1      -7.035 -14.760 -37.988  1.00  0.00    -0.044 A 
HETATM   14  C   UNL     1      -7.524 -13.774 -37.113  1.00  0.00     0.010 A 
HETATM   15  C   UNL     1      -7.087 -13.701 -35.785  1.00  0.00     0.030 A 
HETATM   16  C   UNL     1      -6.155 -14.613 -35.295  1.00  0.00     0.034 A 
HETATM   17  C   UNL     1      -5.681 -15.613 -36.152  1.00  0.00     0.030 A 
HETATM   18  C   UNL     1      -6.118 -15.690 -37.480  1.00  0.00     0.010 A 
BRANCH  16  19
HETATM   19  N   UNL     1      -5.637 -14.583 -33.985  1.00  0.00    -0.328 N 
HETATM   20  C   UNL     1      -6.267 -14.988 -32.821  1.00  0.00     0.218 C 
HETATM   21  C   UNL     1      -5.413 -14.752 -31.600  1.00  0.00     0.117 C 
HETATM   22  O   UNL     1      -7.373 -15.506 -32.720  1.00  0.00    -0.274 OA
HETATM   23  H   UNL     1      -4.699 -14.213 -33.889  1.00  0.00     0.169 HD
ENDBRANCH  16  19
ENDBRANCH   7  13
BRANCH  11  24
HETATM   24  N   UNL     1     -11.106 -13.994 -40.308  1.00  0.00    -0.282 NA
HETATM   25  H   UNL     1     -11.547 -13.127 -40.607  1.00  0.00     0.126 HD
HETATM   26  H   UNL     1     -11.367 -14.788 -40.887  1.00  0.00     0.126 HD
ENDBRANCH  11  24
BRANCH   1  27
HETATM   27  C   UNL     1      -4.351 -13.522 -40.152  1.00  0.00    -0.005 A 
HETATM   28  C   UNL     1      -3.753 -14.287 -41.163  1.00  0.00     0.014 A 
HETATM   29  C   UNL     1      -2.485 -14.845 -40.986  1.00  0.00     0.008 A 
HETATM   30  C   UNL     1      -1.784 -14.647 -39.791  1.00  0.00    -0.058 A 
HETATM   31  C   UNL     1      -2.377 -13.883 -38.779  1.00  0.00     0.008 A 
HETATM   32  C   UNL     1      -3.654 -13.335 -38.952  1.00  0.00     0.014 A 
BRANCH  30  33
HETATM   33  C   UNL     1      -0.417 -15.257 -39.597  1.00  0.00     0.042 C 
BRANCH  33  34
HETATM   34  C   UNL     1       0.339 -14.711 -38.370  1.00  0.00    -0.019 C 
HETATM   35  C   UNL     1       1.826 -14.485 -38.660  1.00  0.00     0.010 C 
HETATM   36  C   UNL     1       0.191 -15.686 -37.197  1.00  0.00     0.010 C 
ENDBRANCH  33  34
ENDBRANCH  30  33
ENDBRANCH   1  27
TORSDOF 6
ENDMDL
MODEL 5
REMARK VINA RESULT:      -8.3      2.491      6.511
REMARK  6 active torsions:
REMARK  status: ('A' for Active; 'I' for Inactive)
REMARK    1  A    between atoms: C_2  and  C_3 
REMARK    2  A    between atoms: C_3  and  C_4 
REMARK    3  A    between atoms: C_7  and  C_8 
REMARK    4  A    between atoms: C_14  and  C_15 
REMARK    5  A    between atoms: C_18  and  N_19 
REMARK       I    between atoms: N_19  and  C_20 
REMARK    6  A    between atoms: C_28  and  N_29 
ROOT
HETATM    1  C   UNL     1      -6.388   4.130 -30.408  1.00  0.00     0.099 A 
HETATM    2  N   UNL     1      -6.597   4.283 -29.083  1.00  0.00    -0.172 NA
HETATM    3  N   UNL     1      -7.910   4.060 -28.909  1.00  0.00    -0.256 N 
HETATM    4  H   UNL     1      -8.301   4.135 -27.977  1.00  0.00     0.191 HD
HETATM    5  C   UNL     1      -8.549   3.770 -30.066  1.00  0.00     0.175 A 
HETATM    6  C   UNL     1      -7.604   3.776 -31.062  1.00  0.00     0.040 A 
HETATM    7  C   UNL     1      -8.013   3.449 -32.462  1.00  0.00     0.105 C 
HETATM    8  C   UNL     1      -9.538   3.390 -32.559  1.00  0.00     0.067 C 
HETATM    9  C   UNL     1     -10.158   3.462 -33.945  1.00  0.00     0.020 C 
HETATM   10  N   UNL     1     -10.672   3.523 -35.095  1.00  0.00    -0.096 N 
HETATM   11  C   UNL     1     -10.359   3.431 -31.474  1.00  0.00     0.139 C 
HETATM   12  O   UNL     1      -9.852   3.537 -30.168  1.00  0.00    -0.279 OA
ENDROOT
BRANCH   7  13
HETATM   13  C   UNL     1      -7.344   2.117 -32.778  1.00  0.00    -0.044 A 
HETATM   14  C   UNL     1      -7.315   1.057 -31.855  1.00  0.00     0.010 A 
HETATM   15  C   UNL     1      -6.650  -0.139 -32.144  1.00  0.00     0.030 A 
HETATM   16  C   UNL     1      -6.000  -0.311 -33.364  1.00  0.00     0.034 A 
HETATM   17  C   UNL     1      -6.044   0.729 -34.300  1.00  0.00     0.030 A 
HETATM   18  C   UNL     1      -6.710   1.927 -34.014  1.00  0.00     0.010 A 
BRANCH  16  19
HETATM   19  N   UNL     1      -5.276  -1.468 -33.716  1.00  0.00    -0.328 N 
HETATM   20  C   UNL     1      -5.756  -2.600 -34.352  1.00  0.00     0.218 C 
HETATM   21  C   UNL     1      -4.692  -3.658 -34.510  1.00  0.00     0.117 C 
HETATM   22  O   UNL     1      -6.888  -2.782 -34.785  1.00  0.00    -0.274 OA
HETATM   23  H   UNL     1      -4.296  -1.471 -33.462  1.00  0.00     0.169 HD
ENDBRANCH  16  19
ENDBRANCH   7  13
BRANCH  11  24
HETATM   24  N   UNL     1     -11.735   3.402 -31.509  1.00  0.00    -0.282 NA
HETATM   25  H   UNL     1     -12.199   3.467 -30.606  1.00  0.00     0.126 HD
HETATM   26  H   UNL     1     -12.112   4.053 -32.192  1.00  0.00     0.126 HD
ENDBRANCH  11  24
BRANCH   1  27
HETATM   27  C   UNL     1      -5.046   4.317 -30.961  1.00  0.00    -0.005 A 
HETATM   28  C   UNL     1      -4.506   5.607 -31.049  1.00  0.00     0.014 A 
HETATM   29  C   UNL     1      -3.240   5.820 -31.599  1.00  0.00     0.008 A 
HETATM   30  C   UNL     1      -2.483   4.742 -32.072  1.00  0.00    -0.058 A 
HETATM   31  C   UNL     1      -3.018   3.451 -31.986  1.00  0.00     0.008 A 
HETATM   32  C   UNL     1      -4.293   3.241 -31.446  1.00  0.00     0.014 A 
BRANCH  30  33
HETATM   33  C   UNL     1      -1.118   4.972 -32.674  1.00  0.00     0.042 C 
BRANCH  33  34
HETATM   34  C   UNL     1      -1.149   5.721 -34.020  1.00  0.00    -0.019 C 
HETATM   35  C   UNL     1      -1.426   7.216 -33.844  1.00  0.00     0.010 C 
HETATM   36  C   UNL     1      -2.220   5.107 -34.927  1.00  0.00     0.010 C 
ENDBRANCH  33  34
ENDBRANCH  30  33
ENDBRANCH   1  27
TORSDOF 6
ENDMDL
MODEL 6
REMARK VINA RESULT:      -8.1      4.504      6.142
REMARK  6 active torsions:
REMARK  status: ('A' for Active; 'I' for Inactive)
REMARK    1  A    between atoms: C_2  and  C_3 
REMARK    2  A    between atoms: C_3  and  C_4 
REMARK    3  A    between atoms: C_7  and  C_8 
REMARK    4  A    between atoms: C_14  and  C_15 
REMARK    5  A    between atoms: C_18  and  N_19 
REMARK       I    between atoms: N_19  and  C_20 
REMARK    6  A    between atoms: C_28  and  N_29 
ROOT
HETATM    1  C   UNL     1     -12.556   0.993 -33.647  1.00  0.00     0.099 A 
HETATM    2  N   UNL     1     -13.268   0.029 -34.267  1.00  0.00    -0.172 NA
HETATM    3  N   UNL     1     -14.553   0.381 -34.097  1.00  0.00    -0.256 N 
HETATM    4  H   UNL     1     -15.280  -0.215 -34.476  1.00  0.00     0.191 HD
HETATM    5  C   UNL     1     -14.693   1.530 -33.395  1.00  0.00     0.175 A 
HETATM    6  C   UNL     1     -13.428   1.980 -33.103  1.00  0.00     0.040 A 
HETATM    7  C   UNL     1     -13.263   3.265 -32.358  1.00  0.00     0.105 C 
HETATM    8  C   UNL     1     -14.619   3.742 -31.833  1.00  0.00     0.067 C 
HETATM    9  C   UNL     1     -14.618   4.795 -30.737  1.00  0.00     0.020 C 
HETATM   10  N   UNL     1     -14.618   5.667 -29.827  1.00  0.00    -0.096 N 
HETATM   11  C   UNL     1     -15.802   3.168 -32.187  1.00  0.00     0.139 C 
HETATM   12  O   UNL     1     -15.858   2.076 -33.069  1.00  0.00    -0.279 OA
ENDROOT
BRANCH   7  13
HETATM   13  C   UNL     1     -12.635   4.232 -33.352  1.00  0.00    -0.044 A 
HETATM   14  C   UNL     1     -13.101   4.354 -34.673  1.00  0.00     0.010 A 
HETATM   15  C   UNL     1     -12.477   5.210 -35.587  1.00  0.00     0.030 A 
HETATM   16  C   UNL     1     -11.374   5.970 -35.206  1.00  0.00     0.034 A 
HETATM   17  C   UNL     1     -10.917   5.874 -33.886  1.00  0.00     0.030 A 
HETATM   18  C   UNL     1     -11.541   5.020 -32.969  1.00  0.00     0.010 A 
BRANCH  16  19
HETATM   19  N   UNL     1     -10.667   6.824 -36.076  1.00  0.00    -0.328 N 
HETATM   20  C   UNL     1     -11.011   8.109 -36.457  1.00  0.00     0.218 C 
HETATM   21  C   UNL     1     -10.033   8.690 -37.448  1.00  0.00     0.117 C 
HETATM   22  O   UNL     1     -11.964   8.769 -36.060  1.00  0.00    -0.274 OA
HETATM   23  H   UNL     1      -9.816   6.445 -36.472  1.00  0.00     0.169 HD
ENDBRANCH  16  19
ENDBRANCH   7  13
BRANCH  11  24
HETATM   24  N   UNL     1     -17.043   3.545 -31.729  1.00  0.00    -0.282 NA
HETATM   25  H   UNL     1     -17.089   3.804 -30.746  1.00  0.00     0.126 HD
HETATM   26  H   UNL     1     -17.481   4.232 -32.337  1.00  0.00     0.126 HD
ENDBRANCH  11  24
BRANCH   1  27
HETATM   27  C   UNL     1     -11.094   0.919 -33.624  1.00  0.00    -0.005 A 
HETATM   28  C   UNL     1     -10.460  -0.007 -32.785  1.00  0.00     0.014 A 
HETATM   29  C   UNL     1      -9.067  -0.081 -32.719  1.00  0.00     0.008 A 
HETATM   30  C   UNL     1      -8.276   0.772 -33.496  1.00  0.00    -0.058 A 
HETATM   31  C   UNL     1      -8.904   1.699 -34.336  1.00  0.00     0.008 A 
HETATM   32  C   UNL     1     -10.301   1.781 -34.391  1.00  0.00     0.014 A 
BRANCH  30  33
HETATM   33  C   UNL     1      -6.769   0.699 -33.420  1.00  0.00     0.042 C 
BRANCH  33  34
HETATM   34  C   UNL     1      -6.207  -0.728 -33.570  1.00  0.00    -0.019 C 
HETATM   35  C   UNL     1      -4.684  -0.769 -33.420  1.00  0.00     0.010 C 
HETATM   36  C   UNL     1      -6.600  -1.296 -34.937  1.00  0.00     0.010 C 
ENDBRANCH  33  34
ENDBRANCH  30  33
ENDBRANCH   1  27
TORSDOF 6
ENDMDL
MODEL 7
REMARK VINA RESULT:      -8.1      2.552      6.511
REMARK  6 active torsions:
REMARK  status: ('A' for Active; 'I' for Inactive)
REMARK    1  A    between atoms: C_2  and  C_3 
REMARK    2  A    between atoms: C_3  and  C_4 
REMARK    3  A    between atoms: C_7  and  C_8 
REMARK    4  A    between atoms: C_14  and  C_15 
REMARK    5  A    between atoms: C_18  and  N_19 
REMARK       I    between atoms: N_19  and  C_20 
REMARK    6  A    between atoms: C_28  and  N_29 
ROOT
HETATM    1  C   UNL     1      -6.783   4.994 -30.783  1.00  0.00     0.099 A 
HETATM    2  N   UNL     1      -6.994   5.502 -29.551  1.00  0.00    -0.172 NA
HETATM    3  N   UNL     1      -8.272   5.203 -29.264  1.00  0.00    -0.256 N 
HETATM    4  H   UNL     1      -8.659   5.504 -28.377  1.00  0.00     0.191 HD
HETATM    5  C   UNL     1      -8.886   4.525 -30.260  1.00  0.00     0.175 A 
HETATM    6  C   UNL     1      -7.958   4.341 -31.256  1.00  0.00     0.040 A 
HETATM    7  C   UNL     1      -8.343   3.581 -32.484  1.00  0.00     0.105 C 
HETATM    8  C   UNL     1      -9.853   3.338 -32.496  1.00  0.00     0.067 C 
HETATM    9  C   UNL     1     -10.491   2.940 -33.816  1.00  0.00     0.020 C 
HETATM   10  N   UNL     1     -11.021   2.611 -34.912  1.00  0.00    -0.096 N 
HETATM   11  C   UNL     1     -10.662   3.606 -31.434  1.00  0.00     0.139 C 
HETATM   12  O   UNL     1     -10.156   4.137 -30.236  1.00  0.00    -0.279 OA
ENDROOT
BRANCH   7  13
HETATM   13  C   UNL     1      -7.532   2.293 -32.433  1.00  0.00    -0.044 A 
HETATM   14  C   UNL     1      -7.763   1.302 -31.463  1.00  0.00     0.010 A 
HETATM   15  C   UNL     1      -6.972   0.148 -31.401  1.00  0.00     0.030 A 
HETATM   16  C   UNL     1      -5.933  -0.048 -32.307  1.00  0.00     0.034 A 
HETATM   17  C   UNL     1      -5.710   0.922 -33.292  1.00  0.00     0.030 A 
HETATM   18  C   UNL     1      -6.501   2.075 -33.359  1.00  0.00     0.010 A 
BRANCH  16  19
HETATM   19  N   UNL     1      -5.069  -1.161 -32.287  1.00  0.00    -0.328 N 
HETATM   20  C   UNL     1      -3.794  -1.226 -31.753  1.00  0.00     0.218 C 
HETATM   21  C   UNL     1      -3.155  -2.576 -31.971  1.00  0.00     0.117 C 
HETATM   22  O   UNL     1      -3.201  -0.345 -31.142  1.00  0.00    -0.274 OA
HETATM   23  H   UNL     1      -5.424  -2.003 -32.723  1.00  0.00     0.169 HD
ENDBRANCH  16  19
ENDBRANCH   7  13
BRANCH  11  24
HETATM   24  N   UNL     1     -12.026   3.425 -31.400  1.00  0.00    -0.282 NA
HETATM   25  H   UNL     1     -12.562   4.194 -31.006  1.00  0.00     0.126 HD
HETATM   26  H   UNL     1     -12.390   3.110 -32.296  1.00  0.00     0.126 HD
ENDBRANCH  11  24
BRANCH   1  27
HETATM   27  C   UNL     1      -5.476   5.152 -31.423  1.00  0.00    -0.005 A 
HETATM   28  C   UNL     1      -5.363   5.923 -32.587  1.00  0.00     0.014 A 
HETATM   29  C   UNL     1      -4.135   6.067 -33.237  1.00  0.00     0.008 A 
HETATM   30  C   UNL     1      -2.989   5.442 -32.731  1.00  0.00    -0.058 A 
HETATM   31  C   UNL     1      -3.097   4.671 -31.568  1.00  0.00     0.008 A 
HETATM   32  C   UNL     1      -4.332   4.517 -30.926  1.00  0.00     0.014 A 
BRANCH  30  33
HETATM   33  C   UNL     1      -1.662   5.591 -33.437  1.00  0.00     0.042 C 
BRANCH  33  34
HETATM   34  C   UNL     1      -0.795   6.745 -32.896  1.00  0.00    -0.019 C 
HETATM   35  C   UNL     1      -0.088   6.373 -31.590  1.00  0.00     0.010 C 
HETATM   36  C   UNL     1      -1.668   7.983 -32.670  1.00  0.00     0.010 C 
ENDBRANCH  33  34
ENDBRANCH  30  33
ENDBRANCH   1  27
TORSDOF 6
ENDMDL
MODEL 8
REMARK VINA RESULT:      -7.5      4.819      8.894
REMARK  6 active torsions:
REMARK  status: ('A' for Active; 'I' for Inactive)
REMARK    1  A    between atoms: C_2  and  C_3 
REMARK    2  A    between atoms: C_3  and  C_4 
REMARK    3  A    between atoms: C_7  and  C_8 
REMARK    4  A    between atoms: C_14  and  C_15 
REMARK    5  A    between atoms: C_18  and  N_19 
REMARK       I    between atoms: N_19  and  C_20 
REMARK    6  A    between atoms: C_28  and  N_29 
ROOT
HETATM    1  C   UNL     1      -1.432   7.064 -28.062  1.00  0.00     0.099 A 
HETATM    2  N   UNL     1      -0.438   6.555 -27.305  1.00  0.00    -0.172 NA
HETATM    3  N   UNL     1      -0.838   6.733 -26.036  1.00  0.00    -0.256 N 
HETATM    4  H   UNL     1      -0.231   6.432 -25.282  1.00  0.00     0.191 HD
HETATM    5  C   UNL     1      -2.047   7.334 -25.948  1.00  0.00     0.175 A 
HETATM    6  C   UNL     1      -2.487   7.546 -27.233  1.00  0.00     0.040 A 
HETATM    7  C   UNL     1      -3.827   8.168 -27.454  1.00  0.00     0.105 C 
HETATM    8  C   UNL     1      -4.385   8.691 -26.129  1.00  0.00     0.067 C 
HETATM    9  C   UNL     1      -5.530   9.689 -26.193  1.00  0.00     0.020 C 
HETATM   10  N   UNL     1      -6.479  10.517 -26.246  1.00  0.00    -0.096 N 
HETATM   11  C   UNL     1      -3.815   8.427 -24.922  1.00  0.00     0.139 C 
HETATM   12  O   UNL     1      -2.652   7.648 -24.809  1.00  0.00    -0.279 OA
ENDROOT
BRANCH   7  13
HETATM   13  C   UNL     1      -4.685   7.072 -28.072  1.00  0.00    -0.044 A 
HETATM   14  C   UNL     1      -5.245   6.038 -27.302  1.00  0.00     0.010 A 
HETATM   15  C   UNL     1      -5.987   5.011 -27.896  1.00  0.00     0.030 A 
HETATM   16  C   UNL     1      -6.193   4.992 -29.274  1.00  0.00     0.034 A 
HETATM   17  C   UNL     1      -5.660   6.030 -30.046  1.00  0.00     0.030 A 
HETATM   18  C   UNL     1      -4.919   7.061 -29.454  1.00  0.00     0.010 A 
BRANCH  16  19
HETATM   19  N   UNL     1      -6.894   3.974 -29.952  1.00  0.00    -0.328 N 
HETATM   20  C   UNL     1      -6.419   2.729 -30.324  1.00  0.00     0.218 C 
HETATM   21  C   UNL     1      -7.449   1.931 -31.086  1.00  0.00     0.117 C 
HETATM   22  O   UNL     1      -5.316   2.254 -30.079  1.00  0.00    -0.274 OA
HETATM   23  H   UNL     1      -7.852   4.188 -30.201  1.00  0.00     0.169 HD
ENDBRANCH  16  19
ENDBRANCH   7  13
BRANCH  11  24
HETATM   24  N   UNL     1      -4.266   8.889 -23.706  1.00  0.00    -0.282 NA
HETATM   25  H   UNL     1      -3.554   9.282 -23.094  1.00  0.00     0.126 HD
HETATM   26  H   UNL     1      -5.077   9.492 -23.804  1.00  0.00     0.126 HD
ENDBRANCH  11  24
BRANCH   1  27
HETATM   27  C   UNL     1      -1.320   7.048 -29.521  1.00  0.00    -0.005 A 
HETATM   28  C   UNL     1      -1.731   8.165 -30.260  1.00  0.00     0.014 A 
HETATM   29  C   UNL     1      -1.664   8.166 -31.656  1.00  0.00     0.008 A 
HETATM   30  C   UNL     1      -1.180   7.047 -32.343  1.00  0.00    -0.058 A 
HETATM   31  C   UNL     1      -0.768   5.929 -31.608  1.00  0.00     0.008 A 
HETATM   32  C   UNL     1      -0.849   5.924 -30.210  1.00  0.00     0.014 A 
BRANCH  30  33
HETATM   33  C   UNL     1      -1.115   7.045 -33.851  1.00  0.00     0.042 C 
BRANCH  33  34
HETATM   34  C   UNL     1      -2.257   6.259 -34.523  1.00  0.00    -0.019 C 
HETATM   35  C   UNL     1      -3.455   6.069 -33.589  1.00  0.00     0.010 C 
HETATM   36  C   UNL     1      -1.742   4.889 -34.978  1.00  0.00     0.010 C 
ENDBRANCH  33  34
ENDBRANCH  30  33
ENDBRANCH   1  27
TORSDOF 6
ENDMDL
MODEL 9
REMARK VINA RESULT:      -7.5      2.385      2.946
REMARK  6 active torsions:
REMARK  status: ('A' for Active; 'I' for Inactive)
REMARK    1  A    between atoms: C_2  and  C_3 
REMARK    2  A    between atoms: C_3  and  C_4 
REMARK    3  A    between atoms: C_7  and  C_8 
REMARK    4  A    between atoms: C_14  and  C_15 
REMARK    5  A    between atoms: C_18  and  N_19 
REMARK       I    between atoms: N_19  and  C_20 
REMARK    6  A    between atoms: C_28  and  N_29 
ROOT
HETATM    1  C   UNL     1      -8.500   4.499 -33.516  1.00  0.00     0.099 A 
HETATM    2  N   UNL     1      -9.034   4.922 -34.681  1.00  0.00    -0.172 NA
HETATM    3  N   UNL     1      -9.408   6.192 -34.453  1.00  0.00    -0.256 N 
HETATM    4  H   UNL     1      -9.853   6.714 -35.199  1.00  0.00     0.191 HD
HETATM    5  C   UNL     1      -9.134   6.599 -33.192  1.00  0.00     0.175 A 
HETATM    6  C   UNL     1      -8.522   5.548 -32.552  1.00  0.00     0.040 A 
HETATM    7  C   UNL     1      -8.066   5.718 -31.139  1.00  0.00     0.105 C 
HETATM    8  C   UNL     1      -8.607   7.031 -30.570  1.00  0.00     0.067 C 
HETATM    9  C   UNL     1      -8.592   7.201 -29.059  1.00  0.00     0.020 C 
HETATM   10  N   UNL     1      -8.580   7.343 -27.807  1.00  0.00    -0.096 N 
HETATM   11  C   UNL     1      -9.232   7.973 -31.327  1.00  0.00     0.139 C 
HETATM   12  O   UNL     1      -9.430   7.799 -32.707  1.00  0.00    -0.279 OA
ENDROOT
BRANCH   7  13
HETATM   13  C   UNL     1      -6.545   5.675 -31.197  1.00  0.00    -0.044 A 
HETATM   14  C   UNL     1      -5.784   6.759 -31.669  1.00  0.00     0.010 A 
HETATM   15  C   UNL     1      -4.390   6.681 -31.764  1.00  0.00     0.030 A 
HETATM   16  C   UNL     1      -3.719   5.520 -31.387  1.00  0.00     0.034 A 
HETATM   17  C   UNL     1      -4.465   4.444 -30.893  1.00  0.00     0.030 A 
HETATM   18  C   UNL     1      -5.860   4.520 -30.794  1.00  0.00     0.010 A 
BRANCH  16  19
HETATM   19  N   UNL     1      -2.324   5.348 -31.488  1.00  0.00    -0.328 N 
HETATM   20  C   UNL     1      -1.351   5.840 -30.635  1.00  0.00     0.218 C 
HETATM   21  C   UNL     1       0.042   5.494 -31.102  1.00  0.00     0.117 C 
HETATM   22  O   UNL     1      -1.525   6.465 -29.596  1.00  0.00    -0.274 OA
HETATM   23  H   UNL     1      -2.002   4.811 -32.284  1.00  0.00     0.169 HD
ENDBRANCH  16  19
ENDBRANCH   7  13
BRANCH  11  24
HETATM   24  N   UNL     1      -9.753   9.159 -30.861  1.00  0.00    -0.282 NA
HETATM   25  H   UNL     1      -9.707   9.293 -29.854  1.00  0.00     0.126 HD
HETATM   26  H   UNL     1      -9.403   9.959 -31.381  1.00  0.00     0.126 HD
ENDBRANCH  11  24
BRANCH   1  27
HETATM   27  C   UNL     1      -7.993   3.131 -33.401  1.00  0.00    -0.005 A 
HETATM   28  C   UNL     1      -8.728   2.177 -32.684  1.00  0.00     0.014 A 
HETATM   29  C   UNL     1      -8.254   0.872 -32.531  1.00  0.00     0.008 A 
HETATM   30  C   UNL     1      -7.032   0.491 -33.097  1.00  0.00    -0.058 A 
HETATM   31  C   UNL     1      -6.295   1.441 -33.814  1.00  0.00     0.008 A 
HETATM   32  C   UNL     1      -6.765   2.752 -33.955  1.00  0.00     0.014 A 
BRANCH  30  33
HETATM   33  C   UNL     1      -6.516  -0.918 -32.926  1.00  0.00     0.042 C 
BRANCH  33  34
HETATM   34  C   UNL     1      -5.949  -1.534 -34.220  1.00  0.00    -0.019 C 
HETATM   35  C   UNL     1      -6.759  -2.747 -34.685  1.00  0.00     0.010 C 
HETATM   36  C   UNL     1      -4.491  -1.947 -33.998  1.00  0.00     0.010 C 
ENDBRANCH  33  34
ENDBRANCH  30  33
ENDBRANCH   1  27
TORSDOF 6
ENDMDL
MODEL 10
REMARK VINA RESULT:      -7.4      2.579      6.296
REMARK  6 active torsions:
REMARK  status: ('A' for Active; 'I' for Inactive)
REMARK    1  A    between atoms: C_2  and  C_3 
REMARK    2  A    between atoms: C_3  and  C_4 
REMARK    3  A    between atoms: C_7  and  C_8 
REMARK    4  A    between atoms: C_14  and  C_15 
REMARK    5  A    between atoms: C_18  and  N_19 
REMARK       I    between atoms: N_19  and  C_20 
REMARK    6  A    between atoms: C_28  and  N_29 
ROOT
HETATM    1  C   UNL     1      -8.149   5.298 -30.895  1.00  0.00     0.099 A 
HETATM    2  N   UNL     1      -8.516   5.718 -29.666  1.00  0.00    -0.172 NA
HETATM    3  N   UNL     1      -9.777   5.281 -29.510  1.00  0.00    -0.256 N 
HETATM    4  H   UNL     1     -10.267   5.496 -28.650  1.00  0.00     0.191 HD
HETATM    5  C   UNL     1     -10.230   4.598 -30.586  1.00  0.00     0.175 A 
HETATM    6  C   UNL     1      -9.206   4.558 -31.501  1.00  0.00     0.040 A 
HETATM    7  C   UNL     1      -9.403   3.829 -32.790  1.00  0.00     0.105 C 
HETATM    8  C   UNL     1     -10.874   3.440 -32.949  1.00  0.00     0.067 C 
HETATM    9  C   UNL     1     -11.352   3.051 -34.339  1.00  0.00     0.020 C 
HETATM   10  N   UNL     1     -11.749   2.729 -35.491  1.00  0.00    -0.096 N 
HETATM   11  C   UNL     1     -11.795   3.572 -31.955  1.00  0.00     0.139 C 
HETATM   12  O   UNL     1     -11.451   4.087 -30.694  1.00  0.00    -0.279 OA
ENDROOT
BRANCH   7  13
HETATM   13  C   UNL     1      -8.473   2.626 -32.721  1.00  0.00    -0.044 A 
HETATM   14  C   UNL     1      -8.678   1.573 -31.813  1.00  0.00     0.010 A 
HETATM   15  C   UNL     1      -7.781   0.501 -31.728  1.00  0.00     0.030 A 
HETATM   16  C   UNL     1      -6.659   0.451 -32.552  1.00  0.00     0.034 A 
HETATM   17  C   UNL     1      -6.459   1.482 -33.477  1.00  0.00     0.030 A 
HETATM   18  C   UNL     1      -7.355   2.554 -33.565  1.00  0.00     0.010 A 
BRANCH  16  19
HETATM   19  N   UNL     1      -5.691  -0.572 -32.502  1.00  0.00    -0.328 N 
HETATM   20  C   UNL     1      -4.510  -0.578 -31.781  1.00  0.00     0.218 C 
HETATM   21  C   UNL     1      -3.701  -1.829 -32.024  1.00  0.00     0.117 C 
HETATM   22  O   UNL     1      -4.114   0.280 -31.001  1.00  0.00    -0.274 OA
HETATM   23  H   UNL     1      -5.882  -1.389 -33.069  1.00  0.00     0.169 HD
ENDBRANCH  16  19
ENDBRANCH   7  13
BRANCH  11  24
HETATM   24  N   UNL     1     -13.131   3.256 -32.054  1.00  0.00    -0.282 NA
HETATM   25  H   UNL     1     -13.400   2.741 -32.888  1.00  0.00     0.126 HD
HETATM   26  H   UNL     1     -13.486   2.835 -31.199  1.00  0.00     0.126 HD
ENDBRANCH  11  24
BRANCH   1  27
HETATM   27  C   UNL     1      -6.815   5.617 -31.406  1.00  0.00    -0.005 A 
HETATM   28  C   UNL     1      -5.761   4.715 -31.201  1.00  0.00     0.014 A 
HETATM   29  C   UNL     1      -4.471   5.005 -31.651  1.00  0.00     0.008 A 
HETATM   30  C   UNL     1      -4.207   6.206 -32.319  1.00  0.00    -0.058 A 
HETATM   31  C   UNL     1      -5.256   7.110 -32.525  1.00  0.00     0.008 A 
HETATM   32  C   UNL     1      -6.546   6.823 -32.062  1.00  0.00     0.014 A 
BRANCH  30  33
HETATM   33  C   UNL     1      -2.810   6.524 -32.798  1.00  0.00     0.042 C 
BRANCH  33  34
HETATM   34  C   UNL     1      -1.960   5.277 -33.109  1.00  0.00    -0.019 C 
HETATM   35  C   UNL     1      -0.723   5.182 -32.212  1.00  0.00     0.010 C 
HETATM   36  C   UNL     1      -1.526   5.302 -34.578  1.00  0.00     0.010 C 
ENDBRANCH  33  34
ENDBRANCH  30  33
ENDBRANCH   1  27
TORSDOF 6
ENDMDL
