MODEL 1
REMARK VINA RESULT:      -8.6      0.000      0.000
REMARK  7 active torsions:
REMARK  status: ('A' for Active; 'I' for Inactive)
REMARK    1  A    between atoms: O_2  and  C_3 
REMARK    2  A    between atoms: C_6  and  N_7 
REMARK       I    between atoms: N_7  and  C_8 
REMARK    3  A    between atoms: C_8  and  C_9 
REMARK    4  A    between atoms: C_9  and  C_10 
REMARK    5  A    between atoms: C_10  and  N_11 
REMARK    6  A    between atoms: C_10  and  C_20 
REMARK       I    between atoms: N_11  and  C_12 
REMARK    7  A    between atoms: C_12  and  C_13 
ROOT
HETATM    1  C   UNL     1      -5.503  -0.494 -33.173  1.00  0.00     0.126 C 
ENDROOT
BRANCH   1   2
HETATM    2  C   UNL     1      -4.734  -0.444 -31.856  1.00  0.00     0.133 C 
BRANCH   2   3
HETATM    3  C   UNL     1      -3.942   0.818 -31.553  1.00  0.00     0.224 C 
HETATM    4  N   UNL     1      -4.513   2.019 -31.917  1.00  0.00    -0.326 N 
HETATM    5  H   UNL     1      -5.514   2.051 -32.079  1.00  0.00     0.169 HD
HETATM    6  O   UNL     1      -2.810   0.699 -31.083  1.00  0.00    -0.273 OA
BRANCH   4   7
HETATM    7  C   UNL     1      -3.852   3.269 -31.968  1.00  0.00     0.052 A 
HETATM    8  C   UNL     1      -4.050   4.316 -31.071  1.00  0.00     0.149 A 
HETATM    9  N   UNL     1      -3.370   5.493 -31.102  1.00  0.00    -0.235 NA
HETATM   10  C   UNL     1      -2.453   5.637 -32.078  1.00  0.00     0.163 A 
HETATM   11  C   UNL     1      -2.187   4.664 -33.026  1.00  0.00     0.060 A 
HETATM   12  C   UNL     1      -2.895   3.462 -32.965  1.00  0.00     0.035 A 
BRANCH  10  13
HETATM   13  O   UNL     1      -1.716   6.801 -32.165  1.00  0.00    -0.339 OA
HETATM   14  C   UNL     1      -1.324   7.109 -33.500  1.00  0.00     0.211 C 
ENDBRANCH  10  13
ENDBRANCH   4   7
ENDBRANCH   2   3
ENDBRANCH   1   2
BRANCH   1  15
HETATM   15  N   UNL     1      -6.875  -0.036 -33.019  1.00  0.00    -0.348 N 
HETATM   16  C   UNL     1      -7.322   1.098 -33.663  1.00  0.00     0.252 C 
HETATM   17  O   UNL     1      -6.580   1.923 -34.183  1.00  0.00    -0.268 OA
HETATM   18  H   UNL     1      -7.569  -0.736 -32.787  1.00  0.00     0.163 HD
BRANCH  16  19
HETATM   19  C   UNL     1      -8.795   1.248 -33.726  1.00  0.00     0.032 A 
HETATM   20  C   UNL     1      -9.377   2.400 -34.270  1.00  0.00     0.017 A 
HETATM   21  C   UNL     1     -10.766   2.529 -34.289  1.00  0.00     0.001 A 
HETATM   22  C   UNL     1     -11.570   1.515 -33.763  1.00  0.00     0.000 A 
HETATM   23  C   UNL     1     -10.988   0.364 -33.229  1.00  0.00     0.001 A 
HETATM   24  C   UNL     1      -9.599   0.225 -33.217  1.00  0.00     0.017 A 
ENDBRANCH  16  19
ENDBRANCH   1  15
BRANCH   1  25
HETATM   25  C   UNL     1      -5.503  -1.897 -33.767  1.00  0.00    -0.035 A 
HETATM   26  C   UNL     1      -6.681  -2.422 -34.321  1.00  0.00     0.009 A 
HETATM   27  C   UNL     1      -6.701  -3.705 -34.872  1.00  0.00     0.001 A 
HETATM   28  C   UNL     1      -5.546  -4.483 -34.869  1.00  0.00     0.000 A 
HETATM   29  C   UNL     1      -4.372  -3.983 -34.313  1.00  0.00     0.001 A 
HETATM   30  C   UNL     1      -4.349  -2.699 -33.764  1.00  0.00     0.009 A 
ENDBRANCH   1  25
TORSDOF 7
ENDMDL
MODEL 2
REMARK VINA RESULT:      -8.6      1.685      4.982
REMARK  7 active torsions:
REMARK  status: ('A' for Active; 'I' for Inactive)
REMARK    1  A    between atoms: O_2  and  C_3 
REMARK    2  A    between atoms: C_6  and  N_7 
REMARK       I    between atoms: N_7  and  C_8 
REMARK    3  A    between atoms: C_8  and  C_9 
REMARK    4  A    between atoms: C_9  and  C_10 
REMARK    5  A    between atoms: C_10  and  N_11 
REMARK    6  A    between atoms: C_10  and  C_20 
REMARK       I    between atoms: N_11  and  C_12 
REMARK    7  A    between atoms: C_12  and  C_13 
ROOT
HETATM    1  C   UNL     1      -7.257   1.141 -33.711  1.00  0.00     0.126 C 
ENDROOT
BRANCH   1   2
HETATM    2  C   UNL     1      -6.700   2.334 -34.484  1.00  0.00     0.133 C 
BRANCH   2   3
HETATM    3  C   UNL     1      -5.784   3.289 -33.737  1.00  0.00     0.224 C 
HETATM    4  N   UNL     1      -5.429   4.453 -34.384  1.00  0.00    -0.326 N 
HETATM    5  H   UNL     1      -6.000   4.770 -35.161  1.00  0.00     0.169 HD
HETATM    6  O   UNL     1      -5.343   2.940 -32.642  1.00  0.00    -0.273 OA
BRANCH   4   7
HETATM    7  C   UNL     1      -4.399   5.340 -33.991  1.00  0.00     0.052 A 
HETATM    8  C   UNL     1      -4.436   6.161 -32.866  1.00  0.00     0.149 A 
HETATM    9  N   UNL     1      -3.418   6.970 -32.471  1.00  0.00    -0.235 NA
HETATM   10  C   UNL     1      -2.310   6.966 -33.237  1.00  0.00     0.163 A 
HETATM   11  C   UNL     1      -2.174   6.197 -34.380  1.00  0.00     0.060 A 
HETATM   12  C   UNL     1      -3.233   5.370 -34.758  1.00  0.00     0.035 A 
BRANCH  10  13
HETATM   13  O   UNL     1      -1.231   7.754 -32.892  1.00  0.00    -0.339 OA
HETATM   14  C   UNL     1      -0.364   7.125 -31.952  1.00  0.00     0.211 C 
ENDBRANCH  10  13
ENDBRANCH   4   7
ENDBRANCH   2   3
ENDBRANCH   1   2
BRANCH   1  15
HETATM   15  N   UNL     1      -6.781  -0.124 -34.248  1.00  0.00    -0.348 N 
HETATM   16  C   UNL     1      -5.781  -0.832 -33.615  1.00  0.00     0.252 C 
HETATM   17  O   UNL     1      -5.061  -0.362 -32.742  1.00  0.00    -0.268 OA
HETATM   18  H   UNL     1      -7.430  -0.654 -34.817  1.00  0.00     0.163 HD
BRANCH  16  19
HETATM   19  C   UNL     1      -5.647  -2.246 -34.037  1.00  0.00     0.032 A 
HETATM   20  C   UNL     1      -4.413  -2.904 -33.961  1.00  0.00     0.017 A 
HETATM   21  C   UNL     1      -4.307  -4.227 -34.393  1.00  0.00     0.001 A 
HETATM   22  C   UNL     1      -5.427  -4.887 -34.903  1.00  0.00     0.000 A 
HETATM   23  C   UNL     1      -6.658  -4.233 -34.970  1.00  0.00     0.001 A 
HETATM   24  C   UNL     1      -6.772  -2.913 -34.529  1.00  0.00     0.017 A 
ENDBRANCH  16  19
ENDBRANCH   1  15
BRANCH   1  25
HETATM   25  C   UNL     1      -8.781   1.144 -33.702  1.00  0.00    -0.035 A 
HETATM   26  C   UNL     1      -9.481   2.210 -34.289  1.00  0.00     0.009 A 
HETATM   27  C   UNL     1     -10.877   2.230 -34.293  1.00  0.00     0.001 A 
HETATM   28  C   UNL     1     -11.592   1.190 -33.703  1.00  0.00     0.000 A 
HETATM   29  C   UNL     1     -10.913   0.131 -33.106  1.00  0.00     0.001 A 
HETATM   30  C   UNL     1      -9.517   0.108 -33.104  1.00  0.00     0.009 A 
ENDBRANCH   1  25
TORSDOF 7
ENDMDL
MODEL 3
REMARK VINA RESULT:      -8.4      1.527      2.161
REMARK  7 active torsions:
REMARK  status: ('A' for Active; 'I' for Inactive)
REMARK    1  A    between atoms: O_2  and  C_3 
REMARK    2  A    between atoms: C_6  and  N_7 
REMARK       I    between atoms: N_7  and  C_8 
REMARK    3  A    between atoms: C_8  and  C_9 
REMARK    4  A    between atoms: C_9  and  C_10 
REMARK    5  A    between atoms: C_10  and  N_11 
REMARK    6  A    between atoms: C_10  and  C_20 
REMARK       I    between atoms: N_11  and  C_12 
REMARK    7  A    between atoms: C_12  and  C_13 
ROOT
HETATM    1  C   UNL     1      -6.785   0.543 -33.343  1.00  0.00     0.126 C 
ENDROOT
BRANCH   1   2
HETATM    2  C   UNL     1      -6.162   0.944 -32.009  1.00  0.00     0.133 C 
BRANCH   2   3
HETATM    3  C   UNL     1      -5.321   2.210 -31.980  1.00  0.00     0.224 C 
HETATM    4  N   UNL     1      -5.223   2.924 -33.156  1.00  0.00    -0.326 N 
HETATM    5  H   UNL     1      -5.920   2.771 -33.877  1.00  0.00     0.169 HD
HETATM    6  O   UNL     1      -4.711   2.484 -30.947  1.00  0.00    -0.273 OA
BRANCH   4   7
HETATM    7  C   UNL     1      -4.300   3.964 -33.419  1.00  0.00     0.052 A 
HETATM    8  C   UNL     1      -4.624   5.200 -33.976  1.00  0.00     0.149 A 
HETATM    9  N   UNL     1      -3.736   6.209 -34.176  1.00  0.00    -0.235 NA
HETATM   10  C   UNL     1      -2.461   5.976 -33.809  1.00  0.00     0.163 A 
HETATM   11  C   UNL     1      -2.032   4.780 -33.257  1.00  0.00     0.060 A 
HETATM   12  C   UNL     1      -2.967   3.764 -33.057  1.00  0.00     0.035 A 
BRANCH  10  13
HETATM   13  O   UNL     1      -1.506   6.958 -33.972  1.00  0.00    -0.339 OA
HETATM   14  C   UNL     1      -1.026   7.474 -32.734  1.00  0.00     0.211 C 
ENDBRANCH  10  13
ENDBRANCH   4   7
ENDBRANCH   2   3
ENDBRANCH   1   2
BRANCH   1  15
HETATM   15  N   UNL     1      -8.239   0.563 -33.292  1.00  0.00    -0.348 N 
HETATM   16  C   UNL     1      -8.949   1.664 -33.721  1.00  0.00     0.252 C 
HETATM   17  O   UNL     1      -8.445   2.762 -33.925  1.00  0.00    -0.268 OA
HETATM   18  H   UNL     1      -8.712  -0.332 -33.329  1.00  0.00     0.163 HD
BRANCH  16  19
HETATM   19  C   UNL     1     -10.392   1.429 -33.963  1.00  0.00     0.032 A 
HETATM   20  C   UNL     1     -11.063   0.373 -33.332  1.00  0.00     0.017 A 
HETATM   21  C   UNL     1     -12.414   0.154 -33.601  1.00  0.00     0.001 A 
HETATM   22  C   UNL     1     -13.091   0.984 -34.498  1.00  0.00     0.000 A 
HETATM   23  C   UNL     1     -12.424   2.041 -35.118  1.00  0.00     0.001 A 
HETATM   24  C   UNL     1     -11.074   2.270 -34.845  1.00  0.00     0.017 A 
ENDBRANCH  16  19
ENDBRANCH   1  15
BRANCH   1  25
HETATM   25  C   UNL     1      -6.315  -0.838 -33.785  1.00  0.00    -0.035 A 
HETATM   26  C   UNL     1      -4.953  -1.170 -33.709  1.00  0.00     0.009 A 
HETATM   27  C   UNL     1      -4.503  -2.430 -34.106  1.00  0.00     0.001 A 
HETATM   28  C   UNL     1      -5.406  -3.372 -34.593  1.00  0.00     0.000 A 
HETATM   29  C   UNL     1      -6.759  -3.055 -34.687  1.00  0.00     0.001 A 
HETATM   30  C   UNL     1      -7.211  -1.797 -34.287  1.00  0.00     0.009 A 
ENDBRANCH   1  25
TORSDOF 7
ENDMDL
MODEL 4
REMARK VINA RESULT:      -8.4      3.114      8.314
REMARK  7 active torsions:
REMARK  status: ('A' for Active; 'I' for Inactive)
REMARK    1  A    between atoms: O_2  and  C_3 
REMARK    2  A    between atoms: C_6  and  N_7 
REMARK       I    between atoms: N_7  and  C_8 
REMARK    3  A    between atoms: C_8  and  C_9 
REMARK    4  A    between atoms: C_9  and  C_10 
REMARK    5  A    between atoms: C_10  and  N_11 
REMARK    6  A    between atoms: C_10  and  C_20 
REMARK       I    between atoms: N_11  and  C_12 
REMARK    7  A    between atoms: C_12  and  C_13 
ROOT
HETATM    1  C   UNL     1      -7.088   1.330 -33.458  1.00  0.00     0.126 C 
ENDROOT
BRANCH   1   2
HETATM    2  C   UNL     1      -8.179   1.678 -32.448  1.00  0.00     0.133 C 
BRANCH   2   3
HETATM    3  C   UNL     1      -9.587   1.182 -32.738  1.00  0.00     0.224 C 
HETATM    4  N   UNL     1     -10.491   2.106 -33.215  1.00  0.00    -0.326 N 
HETATM    5  H   UNL     1     -10.137   2.961 -33.631  1.00  0.00     0.169 HD
HETATM    6  O   UNL     1      -9.866   0.017 -32.455  1.00  0.00    -0.273 OA
BRANCH   4   7
HETATM    7  C   UNL     1     -11.892   1.928 -33.299  1.00  0.00     0.052 A 
HETATM    8  C   UNL     1     -12.526   0.826 -33.868  1.00  0.00     0.149 A 
HETATM    9  N   UNL     1     -13.873   0.643 -33.896  1.00  0.00    -0.235 NA
HETATM   10  C   UNL     1     -14.626   1.608 -33.334  1.00  0.00     0.163 A 
HETATM   11  C   UNL     1     -14.098   2.748 -32.752  1.00  0.00     0.060 A 
HETATM   12  C   UNL     1     -12.711   2.906 -32.732  1.00  0.00     0.035 A 
BRANCH  10  13
HETATM   13  O   UNL     1     -16.001   1.486 -33.315  1.00  0.00    -0.339 OA
HETATM   14  C   UNL     1     -16.625   2.400 -32.418  1.00  0.00     0.211 C 
ENDBRANCH  10  13
ENDBRANCH   4   7
ENDBRANCH   2   3
ENDBRANCH   1   2
BRANCH   1  15
HETATM   15  N   UNL     1      -6.761  -0.087 -33.438  1.00  0.00    -0.348 N 
HETATM   16  C   UNL     1      -6.985  -0.882 -34.543  1.00  0.00     0.252 C 
HETATM   17  O   UNL     1      -7.682  -0.547 -35.493  1.00  0.00    -0.268 OA
HETATM   18  H   UNL     1      -6.031  -0.380 -32.801  1.00  0.00     0.163 HD
BRANCH  16  19
HETATM   19  C   UNL     1      -6.284  -2.188 -34.531  1.00  0.00     0.032 A 
HETATM   20  C   UNL     1      -6.960  -3.368 -34.865  1.00  0.00     0.017 A 
HETATM   21  C   UNL     1      -6.285  -4.588 -34.816  1.00  0.00     0.001 A 
HETATM   22  C   UNL     1      -4.943  -4.629 -34.432  1.00  0.00     0.000 A 
HETATM   23  C   UNL     1      -4.268  -3.451 -34.108  1.00  0.00     0.001 A 
HETATM   24  C   UNL     1      -4.936  -2.227 -34.165  1.00  0.00     0.017 A 
ENDBRANCH  16  19
ENDBRANCH   1  15
BRANCH   1  25
HETATM   25  C   UNL     1      -5.823   2.144 -33.215  1.00  0.00    -0.035 A 
HETATM   26  C   UNL     1      -4.745   1.570 -32.523  1.00  0.00     0.009 A 
HETATM   27  C   UNL     1      -3.576   2.297 -32.292  1.00  0.00     0.001 A 
HETATM   28  C   UNL     1      -3.472   3.612 -32.742  1.00  0.00     0.000 A 
HETATM   29  C   UNL     1      -4.536   4.201 -33.419  1.00  0.00     0.001 A 
HETATM   30  C   UNL     1      -5.705   3.474 -33.654  1.00  0.00     0.009 A 
ENDBRANCH   1  25
TORSDOF 7
ENDMDL
MODEL 5
REMARK VINA RESULT:      -8.4      2.833      7.879
REMARK  7 active torsions:
REMARK  status: ('A' for Active; 'I' for Inactive)
REMARK    1  A    between atoms: O_2  and  C_3 
REMARK    2  A    between atoms: C_6  and  N_7 
REMARK       I    between atoms: N_7  and  C_8 
REMARK    3  A    between atoms: C_8  and  C_9 
REMARK    4  A    between atoms: C_9  and  C_10 
REMARK    5  A    between atoms: C_10  and  N_11 
REMARK    6  A    between atoms: C_10  and  C_20 
REMARK       I    between atoms: N_11  and  C_12 
REMARK    7  A    between atoms: C_12  and  C_13 
ROOT
HETATM    1  C   UNL     1      -6.403   2.897 -33.432  1.00  0.00     0.126 C 
ENDROOT
BRANCH   1   2
HETATM    2  C   UNL     1      -7.261   3.416 -32.281  1.00  0.00     0.133 C 
BRANCH   2   3
HETATM    3  C   UNL     1      -8.637   2.795 -32.097  1.00  0.00     0.224 C 
HETATM    4  N   UNL     1      -9.445   2.718 -33.211  1.00  0.00    -0.326 N 
HETATM    5  H   UNL     1      -9.015   2.785 -34.128  1.00  0.00     0.169 HD
HETATM    6  O   UNL     1      -8.986   2.474 -30.961  1.00  0.00    -0.273 OA
BRANCH   4   7
HETATM    7  C   UNL     1     -10.829   2.427 -33.213  1.00  0.00     0.052 A 
HETATM    8  C   UNL     1     -11.836   3.320 -32.849  1.00  0.00     0.149 A 
HETATM    9  N   UNL     1     -13.165   3.043 -32.905  1.00  0.00    -0.235 NA
HETATM   10  C   UNL     1     -13.511   1.815 -33.337  1.00  0.00     0.163 A 
HETATM   11  C   UNL     1     -12.591   0.850 -33.712  1.00  0.00     0.060 A 
HETATM   12  C   UNL     1     -11.232   1.165 -33.652  1.00  0.00     0.035 A 
BRANCH  10  13
HETATM   13  O   UNL     1     -14.843   1.466 -33.431  1.00  0.00    -0.339 OA
HETATM   14  C   UNL     1     -15.634   2.016 -32.380  1.00  0.00     0.211 C 
ENDBRANCH  10  13
ENDBRANCH   4   7
ENDBRANCH   2   3
ENDBRANCH   1   2
BRANCH   1  15
HETATM   15  N   UNL     1      -6.147   1.470 -33.318  1.00  0.00    -0.348 N 
HETATM   16  C   UNL     1      -6.710   0.576 -34.204  1.00  0.00     0.252 C 
HETATM   17  O   UNL     1      -7.633   0.855 -34.960  1.00  0.00    -0.268 OA
HETATM   18  H   UNL     1      -5.280   1.193 -32.874  1.00  0.00     0.163 HD
BRANCH  16  19
HETATM   19  C   UNL     1      -6.094  -0.772 -34.215  1.00  0.00     0.032 A 
HETATM   20  C   UNL     1      -4.801  -0.975 -33.717  1.00  0.00     0.017 A 
HETATM   21  C   UNL     1      -4.232  -2.248 -33.768  1.00  0.00     0.001 A 
HETATM   22  C   UNL     1      -4.951  -3.313 -34.315  1.00  0.00     0.000 A 
HETATM   23  C   UNL     1      -6.243  -3.111 -34.802  1.00  0.00     0.001 A 
HETATM   24  C   UNL     1      -6.821  -1.842 -34.745  1.00  0.00     0.017 A 
ENDBRANCH  16  19
ENDBRANCH   1  15
BRANCH   1  25
HETATM   25  C   UNL     1      -5.076   3.642 -33.518  1.00  0.00    -0.035 A 
HETATM   26  C   UNL     1      -4.916   4.679 -34.451  1.00  0.00     0.009 A 
HETATM   27  C   UNL     1      -3.710   5.376 -34.544  1.00  0.00     0.001 A 
HETATM   28  C   UNL     1      -2.645   5.040 -33.711  1.00  0.00     0.000 A 
HETATM   29  C   UNL     1      -2.783   4.007 -32.787  1.00  0.00     0.001 A 
HETATM   30  C   UNL     1      -3.989   3.311 -32.691  1.00  0.00     0.009 A 
ENDBRANCH   1  25
TORSDOF 7
ENDMDL
MODEL 6
REMARK VINA RESULT:      -8.3      1.639      5.143
REMARK  7 active torsions:
REMARK  status: ('A' for Active; 'I' for Inactive)
REMARK    1  A    between atoms: O_2  and  C_3 
REMARK    2  A    between atoms: C_6  and  N_7 
REMARK       I    between atoms: N_7  and  C_8 
REMARK    3  A    between atoms: C_8  and  C_9 
REMARK    4  A    between atoms: C_9  and  C_10 
REMARK    5  A    between atoms: C_10  and  N_11 
REMARK    6  A    between atoms: C_10  and  C_20 
REMARK       I    between atoms: N_11  and  C_12 
REMARK    7  A    between atoms: C_12  and  C_13 
ROOT
HETATM    1  C   UNL     1      -8.541   2.092 -33.456  1.00  0.00     0.126 C 
ENDROOT
BRANCH   1   2
HETATM    2  C   UNL     1      -8.083   3.457 -33.962  1.00  0.00     0.133 C 
BRANCH   2   3
HETATM    3  C   UNL     1      -6.858   4.075 -33.306  1.00  0.00     0.224 C 
HETATM    4  N   UNL     1      -5.629   3.747 -33.837  1.00  0.00    -0.326 N 
HETATM    5  H   UNL     1      -5.592   3.379 -34.782  1.00  0.00     0.169 HD
HETATM    6  O   UNL     1      -7.019   4.758 -32.295  1.00  0.00    -0.273 OA
BRANCH   4   7
HETATM    7  C   UNL     1      -4.373   3.991 -33.234  1.00  0.00     0.052 A 
HETATM    8  C   UNL     1      -3.854   3.281 -32.152  1.00  0.00     0.149 A 
HETATM    9  N   UNL     1      -2.623   3.492 -31.615  1.00  0.00    -0.235 NA
HETATM   10  C   UNL     1      -1.875   4.461 -32.177  1.00  0.00     0.163 A 
HETATM   11  C   UNL     1      -2.300   5.231 -33.247  1.00  0.00     0.060 A 
HETATM   12  C   UNL     1      -3.565   4.987 -33.783  1.00  0.00     0.035 A 
BRANCH  10  13
HETATM   13  O   UNL     1      -0.610   4.724 -31.692  1.00  0.00    -0.339 OA
HETATM   14  C   UNL     1      -0.626   5.492 -30.492  1.00  0.00     0.211 C 
ENDBRANCH  10  13
ENDBRANCH   4   7
ENDBRANCH   2   3
ENDBRANCH   1   2
BRANCH   1  15
HETATM   15  N   UNL     1      -7.725   1.013 -33.989  1.00  0.00    -0.348 N 
HETATM   16  C   UNL     1      -6.762   0.402 -33.213  1.00  0.00     0.252 C 
HETATM   17  O   UNL     1      -6.349   0.859 -32.154  1.00  0.00    -0.268 OA
HETATM   18  H   UNL     1      -8.122   0.467 -34.744  1.00  0.00     0.163 HD
BRANCH  16  19
HETATM   19  C   UNL     1      -6.268  -0.896 -33.730  1.00  0.00     0.032 A 
HETATM   20  C   UNL     1      -7.150  -1.831 -34.286  1.00  0.00     0.017 A 
HETATM   21  C   UNL     1      -6.663  -3.058 -34.737  1.00  0.00     0.001 A 
HETATM   22  C   UNL     1      -5.302  -3.351 -34.631  1.00  0.00     0.000 A 
HETATM   23  C   UNL     1      -4.422  -2.415 -34.086  1.00  0.00     0.001 A 
HETATM   24  C   UNL     1      -4.902  -1.182 -33.642  1.00  0.00     0.017 A 
ENDBRANCH  16  19
ENDBRANCH   1  15
BRANCH   1  25
HETATM   25  C   UNL     1     -10.004   1.834 -33.795  1.00  0.00    -0.035 A 
HETATM   26  C   UNL     1     -10.632   0.665 -33.337  1.00  0.00     0.009 A 
HETATM   27  C   UNL     1     -11.972   0.411 -33.634  1.00  0.00     0.001 A 
HETATM   28  C   UNL     1     -12.700   1.317 -34.402  1.00  0.00     0.000 A 
HETATM   29  C   UNL     1     -12.089   2.476 -34.875  1.00  0.00     0.001 A 
HETATM   30  C   UNL     1     -10.750   2.733 -34.576  1.00  0.00     0.009 A 
ENDBRANCH   1  25
TORSDOF 7
ENDMDL
MODEL 7
REMARK VINA RESULT:      -8.3      2.923      7.561
REMARK  7 active torsions:
REMARK  status: ('A' for Active; 'I' for Inactive)
REMARK    1  A    between atoms: O_2  and  C_3 
REMARK    2  A    between atoms: C_6  and  N_7 
REMARK       I    between atoms: N_7  and  C_8 
REMARK    3  A    between atoms: C_8  and  C_9 
REMARK    4  A    between atoms: C_9  and  C_10 
REMARK    5  A    between atoms: C_10  and  N_11 
REMARK    6  A    between atoms: C_10  and  C_20 
REMARK       I    between atoms: N_11  and  C_12 
REMARK    7  A    between atoms: C_12  and  C_13 
ROOT
HETATM    1  C   UNL     1      -7.015   0.021 -33.394  1.00  0.00     0.126 C 
ENDROOT
BRANCH   1   2
HETATM    2  C   UNL     1      -8.272   0.205 -34.240  1.00  0.00     0.133 C 
BRANCH   2   3
HETATM    3  C   UNL     1      -9.582   0.444 -33.507  1.00  0.00     0.224 C 
HETATM    4  N   UNL     1     -10.554   1.157 -34.176  1.00  0.00    -0.326 N 
HETATM    5  H   UNL     1     -10.495   1.227 -35.187  1.00  0.00     0.169 HD
HETATM    6  O   UNL     1      -9.675   0.069 -32.338  1.00  0.00    -0.273 OA
BRANCH   4   7
HETATM    7  C   UNL     1     -11.721   1.710 -33.599  1.00  0.00     0.052 A 
HETATM    8  C   UNL     1     -11.796   2.960 -32.987  1.00  0.00     0.149 A 
HETATM    9  N   UNL     1     -12.937   3.502 -32.483  1.00  0.00    -0.235 NA
HETATM   10  C   UNL     1     -14.057   2.761 -32.587  1.00  0.00     0.163 A 
HETATM   11  C   UNL     1     -14.089   1.503 -33.167  1.00  0.00     0.060 A 
HETATM   12  C   UNL     1     -12.905   0.975 -33.683  1.00  0.00     0.035 A 
BRANCH  10  13
HETATM   13  O   UNL     1     -15.254   3.250 -32.108  1.00  0.00    -0.339 OA
HETATM   14  C   UNL     1     -16.324   2.318 -32.236  1.00  0.00     0.211 C 
ENDBRANCH  10  13
ENDBRANCH   4   7
ENDBRANCH   2   3
ENDBRANCH   1   2
BRANCH   1  15
HETATM   15  N   UNL     1      -6.125   1.168 -33.488  1.00  0.00    -0.348 N 
HETATM   16  C   UNL     1      -5.998   2.055 -32.440  1.00  0.00     0.252 C 
HETATM   17  O   UNL     1      -6.772   2.105 -31.492  1.00  0.00    -0.268 OA
HETATM   18  H   UNL     1      -5.338   1.088 -34.121  1.00  0.00     0.163 HD
BRANCH  16  19
HETATM   19  C   UNL     1      -4.815   2.946 -32.509  1.00  0.00     0.032 A 
HETATM   20  C   UNL     1      -3.767   2.821 -31.589  1.00  0.00     0.017 A 
HETATM   21  C   UNL     1      -2.679   3.692 -31.657  1.00  0.00     0.001 A 
HETATM   22  C   UNL     1      -2.641   4.685 -32.638  1.00  0.00     0.000 A 
HETATM   23  C   UNL     1      -3.681   4.803 -33.561  1.00  0.00     0.001 A 
HETATM   24  C   UNL     1      -4.767   3.928 -33.503  1.00  0.00     0.017 A 
ENDBRANCH  16  19
ENDBRANCH   1  15
BRANCH   1  25
HETATM   25  C   UNL     1      -6.256  -1.240 -33.789  1.00  0.00    -0.035 A 
HETATM   26  C   UNL     1      -4.905  -1.382 -33.435  1.00  0.00     0.009 A 
HETATM   27  C   UNL     1      -4.193  -2.531 -33.784  1.00  0.00     0.001 A 
HETATM   28  C   UNL     1      -4.820  -3.550 -34.500  1.00  0.00     0.000 A 
HETATM   29  C   UNL     1      -6.156  -3.419 -34.869  1.00  0.00     0.001 A 
HETATM   30  C   UNL     1      -6.870  -2.273 -34.518  1.00  0.00     0.009 A 
ENDBRANCH   1  25
TORSDOF 7
ENDMDL
MODEL 8
REMARK VINA RESULT:      -8.2      1.451      2.190
REMARK  7 active torsions:
REMARK  status: ('A' for Active; 'I' for Inactive)
REMARK    1  A    between atoms: O_2  and  C_3 
REMARK    2  A    between atoms: C_6  and  N_7 
REMARK       I    between atoms: N_7  and  C_8 
REMARK    3  A    between atoms: C_8  and  C_9 
REMARK    4  A    between atoms: C_9  and  C_10 
REMARK    5  A    between atoms: C_10  and  N_11 
REMARK    6  A    between atoms: C_10  and  C_20 
REMARK       I    between atoms: N_11  and  C_12 
REMARK    7  A    between atoms: C_12  and  C_13 
ROOT
HETATM    1  C   UNL     1      -4.463   0.091 -32.858  1.00  0.00     0.126 C 
ENDROOT
BRANCH   1   2
HETATM    2  C   UNL     1      -3.668   0.721 -31.718  1.00  0.00     0.133 C 
BRANCH   2   3
HETATM    3  C   UNL     1      -3.679   2.237 -31.608  1.00  0.00     0.224 C 
HETATM    4  N   UNL     1      -3.091   2.944 -32.635  1.00  0.00    -0.326 N 
HETATM    5  H   UNL     1      -2.955   2.481 -33.528  1.00  0.00     0.169 HD
HETATM    6  O   UNL     1      -4.130   2.746 -30.582  1.00  0.00    -0.273 OA
BRANCH   4   7
HETATM    7  C   UNL     1      -2.761   4.320 -32.612  1.00  0.00     0.052 A 
HETATM    8  C   UNL     1      -1.497   4.836 -32.333  1.00  0.00     0.149 A 
HETATM    9  N   UNL     1      -1.182   6.158 -32.365  1.00  0.00    -0.235 NA
HETATM   10  C   UNL     1      -2.175   7.009 -32.684  1.00  0.00     0.163 A 
HETATM   11  C   UNL     1      -3.468   6.603 -32.968  1.00  0.00     0.060 A 
HETATM   12  C   UNL     1      -3.761   5.239 -32.935  1.00  0.00     0.035 A 
BRANCH  10  13
HETATM   13  O   UNL     1      -1.927   8.365 -32.747  1.00  0.00    -0.339 OA
HETATM   14  C   UNL     1      -2.167   9.030 -31.510  1.00  0.00     0.211 C 
ENDBRANCH  10  13
ENDBRANCH   4   7
ENDBRANCH   2   3
ENDBRANCH   1   2
BRANCH   1  15
HETATM   15  N   UNL     1      -5.896   0.275 -32.687  1.00  0.00    -0.348 N 
HETATM   16  C   UNL     1      -6.587   1.200 -33.440  1.00  0.00     0.252 C 
HETATM   17  O   UNL     1      -6.049   2.083 -34.096  1.00  0.00    -0.268 OA
HETATM   18  H   UNL     1      -6.421  -0.516 -32.334  1.00  0.00     0.163 HD
BRANCH  16  19
HETATM   19  C   UNL     1      -8.061   1.036 -33.441  1.00  0.00     0.032 A 
HETATM   20  C   UNL     1      -8.674   0.050 -32.659  1.00  0.00     0.017 A 
HETATM   21  C   UNL     1     -10.060  -0.103 -32.701  1.00  0.00     0.001 A 
HETATM   22  C   UNL     1     -10.829   0.723 -33.523  1.00  0.00     0.000 A 
HETATM   23  C   UNL     1     -10.218   1.712 -34.296  1.00  0.00     0.001 A 
HETATM   24  C   UNL     1      -8.832   1.876 -34.250  1.00  0.00     0.017 A 
ENDBRANCH  16  19
ENDBRANCH   1  15
BRANCH   1  25
HETATM   25  C   UNL     1      -4.158  -1.395 -32.997  1.00  0.00    -0.035 A 
HETATM   26  C   UNL     1      -3.338  -2.032 -32.051  1.00  0.00     0.009 A 
HETATM   27  C   UNL     1      -3.049  -3.393 -32.159  1.00  0.00     0.001 A 
HETATM   28  C   UNL     1      -3.568  -4.135 -33.217  1.00  0.00     0.000 A 
HETATM   29  C   UNL     1      -4.374  -3.517 -34.171  1.00  0.00     0.001 A 
HETATM   30  C   UNL     1      -4.666  -2.157 -34.063  1.00  0.00     0.009 A 
ENDBRANCH   1  25
TORSDOF 7
ENDMDL
MODEL 9
REMARK VINA RESULT:      -8.1      1.536      5.063
REMARK  7 active torsions:
REMARK  status: ('A' for Active; 'I' for Inactive)
REMARK    1  A    between atoms: O_2  and  C_3 
REMARK    2  A    between atoms: C_6  and  N_7 
REMARK       I    between atoms: N_7  and  C_8 
REMARK    3  A    between atoms: C_8  and  C_9 
REMARK    4  A    between atoms: C_9  and  C_10 
REMARK    5  A    between atoms: C_10  and  N_11 
REMARK    6  A    between atoms: C_10  and  C_20 
REMARK       I    between atoms: N_11  and  C_12 
REMARK    7  A    between atoms: C_12  and  C_13 
ROOT
HETATM    1  C   UNL     1      -6.708   1.542 -33.425  1.00  0.00     0.126 C 
ENDROOT
BRANCH   1   2
HETATM    2  C   UNL     1      -6.392   2.650 -34.426  1.00  0.00     0.133 C 
BRANCH   2   3
HETATM    3  C   UNL     1      -5.430   3.741 -33.983  1.00  0.00     0.224 C 
HETATM    4  N   UNL     1      -4.479   3.397 -33.047  1.00  0.00    -0.326 N 
HETATM    5  H   UNL     1      -4.257   2.415 -32.919  1.00  0.00     0.169 HD
HETATM    6  O   UNL     1      -5.601   4.881 -34.415  1.00  0.00    -0.273 OA
BRANCH   4   7
HETATM    7  C   UNL     1      -3.671   4.299 -32.316  1.00  0.00     0.052 A 
HETATM    8  C   UNL     1      -4.127   5.142 -31.304  1.00  0.00     0.149 A 
HETATM    9  N   UNL     1      -3.330   5.966 -30.573  1.00  0.00    -0.235 NA
HETATM   10  C   UNL     1      -2.016   5.957 -30.869  1.00  0.00     0.163 A 
HETATM   11  C   UNL     1      -1.462   5.166 -31.861  1.00  0.00     0.060 A 
HETATM   12  C   UNL     1      -2.303   4.323 -32.591  1.00  0.00     0.035 A 
BRANCH  10  13
HETATM   13  O   UNL     1      -1.145   6.760 -30.161  1.00  0.00    -0.339 OA
HETATM   14  C   UNL     1      -1.709   8.023 -29.822  1.00  0.00     0.211 C 
ENDBRANCH  10  13
ENDBRANCH   4   7
ENDBRANCH   2   3
ENDBRANCH   1   2
BRANCH   1  15
HETATM   15  N   UNL     1      -5.951   0.331 -33.699  1.00  0.00    -0.348 N 
HETATM   16  C   UNL     1      -4.932  -0.073 -32.862  1.00  0.00     0.252 C 
HETATM   17  O   UNL     1      -4.426   0.646 -32.009  1.00  0.00    -0.268 OA
HETATM   18  H   UNL     1      -6.417  -0.390 -34.237  1.00  0.00     0.163 HD
BRANCH  16  19
HETATM   19  C   UNL     1      -4.496  -1.479 -33.033  1.00  0.00     0.032 A 
HETATM   20  C   UNL     1      -3.620  -2.076 -32.118  1.00  0.00     0.017 A 
HETATM   21  C   UNL     1      -3.202  -3.392 -32.319  1.00  0.00     0.001 A 
HETATM   22  C   UNL     1      -3.653  -4.106 -33.431  1.00  0.00     0.000 A 
HETATM   23  C   UNL     1      -4.533  -3.513 -34.337  1.00  0.00     0.001 A 
HETATM   24  C   UNL     1      -4.963  -2.200 -34.136  1.00  0.00     0.017 A 
ENDBRANCH  16  19
ENDBRANCH   1  15
BRANCH   1  25
HETATM   25  C   UNL     1      -8.197   1.214 -33.408  1.00  0.00    -0.035 A 
HETATM   26  C   UNL     1      -8.663   0.123 -32.658  1.00  0.00     0.009 A 
HETATM   27  C   UNL     1     -10.023  -0.192 -32.627  1.00  0.00     0.001 A 
HETATM   28  C   UNL     1     -10.933   0.573 -33.352  1.00  0.00     0.000 A 
HETATM   29  C   UNL     1     -10.486   1.652 -34.111  1.00  0.00     0.001 A 
HETATM   30  C   UNL     1      -9.127   1.970 -34.140  1.00  0.00     0.009 A 
ENDBRANCH   1  25
TORSDOF 7
ENDMDL
MODEL 10
REMARK VINA RESULT:      -8.0      2.814      6.490
REMARK  7 active torsions:
REMARK  status: ('A' for Active; 'I' for Inactive)
REMARK    1  A    between atoms: O_2  and  C_3 
REMARK    2  A    between atoms: C_6  and  N_7 
REMARK       I    between atoms: N_7  and  C_8 
REMARK    3  A    between atoms: C_8  and  C_9 
REMARK    4  A    between atoms: C_9  and  C_10 
REMARK    5  A    between atoms: C_10  and  N_11 
REMARK    6  A    between atoms: C_10  and  C_20 
REMARK       I    between atoms: N_11  and  C_12 
REMARK    7  A    between atoms: C_12  and  C_13 
ROOT
HETATM    1  C   UNL     1      -7.199  -0.004 -32.883  1.00  0.00     0.126 C 
ENDROOT
BRANCH   1   2
HETATM    2  C   UNL     1      -8.665  -0.113 -33.296  1.00  0.00     0.133 C 
BRANCH   2   3
HETATM    3  C   UNL     1      -9.499   1.157 -33.263  1.00  0.00     0.224 C 
HETATM    4  N   UNL     1      -9.973   1.627 -34.469  1.00  0.00    -0.326 N 
HETATM    5  H   UNL     1     -10.016   0.988 -35.256  1.00  0.00     0.169 HD
HETATM    6  O   UNL     1      -9.636   1.739 -32.187  1.00  0.00    -0.273 OA
BRANCH   4   7
HETATM    7  C   UNL     1     -10.534   2.906 -34.698  1.00  0.00     0.052 A 
HETATM    8  C   UNL     1      -9.826   4.106 -34.672  1.00  0.00     0.149 A 
HETATM    9  N   UNL     1     -10.368   5.323 -34.944  1.00  0.00    -0.235 NA
HETATM   10  C   UNL     1     -11.679   5.348 -35.252  1.00  0.00     0.163 A 
HETATM   11  C   UNL     1     -12.475   4.215 -35.294  1.00  0.00     0.060 A 
HETATM   12  C   UNL     1     -11.890   2.978 -35.017  1.00  0.00     0.035 A 
BRANCH  10  13
HETATM   13  O   UNL     1     -12.295   6.546 -35.551  1.00  0.00    -0.339 OA
HETATM   14  C   UNL     1     -13.587   6.376 -36.126  1.00  0.00     0.211 C 
ENDBRANCH  10  13
ENDBRANCH   4   7
ENDBRANCH   2   3
ENDBRANCH   1   2
BRANCH   1  15
HETATM   15  N   UNL     1      -6.613   1.263 -33.291  1.00  0.00    -0.348 N 
HETATM   16  C   UNL     1      -5.960   2.067 -32.381  1.00  0.00     0.252 C 
HETATM   17  O   UNL     1      -6.037   1.925 -31.167  1.00  0.00    -0.268 OA
HETATM   18  H   UNL     1      -6.339   1.351 -34.262  1.00  0.00     0.163 HD
BRANCH  16  19
HETATM   19  C   UNL     1      -5.104   3.123 -32.974  1.00  0.00     0.032 A 
HETATM   20  C   UNL     1      -5.591   3.955 -33.990  1.00  0.00     0.017 A 
HETATM   21  C   UNL     1      -4.755   4.920 -34.552  1.00  0.00     0.001 A 
HETATM   22  C   UNL     1      -3.439   5.051 -34.104  1.00  0.00     0.000 A 
HETATM   23  C   UNL     1      -2.958   4.227 -33.086  1.00  0.00     0.001 A 
HETATM   24  C   UNL     1      -3.793   3.266 -32.513  1.00  0.00     0.017 A 
ENDBRANCH  16  19
ENDBRANCH   1  15
BRANCH   1  25
HETATM   25  C   UNL     1      -6.372  -1.150 -33.454  1.00  0.00    -0.035 A 
HETATM   26  C   UNL     1      -6.969  -2.077 -34.324  1.00  0.00     0.009 A 
HETATM   27  C   UNL     1      -6.228  -3.132 -34.860  1.00  0.00     0.001 A 
HETATM   28  C   UNL     1      -4.883  -3.279 -34.528  1.00  0.00     0.000 A 
HETATM   29  C   UNL     1      -4.279  -2.376 -33.657  1.00  0.00     0.001 A 
HETATM   30  C   UNL     1      -5.017  -1.319 -33.123  1.00  0.00     0.009 A 
ENDBRANCH   1  25
TORSDOF 7
ENDMDL
