MODEL 1
REMARK VINA RESULT:      -8.5      0.000      0.000
REMARK  10 active torsions:
REMARK  status: ('A' for Active; 'I' for Inactive)
REMARK    1  A    between atoms: C_6  and  C_7 
REMARK    2  A    between atoms: C_9  and  C_10 
REMARK    3  A    between atoms: C_10  and  C_11 
REMARK       I    between atoms: C_11  and  N_12 
REMARK    4  A    between atoms: N_12  and  C_13 
REMARK    5  A    between atoms: C_13  and  C_14 
REMARK    6  A    between atoms: C_14  and  N_15 
REMARK    7  A    between atoms: C_26  and  C_27 
REMARK    8  A    between atoms: C_27  and  O_28 
REMARK    9  A    between atoms: O_28  and  C_29 
REMARK   10  A    between atoms: C_29  and  C_30 
ROOT
HETATM    1  C   UNL     1      -8.116   3.047 -33.429  1.00  0.00     0.166 C 
HETATM    2  N   UNL     1      -9.367   3.479 -34.092  1.00  0.00    -0.318 N 
HETATM    3  C   UNL     1     -10.473   3.012 -34.566  1.00  0.00     0.011 C 
HETATM    4  C   UNL     1      -9.345   5.035 -34.202  1.00  0.00     0.170 C 
HETATM    5  S   UNL     1     -10.378   5.584 -35.468  1.00  0.00    -0.086 SA
HETATM    6  C   UNL     1     -11.286   4.003 -35.391  1.00  0.00     0.135 C 
HETATM    7  N   UNL     1      -8.728   5.795 -33.360  1.00  0.00    -0.229 NA
HETATM    8  C   UNL     1      -8.242   5.176 -32.211  1.00  0.00     0.048 C 
HETATM    9  C   UNL     1      -8.117   6.088 -31.014  1.00  0.00     0.071 C 
HETATM   10  C   UNL     1      -8.020   3.838 -32.159  1.00  0.00     0.069 C 
ENDROOT
BRANCH   3  11
HETATM   11  C   UNL     1     -10.988   1.633 -34.261  1.00  0.00     0.156 C 
BRANCH  11  12
HETATM   12  C   UNL     1     -12.506   1.607 -34.340  1.00  0.00     0.223 C 
HETATM   13  N   UNL     1     -13.190   1.802 -33.164  1.00  0.00    -0.359 N 
HETATM   14  H   UNL     1     -12.660   1.786 -32.295  1.00  0.00     0.162 HD
HETATM   15  O   UNL     1     -13.081   1.430 -35.411  1.00  0.00    -0.273 OA
BRANCH  13  16
HETATM   16  C   UNL     1     -14.621   1.505 -33.070  1.00  0.00     0.150 C 
BRANCH  16  17
HETATM   17  C   UNL     1     -15.384   2.225 -31.928  1.00  0.00     0.253 C 
BRANCH  17  18
HETATM   18  N   UNL     1     -16.345   3.284 -32.454  1.00  0.00    -0.077 N 
HETATM   19  H   UNL     1     -16.242   3.344 -33.477  1.00  0.00     0.279 HD
HETATM   20  C   UNL     1     -17.790   2.972 -32.161  1.00  0.00     0.269 C 
HETATM   21  C   UNL     1     -15.990   4.657 -31.930  1.00  0.00     0.269 C 
ENDBRANCH  17  18
ENDBRANCH  16  17
ENDBRANCH  13  16
ENDBRANCH  11  12
ENDBRANCH   3  11
BRANCH   1  22
HETATM   22  C   UNL     1      -7.672   1.600 -33.661  1.00  0.00    -0.024 A 
HETATM   23  C   UNL     1      -8.297   0.518 -32.966  1.00  0.00    -0.053 A 
HETATM   24  C   UNL     1      -7.953  -0.819 -33.272  1.00  0.00     0.014 A 
HETATM   25  C   UNL     1      -9.361   0.685 -31.906  1.00  0.00     0.049 C 
HETATM   26  C   UNL     1      -7.037  -1.128 -34.275  1.00  0.00    -0.061 A 
HETATM   27  C   UNL     1      -6.785  -2.550 -34.687  1.00  0.00     0.048 C 
HETATM   28  C   UNL     1      -6.444  -0.083 -34.970  1.00  0.00     0.007 A 
HETATM   29  C   UNL     1      -6.753   1.248 -34.665  1.00  0.00     0.011 A 
ENDBRANCH   1  22
BRANCH  10  30
HETATM   30  C   UNL     1      -7.936   3.214 -30.838  1.00  0.00     0.294 C 
HETATM   31  O   UNL     1      -8.882   2.993 -30.111  1.00  0.00    -0.259 OA
BRANCH  30  32
HETATM   32  O   UNL     1      -6.623   2.980 -30.604  1.00  0.00    -0.313 OA
BRANCH  32  33
HETATM   33  C   UNL     1      -6.289   1.704 -30.025  1.00  0.00     0.217 C 
BRANCH  33  34
HETATM   34  C   UNL     1      -5.280   1.045 -30.936  1.00  0.00    -0.034 A 
HETATM   35  C   UNL     1      -4.429   1.817 -31.738  1.00  0.00     0.009 A 
HETATM   36  C   UNL     1      -3.541   1.202 -32.623  1.00  0.00     0.001 A 
HETATM   37  C   UNL     1      -3.493  -0.188 -32.717  1.00  0.00     0.000 A 
HETATM   38  C   UNL     1      -4.324  -0.967 -31.915  1.00  0.00     0.001 A 
HETATM   39  C   UNL     1      -5.205  -0.352 -31.022  1.00  0.00     0.009 A 
ENDBRANCH  33  34
ENDBRANCH  32  33
ENDBRANCH  30  32
ENDBRANCH  10  30
TORSDOF 10
ENDMDL
MODEL 2
REMARK VINA RESULT:      -8.5      2.460      4.710
REMARK  10 active torsions:
REMARK  status: ('A' for Active; 'I' for Inactive)
REMARK    1  A    between atoms: C_6  and  C_7 
REMARK    2  A    between atoms: C_9  and  C_10 
REMARK    3  A    between atoms: C_10  and  C_11 
REMARK       I    between atoms: C_11  and  N_12 
REMARK    4  A    between atoms: N_12  and  C_13 
REMARK    5  A    between atoms: C_13  and  C_14 
REMARK    6  A    between atoms: C_14  and  N_15 
REMARK    7  A    between atoms: C_26  and  C_27 
REMARK    8  A    between atoms: C_27  and  O_28 
REMARK    9  A    between atoms: O_28  and  C_29 
REMARK   10  A    between atoms: C_29  and  C_30 
ROOT
HETATM    1  C   UNL     1      -7.215   2.824 -32.719  1.00  0.00     0.166 C 
HETATM    2  N   UNL     1      -7.121   3.655 -31.498  1.00  0.00    -0.318 N 
HETATM    3  C   UNL     1      -7.812   4.026 -30.472  1.00  0.00     0.011 C 
HETATM    4  C   UNL     1      -5.674   4.230 -31.412  1.00  0.00     0.170 C 
HETATM    5  S   UNL     1      -5.628   5.658 -30.448  1.00  0.00    -0.086 SA
HETATM    6  C   UNL     1      -7.193   5.156 -29.657  1.00  0.00     0.135 C 
HETATM    7  N   UNL     1      -4.643   3.625 -31.900  1.00  0.00    -0.229 NA
HETATM    8  C   UNL     1      -4.843   2.318 -32.336  1.00  0.00     0.048 C 
HETATM    9  C   UNL     1      -3.609   1.448 -32.295  1.00  0.00     0.071 C 
HETATM   10  C   UNL     1      -6.077   1.851 -32.652  1.00  0.00     0.069 C 
ENDROOT
BRANCH   3  11
HETATM   11  C   UNL     1      -9.082   3.346 -30.038  1.00  0.00     0.156 C 
BRANCH  11  12
HETATM   12  C   UNL     1     -10.287   4.187 -30.427  1.00  0.00     0.223 C 
HETATM   13  N   UNL     1     -11.523   3.690 -30.088  1.00  0.00    -0.359 N 
HETATM   14  H   UNL     1     -11.577   2.731 -29.752  1.00  0.00     0.162 HD
HETATM   15  O   UNL     1     -10.149   5.260 -31.007  1.00  0.00    -0.273 OA
BRANCH  13  16
HETATM   16  C   UNL     1     -12.744   4.256 -30.666  1.00  0.00     0.150 C 
BRANCH  16  17
HETATM   17  C   UNL     1     -13.286   3.538 -31.929  1.00  0.00     0.253 C 
BRANCH  17  18
HETATM   18  N   UNL     1     -14.719   3.052 -31.747  1.00  0.00    -0.077 N 
HETATM   19  H   UNL     1     -14.832   2.712 -30.783  1.00  0.00     0.279 HD
HETATM   20  C   UNL     1     -15.744   4.134 -31.970  1.00  0.00     0.269 C 
HETATM   21  C   UNL     1     -15.012   1.864 -32.635  1.00  0.00     0.269 C 
ENDBRANCH  17  18
ENDBRANCH  16  17
ENDBRANCH  13  16
ENDBRANCH  11  12
ENDBRANCH   3  11
BRANCH   1  22
HETATM   22  C   UNL     1      -8.616   2.582 -33.288  1.00  0.00    -0.024 A 
HETATM   23  C   UNL     1      -9.295   3.598 -34.030  1.00  0.00    -0.053 A 
HETATM   24  C   UNL     1     -10.539   3.322 -34.642  1.00  0.00     0.014 A 
HETATM   25  C   UNL     1      -8.761   4.995 -34.250  1.00  0.00     0.049 C 
HETATM   26  C   UNL     1     -11.121   2.059 -34.583  1.00  0.00    -0.061 A 
HETATM   27  C   UNL     1     -12.369   1.740 -35.353  1.00  0.00     0.048 C 
HETATM   28  C   UNL     1     -10.456   1.061 -33.884  1.00  0.00     0.007 A 
HETATM   29  C   UNL     1      -9.235   1.320 -33.250  1.00  0.00     0.011 A 
ENDBRANCH   1  22
BRANCH  10  30
HETATM   30  C   UNL     1      -6.270   0.400 -32.675  1.00  0.00     0.294 C 
HETATM   31  O   UNL     1      -6.630  -0.269 -31.729  1.00  0.00    -0.259 OA
BRANCH  30  32
HETATM   32  O   UNL     1      -5.939  -0.014 -33.921  1.00  0.00    -0.313 OA
BRANCH  32  33
HETATM   33  C   UNL     1      -6.834  -0.955 -34.546  1.00  0.00     0.217 C 
BRANCH  33  34
HETATM   34  C   UNL     1      -6.141  -2.297 -34.556  1.00  0.00    -0.034 A 
HETATM   35  C   UNL     1      -6.844  -3.463 -34.885  1.00  0.00     0.009 A 
HETATM   36  C   UNL     1      -6.213  -4.707 -34.834  1.00  0.00     0.001 A 
HETATM   37  C   UNL     1      -4.875  -4.801 -34.454  1.00  0.00     0.000 A 
HETATM   38  C   UNL     1      -4.161  -3.647 -34.137  1.00  0.00     0.001 A 
HETATM   39  C   UNL     1      -4.789  -2.402 -34.198  1.00  0.00     0.009 A 
ENDBRANCH  33  34
ENDBRANCH  32  33
ENDBRANCH  30  32
ENDBRANCH  10  30
TORSDOF 10
ENDMDL
MODEL 3
REMARK VINA RESULT:      -8.4      2.959      5.651
REMARK  10 active torsions:
REMARK  status: ('A' for Active; 'I' for Inactive)
REMARK    1  A    between atoms: C_6  and  C_7 
REMARK    2  A    between atoms: C_9  and  C_10 
REMARK    3  A    between atoms: C_10  and  C_11 
REMARK       I    between atoms: C_11  and  N_12 
REMARK    4  A    between atoms: N_12  and  C_13 
REMARK    5  A    between atoms: C_13  and  C_14 
REMARK    6  A    between atoms: C_14  and  N_15 
REMARK    7  A    between atoms: C_26  and  C_27 
REMARK    8  A    between atoms: C_27  and  O_28 
REMARK    9  A    between atoms: O_28  and  C_29 
REMARK   10  A    between atoms: C_29  and  C_30 
ROOT
HETATM    1  C   UNL     1      -5.796   2.923 -32.343  1.00  0.00     0.166 C 
HETATM    2  N   UNL     1      -5.454   1.631 -32.980  1.00  0.00    -0.318 N 
HETATM    3  C   UNL     1      -5.937   0.736 -33.775  1.00  0.00     0.011 C 
HETATM    4  C   UNL     1      -3.988   1.270 -32.586  1.00  0.00     0.170 C 
HETATM    5  S   UNL     1      -3.709  -0.426 -32.717  1.00  0.00    -0.086 SA
HETATM    6  C   UNL     1      -5.135  -0.559 -33.847  1.00  0.00     0.135 C 
HETATM    7  N   UNL     1      -3.087   2.157 -32.327  1.00  0.00    -0.229 NA
HETATM    8  C   UNL     1      -3.420   3.478 -32.614  1.00  0.00     0.048 C 
HETATM    9  C   UNL     1      -2.239   4.371 -32.915  1.00  0.00     0.071 C 
HETATM   10  C   UNL     1      -4.710   3.881 -32.729  1.00  0.00     0.069 C 
ENDROOT
BRANCH   3  11
HETATM   11  C   UNL     1      -7.143   0.964 -34.645  1.00  0.00     0.156 C 
BRANCH  11  12
HETATM   12  C   UNL     1      -8.398   0.465 -33.947  1.00  0.00     0.223 C 
HETATM   13  N   UNL     1      -9.589   1.027 -34.339  1.00  0.00    -0.359 N 
HETATM   14  H   UNL     1      -9.555   1.846 -34.943  1.00  0.00     0.162 HD
HETATM   15  O   UNL     1      -8.337  -0.405 -33.083  1.00  0.00    -0.273 OA
BRANCH  13  16
HETATM   16  C   UNL     1     -10.804   0.844 -33.542  1.00  0.00     0.150 C 
BRANCH  16  17
HETATM   17  C   UNL     1     -11.997   1.762 -33.915  1.00  0.00     0.253 C 
BRANCH  17  18
HETATM   18  N   UNL     1     -13.273   1.380 -33.175  1.00  0.00    -0.077 N 
HETATM   19  H   UNL     1     -13.016   0.928 -32.286  1.00  0.00     0.279 HD
HETATM   20  C   UNL     1     -14.145   2.564 -32.846  1.00  0.00     0.269 C 
HETATM   21  C   UNL     1     -14.064   0.345 -33.942  1.00  0.00     0.269 C 
ENDBRANCH  17  18
ENDBRANCH  16  17
ENDBRANCH  13  16
ENDBRANCH  11  12
ENDBRANCH   3  11
BRANCH   1  22
HETATM   22  C   UNL     1      -7.284   3.228 -32.152  1.00  0.00    -0.024 A 
HETATM   23  C   UNL     1      -7.941   2.941 -30.915  1.00  0.00    -0.053 A 
HETATM   24  C   UNL     1      -9.286   3.330 -30.715  1.00  0.00     0.014 A 
HETATM   25  C   UNL     1      -7.286   2.252 -29.740  1.00  0.00     0.049 C 
HETATM   26  C   UNL     1      -9.996   4.034 -31.684  1.00  0.00    -0.061 A 
HETATM   27  C   UNL     1     -11.374   4.564 -31.408  1.00  0.00     0.048 C 
HETATM   28  C   UNL     1      -9.357   4.337 -32.878  1.00  0.00     0.007 A 
HETATM   29  C   UNL     1      -8.034   3.939 -33.105  1.00  0.00     0.011 A 
ENDBRANCH   1  22
BRANCH  10  30
HETATM   30  C   UNL     1      -4.971   5.132 -33.441  1.00  0.00     0.294 C 
HETATM   31  O   UNL     1      -5.132   5.230 -34.640  1.00  0.00    -0.259 OA
BRANCH  30  32
HETATM   32  O   UNL     1      -4.959   6.117 -32.511  1.00  0.00    -0.313 OA
BRANCH  32  33
HETATM   33  C   UNL     1      -6.175   6.874 -32.359  1.00  0.00     0.217 C 
BRANCH  33  34
HETATM   34  C   UNL     1      -6.704   6.605 -30.971  1.00  0.00    -0.034 A 
HETATM   35  C   UNL     1      -5.903   5.975 -30.010  1.00  0.00     0.009 A 
HETATM   36  C   UNL     1      -6.417   5.674 -28.747  1.00  0.00     0.001 A 
HETATM   37  C   UNL     1      -7.736   5.997 -28.431  1.00  0.00     0.000 A 
HETATM   38  C   UNL     1      -8.539   6.635 -29.374  1.00  0.00     0.001 A 
HETATM   39  C   UNL     1      -8.021   6.946 -30.633  1.00  0.00     0.009 A 
ENDBRANCH  33  34
ENDBRANCH  32  33
ENDBRANCH  30  32
ENDBRANCH  10  30
TORSDOF 10
ENDMDL
MODEL 4
REMARK VINA RESULT:      -8.4      3.469      8.167
REMARK  10 active torsions:
REMARK  status: ('A' for Active; 'I' for Inactive)
REMARK    1  A    between atoms: C_6  and  C_7 
REMARK    2  A    between atoms: C_9  and  C_10 
REMARK    3  A    between atoms: C_10  and  C_11 
REMARK       I    between atoms: C_11  and  N_12 
REMARK    4  A    between atoms: N_12  and  C_13 
REMARK    5  A    between atoms: C_13  and  C_14 
REMARK    6  A    between atoms: C_14  and  N_15 
REMARK    7  A    between atoms: C_26  and  C_27 
REMARK    8  A    between atoms: C_27  and  O_28 
REMARK    9  A    between atoms: O_28  and  C_29 
REMARK   10  A    between atoms: C_29  and  C_30 
ROOT
HETATM    1  C   UNL     1      -7.524   2.252 -31.881  1.00  0.00     0.166 C 
HETATM    2  N   UNL     1      -6.553   3.306 -31.515  1.00  0.00    -0.318 N 
HETATM    3  C   UNL     1      -5.439   3.834 -31.903  1.00  0.00     0.011 C 
HETATM    4  C   UNL     1      -7.101   4.059 -30.264  1.00  0.00     0.170 C 
HETATM    5  S   UNL     1      -5.829   4.831 -29.395  1.00  0.00    -0.086 SA
HETATM    6  C   UNL     1      -4.791   4.776 -30.895  1.00  0.00     0.135 C 
HETATM    7  N   UNL     1      -8.361   4.181 -30.008  1.00  0.00    -0.229 NA
HETATM    8  C   UNL     1      -9.236   3.785 -31.016  1.00  0.00     0.048 C 
HETATM    9  C   UNL     1     -10.576   4.483 -30.992  1.00  0.00     0.071 C 
HETATM   10  C   UNL     1      -8.855   2.931 -31.999  1.00  0.00     0.069 C 
ENDROOT
BRANCH   3  11
HETATM   11  C   UNL     1      -4.857   3.626 -33.273  1.00  0.00     0.156 C 
BRANCH  11  12
HETATM   12  C   UNL     1      -3.823   4.699 -33.575  1.00  0.00     0.223 C 
HETATM   13  N   UNL     1      -2.503   4.338 -33.455  1.00  0.00    -0.359 N 
HETATM   14  H   UNL     1      -2.290   3.442 -33.019  1.00  0.00     0.162 HD
HETATM   15  O   UNL     1      -4.165   5.828 -33.918  1.00  0.00    -0.273 OA
BRANCH  13  16
HETATM   16  C   UNL     1      -1.446   5.351 -33.428  1.00  0.00     0.150 C 
BRANCH  16  17
HETATM   17  C   UNL     1      -0.745   5.557 -32.060  1.00  0.00     0.253 C 
BRANCH  17  18
HETATM   18  N   UNL     1      -0.993   6.946 -31.487  1.00  0.00    -0.077 N 
HETATM   19  H   UNL     1      -0.085   7.377 -31.262  1.00  0.00     0.279 HD
HETATM   20  C   UNL     1      -1.705   7.865 -32.447  1.00  0.00     0.269 C 
HETATM   21  C   UNL     1      -1.745   6.874 -30.177  1.00  0.00     0.269 C 
ENDBRANCH  17  18
ENDBRANCH  16  17
ENDBRANCH  13  16
ENDBRANCH  11  12
ENDBRANCH   3  11
BRANCH   1  22
HETATM   22  C   UNL     1      -6.997   1.082 -32.717  1.00  0.00    -0.024 A 
HETATM   23  C   UNL     1      -6.318  -0.015 -32.102  1.00  0.00    -0.053 A 
HETATM   24  C   UNL     1      -5.937  -1.138 -32.872  1.00  0.00     0.014 A 
HETATM   25  C   UNL     1      -5.985  -0.096 -30.630  1.00  0.00     0.049 C 
HETATM   26  C   UNL     1      -6.240  -1.234 -34.228  1.00  0.00    -0.061 A 
HETATM   27  C   UNL     1      -5.954  -2.489 -35.002  1.00  0.00     0.048 C 
HETATM   28  C   UNL     1      -6.919  -0.183 -34.826  1.00  0.00     0.007 A 
HETATM   29  C   UNL     1      -7.284   0.949 -34.087  1.00  0.00     0.011 A 
ENDBRANCH   1  22
BRANCH  10  30
HETATM   30  C   UNL     1      -9.654   2.905 -33.225  1.00  0.00     0.294 C 
HETATM   31  O   UNL     1      -9.542   3.688 -34.145  1.00  0.00    -0.259 OA
BRANCH  30  32
HETATM   32  O   UNL     1     -10.530   1.881 -33.094  1.00  0.00    -0.313 OA
BRANCH  32  33
HETATM   33  C   UNL     1     -11.285   1.525 -34.269  1.00  0.00     0.217 C 
BRANCH  33  34
HETATM   34  C   UNL     1     -12.748   1.586 -33.901  1.00  0.00    -0.034 A 
HETATM   35  C   UNL     1     -13.203   2.475 -32.919  1.00  0.00     0.009 A 
HETATM   36  C   UNL     1     -14.546   2.484 -32.540  1.00  0.00     0.001 A 
HETATM   37  C   UNL     1     -15.449   1.605 -33.136  1.00  0.00     0.000 A 
HETATM   38  C   UNL     1     -15.013   0.725 -34.124  1.00  0.00     0.001 A 
HETATM   39  C   UNL     1     -13.671   0.723 -34.510  1.00  0.00     0.009 A 
ENDBRANCH  33  34
ENDBRANCH  32  33
ENDBRANCH  30  32
ENDBRANCH  10  30
TORSDOF 10
ENDMDL
MODEL 5
REMARK VINA RESULT:      -8.2      3.951      8.209
REMARK  10 active torsions:
REMARK  status: ('A' for Active; 'I' for Inactive)
REMARK    1  A    between atoms: C_6  and  C_7 
REMARK    2  A    between atoms: C_9  and  C_10 
REMARK    3  A    between atoms: C_10  and  C_11 
REMARK       I    between atoms: C_11  and  N_12 
REMARK    4  A    between atoms: N_12  and  C_13 
REMARK    5  A    between atoms: C_13  and  C_14 
REMARK    6  A    between atoms: C_14  and  N_15 
REMARK    7  A    between atoms: C_26  and  C_27 
REMARK    8  A    between atoms: C_27  and  O_28 
REMARK    9  A    between atoms: O_28  and  C_29 
REMARK   10  A    between atoms: C_29  and  C_30 
ROOT
HETATM    1  C   UNL     1      -6.475   3.264 -30.618  1.00  0.00     0.166 C 
HETATM    2  N   UNL     1      -5.786   4.536 -30.302  1.00  0.00    -0.318 N 
HETATM    3  C   UNL     1      -4.776   5.256 -30.661  1.00  0.00     0.011 C 
HETATM    4  C   UNL     1      -6.599   5.263 -29.187  1.00  0.00     0.170 C 
HETATM    5  S   UNL     1      -5.608   6.373 -28.317  1.00  0.00    -0.086 SA
HETATM    6  C   UNL     1      -4.442   6.407 -29.720  1.00  0.00     0.135 C 
HETATM    7  N   UNL     1      -7.876   5.130 -29.042  1.00  0.00    -0.229 NA
HETATM    8  C   UNL     1      -8.546   4.460 -30.061  1.00  0.00     0.048 C 
HETATM    9  C   UNL     1      -9.998   4.846 -30.216  1.00  0.00     0.071 C 
HETATM   10  C   UNL     1      -7.901   3.622 -30.911  1.00  0.00     0.069 C 
ENDROOT
BRANCH   3  11
HETATM   11  C   UNL     1      -4.033   5.053 -31.953  1.00  0.00     0.156 C 
BRANCH  11  12
HETATM   12  C   UNL     1      -2.543   4.910 -31.686  1.00  0.00     0.223 C 
HETATM   13  N   UNL     1      -1.762   6.015 -31.927  1.00  0.00    -0.359 N 
HETATM   14  H   UNL     1      -2.184   6.800 -32.418  1.00  0.00     0.162 HD
HETATM   15  O   UNL     1      -2.074   3.856 -31.266  1.00  0.00    -0.273 OA
BRANCH  13  16
HETATM   16  C   UNL     1      -0.303   5.904 -31.991  1.00  0.00     0.150 C 
BRANCH  16  17
HETATM   17  C   UNL     1       0.485   6.827 -31.026  1.00  0.00     0.253 C 
BRANCH  17  18
HETATM   18  N   UNL     1       0.187   6.523 -29.563  1.00  0.00    -0.077 N 
HETATM   19  H   UNL     1      -0.833   6.505 -29.431  1.00  0.00     0.279 HD
HETATM   20  C   UNL     1       0.726   5.189 -29.113  1.00  0.00     0.269 C 
HETATM   21  C   UNL     1       0.696   7.623 -28.658  1.00  0.00     0.269 C 
ENDBRANCH  17  18
ENDBRANCH  16  17
ENDBRANCH  13  16
ENDBRANCH  11  12
ENDBRANCH   3  11
BRANCH   1  22
HETATM   22  C   UNL     1      -5.635   2.166 -31.277  1.00  0.00    -0.024 A 
HETATM   23  C   UNL     1      -5.416   0.914 -30.621  1.00  0.00    -0.053 A 
HETATM   24  C   UNL     1      -4.734  -0.129 -31.288  1.00  0.00     0.014 A 
HETATM   25  C   UNL     1      -5.899   0.585 -29.227  1.00  0.00     0.049 C 
HETATM   26  C   UNL     1      -4.292   0.006 -32.602  1.00  0.00    -0.061 A 
HETATM   27  C   UNL     1      -3.695  -1.153 -33.345  1.00  0.00     0.048 C 
HETATM   28  C   UNL     1      -4.521   1.211 -33.252  1.00  0.00     0.007 A 
HETATM   29  C   UNL     1      -5.174   2.264 -32.601  1.00  0.00     0.011 A 
ENDBRANCH   1  22
BRANCH  10  30
HETATM   30  C   UNL     1      -8.553   3.307 -32.183  1.00  0.00     0.294 C 
HETATM   31  O   UNL     1      -8.522   4.008 -33.173  1.00  0.00    -0.259 OA
BRANCH  30  32
HETATM   32  O   UNL     1      -9.199   2.130 -32.005  1.00  0.00    -0.313 OA
BRANCH  32  33
HETATM   33  C   UNL     1      -9.753   1.516 -33.185  1.00  0.00     0.217 C 
BRANCH  33  34
HETATM   34  C   UNL     1      -8.690   0.614 -33.766  1.00  0.00    -0.034 A 
HETATM   35  C   UNL     1      -8.051   0.942 -34.968  1.00  0.00     0.009 A 
HETATM   36  C   UNL     1      -7.113   0.075 -35.531  1.00  0.00     0.001 A 
HETATM   37  C   UNL     1      -6.803  -1.129 -34.900  1.00  0.00     0.000 A 
HETATM   38  C   UNL     1      -7.421  -1.461 -33.697  1.00  0.00     0.001 A 
HETATM   39  C   UNL     1      -8.352  -0.589 -33.128  1.00  0.00     0.009 A 
ENDBRANCH  33  34
ENDBRANCH  32  33
ENDBRANCH  30  32
ENDBRANCH  10  30
TORSDOF 10
ENDMDL
MODEL 6
REMARK VINA RESULT:      -8.1      3.368      5.869
REMARK  10 active torsions:
REMARK  status: ('A' for Active; 'I' for Inactive)
REMARK    1  A    between atoms: C_6  and  C_7 
REMARK    2  A    between atoms: C_9  and  C_10 
REMARK    3  A    between atoms: C_10  and  C_11 
REMARK       I    between atoms: C_11  and  N_12 
REMARK    4  A    between atoms: N_12  and  C_13 
REMARK    5  A    between atoms: C_13  and  C_14 
REMARK    6  A    between atoms: C_14  and  N_15 
REMARK    7  A    between atoms: C_26  and  C_27 
REMARK    8  A    between atoms: C_27  and  O_28 
REMARK    9  A    between atoms: O_28  and  C_29 
REMARK   10  A    between atoms: C_29  and  C_30 
ROOT
HETATM    1  C   UNL     1      -6.508   2.235 -33.754  1.00  0.00     0.166 C 
HETATM    2  N   UNL     1      -7.906   2.480 -33.336  1.00  0.00    -0.318 N 
HETATM    3  C   UNL     1      -8.852   1.968 -32.621  1.00  0.00     0.011 C 
HETATM    4  C   UNL     1      -8.356   3.851 -33.927  1.00  0.00     0.170 C 
HETATM    5  S   UNL     1     -10.073   3.940 -34.055  1.00  0.00    -0.086 SA
HETATM    6  C   UNL     1     -10.219   2.616 -32.808  1.00  0.00     0.135 C 
HETATM    7  N   UNL     1      -7.539   4.823 -34.160  1.00  0.00    -0.229 NA
HETATM    8  C   UNL     1      -6.246   4.674 -33.665  1.00  0.00     0.048 C 
HETATM    9  C   UNL     1      -5.533   5.974 -33.374  1.00  0.00     0.071 C 
HETATM   10  C   UNL     1      -5.732   3.456 -33.361  1.00  0.00     0.069 C 
ENDROOT
BRANCH   3  11
HETATM   11  C   UNL     1      -8.628   0.881 -31.606  1.00  0.00     0.156 C 
BRANCH  11  12
HETATM   12  C   UNL     1      -7.688   1.366 -30.514  1.00  0.00     0.223 C 
HETATM   13  N   UNL     1      -7.991   2.570 -29.925  1.00  0.00    -0.359 N 
HETATM   14  H   UNL     1      -8.716   3.142 -30.354  1.00  0.00     0.162 HD
HETATM   15  O   UNL     1      -6.713   0.699 -30.177  1.00  0.00    -0.273 OA
BRANCH  13  16
HETATM   16  C   UNL     1      -7.010   3.265 -29.089  1.00  0.00     0.150 C 
BRANCH  16  17
HETATM   17  C   UNL     1      -6.812   4.772 -29.396  1.00  0.00     0.253 C 
BRANCH  17  18
HETATM   18  N   UNL     1      -5.459   5.286 -28.919  1.00  0.00    -0.077 N 
HETATM   19  H   UNL     1      -4.769   4.528 -29.006  1.00  0.00     0.279 HD
HETATM   20  C   UNL     1      -4.952   6.456 -29.724  1.00  0.00     0.269 C 
HETATM   21  C   UNL     1      -5.493   5.639 -27.449  1.00  0.00     0.269 C 
ENDBRANCH  17  18
ENDBRANCH  16  17
ENDBRANCH  13  16
ENDBRANCH  11  12
ENDBRANCH   3  11
BRANCH   1  22
HETATM   22  C   UNL     1      -6.025   0.782 -33.745  1.00  0.00    -0.024 A 
HETATM   23  C   UNL     1      -6.643  -0.205 -34.576  1.00  0.00    -0.053 A 
HETATM   24  C   UNL     1      -6.115  -1.515 -34.639  1.00  0.00     0.014 A 
HETATM   25  C   UNL     1      -7.846   0.051 -35.453  1.00  0.00     0.049 C 
HETATM   26  C   UNL     1      -4.968  -1.877 -33.938  1.00  0.00    -0.061 A 
HETATM   27  C   UNL     1      -4.337  -3.227 -34.122  1.00  0.00     0.048 C 
HETATM   28  C   UNL     1      -4.349  -0.918 -33.147  1.00  0.00     0.007 A 
HETATM   29  C   UNL     1      -4.870   0.377 -33.053  1.00  0.00     0.011 A 
ENDBRANCH   1  22
BRANCH  10  30
HETATM   30  C   UNL     1      -4.577   3.409 -32.465  1.00  0.00     0.294 C 
HETATM   31  O   UNL     1      -4.634   3.245 -31.264  1.00  0.00    -0.259 OA
BRANCH  30  32
HETATM   32  O   UNL     1      -3.482   3.615 -33.234  1.00  0.00    -0.313 OA
BRANCH  32  33
HETATM   33  C   UNL     1      -2.232   3.799 -32.540  1.00  0.00     0.217 C 
BRANCH  33  34
HETATM   34  C   UNL     1      -1.956   5.283 -32.494  1.00  0.00    -0.034 A 
HETATM   35  C   UNL     1      -1.736   5.933 -31.273  1.00  0.00     0.009 A 
HETATM   36  C   UNL     1      -1.542   7.315 -31.233  1.00  0.00     0.001 A 
HETATM   37  C   UNL     1      -1.564   8.062 -32.409  1.00  0.00     0.000 A 
HETATM   38  C   UNL     1      -1.768   7.425 -33.632  1.00  0.00     0.001 A 
HETATM   39  C   UNL     1      -1.953   6.042 -33.674  1.00  0.00     0.009 A 
ENDBRANCH  33  34
ENDBRANCH  32  33
ENDBRANCH  30  32
ENDBRANCH  10  30
TORSDOF 10
ENDMDL
MODEL 7
REMARK VINA RESULT:      -8.0      3.225      7.515
REMARK  10 active torsions:
REMARK  status: ('A' for Active; 'I' for Inactive)
REMARK    1  A    between atoms: C_6  and  C_7 
REMARK    2  A    between atoms: C_9  and  C_10 
REMARK    3  A    between atoms: C_10  and  C_11 
REMARK       I    between atoms: C_11  and  N_12 
REMARK    4  A    between atoms: N_12  and  C_13 
REMARK    5  A    between atoms: C_13  and  C_14 
REMARK    6  A    between atoms: C_14  and  N_15 
REMARK    7  A    between atoms: C_26  and  C_27 
REMARK    8  A    between atoms: C_27  and  O_28 
REMARK    9  A    between atoms: O_28  and  C_29 
REMARK   10  A    between atoms: C_29  and  C_30 
ROOT
HETATM    1  C   UNL     1      -8.105   4.078 -30.694  1.00  0.00     0.166 C 
HETATM    2  N   UNL     1      -8.548   4.625 -31.996  1.00  0.00    -0.318 N 
HETATM    3  C   UNL     1      -8.232   5.510 -32.881  1.00  0.00     0.011 C 
HETATM    4  C   UNL     1      -9.790   3.809 -32.469  1.00  0.00     0.170 C 
HETATM    5  S   UNL     1     -10.743   4.714 -33.583  1.00  0.00    -0.086 SA
HETATM    6  C   UNL     1      -9.296   5.766 -33.942  1.00  0.00     0.135 C 
HETATM    7  N   UNL     1      -9.986   2.572 -32.153  1.00  0.00    -0.229 NA
HETATM    8  C   UNL     1      -8.925   1.919 -31.530  1.00  0.00     0.048 C 
HETATM    9  C   UNL     1      -8.900   0.423 -31.740  1.00  0.00     0.071 C 
HETATM   10  C   UNL     1      -7.939   2.601 -30.895  1.00  0.00     0.069 C 
ENDROOT
BRANCH   3  11
HETATM   11  C   UNL     1      -6.887   6.181 -32.938  1.00  0.00     0.156 C 
BRANCH  11  12
HETATM   12  C   UNL     1      -5.835   5.210 -33.450  1.00  0.00     0.223 C 
HETATM   13  N   UNL     1      -4.701   5.068 -32.689  1.00  0.00    -0.359 N 
HETATM   14  H   UNL     1      -4.551   5.726 -31.927  1.00  0.00     0.162 HD
HETATM   15  O   UNL     1      -6.008   4.583 -34.492  1.00  0.00    -0.273 OA
BRANCH  13  16
HETATM   16  C   UNL     1      -3.513   4.401 -33.227  1.00  0.00     0.150 C 
BRANCH  16  17
HETATM   17  C   UNL     1      -2.176   4.727 -32.513  1.00  0.00     0.253 C 
BRANCH  17  18
HETATM   18  N   UNL     1      -1.190   5.439 -33.429  1.00  0.00    -0.077 N 
HETATM   19  H   UNL     1      -0.244   5.080 -33.239  1.00  0.00     0.279 HD
HETATM   20  C   UNL     1      -1.474   5.218 -34.893  1.00  0.00     0.269 C 
HETATM   21  C   UNL     1      -1.130   6.920 -33.127  1.00  0.00     0.269 C 
ENDBRANCH  17  18
ENDBRANCH  16  17
ENDBRANCH  13  16
ENDBRANCH  11  12
ENDBRANCH   3  11
BRANCH   1  22
HETATM   22  C   UNL     1      -7.265   4.998 -29.805  1.00  0.00    -0.024 A 
HETATM   23  C   UNL     1      -7.855   6.116 -29.138  1.00  0.00    -0.053 A 
HETATM   24  C   UNL     1      -7.092   6.890 -28.233  1.00  0.00     0.014 A 
HETATM   25  C   UNL     1      -9.295   6.545 -29.300  1.00  0.00     0.049 C 
HETATM   26  C   UNL     1      -5.770   6.571 -27.931  1.00  0.00    -0.061 A 
HETATM   27  C   UNL     1      -5.015   7.313 -26.866  1.00  0.00     0.048 C 
HETATM   28  C   UNL     1      -5.198   5.473 -28.557  1.00  0.00     0.007 A 
HETATM   29  C   UNL     1      -5.929   4.709 -29.474  1.00  0.00     0.011 A 
ENDBRANCH   1  22
BRANCH  10  30
HETATM   30  C   UNL     1      -6.674   1.905 -30.656  1.00  0.00     0.294 C 
HETATM   31  O   UNL     1      -6.426   1.228 -29.681  1.00  0.00    -0.259 OA
BRANCH  30  32
HETATM   32  O   UNL     1      -5.867   2.201 -31.703  1.00  0.00    -0.313 OA
BRANCH  32  33
HETATM   33  C   UNL     1      -4.974   1.158 -32.141  1.00  0.00     0.217 C 
BRANCH  33  34
HETATM   34  C   UNL     1      -5.713   0.334 -33.169  1.00  0.00    -0.034 A 
HETATM   35  C   UNL     1      -5.667  -1.065 -33.131  1.00  0.00     0.009 A 
HETATM   36  C   UNL     1      -6.302  -1.820 -34.119  1.00  0.00     0.001 A 
HETATM   37  C   UNL     1      -6.987  -1.187 -35.154  1.00  0.00     0.000 A 
HETATM   38  C   UNL     1      -7.051   0.204 -35.196  1.00  0.00     0.001 A 
HETATM   39  C   UNL     1      -6.426   0.959 -34.202  1.00  0.00     0.009 A 
ENDBRANCH  33  34
ENDBRANCH  32  33
ENDBRANCH  30  32
ENDBRANCH  10  30
TORSDOF 10
ENDMDL
MODEL 8
REMARK VINA RESULT:      -7.9     16.242     19.407
REMARK  10 active torsions:
REMARK  status: ('A' for Active; 'I' for Inactive)
REMARK    1  A    between atoms: C_6  and  C_7 
REMARK    2  A    between atoms: C_9  and  C_10 
REMARK    3  A    between atoms: C_10  and  C_11 
REMARK       I    between atoms: C_11  and  N_12 
REMARK    4  A    between atoms: N_12  and  C_13 
REMARK    5  A    between atoms: C_13  and  C_14 
REMARK    6  A    between atoms: C_14  and  N_15 
REMARK    7  A    between atoms: C_26  and  C_27 
REMARK    8  A    between atoms: C_27  and  O_28 
REMARK    9  A    between atoms: O_28  and  C_29 
REMARK   10  A    between atoms: C_29  and  C_30 
ROOT
HETATM    1  C   UNL     1      -4.707 -14.902 -39.088  1.00  0.00     0.166 C 
HETATM    2  N   UNL     1      -3.494 -14.211 -38.595  1.00  0.00    -0.318 N 
HETATM    3  C   UNL     1      -3.126 -13.182 -37.907  1.00  0.00     0.011 C 
HETATM    4  C   UNL     1      -2.251 -15.052 -39.017  1.00  0.00     0.170 C 
HETATM    5  S   UNL     1      -0.830 -14.078 -39.073  1.00  0.00    -0.086 SA
HETATM    6  C   UNL     1      -1.636 -12.866 -37.973  1.00  0.00     0.135 C 
HETATM    7  N   UNL     1      -2.283 -16.334 -39.172  1.00  0.00    -0.229 NA
HETATM    8  C   UNL     1      -3.441 -16.977 -38.743  1.00  0.00     0.048 C 
HETATM    9  C   UNL     1      -3.242 -18.420 -38.338  1.00  0.00     0.071 C 
HETATM   10  C   UNL     1      -4.614 -16.314 -38.592  1.00  0.00     0.069 C 
ENDROOT
BRANCH   3  11
HETATM   11  C   UNL     1      -4.059 -12.399 -37.025  1.00  0.00     0.156 C 
BRANCH  11  12
HETATM   12  C   UNL     1      -4.402 -13.199 -35.778  1.00  0.00     0.223 C 
HETATM   13  N   UNL     1      -5.470 -12.759 -35.034  1.00  0.00    -0.359 N 
HETATM   14  H   UNL     1      -5.863 -11.847 -35.257  1.00  0.00     0.162 HD
HETATM   15  O   UNL     1      -3.753 -14.195 -35.468  1.00  0.00    -0.273 OA
BRANCH  13  16
HETATM   16  C   UNL     1      -5.700 -13.264 -33.679  1.00  0.00     0.150 C 
BRANCH  16  17
HETATM   17  C   UNL     1      -6.643 -14.490 -33.569  1.00  0.00     0.253 C 
BRANCH  17  18
HETATM   18  N   UNL     1      -5.876 -15.806 -33.512  1.00  0.00    -0.077 N 
HETATM   19  H   UNL     1      -5.501 -16.009 -34.449  1.00  0.00     0.279 HD
HETATM   20  C   UNL     1      -4.714 -15.773 -32.554  1.00  0.00     0.269 C 
HETATM   21  C   UNL     1      -6.793 -16.962 -33.182  1.00  0.00     0.269 C 
ENDBRANCH  17  18
ENDBRANCH  16  17
ENDBRANCH  13  16
ENDBRANCH  11  12
ENDBRANCH   3  11
BRANCH   1  22
HETATM   22  C   UNL     1      -5.970 -14.054 -39.254  1.00  0.00    -0.024 A 
HETATM   23  C   UNL     1      -6.307 -13.474 -40.516  1.00  0.00    -0.053 A 
HETATM   24  C   UNL     1      -7.532 -12.787 -40.681  1.00  0.00     0.014 A 
HETATM   25  C   UNL     1      -5.442 -13.561 -41.753  1.00  0.00     0.049 C 
HETATM   26  C   UNL     1      -8.460 -12.687 -39.648  1.00  0.00    -0.061 A 
HETATM   27  C   UNL     1      -9.814 -12.079 -39.875  1.00  0.00     0.048 C 
HETATM   28  C   UNL     1      -8.150 -13.267 -38.426  1.00  0.00     0.007 A 
HETATM   29  C   UNL     1      -6.932 -13.930 -38.236  1.00  0.00     0.011 A 
ENDBRANCH   1  22
BRANCH  10  30
HETATM   30  C   UNL     1      -5.640 -16.928 -37.748  1.00  0.00     0.294 C 
HETATM   31  O   UNL     1      -5.722 -16.794 -36.544  1.00  0.00    -0.259 OA
BRANCH  30  32
HETATM   32  O   UNL     1      -6.420 -17.673 -38.567  1.00  0.00    -0.313 OA
BRANCH  32  33
HETATM   33  C   UNL     1      -7.839 -17.627 -38.321  1.00  0.00     0.217 C 
BRANCH  33  34
HETATM   34  C   UNL     1      -8.477 -16.917 -39.491  1.00  0.00    -0.034 A 
HETATM   35  C   UNL     1      -9.755 -16.356 -39.378  1.00  0.00     0.009 A 
HETATM   36  C   UNL     1     -10.364 -15.754 -40.481  1.00  0.00     0.001 A 
HETATM   37  C   UNL     1      -9.704 -15.708 -41.708  1.00  0.00     0.000 A 
HETATM   38  C   UNL     1      -8.427 -16.251 -41.831  1.00  0.00     0.001 A 
HETATM   39  C   UNL     1      -7.814 -16.843 -40.725  1.00  0.00     0.009 A 
ENDBRANCH  33  34
ENDBRANCH  32  33
ENDBRANCH  30  32
ENDBRANCH  10  30
TORSDOF 10
ENDMDL
MODEL 9
REMARK VINA RESULT:      -7.9      3.593      8.443
REMARK  10 active torsions:
REMARK  status: ('A' for Active; 'I' for Inactive)
REMARK    1  A    between atoms: C_6  and  C_7 
REMARK    2  A    between atoms: C_9  and  C_10 
REMARK    3  A    between atoms: C_10  and  C_11 
REMARK       I    between atoms: C_11  and  N_12 
REMARK    4  A    between atoms: N_12  and  C_13 
REMARK    5  A    between atoms: C_13  and  C_14 
REMARK    6  A    between atoms: C_14  and  N_15 
REMARK    7  A    between atoms: C_26  and  C_27 
REMARK    8  A    between atoms: C_27  and  O_28 
REMARK    9  A    between atoms: O_28  and  C_29 
REMARK   10  A    between atoms: C_29  and  C_30 
ROOT
HETATM    1  C   UNL     1      -6.598   1.702 -33.087  1.00  0.00     0.166 C 
HETATM    2  N   UNL     1      -5.429   1.208 -32.327  1.00  0.00    -0.318 N 
HETATM    3  C   UNL     1      -4.790   1.393 -31.219  1.00  0.00     0.011 C 
HETATM    4  C   UNL     1      -4.793   0.029 -33.126  1.00  0.00     0.170 C 
HETATM    5  S   UNL     1      -3.137  -0.190 -32.701  1.00  0.00    -0.086 SA
HETATM    6  C   UNL     1      -3.438   0.694 -31.134  1.00  0.00     0.135 C 
HETATM    7  N   UNL     1      -5.473  -0.747 -33.902  1.00  0.00    -0.229 NA
HETATM    8  C   UNL     1      -6.858  -0.620 -33.841  1.00  0.00     0.048 C 
HETATM    9  C   UNL     1      -7.619  -1.870 -34.216  1.00  0.00     0.071 C 
HETATM   10  C   UNL     1      -7.453   0.503 -33.366  1.00  0.00     0.069 C 
ENDROOT
BRANCH   3  11
HETATM   11  C   UNL     1      -5.358   2.156 -30.054  1.00  0.00     0.156 C 
BRANCH  11  12
HETATM   12  C   UNL     1      -5.030   3.635 -30.183  1.00  0.00     0.223 C 
HETATM   13  N   UNL     1      -4.020   3.972 -31.051  1.00  0.00    -0.359 N 
HETATM   14  H   UNL     1      -3.445   3.222 -31.429  1.00  0.00     0.162 HD
HETATM   15  O   UNL     1      -5.652   4.478 -29.542  1.00  0.00    -0.273 OA
BRANCH  13  16
HETATM   16  C   UNL     1      -3.428   5.311 -31.031  1.00  0.00     0.150 C 
BRANCH  16  17
HETATM   17  C   UNL     1      -2.105   5.474 -31.823  1.00  0.00     0.253 C 
BRANCH  17  18
HETATM   18  N   UNL     1      -2.329   6.069 -33.207  1.00  0.00    -0.077 N 
HETATM   19  H   UNL     1      -3.340   6.083 -33.400  1.00  0.00     0.279 HD
HETATM   20  C   UNL     1      -1.824   7.484 -33.333  1.00  0.00     0.269 C 
HETATM   21  C   UNL     1      -1.722   5.199 -34.285  1.00  0.00     0.269 C 
ENDBRANCH  17  18
ENDBRANCH  16  17
ENDBRANCH  13  16
ENDBRANCH  11  12
ENDBRANCH   3  11
BRANCH   1  22
HETATM   22  C   UNL     1      -7.064   3.131 -32.792  1.00  0.00    -0.024 A 
HETATM   23  C   UNL     1      -6.505   4.246 -33.491  1.00  0.00    -0.053 A 
HETATM   24  C   UNL     1      -7.023   5.546 -33.288  1.00  0.00     0.014 A 
HETATM   25  C   UNL     1      -5.378   4.147 -34.493  1.00  0.00     0.049 C 
HETATM   26  C   UNL     1      -8.107   5.779 -32.446  1.00  0.00    -0.061 A 
HETATM   27  C   UNL     1      -8.736   7.139 -32.347  1.00  0.00     0.048 C 
HETATM   28  C   UNL     1      -8.669   4.698 -31.782  1.00  0.00     0.007 A 
HETATM   29  C   UNL     1      -8.156   3.407 -31.951  1.00  0.00     0.011 A 
ENDBRANCH   1  22
BRANCH  10  30
HETATM   30  C   UNL     1      -8.847   0.403 -32.932  1.00  0.00     0.294 C 
HETATM   31  O   UNL     1      -9.211   0.019 -31.840  1.00  0.00    -0.259 OA
BRANCH  30  32
HETATM   32  O   UNL     1      -9.608   0.785 -33.986  1.00  0.00    -0.313 OA
BRANCH  32  33
HETATM   33  C   UNL     1     -10.971   1.152 -33.696  1.00  0.00     0.217 C 
BRANCH  33  34
HETATM   34  C   UNL     1     -11.083   2.648 -33.877  1.00  0.00    -0.034 A 
HETATM   35  C   UNL     1     -11.930   3.406 -33.059  1.00  0.00     0.009 A 
HETATM   36  C   UNL     1     -12.075   4.778 -33.271  1.00  0.00     0.001 A 
HETATM   37  C   UNL     1     -11.378   5.407 -34.301  1.00  0.00     0.000 A 
HETATM   38  C   UNL     1     -10.523   4.666 -35.114  1.00  0.00     0.001 A 
HETATM   39  C   UNL     1     -10.369   3.296 -34.895  1.00  0.00     0.009 A 
ENDBRANCH  33  34
ENDBRANCH  32  33
ENDBRANCH  30  32
ENDBRANCH  10  30
TORSDOF 10
ENDMDL
MODEL 10
REMARK VINA RESULT:      -7.9      3.120      7.715
REMARK  10 active torsions:
REMARK  status: ('A' for Active; 'I' for Inactive)
REMARK    1  A    between atoms: C_6  and  C_7 
REMARK    2  A    between atoms: C_9  and  C_10 
REMARK    3  A    between atoms: C_10  and  C_11 
REMARK       I    between atoms: C_11  and  N_12 
REMARK    4  A    between atoms: N_12  and  C_13 
REMARK    5  A    between atoms: C_13  and  C_14 
REMARK    6  A    between atoms: C_14  and  N_15 
REMARK    7  A    between atoms: C_26  and  C_27 
REMARK    8  A    between atoms: C_27  and  O_28 
REMARK    9  A    between atoms: O_28  and  C_29 
REMARK   10  A    between atoms: C_29  and  C_30 
ROOT
HETATM    1  C   UNL     1      -8.492   2.213 -32.414  1.00  0.00     0.166 C 
HETATM    2  N   UNL     1      -7.836   3.532 -32.277  1.00  0.00    -0.318 N 
HETATM    3  C   UNL     1      -6.897   4.253 -32.793  1.00  0.00     0.011 C 
HETATM    4  C   UNL     1      -8.576   4.328 -31.158  1.00  0.00     0.170 C 
HETATM    5  S   UNL     1      -7.561   5.549 -30.487  1.00  0.00    -0.086 SA
HETATM    6  C   UNL     1      -6.530   5.497 -31.992  1.00  0.00     0.135 C 
HETATM    7  N   UNL     1      -9.826   4.162 -30.881  1.00  0.00    -0.229 NA
HETATM    8  C   UNL     1     -10.556   3.377 -31.769  1.00  0.00     0.048 C 
HETATM    9  C   UNL     1     -12.032   3.694 -31.818  1.00  0.00     0.071 C 
HETATM   10  C   UNL     1      -9.954   2.489 -32.600  1.00  0.00     0.069 C 
ENDROOT
BRANCH   3  11
HETATM   11  C   UNL     1      -6.266   3.961 -34.127  1.00  0.00     0.156 C 
BRANCH  11  12
HETATM   12  C   UNL     1      -4.836   4.474 -34.156  1.00  0.00     0.223 C 
HETATM   13  N   UNL     1      -3.956   3.906 -33.267  1.00  0.00    -0.359 N 
HETATM   14  H   UNL     1      -4.335   3.304 -32.538  1.00  0.00     0.162 HD
HETATM   15  O   UNL     1      -4.494   5.348 -34.948  1.00  0.00    -0.273 OA
BRANCH  13  16
HETATM   16  C   UNL     1      -2.652   4.519 -33.005  1.00  0.00     0.150 C 
BRANCH  16  17
HETATM   17  C   UNL     1      -2.649   5.682 -31.979  1.00  0.00     0.253 C 
BRANCH  17  18
HETATM   18  N   UNL     1      -2.861   7.037 -32.642  1.00  0.00    -0.077 N 
HETATM   19  H   UNL     1      -3.776   7.036 -33.111  1.00  0.00     0.279 HD
HETATM   20  C   UNL     1      -2.854   8.183 -31.663  1.00  0.00     0.269 C 
HETATM   21  C   UNL     1      -1.845   7.278 -33.735  1.00  0.00     0.269 C 
ENDBRANCH  17  18
ENDBRANCH  16  17
ENDBRANCH  13  16
ENDBRANCH  11  12
ENDBRANCH   3  11
BRANCH   1  22
HETATM   22  C   UNL     1      -7.668   1.091 -33.051  1.00  0.00    -0.024 A 
HETATM   23  C   UNL     1      -6.844   0.238 -32.251  1.00  0.00    -0.053 A 
HETATM   24  C   UNL     1      -6.177  -0.862 -32.837  1.00  0.00     0.014 A 
HETATM   25  C   UNL     1      -6.640   0.400 -30.762  1.00  0.00     0.049 C 
HETATM   26  C   UNL     1      -6.327  -1.176 -34.186  1.00  0.00    -0.061 A 
HETATM   27  C   UNL     1      -5.727  -2.424 -34.765  1.00  0.00     0.048 C 
HETATM   28  C   UNL     1      -7.143  -0.366 -34.963  1.00  0.00     0.007 A 
HETATM   29  C   UNL     1      -7.794   0.741 -34.407  1.00  0.00     0.011 A 
ENDBRANCH   1  22
BRANCH  10  30
HETATM   30  C   UNL     1     -10.705   2.036 -33.771  1.00  0.00     0.294 C 
HETATM   31  O   UNL     1     -11.356   1.013 -33.828  1.00  0.00    -0.259 OA
BRANCH  30  32
HETATM   32  O   UNL     1     -10.493   2.953 -34.745  1.00  0.00    -0.313 OA
BRANCH  32  33
HETATM   33  C   UNL     1     -11.651   3.387 -35.484  1.00  0.00     0.217 C 
BRANCH  33  34
HETATM   34  C   UNL     1     -11.702   4.894 -35.396  1.00  0.00    -0.034 A 
HETATM   35  C   UNL     1     -12.926   5.573 -35.454  1.00  0.00     0.009 A 
HETATM   36  C   UNL     1     -12.962   6.968 -35.434  1.00  0.00     0.001 A 
HETATM   37  C   UNL     1     -11.779   7.700 -35.356  1.00  0.00     0.000 A 
HETATM   38  C   UNL     1     -10.556   7.037 -35.284  1.00  0.00     0.001 A 
HETATM   39  C   UNL     1     -10.520   5.641 -35.294  1.00  0.00     0.009 A 
ENDBRANCH  33  34
ENDBRANCH  32  33
ENDBRANCH  30  32
ENDBRANCH  10  30
TORSDOF 10
ENDMDL
