MODEL 1
REMARK VINA RESULT:      -8.7      0.000      0.000
REMARK  7 active torsions:
REMARK  status: ('A' for Active; 'I' for Inactive)
REMARK    1  A    between atoms: O_2  and  C_3 
REMARK    2  A    between atoms: C_4  and  O_5 
REMARK    3  A    between atoms: O_5  and  C_6 
REMARK       I    between atoms: C_6  and  N_7 
REMARK    4  A    between atoms: C_14  and  O_15 
REMARK    5  A    between atoms: C_18  and  C_19 
REMARK    6  A    between atoms: C_23  and  N_24 
REMARK    7  A    between atoms: C_31  and  C_32 
ROOT
HETATM    1  C   UNL     1      -9.511   3.167 -34.351  1.00  0.00     0.106 A 
HETATM    2  C   UNL     1     -10.572   4.242 -34.636  1.00  0.00     0.081 A 
HETATM    3  C   UNL     1     -10.130   5.413 -35.319  1.00  0.00     0.100 C 
HETATM    4  N   UNL     1      -9.757   6.353 -35.888  1.00  0.00    -0.191 NA
HETATM    5  C   UNL     1     -11.888   4.085 -34.326  1.00  0.00     0.140 A 
HETATM    6  O   UNL     1     -12.377   2.910 -33.736  1.00  0.00    -0.279 OA
HETATM    7  C   UNL     1     -11.505   1.922 -33.581  1.00  0.00     0.175 A 
HETATM    8  C   UNL     1     -10.158   1.923 -33.842  1.00  0.00     0.040 A 
HETATM    9  N   UNL     1     -11.819   0.690 -33.114  1.00  0.00    -0.256 N 
HETATM   10  H   UNL     1     -12.726   0.339 -32.827  1.00  0.00     0.191 HD
HETATM   11  N   UNL     1     -10.751  -0.124 -33.041  1.00  0.00    -0.172 NA
HETATM   12  C   UNL     1      -9.722   0.607 -33.515  1.00  0.00     0.099 A 
ENDROOT
BRANCH   1  13
HETATM   13  C   UNL     1      -8.488   3.639 -33.316  1.00  0.00    -0.039 C 
HETATM   14  C   UNL     1      -8.817   4.442 -32.202  1.00  0.00     0.048 C 
HETATM   15  C   UNL     1      -7.828   4.956 -31.358  1.00  0.00     0.105 C 
HETATM   16  C   UNL     1      -6.485   4.757 -31.694  1.00  0.00     0.147 C 
HETATM   17  C   UNL     1      -6.130   3.906 -32.739  1.00  0.00     0.105 C 
HETATM   18  C   UNL     1      -7.125   3.358 -33.551  1.00  0.00     0.048 C 
BRANCH  15  19
HETATM   19  O   UNL     1      -8.091   5.700 -30.238  1.00  0.00    -0.353 OA
HETATM   20  C   UNL     1      -8.773   6.927 -30.475  1.00  0.00     0.210 C 
ENDBRANCH  15  19
BRANCH  16  21
HETATM   21  O   UNL     1      -5.460   5.371 -30.963  1.00  0.00    -0.256 OA
BRANCH  21  22
HETATM   22  C   UNL     1      -4.981   6.530 -31.569  1.00  0.00     0.368 C 
HETATM   23  N   UNL     1      -3.624   6.710 -31.358  1.00  0.00    -0.324 N 
HETATM   24  C   UNL     1      -2.710   5.618 -31.029  1.00  0.00     0.154 C 
HETATM   25  C   UNL     1      -2.961   7.915 -31.846  1.00  0.00     0.154 C 
HETATM   26  C   UNL     1      -1.776   5.351 -32.220  1.00  0.00     0.187 C 
HETATM   27  O   UNL     1      -1.085   6.549 -32.617  1.00  0.00    -0.388 OA
HETATM   28  C   UNL     1      -2.019   7.574 -33.004  1.00  0.00     0.187 C 
HETATM   29  O   UNL     1      -5.659   7.326 -32.214  1.00  0.00    -0.238 OA
ENDBRANCH  21  22
ENDBRANCH  16  21
BRANCH  17  30
HETATM   30  O   UNL     1      -4.801   3.697 -32.998  1.00  0.00    -0.353 OA
HETATM   31  C   UNL     1      -4.340   2.478 -32.417  1.00  0.00     0.210 C 
ENDBRANCH  17  30
ENDBRANCH   1  13
BRANCH   5  32
HETATM   32  N   UNL     1     -12.877   5.017 -34.554  1.00  0.00    -0.282 NA
HETATM   33  H   UNL     1     -12.614   5.788 -35.164  1.00  0.00     0.126 HD
HETATM   34  H   UNL     1     -13.303   5.336 -33.687  1.00  0.00     0.126 HD
ENDBRANCH   5  32
BRANCH  12  35
HETATM   35  C   UNL     1      -8.382   0.025 -33.592  1.00  0.00    -0.005 A 
HETATM   36  C   UNL     1      -7.838  -0.403 -34.811  1.00  0.00     0.015 A 
HETATM   37  C   UNL     1      -6.556  -0.961 -34.858  1.00  0.00     0.020 A 
HETATM   38  C   UNL     1      -5.816  -1.100 -33.686  1.00  0.00     0.011 A 
HETATM   39 BR   UNL     1      -4.088  -1.862 -33.752  1.00  0.00    -0.051 Br
HETATM   40  C   UNL     1      -6.344  -0.692 -32.465  1.00  0.00     0.020 A 
HETATM   41  C   UNL     1      -7.624  -0.132 -32.420  1.00  0.00     0.015 A 
ENDBRANCH  12  35
TORSDOF 7
ENDMDL
MODEL 2
REMARK VINA RESULT:      -8.5      1.828      3.020
REMARK  7 active torsions:
REMARK  status: ('A' for Active; 'I' for Inactive)
REMARK    1  A    between atoms: O_2  and  C_3 
REMARK    2  A    between atoms: C_4  and  O_5 
REMARK    3  A    between atoms: O_5  and  C_6 
REMARK       I    between atoms: C_6  and  N_7 
REMARK    4  A    between atoms: C_14  and  O_15 
REMARK    5  A    between atoms: C_18  and  C_19 
REMARK    6  A    between atoms: C_23  and  N_24 
REMARK    7  A    between atoms: C_31  and  C_32 
ROOT
HETATM    1  C   UNL     1      -9.711   3.280 -34.529  1.00  0.00     0.106 A 
HETATM    2  C   UNL     1     -10.814   4.290 -34.880  1.00  0.00     0.081 A 
HETATM    3  C   UNL     1     -10.416   5.443 -35.618  1.00  0.00     0.100 C 
HETATM    4  N   UNL     1     -10.078   6.368 -36.232  1.00  0.00    -0.191 NA
HETATM    5  C   UNL     1     -12.126   4.090 -34.576  1.00  0.00     0.140 A 
HETATM    6  O   UNL     1     -12.570   2.926 -33.931  1.00  0.00    -0.279 OA
HETATM    7  C   UNL     1     -11.657   1.988 -33.716  1.00  0.00     0.175 A 
HETATM    8  C   UNL     1     -10.309   2.035 -33.964  1.00  0.00     0.040 A 
HETATM    9  N   UNL     1     -11.923   0.768 -33.190  1.00  0.00    -0.256 N 
HETATM   10  H   UNL     1     -12.817   0.392 -32.894  1.00  0.00     0.191 HD
HETATM   11  N   UNL     1     -10.821   0.008 -33.063  1.00  0.00    -0.172 NA
HETATM   12  C   UNL     1      -9.819   0.758 -33.564  1.00  0.00     0.099 A 
ENDROOT
BRANCH   1  13
HETATM   13  C   UNL     1      -8.722   3.849 -33.510  1.00  0.00    -0.039 C 
HETATM   14  C   UNL     1      -7.325   3.882 -33.711  1.00  0.00     0.048 C 
HETATM   15  C   UNL     1      -6.453   4.291 -32.697  1.00  0.00     0.105 C 
HETATM   16  C   UNL     1      -6.976   4.567 -31.430  1.00  0.00     0.147 C 
HETATM   17  C   UNL     1      -8.353   4.620 -31.223  1.00  0.00     0.105 C 
HETATM   18  C   UNL     1      -9.221   4.255 -32.254  1.00  0.00     0.048 C 
BRANCH  15  19
HETATM   19  O   UNL     1      -5.095   4.386 -32.851  1.00  0.00    -0.353 OA
HETATM   20  C   UNL     1      -4.665   5.221 -33.921  1.00  0.00     0.210 C 
ENDBRANCH  15  19
BRANCH  16  21
HETATM   21  O   UNL     1      -6.132   4.840 -30.346  1.00  0.00    -0.256 OA
BRANCH  21  22
HETATM   22  C   UNL     1      -5.954   6.203 -30.127  1.00  0.00     0.368 C 
HETATM   23  N   UNL     1      -6.212   6.564 -28.815  1.00  0.00    -0.324 N 
HETATM   24  C   UNL     1      -6.153   5.624 -27.697  1.00  0.00     0.154 C 
HETATM   25  C   UNL     1      -6.159   7.967 -28.417  1.00  0.00     0.154 C 
HETATM   26  C   UNL     1      -4.941   5.953 -26.811  1.00  0.00     0.187 C 
HETATM   27  O   UNL     1      -4.972   7.325 -26.378  1.00  0.00    -0.388 OA
HETATM   28  C   UNL     1      -4.954   8.218 -27.507  1.00  0.00     0.187 C 
HETATM   29  O   UNL     1      -5.615   7.021 -30.981  1.00  0.00    -0.238 OA
ENDBRANCH  21  22
ENDBRANCH  16  21
BRANCH  17  30
HETATM   30  O   UNL     1      -8.821   4.948 -29.977  1.00  0.00    -0.353 OA
HETATM   31  C   UNL     1      -9.663   6.099 -30.022  1.00  0.00     0.210 C 
ENDBRANCH  17  30
ENDBRANCH   1  13
BRANCH   5  32
HETATM   32  N   UNL     1     -13.152   4.964 -34.862  1.00  0.00    -0.282 NA
HETATM   33  H   UNL     1     -13.947   4.556 -35.349  1.00  0.00     0.126 HD
HETATM   34  H   UNL     1     -12.813   5.811 -35.314  1.00  0.00     0.126 HD
ENDBRANCH   5  32
BRANCH  12  35
HETATM   35  C   UNL     1      -8.454   0.234 -33.598  1.00  0.00    -0.005 A 
HETATM   36  C   UNL     1      -7.866  -0.203 -34.792  1.00  0.00     0.015 A 
HETATM   37  C   UNL     1      -6.561  -0.706 -34.798  1.00  0.00     0.020 A 
HETATM   38  C   UNL     1      -5.840  -0.781 -33.607  1.00  0.00     0.011 A 
HETATM   39 BR   UNL     1      -4.080  -1.468 -33.617  1.00  0.00    -0.051 Br
HETATM   40  C   UNL     1      -6.412  -0.363 -32.409  1.00  0.00     0.020 A 
HETATM   41  C   UNL     1      -7.716   0.141 -32.407  1.00  0.00     0.015 A 
ENDBRANCH  12  35
TORSDOF 7
ENDMDL
MODEL 3
REMARK VINA RESULT:      -8.3      1.813      2.471
REMARK  7 active torsions:
REMARK  status: ('A' for Active; 'I' for Inactive)
REMARK    1  A    between atoms: O_2  and  C_3 
REMARK    2  A    between atoms: C_4  and  O_5 
REMARK    3  A    between atoms: O_5  and  C_6 
REMARK       I    between atoms: C_6  and  N_7 
REMARK    4  A    between atoms: C_14  and  O_15 
REMARK    5  A    between atoms: C_18  and  C_19 
REMARK    6  A    between atoms: C_23  and  N_24 
REMARK    7  A    between atoms: C_31  and  C_32 
ROOT
HETATM    1  C   UNL     1      -9.524   2.960 -34.195  1.00  0.00     0.106 A 
HETATM    2  C   UNL     1     -10.648   3.897 -34.663  1.00  0.00     0.081 A 
HETATM    3  C   UNL     1     -10.249   5.085 -35.342  1.00  0.00     0.100 C 
HETATM    4  N   UNL     1      -9.908   6.041 -35.906  1.00  0.00    -0.191 NA
HETATM    5  C   UNL     1     -11.968   3.603 -34.514  1.00  0.00     0.140 A 
HETATM    6  O   UNL     1     -12.401   2.402 -33.932  1.00  0.00    -0.279 OA
HETATM    7  C   UNL     1     -11.455   1.525 -33.621  1.00  0.00     0.175 A 
HETATM    8  C   UNL     1     -10.094   1.669 -33.711  1.00  0.00     0.040 A 
HETATM    9  N   UNL     1     -11.694   0.282 -33.137  1.00  0.00    -0.256 N 
HETATM   10  H   UNL     1     -12.587  -0.159 -32.950  1.00  0.00     0.191 HD
HETATM   11  N   UNL     1     -10.563  -0.403 -32.890  1.00  0.00    -0.172 NA
HETATM   12  C   UNL     1      -9.565   0.422 -33.267  1.00  0.00     0.099 A 
ENDROOT
BRANCH   1  13
HETATM   13  C   UNL     1      -8.700   3.580 -33.064  1.00  0.00    -0.039 C 
HETATM   14  C   UNL     1      -9.271   4.148 -31.904  1.00  0.00     0.048 C 
HETATM   15  C   UNL     1      -8.485   4.819 -30.961  1.00  0.00     0.105 C 
HETATM   16  C   UNL     1      -7.129   5.021 -31.235  1.00  0.00     0.147 C 
HETATM   17  C   UNL     1      -6.524   4.406 -32.329  1.00  0.00     0.105 C 
HETATM   18  C   UNL     1      -7.306   3.697 -33.243  1.00  0.00     0.048 C 
BRANCH  15  19
HETATM   19  O   UNL     1      -8.977   5.349 -29.797  1.00  0.00    -0.353 OA
HETATM   20  C   UNL     1     -10.003   6.321 -29.963  1.00  0.00     0.210 C 
ENDBRANCH  15  19
BRANCH  16  21
HETATM   21  O   UNL     1      -6.333   5.808 -30.394  1.00  0.00    -0.256 OA
BRANCH  21  22
HETATM   22  C   UNL     1      -6.438   7.170 -30.666  1.00  0.00     0.368 C 
HETATM   23  N   UNL     1      -6.783   7.905 -29.544  1.00  0.00    -0.324 N 
HETATM   24  C   UNL     1      -6.552   7.442 -28.177  1.00  0.00     0.154 C 
HETATM   25  C   UNL     1      -7.022   9.341 -29.655  1.00  0.00     0.154 C 
HETATM   26  C   UNL     1      -5.445   8.288 -27.528  1.00  0.00     0.187 C 
HETATM   27  O   UNL     1      -5.760   9.690 -27.590  1.00  0.00    -0.388 OA
HETATM   28  C   UNL     1      -5.906  10.122 -28.956  1.00  0.00     0.187 C 
HETATM   29  O   UNL     1      -6.259   7.690 -31.766  1.00  0.00    -0.238 OA
ENDBRANCH  21  22
ENDBRANCH  16  21
BRANCH  17  30
HETATM   30  O   UNL     1      -5.180   4.586 -32.527  1.00  0.00    -0.353 OA
HETATM   31  C   UNL     1      -4.908   5.109 -33.827  1.00  0.00     0.210 C 
ENDBRANCH  17  30
ENDBRANCH   1  13
BRANCH   5  32
HETATM   32  N   UNL     1     -13.014   4.409 -34.910  1.00  0.00    -0.282 NA
HETATM   33  H   UNL     1     -13.936   3.984 -34.847  1.00  0.00     0.126 HD
HETATM   34  H   UNL     1     -12.842   4.832 -35.819  1.00  0.00     0.126 HD
ENDBRANCH   5  32
BRANCH  12  35
HETATM   35  C   UNL     1      -8.172  -0.007 -33.147  1.00  0.00    -0.005 A 
HETATM   36  C   UNL     1      -7.502  -0.629 -34.209  1.00  0.00     0.015 A 
HETATM   37  C   UNL     1      -6.172  -1.035 -34.068  1.00  0.00     0.020 A 
HETATM   38  C   UNL     1      -5.507  -0.827 -32.861  1.00  0.00     0.011 A 
HETATM   39 BR   UNL     1      -3.711  -1.385 -32.671  1.00  0.00    -0.051 Br
HETATM   40  C   UNL     1      -6.159  -0.222 -31.791  1.00  0.00     0.020 A 
HETATM   41  C   UNL     1      -7.488   0.185 -31.935  1.00  0.00     0.015 A 
ENDBRANCH  12  35
TORSDOF 7
ENDMDL
MODEL 4
REMARK VINA RESULT:      -8.0      3.415      6.021
REMARK  7 active torsions:
REMARK  status: ('A' for Active; 'I' for Inactive)
REMARK    1  A    between atoms: O_2  and  C_3 
REMARK    2  A    between atoms: C_4  and  O_5 
REMARK    3  A    between atoms: O_5  and  C_6 
REMARK       I    between atoms: C_6  and  N_7 
REMARK    4  A    between atoms: C_14  and  O_15 
REMARK    5  A    between atoms: C_18  and  C_19 
REMARK    6  A    between atoms: C_23  and  N_24 
REMARK    7  A    between atoms: C_31  and  C_32 
ROOT
HETATM    1  C   UNL     1      -5.869   1.594 -32.096  1.00  0.00     0.106 A 
HETATM    2  C   UNL     1      -5.067   0.342 -32.483  1.00  0.00     0.081 A 
HETATM    3  C   UNL     1      -4.077  -0.097 -31.556  1.00  0.00     0.100 C 
HETATM    4  N   UNL     1      -3.286  -0.450 -30.784  1.00  0.00    -0.191 NA
HETATM    5  C   UNL     1      -5.312  -0.375 -33.614  1.00  0.00     0.140 A 
HETATM    6  O   UNL     1      -6.338  -0.027 -34.506  1.00  0.00    -0.279 OA
HETATM    7  C   UNL     1      -7.118   0.982 -34.141  1.00  0.00     0.175 A 
HETATM    8  C   UNL     1      -7.005   1.794 -33.042  1.00  0.00     0.040 A 
HETATM    9  N   UNL     1      -8.209   1.395 -34.832  1.00  0.00    -0.256 N 
HETATM   10  H   UNL     1      -8.588   1.015 -35.692  1.00  0.00     0.191 HD
HETATM   11  N   UNL     1      -8.818   2.446 -34.256  1.00  0.00    -0.172 NA
HETATM   12  C   UNL     1      -8.111   2.689 -33.134  1.00  0.00     0.099 A 
ENDROOT
BRANCH   1  13
HETATM   13  C   UNL     1      -4.999   2.852 -32.108  1.00  0.00    -0.039 C 
HETATM   14  C   UNL     1      -3.948   3.066 -33.027  1.00  0.00     0.048 C 
HETATM   15  C   UNL     1      -3.098   4.171 -32.915  1.00  0.00     0.105 C 
HETATM   16  C   UNL     1      -3.231   5.014 -31.808  1.00  0.00     0.147 C 
HETATM   17  C   UNL     1      -4.304   4.875 -30.931  1.00  0.00     0.105 C 
HETATM   18  C   UNL     1      -5.178   3.795 -31.074  1.00  0.00     0.048 C 
BRANCH  15  19
HETATM   19  O   UNL     1      -2.093   4.453 -33.803  1.00  0.00    -0.353 OA
HETATM   20  C   UNL     1      -2.481   5.237 -34.925  1.00  0.00     0.210 C 
ENDBRANCH  15  19
BRANCH  16  21
HETATM   21  O   UNL     1      -2.315   6.047 -31.575  1.00  0.00    -0.256 OA
BRANCH  21  22
HETATM   22  C   UNL     1      -1.240   5.653 -30.783  1.00  0.00     0.368 C 
HETATM   23  N   UNL     1      -0.828   6.654 -29.919  1.00  0.00    -0.324 N 
HETATM   24  C   UNL     1      -1.690   7.754 -29.494  1.00  0.00     0.154 C 
HETATM   25  C   UNL     1       0.342   6.451 -29.070  1.00  0.00     0.154 C 
HETATM   26  C   UNL     1      -2.047   7.585 -28.009  1.00  0.00     0.187 C 
HETATM   27  O   UNL     1      -0.862   7.469 -27.201  1.00  0.00    -0.388 OA
HETATM   28  C   UNL     1      -0.078   6.330 -27.603  1.00  0.00     0.187 C 
HETATM   29  O   UNL     1      -0.692   4.553 -30.828  1.00  0.00    -0.238 OA
ENDBRANCH  21  22
ENDBRANCH  16  21
BRANCH  17  30
HETATM   30  O   UNL     1      -4.426   5.759 -29.890  1.00  0.00    -0.353 OA
HETATM   31  C   UNL     1      -5.714   5.678 -29.283  1.00  0.00     0.210 C 
ENDBRANCH  17  30
ENDBRANCH   1  13
BRANCH   5  32
HETATM   32  N   UNL     1      -4.621  -1.499 -34.011  1.00  0.00    -0.282 NA
HETATM   33  H   UNL     1      -4.352  -1.519 -34.993  1.00  0.00     0.126 HD
HETATM   34  H   UNL     1      -5.090  -2.354 -33.720  1.00  0.00     0.126 HD
ENDBRANCH   5  32
BRANCH  12  35
HETATM   35  C   UNL     1      -8.503   3.777 -32.238  1.00  0.00    -0.005 A 
HETATM   36  C   UNL     1      -9.116   3.525 -31.004  1.00  0.00     0.015 A 
HETATM   37  C   UNL     1      -9.487   4.583 -30.167  1.00  0.00     0.020 A 
HETATM   38  C   UNL     1      -9.254   5.898 -30.566  1.00  0.00     0.011 A 
HETATM   39 BR   UNL     1      -9.764   7.325 -29.436  1.00  0.00    -0.051 Br
HETATM   40  C   UNL     1      -8.657   6.167 -31.793  1.00  0.00     0.020 A 
HETATM   41  C   UNL     1      -8.285   5.109 -32.626  1.00  0.00     0.015 A 
ENDBRANCH  12  35
TORSDOF 7
ENDMDL
MODEL 5
REMARK VINA RESULT:      -7.6      3.479      8.328
REMARK  7 active torsions:
REMARK  status: ('A' for Active; 'I' for Inactive)
REMARK    1  A    between atoms: O_2  and  C_3 
REMARK    2  A    between atoms: C_4  and  O_5 
REMARK    3  A    between atoms: O_5  and  C_6 
REMARK       I    between atoms: C_6  and  N_7 
REMARK    4  A    between atoms: C_14  and  O_15 
REMARK    5  A    between atoms: C_18  and  C_19 
REMARK    6  A    between atoms: C_23  and  N_24 
REMARK    7  A    between atoms: C_31  and  C_32 
ROOT
HETATM    1  C   UNL     1      -5.953   5.247 -32.429  1.00  0.00     0.106 A 
HETATM    2  C   UNL     1      -4.652   4.667 -33.005  1.00  0.00     0.081 A 
HETATM    3  C   UNL     1      -4.368   4.963 -34.370  1.00  0.00     0.100 C 
HETATM    4  N   UNL     1      -4.144   5.226 -35.478  1.00  0.00    -0.191 NA
HETATM    5  C   UNL     1      -3.760   3.960 -32.258  1.00  0.00     0.140 A 
HETATM    6  O   UNL     1      -3.960   3.725 -30.889  1.00  0.00    -0.279 OA
HETATM    7  C   UNL     1      -5.017   4.308 -30.340  1.00  0.00     0.175 A 
HETATM    8  C   UNL     1      -5.999   5.046 -30.951  1.00  0.00     0.040 A 
HETATM    9  N   UNL     1      -5.315   4.266 -29.019  1.00  0.00    -0.256 N 
HETATM   10  H   UNL     1      -4.801   3.810 -28.273  1.00  0.00     0.191 HD
HETATM   11  N   UNL     1      -6.448   4.926 -28.722  1.00  0.00    -0.172 NA
HETATM   12  C   UNL     1      -6.869   5.442 -29.894  1.00  0.00     0.099 A 
ENDROOT
BRANCH   1  13
HETATM   13  C   UNL     1      -7.189   4.591 -33.046  1.00  0.00    -0.039 C 
HETATM   14  C   UNL     1      -8.168   5.301 -33.775  1.00  0.00     0.048 C 
HETATM   15  C   UNL     1      -9.345   4.682 -34.207  1.00  0.00     0.105 C 
HETATM   16  C   UNL     1      -9.599   3.365 -33.811  1.00  0.00     0.147 C 
HETATM   17  C   UNL     1      -8.620   2.616 -33.162  1.00  0.00     0.105 C 
HETATM   18  C   UNL     1      -7.426   3.227 -32.773  1.00  0.00     0.048 C 
BRANCH  15  19
HETATM   19  O   UNL     1     -10.307   5.309 -34.956  1.00  0.00    -0.353 OA
HETATM   20  C   UNL     1     -10.803   6.524 -34.405  1.00  0.00     0.210 C 
ENDBRANCH  15  19
BRANCH  16  21
HETATM   21  O   UNL     1     -10.824   2.750 -34.095  1.00  0.00    -0.256 OA
BRANCH  21  22
HETATM   22  C   UNL     1     -11.813   3.054 -33.164  1.00  0.00     0.368 C 
HETATM   23  N   UNL     1     -13.088   2.881 -33.677  1.00  0.00    -0.324 N 
HETATM   24  C   UNL     1     -13.387   2.011 -34.813  1.00  0.00     0.154 C 
HETATM   25  C   UNL     1     -14.254   3.233 -32.873  1.00  0.00     0.154 C 
HETATM   26  C   UNL     1     -14.176   0.784 -34.327  1.00  0.00     0.187 C 
HETATM   27  O   UNL     1     -15.357   1.179 -33.608  1.00  0.00    -0.388 OA
HETATM   28  C   UNL     1     -15.015   1.972 -32.456  1.00  0.00     0.187 C 
HETATM   29  O   UNL     1     -11.611   3.441 -32.015  1.00  0.00    -0.238 OA
ENDBRANCH  21  22
ENDBRANCH  16  21
BRANCH  17  30
HETATM   30  O   UNL     1      -8.892   1.311 -32.842  1.00  0.00    -0.353 OA
HETATM   31  C   UNL     1      -8.209   0.910 -31.655  1.00  0.00     0.210 C 
ENDBRANCH  17  30
ENDBRANCH   1  13
BRANCH   5  32
HETATM   32  N   UNL     1      -2.584   3.414 -32.725  1.00  0.00    -0.282 NA
HETATM   33  H   UNL     1      -2.278   3.756 -33.633  1.00  0.00     0.126 HD
HETATM   34  H   UNL     1      -2.593   2.398 -32.675  1.00  0.00     0.126 HD
ENDBRANCH   5  32
BRANCH  12  35
HETATM   35  C   UNL     1      -8.091   6.245 -29.947  1.00  0.00    -0.005 A 
HETATM   36  C   UNL     1      -9.330   5.674 -30.267  1.00  0.00     0.015 A 
HETATM   37  C   UNL     1     -10.483   6.463 -30.317  1.00  0.00     0.020 A 
HETATM   38  C   UNL     1     -10.401   7.830 -30.055  1.00  0.00     0.011 A 
HETATM   39 BR   UNL     1     -11.960   8.895 -30.132  1.00  0.00    -0.051 Br
HETATM   40  C   UNL     1      -9.177   8.417 -29.748  1.00  0.00     0.020 A 
HETATM   41  C   UNL     1      -8.027   7.625 -29.696  1.00  0.00     0.015 A 
ENDBRANCH  12  35
TORSDOF 7
ENDMDL
MODEL 6
REMARK VINA RESULT:      -7.5      2.401      7.251
REMARK  7 active torsions:
REMARK  status: ('A' for Active; 'I' for Inactive)
REMARK    1  A    between atoms: O_2  and  C_3 
REMARK    2  A    between atoms: C_4  and  O_5 
REMARK    3  A    between atoms: O_5  and  C_6 
REMARK       I    between atoms: C_6  and  N_7 
REMARK    4  A    between atoms: C_14  and  O_15 
REMARK    5  A    between atoms: C_18  and  C_19 
REMARK    6  A    between atoms: C_23  and  N_24 
REMARK    7  A    between atoms: C_31  and  C_32 
ROOT
HETATM    1  C   UNL     1      -6.044   3.750 -30.688  1.00  0.00     0.106 A 
HETATM    2  C   UNL     1      -5.938   4.978 -29.771  1.00  0.00     0.081 A 
HETATM    3  C   UNL     1      -6.965   5.140 -28.795  1.00  0.00     0.100 C 
HETATM    4  N   UNL     1      -7.800   5.249 -27.996  1.00  0.00    -0.191 NA
HETATM    5  C   UNL     1      -4.893   5.849 -29.815  1.00  0.00     0.140 A 
HETATM    6  O   UNL     1      -3.818   5.674 -30.700  1.00  0.00    -0.279 OA
HETATM    7  C   UNL     1      -3.827   4.563 -31.425  1.00  0.00     0.175 A 
HETATM    8  C   UNL     1      -4.796   3.595 -31.491  1.00  0.00     0.040 A 
HETATM    9  N   UNL     1      -2.829   4.186 -32.261  1.00  0.00    -0.256 N 
HETATM   10  H   UNL     1      -1.957   4.665 -32.454  1.00  0.00     0.191 HD
HETATM   11  N   UNL     1      -3.091   3.026 -32.888  1.00  0.00    -0.172 NA
HETATM   12  C   UNL     1      -4.284   2.628 -32.404  1.00  0.00     0.099 A 
ENDROOT
BRANCH   1  13
HETATM   13  C   UNL     1      -7.229   3.859 -31.648  1.00  0.00    -0.039 C 
HETATM   14  C   UNL     1      -7.586   5.051 -32.316  1.00  0.00     0.048 C 
HETATM   15  C   UNL     1      -8.754   5.135 -33.081  1.00  0.00     0.105 C 
HETATM   16  C   UNL     1      -9.633   4.048 -33.090  1.00  0.00     0.147 C 
HETATM   17  C   UNL     1      -9.272   2.835 -32.508  1.00  0.00     0.105 C 
HETATM   18  C   UNL     1      -8.082   2.743 -31.784  1.00  0.00     0.048 C 
BRANCH  15  19
HETATM   19  O   UNL     1      -9.126   6.249 -33.787  1.00  0.00    -0.353 OA
HETATM   20  C   UNL     1      -9.546   7.354 -32.993  1.00  0.00     0.210 C 
ENDBRANCH  15  19
BRANCH  16  21
HETATM   21  O   UNL     1     -10.880   4.134 -33.721  1.00  0.00    -0.256 OA
BRANCH  21  22
HETATM   22  C   UNL     1     -11.927   4.345 -32.829  1.00  0.00     0.368 C 
HETATM   23  N   UNL     1     -13.109   3.762 -33.257  1.00  0.00    -0.324 N 
HETATM   24  C   UNL     1     -13.159   2.648 -34.201  1.00  0.00     0.154 C 
HETATM   25  C   UNL     1     -14.337   3.951 -32.491  1.00  0.00     0.154 C 
HETATM   26  C   UNL     1     -13.614   1.375 -33.471  1.00  0.00     0.187 C 
HETATM   27  O   UNL     1     -14.867   1.583 -32.796  1.00  0.00    -0.388 OA
HETATM   28  C   UNL     1     -14.755   2.639 -31.823  1.00  0.00     0.187 C 
HETATM   29  O   UNL     1     -11.848   4.980 -31.779  1.00  0.00    -0.238 OA
ENDBRANCH  21  22
ENDBRANCH  16  21
BRANCH  17  30
HETATM   30  O   UNL     1     -10.142   1.779 -32.589  1.00  0.00    -0.353 OA
HETATM   31  C   UNL     1      -9.474   0.534 -32.390  1.00  0.00     0.210 C 
ENDBRANCH  17  30
ENDBRANCH   1  13
BRANCH   5  32
HETATM   32  N   UNL     1      -4.751   6.967 -29.022  1.00  0.00    -0.282 NA
HETATM   33  H   UNL     1      -4.096   7.664 -29.368  1.00  0.00     0.126 HD
HETATM   34  H   UNL     1      -4.579   6.720 -28.050  1.00  0.00     0.126 HD
ENDBRANCH   5  32
BRANCH  12  35
HETATM   35  C   UNL     1      -4.884   1.375 -32.865  1.00  0.00    -0.005 A 
HETATM   36  C   UNL     1      -5.809   1.350 -33.917  1.00  0.00     0.015 A 
HETATM   37  C   UNL     1      -6.373   0.141 -34.337  1.00  0.00     0.020 A 
HETATM   38  C   UNL     1      -6.020  -1.048 -33.700  1.00  0.00     0.011 A 
HETATM   39 BR   UNL     1      -6.791  -2.679 -34.263  1.00  0.00    -0.051 Br
HETATM   40  C   UNL     1      -5.113  -1.040 -32.645  1.00  0.00     0.020 A 
HETATM   41  C   UNL     1      -4.549   0.169 -32.229  1.00  0.00     0.015 A 
ENDBRANCH  12  35
TORSDOF 7
ENDMDL
MODEL 7
REMARK VINA RESULT:      -7.4      3.662      8.940
REMARK  7 active torsions:
REMARK  status: ('A' for Active; 'I' for Inactive)
REMARK    1  A    between atoms: O_2  and  C_3 
REMARK    2  A    between atoms: C_4  and  O_5 
REMARK    3  A    between atoms: O_5  and  C_6 
REMARK       I    between atoms: C_6  and  N_7 
REMARK    4  A    between atoms: C_14  and  O_15 
REMARK    5  A    between atoms: C_18  and  C_19 
REMARK    6  A    between atoms: C_23  and  N_24 
REMARK    7  A    between atoms: C_31  and  C_32 
ROOT
HETATM    1  C   UNL     1      -2.983   7.519 -30.634  1.00  0.00     0.106 A 
HETATM    2  C   UNL     1      -1.630   7.352 -31.342  1.00  0.00     0.081 A 
HETATM    3  C   UNL     1      -1.584   7.699 -32.725  1.00  0.00     0.100 C 
HETATM    4  N   UNL     1      -1.559   8.000 -33.845  1.00  0.00    -0.191 NA
HETATM    5  C   UNL     1      -0.498   6.960 -30.696  1.00  0.00     0.140 A 
HETATM    6  O   UNL     1      -0.483   6.697 -29.318  1.00  0.00    -0.279 OA
HETATM    7  C   UNL     1      -1.608   6.941 -28.660  1.00  0.00     0.175 A 
HETATM    8  C   UNL     1      -2.822   7.337 -29.162  1.00  0.00     0.040 A 
HETATM    9  N   UNL     1      -1.749   6.831 -27.317  1.00  0.00    -0.256 N 
HETATM   10  H   UNL     1      -1.051   6.564 -26.632  1.00  0.00     0.191 HD
HETATM   11  N   UNL     1      -2.994   7.121 -26.902  1.00  0.00    -0.172 NA
HETATM   12  C   UNL     1      -3.664   7.467 -28.020  1.00  0.00     0.099 A 
ENDROOT
BRANCH   1  13
HETATM   13  C   UNL     1      -4.017   6.509 -31.137  1.00  0.00    -0.039 C 
HETATM   14  C   UNL     1      -5.226   6.878 -31.767  1.00  0.00     0.048 C 
HETATM   15  C   UNL     1      -6.197   5.925 -32.091  1.00  0.00     0.105 C 
HETATM   16  C   UNL     1      -6.005   4.602 -31.682  1.00  0.00     0.147 C 
HETATM   17  C   UNL     1      -4.792   4.194 -31.132  1.00  0.00     0.105 C 
HETATM   18  C   UNL     1      -3.807   5.143 -30.853  1.00  0.00     0.048 C 
BRANCH  15  19
HETATM   19  O   UNL     1      -7.367   6.218 -32.742  1.00  0.00    -0.353 OA
HETATM   20  C   UNL     1      -8.301   6.982 -31.988  1.00  0.00     0.210 C 
ENDBRANCH  15  19
BRANCH  16  21
HETATM   21  O   UNL     1      -7.010   3.641 -31.855  1.00  0.00    -0.256 OA
BRANCH  21  22
HETATM   22  C   UNL     1      -6.827   2.862 -32.994  1.00  0.00     0.368 C 
HETATM   23  N   UNL     1      -7.106   1.525 -32.767  1.00  0.00    -0.324 N 
HETATM   24  C   UNL     1      -7.970   1.056 -31.686  1.00  0.00     0.154 C 
HETATM   25  C   UNL     1      -6.889   0.543 -33.825  1.00  0.00     0.154 C 
HETATM   26  C   UNL     1      -9.280   0.507 -32.274  1.00  0.00     0.187 C 
HETATM   27  O   UNL     1      -9.020  -0.513 -33.254  1.00  0.00    -0.388 OA
HETATM   28  C   UNL     1      -8.229   0.008 -34.339  1.00  0.00     0.187 C 
HETATM   29  O   UNL     1      -6.453   3.282 -34.088  1.00  0.00    -0.238 OA
ENDBRANCH  21  22
ENDBRANCH  16  21
BRANCH  17  30
HETATM   30  O   UNL     1      -4.629   2.875 -30.797  1.00  0.00    -0.353 OA
HETATM   31  C   UNL     1      -3.493   2.307 -31.448  1.00  0.00     0.210 C 
ENDBRANCH  17  30
ENDBRANCH   1  13
BRANCH   5  32
HETATM   32  N   UNL     1       0.737   6.790 -31.284  1.00  0.00    -0.282 NA
HETATM   33  H   UNL     1       0.958   5.835 -31.559  1.00  0.00     0.126 HD
HETATM   34  H   UNL     1       1.479   7.217 -30.734  1.00  0.00     0.126 HD
ENDBRANCH   5  32
BRANCH  12  35
HETATM   35  C   UNL     1      -5.071   7.860 -27.942  1.00  0.00    -0.005 A 
HETATM   36  C   UNL     1      -5.448   9.175 -27.635  1.00  0.00     0.015 A 
HETATM   37  C   UNL     1      -6.800   9.526 -27.561  1.00  0.00     0.020 A 
HETATM   38  C   UNL     1      -7.781   8.562 -27.786  1.00  0.00     0.011 A 
HETATM   39 BR   UNL     1      -9.607   9.038 -27.677  1.00  0.00    -0.051 Br
HETATM   40  C   UNL     1      -7.426   7.249 -28.080  1.00  0.00     0.020 A 
HETATM   41  C   UNL     1      -6.074   6.901 -28.155  1.00  0.00     0.015 A 
ENDBRANCH  12  35
TORSDOF 7
ENDMDL
MODEL 8
REMARK VINA RESULT:      -7.4      3.276      5.800
REMARK  7 active torsions:
REMARK  status: ('A' for Active; 'I' for Inactive)
REMARK    1  A    between atoms: O_2  and  C_3 
REMARK    2  A    between atoms: C_4  and  O_5 
REMARK    3  A    between atoms: O_5  and  C_6 
REMARK       I    between atoms: C_6  and  N_7 
REMARK    4  A    between atoms: C_14  and  O_15 
REMARK    5  A    between atoms: C_18  and  C_19 
REMARK    6  A    between atoms: C_23  and  N_24 
REMARK    7  A    between atoms: C_31  and  C_32 
ROOT
HETATM    1  C   UNL     1      -7.007   0.880 -31.936  1.00  0.00     0.106 A 
HETATM    2  C   UNL     1      -5.748   0.162 -31.424  1.00  0.00     0.081 A 
HETATM    3  C   UNL     1      -5.449   0.304 -30.038  1.00  0.00     0.100 C 
HETATM    4  N   UNL     1      -5.227   0.418 -28.904  1.00  0.00    -0.191 NA
HETATM    5  C   UNL     1      -4.976  -0.634 -32.214  1.00  0.00     0.140 A 
HETATM    6  O   UNL     1      -5.289  -0.871 -33.561  1.00  0.00    -0.279 OA
HETATM    7  C   UNL     1      -6.430  -0.356 -34.000  1.00  0.00     0.175 A 
HETATM    8  C   UNL     1      -7.311   0.458 -33.334  1.00  0.00     0.040 A 
HETATM    9  N   UNL     1      -6.935  -0.559 -35.241  1.00  0.00    -0.256 N 
HETATM   10  H   UNL     1      -6.545  -1.114 -35.994  1.00  0.00     0.191 HD
HETATM   11  N   UNL     1      -8.098   0.086 -35.438  1.00  0.00    -0.172 NA
HETATM   12  C   UNL     1      -8.364   0.694 -34.264  1.00  0.00     0.099 A 
ENDROOT
BRANCH   1  13
HETATM   13  C   UNL     1      -6.842   2.400 -31.913  1.00  0.00    -0.039 C 
HETATM   14  C   UNL     1      -5.855   3.090 -32.650  1.00  0.00     0.048 C 
HETATM   15  C   UNL     1      -5.660   4.466 -32.494  1.00  0.00     0.105 C 
HETATM   16  C   UNL     1      -6.387   5.143 -31.510  1.00  0.00     0.147 C 
HETATM   17  C   UNL     1      -7.421   4.509 -30.825  1.00  0.00     0.105 C 
HETATM   18  C   UNL     1      -7.641   3.143 -31.018  1.00  0.00     0.048 C 
BRANCH  15  19
HETATM   19  O   UNL     1      -4.750   5.195 -33.215  1.00  0.00    -0.353 OA
HETATM   20  C   UNL     1      -4.712   4.904 -34.608  1.00  0.00     0.210 C 
ENDBRANCH  15  19
BRANCH  16  21
HETATM   21  O   UNL     1      -6.127   6.488 -31.218  1.00  0.00    -0.256 OA
BRANCH  21  22
HETATM   22  C   UNL     1      -5.211   6.651 -30.182  1.00  0.00     0.368 C 
HETATM   23  N   UNL     1      -5.479   7.773 -29.416  1.00  0.00    -0.324 N 
HETATM   24  C   UNL     1      -6.797   8.398 -29.338  1.00  0.00     0.154 C 
HETATM   25  C   UNL     1      -4.574   8.154 -28.335  1.00  0.00     0.154 C 
HETATM   26  C   UNL     1      -7.397   8.164 -27.943  1.00  0.00     0.187 C 
HETATM   27  O   UNL     1      -6.506   8.626 -26.912  1.00  0.00    -0.388 OA
HETATM   28  C   UNL     1      -5.245   7.934 -26.977  1.00  0.00     0.187 C 
HETATM   29  O   UNL     1      -4.259   5.908 -29.953  1.00  0.00    -0.238 OA
ENDBRANCH  21  22
ENDBRANCH  16  21
BRANCH  17  30
HETATM   30  O   UNL     1      -8.143   5.226 -29.908  1.00  0.00    -0.353 OA
HETATM   31  C   UNL     1      -9.478   5.456 -30.357  1.00  0.00     0.210 C 
ENDBRANCH  17  30
ENDBRANCH   1  13
BRANCH   5  32
HETATM   32  N   UNL     1      -3.837  -1.294 -31.808  1.00  0.00    -0.282 NA
HETATM   33  H   UNL     1      -3.246  -1.642 -32.561  1.00  0.00     0.126 HD
HETATM   34  H   UNL     1      -4.042  -2.010 -31.114  1.00  0.00     0.126 HD
ENDBRANCH   5  32
BRANCH  12  35
HETATM   35  C   UNL     1      -9.581   1.492 -34.109  1.00  0.00    -0.005 A 
HETATM   36  C   UNL     1      -9.584   2.874 -34.341  1.00  0.00     0.015 A 
HETATM   37  C   UNL     1     -10.759   3.617 -34.181  1.00  0.00     0.020 A 
HETATM   38  C   UNL     1     -11.933   2.981 -33.780  1.00  0.00     0.011 A 
HETATM   39 BR   UNL     1     -13.516   3.989 -33.556  1.00  0.00    -0.051 Br
HETATM   40  C   UNL     1     -11.945   1.612 -33.534  1.00  0.00     0.020 A 
HETATM   41  C   UNL     1     -10.771   0.872 -33.697  1.00  0.00     0.015 A 
ENDBRANCH  12  35
TORSDOF 7
ENDMDL
MODEL 9
REMARK VINA RESULT:      -7.4      2.210      7.448
REMARK  7 active torsions:
REMARK  status: ('A' for Active; 'I' for Inactive)
REMARK    1  A    between atoms: O_2  and  C_3 
REMARK    2  A    between atoms: C_4  and  O_5 
REMARK    3  A    between atoms: O_5  and  C_6 
REMARK       I    between atoms: C_6  and  N_7 
REMARK    4  A    between atoms: C_14  and  O_15 
REMARK    5  A    between atoms: C_18  and  C_19 
REMARK    6  A    between atoms: C_23  and  N_24 
REMARK    7  A    between atoms: C_31  and  C_32 
ROOT
HETATM    1  C   UNL     1      -4.893   5.042 -30.229  1.00  0.00     0.106 A 
HETATM    2  C   UNL     1      -4.563   6.275 -29.374  1.00  0.00     0.081 A 
HETATM    3  C   UNL     1      -5.118   6.311 -28.061  1.00  0.00     0.100 C 
HETATM    4  N   UNL     1      -5.565   6.317 -26.990  1.00  0.00    -0.191 NA
HETATM    5  C   UNL     1      -3.731   7.268 -29.793  1.00  0.00     0.140 A 
HETATM    6  O   UNL     1      -3.094   7.224 -31.042  1.00  0.00    -0.279 OA
HETATM    7  C   UNL     1      -3.271   6.120 -31.755  1.00  0.00     0.175 A 
HETATM    8  C   UNL     1      -4.069   5.040 -31.473  1.00  0.00     0.040 A 
HETATM    9  N   UNL     1      -2.662   5.867 -32.939  1.00  0.00    -0.256 N 
HETATM   10  H   UNL     1      -2.003   6.449 -33.443  1.00  0.00     0.191 HD
HETATM   11  N   UNL     1      -3.023   4.683 -33.463  1.00  0.00    -0.172 NA
HETATM   12  C   UNL     1      -3.865   4.142 -32.560  1.00  0.00     0.099 A 
ENDROOT
BRANCH   1  13
HETATM   13  C   UNL     1      -6.370   5.004 -30.626  1.00  0.00    -0.039 C 
HETATM   14  C   UNL     1      -7.207   3.887 -30.414  1.00  0.00     0.048 C 
HETATM   15  C   UNL     1      -8.513   3.852 -30.911  1.00  0.00     0.105 C 
HETATM   16  C   UNL     1      -8.953   4.901 -31.725  1.00  0.00     0.147 C 
HETATM   17  C   UNL     1      -8.181   6.050 -31.886  1.00  0.00     0.105 C 
HETATM   18  C   UNL     1      -6.894   6.098 -31.347  1.00  0.00     0.048 C 
BRANCH  15  19
HETATM   19  O   UNL     1      -9.384   2.815 -30.698  1.00  0.00    -0.353 OA
HETATM   20  C   UNL     1      -8.964   1.558 -31.217  1.00  0.00     0.210 C 
ENDBRANCH  15  19
BRANCH  16  21
HETATM   21  O   UNL     1     -10.198   4.845 -32.363  1.00  0.00    -0.256 OA
BRANCH  21  22
HETATM   22  C   UNL     1     -10.174   4.095 -33.536  1.00  0.00     0.368 C 
HETATM   23  N   UNL     1     -11.110   3.073 -33.525  1.00  0.00    -0.324 N 
HETATM   24  C   UNL     1     -12.304   3.086 -32.683  1.00  0.00     0.154 C 
HETATM   25  C   UNL     1     -11.174   2.128 -34.636  1.00  0.00     0.154 C 
HETATM   26  C   UNL     1     -13.551   3.273 -33.560  1.00  0.00     0.187 C 
HETATM   27  O   UNL     1     -13.614   2.272 -34.592  1.00  0.00    -0.388 OA
HETATM   28  C   UNL     1     -12.456   2.341 -35.444  1.00  0.00     0.187 C 
HETATM   29  O   UNL     1      -9.416   4.285 -34.485  1.00  0.00    -0.238 OA
ENDBRANCH  21  22
ENDBRANCH  16  21
BRANCH  17  30
HETATM   30  O   UNL     1      -8.676   7.076 -32.647  1.00  0.00    -0.353 OA
HETATM   31  C   UNL     1      -9.062   8.188 -31.840  1.00  0.00     0.210 C 
ENDBRANCH  17  30
ENDBRANCH   1  13
BRANCH   5  32
HETATM   32  N   UNL     1      -3.407   8.395 -29.069  1.00  0.00    -0.282 NA
HETATM   33  H   UNL     1      -2.466   8.406 -28.683  1.00  0.00     0.126 HD
HETATM   34  H   UNL     1      -4.116   8.614 -28.373  1.00  0.00     0.126 HD
ENDBRANCH   5  32
BRANCH  12  35
HETATM   35  C   UNL     1      -4.455   2.825 -32.802  1.00  0.00    -0.005 A 
HETATM   36  C   UNL     1      -3.814   1.649 -32.391  1.00  0.00     0.015 A 
HETATM   37  C   UNL     1      -4.395   0.401 -32.638  1.00  0.00     0.020 A 
HETATM   38  C   UNL     1      -5.618   0.324 -33.304  1.00  0.00     0.011 A 
HETATM   39 BR   UNL     1      -6.397  -1.364 -33.643  1.00  0.00    -0.051 Br
HETATM   40  C   UNL     1      -6.263   1.481 -33.729  1.00  0.00     0.020 A 
HETATM   41  C   UNL     1      -5.681   2.727 -33.479  1.00  0.00     0.015 A 
ENDBRANCH  12  35
TORSDOF 7
ENDMDL
MODEL 10
REMARK VINA RESULT:      -7.3      3.285      5.586
REMARK  7 active torsions:
REMARK  status: ('A' for Active; 'I' for Inactive)
REMARK    1  A    between atoms: O_2  and  C_3 
REMARK    2  A    between atoms: C_4  and  O_5 
REMARK    3  A    between atoms: O_5  and  C_6 
REMARK       I    between atoms: C_6  and  N_7 
REMARK    4  A    between atoms: C_14  and  O_15 
REMARK    5  A    between atoms: C_18  and  C_19 
REMARK    6  A    between atoms: C_23  and  N_24 
REMARK    7  A    between atoms: C_31  and  C_32 
ROOT
HETATM    1  C   UNL     1      -6.837   2.044 -32.145  1.00  0.00     0.106 A 
HETATM    2  C   UNL     1      -5.924   0.851 -32.463  1.00  0.00     0.081 A 
HETATM    3  C   UNL     1      -4.919   0.538 -31.501  1.00  0.00     0.100 C 
HETATM    4  N   UNL     1      -4.116   0.288 -30.701  1.00  0.00    -0.191 NA
HETATM    5  C   UNL     1      -6.084   0.068 -33.565  1.00  0.00     0.140 A 
HETATM    6  O   UNL     1      -7.118   0.288 -34.488  1.00  0.00    -0.279 OA
HETATM    7  C   UNL     1      -7.988   1.241 -34.181  1.00  0.00     0.175 A 
HETATM    8  C   UNL     1      -7.967   2.107 -33.118  1.00  0.00     0.040 A 
HETATM    9  N   UNL     1      -9.095   1.529 -34.907  1.00  0.00    -0.256 N 
HETATM   10  H   UNL     1      -9.424   1.082 -35.756  1.00  0.00     0.191 HD
HETATM   11  N   UNL     1      -9.804   2.547 -34.389  1.00  0.00    -0.172 NA
HETATM   12  C   UNL     1      -9.142   2.898 -33.267  1.00  0.00     0.099 A 
ENDROOT
BRANCH   1  13
HETATM   13  C   UNL     1      -6.077   3.371 -32.198  1.00  0.00    -0.039 C 
HETATM   14  C   UNL     1      -5.651   3.979 -33.400  1.00  0.00     0.048 C 
HETATM   15  C   UNL     1      -4.847   5.123 -33.391  1.00  0.00     0.105 C 
HETATM   16  C   UNL     1      -4.371   5.603 -32.167  1.00  0.00     0.147 C 
HETATM   17  C   UNL     1      -4.836   5.074 -30.964  1.00  0.00     0.105 C 
HETATM   18  C   UNL     1      -5.677   3.959 -30.980  1.00  0.00     0.048 C 
BRANCH  15  19
HETATM   19  O   UNL     1      -4.442   5.781 -34.523  1.00  0.00    -0.353 OA
HETATM   20  C   UNL     1      -3.459   5.101 -35.296  1.00  0.00     0.210 C 
ENDBRANCH  15  19
BRANCH  16  21
HETATM   21  O   UNL     1      -3.449   6.655 -32.114  1.00  0.00    -0.256 OA
BRANCH  21  22
HETATM   22  C   UNL     1      -2.137   6.220 -31.942  1.00  0.00     0.368 C 
HETATM   23  N   UNL     1      -1.363   7.142 -31.257  1.00  0.00    -0.324 N 
HETATM   24  C   UNL     1      -1.922   8.163 -30.373  1.00  0.00     0.154 C 
HETATM   25  C   UNL     1       0.062   6.896 -31.057  1.00  0.00     0.154 C 
HETATM   26  C   UNL     1      -1.568   7.831 -28.915  1.00  0.00     0.187 C 
HETATM   27  O   UNL     1      -0.148   7.675 -28.749  1.00  0.00    -0.388 OA
HETATM   28  C   UNL     1       0.352   6.612 -29.581  1.00  0.00     0.187 C 
HETATM   29  O   UNL     1      -1.685   5.151 -32.348  1.00  0.00    -0.238 OA
ENDBRANCH  21  22
ENDBRANCH  16  21
BRANCH  17  30
HETATM   30  O   UNL     1      -4.384   5.612 -29.788  1.00  0.00    -0.353 OA
HETATM   31  C   UNL     1      -5.434   5.728 -28.828  1.00  0.00     0.210 C 
ENDBRANCH  17  30
ENDBRANCH   1  13
BRANCH   5  32
HETATM   32  N   UNL     1      -5.292  -1.009 -33.901  1.00  0.00    -0.282 NA
HETATM   33  H   UNL     1      -5.593  -1.903 -33.521  1.00  0.00     0.126 HD
HETATM   34  H   UNL     1      -4.307  -0.823 -33.723  1.00  0.00     0.126 HD
ENDBRANCH   5  32
BRANCH  12  35
HETATM   35  C   UNL     1      -9.644   3.986 -32.427  1.00  0.00    -0.005 A 
HETATM   36  C   UNL     1     -10.426   3.734 -31.292  1.00  0.00     0.015 A 
HETATM   37  C   UNL     1     -10.899   4.791 -30.508  1.00  0.00     0.020 A 
HETATM   38  C   UNL     1     -10.597   6.106 -30.860  1.00  0.00     0.011 A 
HETATM   39 BR   UNL     1     -11.244   7.533 -29.803  1.00  0.00    -0.051 Br
HETATM   40  C   UNL     1      -9.832   6.375 -31.991  1.00  0.00     0.020 A 
HETATM   41  C   UNL     1      -9.359   5.317 -32.771  1.00  0.00     0.015 A 
ENDBRANCH  12  35
TORSDOF 7
ENDMDL
