MODEL 1
REMARK VINA RESULT:     -10.7      0.000      0.000
REMARK  7 active torsions:
REMARK  status: ('A' for Active; 'I' for Inactive)
REMARK    1  A    between atoms: C_4  and  N_5 
REMARK       I    between atoms: N_5  and  C_6 
REMARK    2  A    between atoms: C_6  and  C_7 
REMARK    3  A    between atoms: C_7  and  N_8 
REMARK    4  A    between atoms: N_11  and  C_12 
REMARK    5  A    between atoms: C_12  and  C_13 
REMARK    6  A    between atoms: C_28  and  C_29 
REMARK       I    between atoms: C_29  and  N_30 
REMARK    7  A    between atoms: N_30  and  C_31 
ROOT
HETATM    1  N   UNL     1      -8.339   2.103 -32.225  1.00  0.00    -0.290 N 
HETATM    2  C   UNL     1      -9.438   1.412 -32.730  1.00  0.00     0.332 C 
HETATM    3  O   UNL     1      -9.638   0.241 -32.390  1.00  0.00    -0.246 OA
HETATM    4  N   UNL     1     -10.240   2.071 -33.648  1.00  0.00    -0.261 N 
HETATM    5  C   UNL     1      -9.926   3.321 -34.165  1.00  0.00     0.264 C 
HETATM    6  O   UNL     1     -10.358   3.768 -35.223  1.00  0.00    -0.267 OA
HETATM    7  C   UNL     1      -8.939   4.116 -33.422  1.00  0.00     0.059 A 
HETATM    8  C   UNL     1      -8.130   3.484 -32.481  1.00  0.00     0.056 A 
HETATM    9  C   UNL     1      -8.755   5.463 -33.749  1.00  0.00     0.020 A 
HETATM   10  C   UNL     1      -7.723   6.183 -33.155  1.00  0.00     0.018 A 
HETATM   11  C   UNL     1      -6.871   5.569 -32.225  1.00  0.00     0.034 A 
HETATM   12  C   UNL     1      -7.109   4.231 -31.862  1.00  0.00     0.048 A 
ENDROOT
BRANCH   1  13
HETATM   13  C   UNL     1      -7.310   1.303 -31.555  1.00  0.00     0.237 C 
BRANCH  13  14
HETATM   14  C   UNL     1      -6.313   0.621 -32.493  1.00  0.00     0.240 C 
HETATM   15  N   UNL     1      -6.178  -0.733 -32.236  1.00  0.00    -0.325 N 
HETATM   16  H   UNL     1      -6.541  -1.048 -31.335  1.00  0.00     0.169 HD
HETATM   17  O   UNL     1      -5.748   1.267 -33.372  1.00  0.00    -0.271 OA
BRANCH  15  18
HETATM   18  C   UNL     1      -5.626  -1.726 -33.074  1.00  0.00     0.041 A 
HETATM   19  C   UNL     1      -6.416  -2.457 -33.974  1.00  0.00     0.037 A 
HETATM   20  C   UNL     1      -5.876  -3.511 -34.726  1.00  0.00    -0.060 A 
HETATM   21  C   UNL     1      -6.745  -4.336 -35.631  1.00  0.00     0.048 C 
HETATM   22  C   UNL     1      -4.526  -3.834 -34.575  1.00  0.00     0.007 A 
HETATM   23  C   UNL     1      -3.725  -3.104 -33.698  1.00  0.00     0.009 A 
HETATM   24  C   UNL     1      -4.259  -2.048 -32.941  1.00  0.00    -0.035 A 
HETATM   25  C   UNL     1      -3.343  -1.305 -32.006  1.00  0.00     0.050 C 
ENDBRANCH  15  18
ENDBRANCH  13  14
ENDBRANCH   1  13
BRANCH   4  26
HETATM   26  C   UNL     1     -11.196   1.263 -34.402  1.00  0.00     0.175 C 
BRANCH  26  27
HETATM   27  C   UNL     1     -12.646   1.455 -34.009  1.00  0.00    -0.037 A 
HETATM   28  C   UNL     1     -13.019   2.463 -33.107  1.00  0.00     0.048 A 
HETATM   29  C   UNL     1     -14.350   2.550 -32.748  1.00  0.00     0.105 A 
HETATM   30  C   UNL     1     -15.299   1.695 -33.257  1.00  0.00     0.105 A 
HETATM   31  O   UNL     1     -14.880   3.445 -31.872  1.00  0.00    -0.323 OA
HETATM   32  O   UNL     1     -16.543   1.944 -32.768  1.00  0.00    -0.323 OA
HETATM   33  C   UNL     1     -14.977   0.704 -34.154  1.00  0.00     0.040 A 
HETATM   34  C   UNL     1     -16.267   3.043 -31.877  1.00  0.00     0.352 A 
HETATM   35  C   UNL     1     -13.637   0.585 -34.528  1.00  0.00     0.012 A 
ENDBRANCH  26  27
ENDBRANCH   4  26
BRANCH  11  36
HETATM   36  C   UNL     1      -5.687   6.365 -31.769  1.00  0.00     0.252 C 
HETATM   37  N   UNL     1      -4.430   5.973 -32.188  1.00  0.00    -0.352 N 
HETATM   38  H   UNL     1      -4.315   5.153 -32.762  1.00  0.00     0.163 HD
HETATM   39  O   UNL     1      -5.869   7.380 -31.102  1.00  0.00    -0.268 OA
BRANCH  37  40
HETATM   40  C   UNL     1      -3.321   6.926 -32.192  1.00  0.00     0.084 C 
HETATM   41  C   UNL     1      -2.430   6.753 -30.958  1.00  0.00     0.025 C 
HETATM   42  C   UNL     1      -1.592   5.476 -30.999  1.00  0.00     0.002 C 
HETATM   43  C   UNL     1      -0.799   5.355 -32.297  1.00  0.00     0.000 C 
HETATM   44  C   UNL     1      -1.697   5.484 -33.523  1.00  0.00     0.002 C 
HETATM   45  C   UNL     1      -2.510   6.779 -33.490  1.00  0.00     0.025 C 
ENDBRANCH  37  40
ENDBRANCH  11  36
TORSDOF 7
ENDMDL
MODEL 2
REMARK VINA RESULT:     -10.5      2.416      8.927
REMARK  7 active torsions:
REMARK  status: ('A' for Active; 'I' for Inactive)
REMARK    1  A    between atoms: C_4  and  N_5 
REMARK       I    between atoms: N_5  and  C_6 
REMARK    2  A    between atoms: C_6  and  C_7 
REMARK    3  A    between atoms: C_7  and  N_8 
REMARK    4  A    between atoms: N_11  and  C_12 
REMARK    5  A    between atoms: C_12  and  C_13 
REMARK    6  A    between atoms: C_28  and  C_29 
REMARK       I    between atoms: C_29  and  N_30 
REMARK    7  A    between atoms: N_30  and  C_31 
ROOT
HETATM    1  N   UNL     1      -4.677   3.087 -31.588  1.00  0.00    -0.290 N 
HETATM    2  C   UNL     1      -3.342   3.391 -31.842  1.00  0.00     0.332 C 
HETATM    3  O   UNL     1      -2.456   2.595 -31.512  1.00  0.00    -0.246 OA
HETATM    4  N   UNL     1      -3.065   4.620 -32.419  1.00  0.00    -0.261 N 
HETATM    5  C   UNL     1      -4.036   5.589 -32.633  1.00  0.00     0.264 C 
HETATM    6  O   UNL     1      -3.809   6.788 -32.765  1.00  0.00    -0.267 OA
HETATM    7  C   UNL     1      -5.435   5.141 -32.613  1.00  0.00     0.059 A 
HETATM    8  C   UNL     1      -5.741   3.902 -32.055  1.00  0.00     0.056 A 
HETATM    9  C   UNL     1      -6.441   6.007 -33.052  1.00  0.00     0.020 A 
HETATM   10  C   UNL     1      -7.776   5.649 -32.898  1.00  0.00     0.018 A 
HETATM   11  C   UNL     1      -8.121   4.422 -32.313  1.00  0.00     0.034 A 
HETATM   12  C   UNL     1      -7.096   3.536 -31.933  1.00  0.00     0.048 A 
ENDROOT
BRANCH   1  13
HETATM   13  C   UNL     1      -4.935   1.976 -30.666  1.00  0.00     0.237 C 
BRANCH  13  14
HETATM   14  C   UNL     1      -5.656   0.779 -31.286  1.00  0.00     0.240 C 
HETATM   15  N   UNL     1      -5.194   0.476 -32.555  1.00  0.00    -0.325 N 
HETATM   16  H   UNL     1      -4.641   1.205 -33.007  1.00  0.00     0.169 HD
HETATM   17  O   UNL     1      -6.526   0.185 -30.654  1.00  0.00    -0.271 OA
BRANCH  15  18
HETATM   18  C   UNL     1      -5.374  -0.721 -33.283  1.00  0.00     0.041 A 
HETATM   19  C   UNL     1      -4.504  -1.811 -33.140  1.00  0.00     0.037 A 
HETATM   20  C   UNL     1      -4.632  -2.954 -33.944  1.00  0.00    -0.060 A 
HETATM   21  C   UNL     1      -3.650  -4.085 -33.835  1.00  0.00     0.048 C 
HETATM   22  C   UNL     1      -5.647  -3.004 -34.900  1.00  0.00     0.007 A 
HETATM   23  C   UNL     1      -6.530  -1.935 -35.041  1.00  0.00     0.009 A 
HETATM   24  C   UNL     1      -6.408  -0.787 -34.240  1.00  0.00    -0.035 A 
HETATM   25  C   UNL     1      -7.389   0.336 -34.447  1.00  0.00     0.050 C 
ENDBRANCH  15  18
ENDBRANCH  13  14
ENDBRANCH   1  13
BRANCH   4  26
HETATM   26  C   UNL     1      -1.674   5.067 -32.405  1.00  0.00     0.175 C 
BRANCH  26  27
HETATM   27  C   UNL     1      -1.144   5.462 -31.043  1.00  0.00    -0.037 A 
HETATM   28  C   UNL     1      -1.815   6.410 -30.257  1.00  0.00     0.048 A 
HETATM   29  C   UNL     1      -1.249   6.767 -29.048  1.00  0.00     0.105 A 
HETATM   30  C   UNL     1      -0.072   6.212 -28.603  1.00  0.00     0.105 A 
HETATM   31  O   UNL     1      -1.749   7.683 -28.175  1.00  0.00    -0.323 OA
HETATM   32  O   UNL     1       0.316   6.707 -27.397  1.00  0.00    -0.323 OA
HETATM   33  C   UNL     1       0.609   5.269 -29.336  1.00  0.00     0.040 A 
HETATM   34  C   UNL     1      -0.742   7.652 -27.141  1.00  0.00     0.352 A 
HETATM   35  C   UNL     1       0.067   4.896 -30.567  1.00  0.00     0.012 A 
ENDBRANCH  26  27
ENDBRANCH   4  26
BRANCH  11  36
HETATM   36  C   UNL     1      -9.574   4.195 -32.030  1.00  0.00     0.252 C 
HETATM   37  N   UNL     1     -10.444   4.093 -33.098  1.00  0.00    -0.352 N 
HETATM   38  H   UNL     1     -10.110   4.199 -34.042  1.00  0.00     0.163 HD
HETATM   39  O   UNL     1      -9.939   4.032 -30.868  1.00  0.00    -0.268 OA
BRANCH  37  40
HETATM   40  C   UNL     1     -11.734   3.420 -32.940  1.00  0.00     0.084 C 
HETATM   41  C   UNL     1     -12.798   4.029 -33.857  1.00  0.00     0.025 C 
HETATM   42  C   UNL     1     -12.581   3.694 -35.332  1.00  0.00     0.002 C 
HETATM   43  C   UNL     1     -12.422   2.194 -35.559  1.00  0.00     0.000 C 
HETATM   44  C   UNL     1     -11.330   1.599 -34.675  1.00  0.00     0.002 C 
HETATM   45  C   UNL     1     -11.572   1.913 -33.197  1.00  0.00     0.025 C 
ENDBRANCH  37  40
ENDBRANCH  11  36
TORSDOF 7
ENDMDL
MODEL 3
REMARK VINA RESULT:     -10.3      2.296      8.640
REMARK  7 active torsions:
REMARK  status: ('A' for Active; 'I' for Inactive)
REMARK    1  A    between atoms: C_4  and  N_5 
REMARK       I    between atoms: N_5  and  C_6 
REMARK    2  A    between atoms: C_6  and  C_7 
REMARK    3  A    between atoms: C_7  and  N_8 
REMARK    4  A    between atoms: N_11  and  C_12 
REMARK    5  A    between atoms: C_12  and  C_13 
REMARK    6  A    between atoms: C_28  and  C_29 
REMARK       I    between atoms: C_29  and  N_30 
REMARK    7  A    between atoms: N_30  and  C_31 
ROOT
HETATM    1  N   UNL     1      -4.906   2.521 -32.206  1.00  0.00    -0.290 N 
HETATM    2  C   UNL     1      -3.637   3.003 -32.516  1.00  0.00     0.332 C 
HETATM    3  O   UNL     1      -2.635   2.395 -32.125  1.00  0.00    -0.246 OA
HETATM    4  N   UNL     1      -3.560   4.194 -33.221  1.00  0.00    -0.261 N 
HETATM    5  C   UNL     1      -4.673   4.971 -33.513  1.00  0.00     0.264 C 
HETATM    6  O   UNL     1      -4.639   6.171 -33.772  1.00  0.00    -0.267 OA
HETATM    7  C   UNL     1      -5.983   4.314 -33.420  1.00  0.00     0.059 A 
HETATM    8  C   UNL     1      -6.088   3.107 -32.733  1.00  0.00     0.056 A 
HETATM    9  C   UNL     1      -7.115   4.961 -33.926  1.00  0.00     0.020 A 
HETATM   10  C   UNL     1      -8.376   4.415 -33.710  1.00  0.00     0.018 A 
HETATM   11  C   UNL     1      -8.520   3.216 -32.997  1.00  0.00     0.034 A 
HETATM   12  C   UNL     1      -7.367   2.547 -32.548  1.00  0.00     0.048 A 
ENDROOT
BRANCH   1  13
HETATM   13  C   UNL     1      -4.983   1.486 -31.171  1.00  0.00     0.237 C 
BRANCH  13  14
HETATM   14  C   UNL     1      -5.620   0.171 -31.621  1.00  0.00     0.240 C 
HETATM   15  N   UNL     1      -5.194  -0.227 -32.877  1.00  0.00    -0.325 N 
HETATM   16  H   UNL     1      -4.732   0.494 -33.433  1.00  0.00     0.169 HD
HETATM   17  O   UNL     1      -6.401  -0.424 -30.882  1.00  0.00    -0.271 OA
BRANCH  15  18
HETATM   18  C   UNL     1      -5.298  -1.506 -33.466  1.00  0.00     0.041 A 
HETATM   19  C   UNL     1      -4.314  -2.488 -33.282  1.00  0.00     0.037 A 
HETATM   20  C   UNL     1      -4.377  -3.717 -33.955  1.00  0.00    -0.060 A 
HETATM   21  C   UNL     1      -3.280  -4.732 -33.809  1.00  0.00     0.048 C 
HETATM   22  C   UNL     1      -5.443  -3.966 -34.820  1.00  0.00     0.007 A 
HETATM   23  C   UNL     1      -6.439  -3.006 -34.999  1.00  0.00     0.009 A 
HETATM   24  C   UNL     1      -6.382  -1.773 -34.328  1.00  0.00    -0.035 A 
HETATM   25  C   UNL     1      -7.484  -0.777 -34.571  1.00  0.00     0.050 C 
ENDBRANCH  15  18
ENDBRANCH  13  14
ENDBRANCH   1  13
BRANCH   4  26
HETATM   26  C   UNL     1      -2.257   4.853 -33.279  1.00  0.00     0.175 C 
BRANCH  26  27
HETATM   27  C   UNL     1      -1.739   5.364 -31.951  1.00  0.00    -0.037 A 
HETATM   28  C   UNL     1      -2.551   6.146 -31.116  1.00  0.00     0.048 A 
HETATM   29  C   UNL     1      -2.000   6.626 -29.944  1.00  0.00     0.105 A 
HETATM   30  C   UNL     1      -0.703   6.348 -29.581  1.00  0.00     0.105 A 
HETATM   31  O   UNL     1      -2.632   7.415 -29.033  1.00  0.00    -0.323 OA
HETATM   32  O   UNL     1      -0.356   6.924 -28.398  1.00  0.00    -0.323 OA
HETATM   33  C   UNL     1       0.119   5.574 -30.364  1.00  0.00     0.040 A 
HETATM   34  C   UNL     1      -1.578   7.614 -28.067  1.00  0.00     0.352 A 
HETATM   35  C   UNL     1      -0.406   5.082 -31.560  1.00  0.00     0.012 A 
ENDBRANCH  26  27
ENDBRANCH   4  26
BRANCH  11  36
HETATM   36  C   UNL     1      -9.918   2.795 -32.663  1.00  0.00     0.252 C 
HETATM   37  N   UNL     1     -10.871   3.776 -32.465  1.00  0.00    -0.352 N 
HETATM   38  H   UNL     1     -10.621   4.750 -32.514  1.00  0.00     0.163 HD
HETATM   39  O   UNL     1     -10.196   1.599 -32.650  1.00  0.00    -0.268 OA
BRANCH  37  40
HETATM   40  C   UNL     1     -12.294   3.466 -32.610  1.00  0.00     0.084 C 
HETATM   41  C   UNL     1     -13.163   4.441 -31.811  1.00  0.00     0.025 C 
HETATM   42  C   UNL     1     -13.205   5.843 -32.418  1.00  0.00     0.002 C 
HETATM   43  C   UNL     1     -13.588   5.813 -33.895  1.00  0.00     0.000 C 
HETATM   44  C   UNL     1     -12.691   4.874 -34.695  1.00  0.00     0.002 C 
HETATM   45  C   UNL     1     -12.679   3.466 -34.098  1.00  0.00     0.025 C 
ENDBRANCH  37  40
ENDBRANCH  11  36
TORSDOF 7
ENDMDL
MODEL 4
REMARK VINA RESULT:     -10.3      3.042      5.403
REMARK  7 active torsions:
REMARK  status: ('A' for Active; 'I' for Inactive)
REMARK    1  A    between atoms: C_4  and  N_5 
REMARK       I    between atoms: N_5  and  C_6 
REMARK    2  A    between atoms: C_6  and  C_7 
REMARK    3  A    between atoms: C_7  and  N_8 
REMARK    4  A    between atoms: N_11  and  C_12 
REMARK    5  A    between atoms: C_12  and  C_13 
REMARK    6  A    between atoms: C_28  and  C_29 
REMARK       I    between atoms: C_29  and  N_30 
REMARK    7  A    between atoms: N_30  and  C_31 
ROOT
HETATM    1  N   UNL     1      -6.210   2.796 -31.185  1.00  0.00    -0.290 N 
HETATM    2  C   UNL     1      -6.893   2.155 -32.215  1.00  0.00     0.332 C 
HETATM    3  O   UNL     1      -6.493   1.063 -32.633  1.00  0.00    -0.246 OA
HETATM    4  N   UNL     1      -7.983   2.812 -32.766  1.00  0.00    -0.261 N 
HETATM    5  C   UNL     1      -8.333   4.110 -32.422  1.00  0.00     0.264 C 
HETATM    6  O   UNL     1      -9.009   4.860 -33.121  1.00  0.00    -0.267 OA
HETATM    7  C   UNL     1      -7.778   4.637 -31.168  1.00  0.00     0.059 A 
HETATM    8  C   UNL     1      -6.695   3.987 -30.582  1.00  0.00     0.056 A 
HETATM    9  C   UNL     1      -8.274   5.835 -30.646  1.00  0.00     0.020 A 
HETATM   10  C   UNL     1      -7.656   6.417 -29.543  1.00  0.00     0.018 A 
HETATM   11  C   UNL     1      -6.544   5.804 -28.946  1.00  0.00     0.034 A 
HETATM   12  C   UNL     1      -6.096   4.567 -29.447  1.00  0.00     0.048 A 
ENDROOT
BRANCH   1  13
HETATM   13  C   UNL     1      -4.876   2.284 -30.861  1.00  0.00     0.237 C 
BRANCH  13  14
HETATM   14  C   UNL     1      -3.758   2.770 -31.785  1.00  0.00     0.240 C 
HETATM   15  N   UNL     1      -3.796   4.137 -31.995  1.00  0.00    -0.325 N 
HETATM   16  H   UNL     1      -4.669   4.598 -31.736  1.00  0.00     0.169 HD
HETATM   17  O   UNL     1      -2.937   1.975 -32.235  1.00  0.00    -0.271 OA
BRANCH  15  18
HETATM   18  C   UNL     1      -2.771   4.969 -32.498  1.00  0.00     0.041 A 
HETATM   19  C   UNL     1      -1.655   5.318 -31.724  1.00  0.00     0.037 A 
HETATM   20  C   UNL     1      -0.696   6.227 -32.197  1.00  0.00    -0.060 A 
HETATM   21  C   UNL     1       0.455   6.651 -31.331  1.00  0.00     0.048 C 
HETATM   22  C   UNL     1      -0.858   6.789 -33.464  1.00  0.00     0.007 A 
HETATM   23  C   UNL     1      -1.953   6.438 -34.251  1.00  0.00     0.009 A 
HETATM   24  C   UNL     1      -2.917   5.529 -33.784  1.00  0.00    -0.035 A 
HETATM   25  C   UNL     1      -4.080   5.198 -34.681  1.00  0.00     0.050 C 
ENDBRANCH  15  18
ENDBRANCH  13  14
ENDBRANCH   1  13
BRANCH   4  26
HETATM   26  C   UNL     1      -8.505   2.296 -34.029  1.00  0.00     0.175 C 
BRANCH  26  27
HETATM   27  C   UNL     1      -9.848   1.603 -33.930  1.00  0.00    -0.037 A 
HETATM   28  C   UNL     1     -10.978   2.130 -34.573  1.00  0.00     0.048 A 
HETATM   29  C   UNL     1     -12.184   1.480 -34.398  1.00  0.00     0.105 A 
HETATM   30  C   UNL     1     -12.294   0.343 -33.632  1.00  0.00     0.105 A 
HETATM   31  O   UNL     1     -13.378   1.863 -34.925  1.00  0.00    -0.323 OA
HETATM   32  O   UNL     1     -13.568  -0.132 -33.582  1.00  0.00    -0.323 OA
HETATM   33  C   UNL     1     -11.209  -0.213 -32.998  1.00  0.00     0.040 A 
HETATM   34  C   UNL     1     -14.252   0.847 -34.389  1.00  0.00     0.352 A 
HETATM   35  C   UNL     1      -9.978   0.428 -33.148  1.00  0.00     0.012 A 
ENDBRANCH  26  27
ENDBRANCH   4  26
BRANCH  11  36
HETATM   36  C   UNL     1      -5.839   6.583 -27.879  1.00  0.00     0.252 C 
HETATM   37  N   UNL     1      -4.459   6.534 -27.832  1.00  0.00    -0.352 N 
HETATM   38  H   UNL     1      -3.945   5.963 -28.483  1.00  0.00     0.163 HD
HETATM   39  O   UNL     1      -6.496   7.299 -27.127  1.00  0.00    -0.268 OA
BRANCH  37  40
HETATM   40  C   UNL     1      -3.703   7.594 -27.165  1.00  0.00     0.084 C 
HETATM   41  C   UNL     1      -2.289   7.129 -26.802  1.00  0.00     0.025 C 
HETATM   42  C   UNL     1      -1.378   6.974 -28.018  1.00  0.00     0.002 C 
HETATM   43  C   UNL     1      -1.361   8.231 -28.883  1.00  0.00     0.000 C 
HETATM   44  C   UNL     1      -2.769   8.665 -29.279  1.00  0.00     0.002 C 
HETATM   45  C   UNL     1      -3.666   8.848 -28.053  1.00  0.00     0.025 C 
ENDBRANCH  37  40
ENDBRANCH  11  36
TORSDOF 7
ENDMDL
MODEL 5
REMARK VINA RESULT:     -10.1      2.555      3.973
REMARK  7 active torsions:
REMARK  status: ('A' for Active; 'I' for Inactive)
REMARK    1  A    between atoms: C_4  and  N_5 
REMARK       I    between atoms: N_5  and  C_6 
REMARK    2  A    between atoms: C_6  and  C_7 
REMARK    3  A    between atoms: C_7  and  N_8 
REMARK    4  A    between atoms: N_11  and  C_12 
REMARK    5  A    between atoms: C_12  and  C_13 
REMARK    6  A    between atoms: C_28  and  C_29 
REMARK       I    between atoms: C_29  and  N_30 
REMARK    7  A    between atoms: N_30  and  C_31 
ROOT
HETATM    1  N   UNL     1      -5.454   2.871 -31.315  1.00  0.00    -0.290 N 
HETATM    2  C   UNL     1      -6.787   2.712 -31.686  1.00  0.00     0.332 C 
HETATM    3  O   UNL     1      -7.425   1.734 -31.281  1.00  0.00    -0.246 OA
HETATM    4  N   UNL     1      -7.327   3.651 -32.550  1.00  0.00    -0.261 N 
HETATM    5  C   UNL     1      -6.571   4.652 -33.145  1.00  0.00     0.264 C 
HETATM    6  O   UNL     1      -6.881   5.244 -34.175  1.00  0.00    -0.267 OA
HETATM    7  C   UNL     1      -5.270   4.953 -32.532  1.00  0.00     0.059 A 
HETATM    8  C   UNL     1      -4.710   4.035 -31.646  1.00  0.00     0.056 A 
HETATM    9  C   UNL     1      -4.571   6.097 -32.929  1.00  0.00     0.020 A 
HETATM   10  C   UNL     1      -3.276   6.310 -32.466  1.00  0.00     0.018 A 
HETATM   11  C   UNL     1      -2.671   5.391 -31.596  1.00  0.00     0.034 A 
HETATM   12  C   UNL     1      -3.412   4.278 -31.158  1.00  0.00     0.048 A 
ENDROOT
BRANCH   1  13
HETATM   13  C   UNL     1      -4.794   1.709 -30.714  1.00  0.00     0.237 C 
BRANCH  13  14
HETATM   14  C   UNL     1      -4.306   0.658 -31.712  1.00  0.00     0.240 C 
HETATM   15  N   UNL     1      -5.173  -0.416 -31.822  1.00  0.00    -0.325 N 
HETATM   16  H   UNL     1      -5.864  -0.502 -31.076  1.00  0.00     0.169 HD
HETATM   17  O   UNL     1      -3.258   0.829 -32.330  1.00  0.00    -0.271 OA
BRANCH  15  18
HETATM   18  C   UNL     1      -5.230  -1.385 -32.848  1.00  0.00     0.041 A 
HETATM   19  C   UNL     1      -4.351  -2.477 -32.885  1.00  0.00     0.037 A 
HETATM   20  C   UNL     1      -4.349  -3.374 -33.963  1.00  0.00    -0.060 A 
HETATM   21  C   UNL     1      -3.354  -4.496 -34.029  1.00  0.00     0.048 C 
HETATM   22  C   UNL     1      -5.244  -3.175 -35.016  1.00  0.00     0.007 A 
HETATM   23  C   UNL     1      -6.136  -2.104 -34.985  1.00  0.00     0.009 A 
HETATM   24  C   UNL     1      -6.143  -1.202 -33.908  1.00  0.00    -0.035 A 
HETATM   25  C   UNL     1      -7.125  -0.062 -33.939  1.00  0.00     0.050 C 
ENDBRANCH  15  18
ENDBRANCH  13  14
ENDBRANCH   1  13
BRANCH   4  26
HETATM   26  C   UNL     1      -8.606   3.326 -33.176  1.00  0.00     0.175 C 
BRANCH  26  27
HETATM   27  C   UNL     1      -9.828   3.802 -32.419  1.00  0.00    -0.037 A 
HETATM   28  C   UNL     1     -11.098   3.275 -32.699  1.00  0.00     0.048 A 
HETATM   29  C   UNL     1     -12.179   3.791 -32.011  1.00  0.00     0.105 A 
HETATM   30  C   UNL     1     -12.037   4.782 -31.069  1.00  0.00     0.105 A 
HETATM   31  O   UNL     1     -13.477   3.417 -32.173  1.00  0.00    -0.323 OA
HETATM   32  O   UNL     1     -13.223   5.154 -30.518  1.00  0.00    -0.323 OA
HETATM   33  C   UNL     1     -10.809   5.315 -30.755  1.00  0.00     0.040 A 
HETATM   34  C   UNL     1     -14.134   4.297 -31.237  1.00  0.00     0.352 A 
HETATM   35  C   UNL     1      -9.698   4.820 -31.441  1.00  0.00     0.012 A 
ENDBRANCH  26  27
ENDBRANCH   4  26
BRANCH  11  36
HETATM   36  C   UNL     1      -1.222   5.610 -31.287  1.00  0.00     0.252 C 
HETATM   37  N   UNL     1      -0.887   6.565 -30.348  1.00  0.00    -0.352 N 
HETATM   38  H   UNL     1      -1.601   7.121 -29.905  1.00  0.00     0.163 HD
HETATM   39  O   UNL     1      -0.382   4.888 -31.817  1.00  0.00    -0.268 OA
BRANCH  37  40
HETATM   40  C   UNL     1       0.404   6.509 -29.663  1.00  0.00     0.084 C 
HETATM   41  C   UNL     1       0.895   7.908 -29.277  1.00  0.00     0.025 C 
HETATM   42  C   UNL     1       0.094   8.529 -28.134  1.00  0.00     0.002 C 
HETATM   43  C   UNL     1       0.008   7.601 -26.926  1.00  0.00     0.000 C 
HETATM   44  C   UNL     1      -0.523   6.223 -27.308  1.00  0.00     0.002 C 
HETATM   45  C   UNL     1       0.303   5.594 -28.431  1.00  0.00     0.025 C 
ENDBRANCH  37  40
ENDBRANCH  11  36
TORSDOF 7
ENDMDL
MODEL 6
REMARK VINA RESULT:      -9.9      1.654      2.351
REMARK  7 active torsions:
REMARK  status: ('A' for Active; 'I' for Inactive)
REMARK    1  A    between atoms: C_4  and  N_5 
REMARK       I    between atoms: N_5  and  C_6 
REMARK    2  A    between atoms: C_6  and  C_7 
REMARK    3  A    between atoms: C_7  and  N_8 
REMARK    4  A    between atoms: N_11  and  C_12 
REMARK    5  A    between atoms: C_12  and  C_13 
REMARK    6  A    between atoms: C_28  and  C_29 
REMARK       I    between atoms: C_29  and  N_30 
REMARK    7  A    between atoms: N_30  and  C_31 
ROOT
HETATM    1  N   UNL     1      -7.555   3.097 -31.079  1.00  0.00    -0.290 N 
HETATM    2  C   UNL     1      -8.548   2.602 -31.921  1.00  0.00     0.332 C 
HETATM    3  O   UNL     1      -9.049   1.495 -31.696  1.00  0.00    -0.246 OA
HETATM    4  N   UNL     1      -8.895   3.370 -33.021  1.00  0.00    -0.261 N 
HETATM    5  C   UNL     1      -8.217   4.528 -33.376  1.00  0.00     0.264 C 
HETATM    6  O   UNL     1      -8.213   5.019 -34.502  1.00  0.00    -0.267 OA
HETATM    7  C   UNL     1      -7.383   5.153 -32.340  1.00  0.00     0.059 A 
HETATM    8  C   UNL     1      -7.033   4.410 -31.215  1.00  0.00     0.056 A 
HETATM    9  C   UNL     1      -6.869   6.435 -32.552  1.00  0.00     0.020 A 
HETATM   10  C   UNL     1      -5.959   6.973 -31.646  1.00  0.00     0.018 A 
HETATM   11  C   UNL     1      -5.562   6.241 -30.518  1.00  0.00     0.034 A 
HETATM   12  C   UNL     1      -6.136   4.977 -30.288  1.00  0.00     0.048 A 
ENDROOT
BRANCH   1  13
HETATM   13  C   UNL     1      -6.944   2.142 -30.150  1.00  0.00     0.237 C 
BRANCH  13  14
HETATM   14  C   UNL     1      -5.823   1.290 -30.746  1.00  0.00     0.240 C 
HETATM   15  N   UNL     1      -6.264   0.048 -31.170  1.00  0.00    -0.325 N 
HETATM   16  H   UNL     1      -7.178  -0.238 -30.817  1.00  0.00     0.169 HD
HETATM   17  O   UNL     1      -4.681   1.737 -30.828  1.00  0.00    -0.271 OA
BRANCH  15  18
HETATM   18  C   UNL     1      -5.617  -0.853 -32.044  1.00  0.00     0.041 A 
HETATM   19  C   UNL     1      -4.578  -1.688 -31.610  1.00  0.00     0.037 A 
HETATM   20  C   UNL     1      -3.874  -2.502 -32.511  1.00  0.00    -0.060 A 
HETATM   21  C   UNL     1      -2.715  -3.337 -32.049  1.00  0.00     0.048 C 
HETATM   22  C   UNL     1      -4.220  -2.480 -33.862  1.00  0.00     0.007 A 
HETATM   23  C   UNL     1      -5.263  -1.668 -34.305  1.00  0.00     0.009 A 
HETATM   24  C   UNL     1      -5.972  -0.849 -33.410  1.00  0.00    -0.035 A 
HETATM   25  C   UNL     1      -7.082   0.010 -33.953  1.00  0.00     0.050 C 
ENDBRANCH  15  18
ENDBRANCH  13  14
ENDBRANCH   1  13
BRANCH   4  26
HETATM   26  C   UNL     1      -9.698   2.728 -34.058  1.00  0.00     0.175 C 
BRANCH  26  27
HETATM   27  C   UNL     1     -11.160   2.540 -33.709  1.00  0.00    -0.037 A 
HETATM   28  C   UNL     1     -11.884   3.560 -33.073  1.00  0.00     0.048 A 
HETATM   29  C   UNL     1     -13.199   3.305 -32.733  1.00  0.00     0.105 A 
HETATM   30  C   UNL     1     -13.803   2.101 -33.012  1.00  0.00     0.105 A 
HETATM   31  O   UNL     1     -14.036   4.165 -32.094  1.00  0.00    -0.323 OA
HETATM   32  O   UNL     1     -15.094   2.053 -32.586  1.00  0.00    -0.323 OA
HETATM   33  C   UNL     1     -13.133   1.083 -33.647  1.00  0.00     0.040 A 
HETATM   34  C   UNL     1     -15.228   3.358 -31.988  1.00  0.00     0.352 A 
HETATM   35  C   UNL     1     -11.799   1.307 -33.994  1.00  0.00     0.012 A 
ENDBRANCH  26  27
ENDBRANCH   4  26
BRANCH  11  36
HETATM   36  C   UNL     1      -4.455   6.822 -29.693  1.00  0.00     0.252 C 
HETATM   37  N   UNL     1      -3.164   6.388 -29.927  1.00  0.00    -0.352 N 
HETATM   38  H   UNL     1      -2.980   5.676 -30.615  1.00  0.00     0.163 HD
HETATM   39  O   UNL     1      -4.712   7.716 -28.891  1.00  0.00    -0.268 OA
BRANCH  37  40
HETATM   40  C   UNL     1      -2.023   7.213 -29.528  1.00  0.00     0.084 C 
HETATM   41  C   UNL     1      -0.800   6.353 -29.196  1.00  0.00     0.025 C 
HETATM   42  C   UNL     1      -0.162   5.717 -30.430  1.00  0.00     0.002 C 
HETATM   43  C   UNL     1       0.143   6.750 -31.511  1.00  0.00     0.000 C 
HETATM   44  C   UNL     1      -1.089   7.575 -31.870  1.00  0.00     0.002 C 
HETATM   45  C   UNL     1      -1.704   8.232 -30.634  1.00  0.00     0.025 C 
ENDBRANCH  37  40
ENDBRANCH  11  36
TORSDOF 7
ENDMDL
MODEL 7
REMARK VINA RESULT:      -9.9      2.042      3.377
REMARK  7 active torsions:
REMARK  status: ('A' for Active; 'I' for Inactive)
REMARK    1  A    between atoms: C_4  and  N_5 
REMARK       I    between atoms: N_5  and  C_6 
REMARK    2  A    between atoms: C_6  and  C_7 
REMARK    3  A    between atoms: C_7  and  N_8 
REMARK    4  A    between atoms: N_11  and  C_12 
REMARK    5  A    between atoms: C_12  and  C_13 
REMARK    6  A    between atoms: C_28  and  C_29 
REMARK       I    between atoms: C_29  and  N_30 
REMARK    7  A    between atoms: N_30  and  C_31 
ROOT
HETATM    1  N   UNL     1      -7.365   3.543 -30.832  1.00  0.00    -0.290 N 
HETATM    2  C   UNL     1      -8.719   3.867 -30.813  1.00  0.00     0.332 C 
HETATM    3  O   UNL     1      -9.517   3.142 -30.210  1.00  0.00    -0.246 OA
HETATM    4  N   UNL     1      -9.119   4.984 -31.530  1.00  0.00    -0.261 N 
HETATM    5  C   UNL     1      -8.259   5.703 -32.350  1.00  0.00     0.264 C 
HETATM    6  O   UNL     1      -8.617   6.425 -33.276  1.00  0.00    -0.267 OA
HETATM    7  C   UNL     1      -6.819   5.508 -32.132  1.00  0.00     0.059 A 
HETATM    8  C   UNL     1      -6.388   4.403 -31.401  1.00  0.00     0.056 A 
HETATM    9  C   UNL     1      -5.907   6.368 -32.752  1.00  0.00     0.020 A 
HETATM   10  C   UNL     1      -4.544   6.101 -32.673  1.00  0.00     0.018 A 
HETATM   11  C   UNL     1      -4.077   4.981 -31.970  1.00  0.00     0.034 A 
HETATM   12  C   UNL     1      -5.005   4.161 -31.301  1.00  0.00     0.048 A 
ENDROOT
BRANCH   1  13
HETATM   13  C   UNL     1      -7.005   2.192 -30.393  1.00  0.00     0.237 C 
BRANCH  13  14
HETATM   14  C   UNL     1      -7.346   1.080 -31.385  1.00  0.00     0.240 C 
HETATM   15  N   UNL     1      -6.339   0.863 -32.310  1.00  0.00    -0.325 N 
HETATM   16  H   UNL     1      -5.640   1.603 -32.381  1.00  0.00     0.169 HD
HETATM   17  O   UNL     1      -8.410   0.472 -31.293  1.00  0.00    -0.271 OA
BRANCH  15  18
HETATM   18  C   UNL     1      -6.151  -0.262 -33.143  1.00  0.00     0.041 A 
HETATM   19  C   UNL     1      -5.182  -1.235 -32.864  1.00  0.00     0.037 A 
HETATM   20  C   UNL     1      -4.934  -2.292 -33.753  1.00  0.00    -0.060 A 
HETATM   21  C   UNL     1      -3.843  -3.287 -33.481  1.00  0.00     0.048 C 
HETATM   22  C   UNL     1      -5.672  -2.375 -34.935  1.00  0.00     0.007 A 
HETATM   23  C   UNL     1      -6.651  -1.424 -35.217  1.00  0.00     0.009 A 
HETATM   24  C   UNL     1      -6.904  -0.363 -34.332  1.00  0.00    -0.035 A 
HETATM   25  C   UNL     1      -7.970   0.635 -34.699  1.00  0.00     0.050 C 
ENDBRANCH  15  18
ENDBRANCH  13  14
ENDBRANCH   1  13
BRANCH   4  26
HETATM   26  C   UNL     1     -10.551   5.150 -31.765  1.00  0.00     0.175 C 
BRANCH  26  27
HETATM   27  C   UNL     1     -11.159   4.156 -32.732  1.00  0.00    -0.037 A 
HETATM   28  C   UNL     1     -12.341   3.471 -32.411  1.00  0.00     0.048 A 
HETATM   29  C   UNL     1     -12.814   2.537 -33.313  1.00  0.00     0.105 A 
HETATM   30  C   UNL     1     -12.169   2.281 -34.500  1.00  0.00     0.105 A 
HETATM   31  O   UNL     1     -13.925   1.769 -33.153  1.00  0.00    -0.323 OA
HETATM   32  O   UNL     1     -12.793   1.322 -35.237  1.00  0.00    -0.323 OA
HETATM   33  C   UNL     1     -11.018   2.940 -34.859  1.00  0.00     0.040 A 
HETATM   34  C   UNL     1     -13.894   0.989 -34.368  1.00  0.00     0.352 A 
HETATM   35  C   UNL     1     -10.510   3.883 -33.963  1.00  0.00     0.012 A 
ENDBRANCH  26  27
ENDBRANCH   4  26
BRANCH  11  36
HETATM   36  C   UNL     1      -2.615   4.677 -32.082  1.00  0.00     0.252 C 
HETATM   37  N   UNL     1      -1.711   5.690 -31.831  1.00  0.00    -0.352 N 
HETATM   38  H   UNL     1      -2.032   6.618 -31.607  1.00  0.00     0.163 HD
HETATM   39  O   UNL     1      -2.261   3.525 -32.319  1.00  0.00    -0.268 OA
BRANCH  37  40
HETATM   40  C   UNL     1      -0.331   5.376 -31.459  1.00  0.00     0.084 C 
HETATM   41  C   UNL     1       0.595   6.576 -31.677  1.00  0.00     0.025 C 
HETATM   42  C   UNL     1       0.369   7.699 -30.665  1.00  0.00     0.002 C 
HETATM   43  C   UNL     1       0.423   7.191 -29.228  1.00  0.00     0.000 C 
HETATM   44  C   UNL     1      -0.534   6.024 -29.003  1.00  0.00     0.002 C 
HETATM   45  C   UNL     1      -0.281   4.892 -30.001  1.00  0.00     0.025 C 
ENDBRANCH  37  40
ENDBRANCH  11  36
TORSDOF 7
ENDMDL
MODEL 8
REMARK VINA RESULT:      -9.9      2.552      3.601
REMARK  7 active torsions:
REMARK  status: ('A' for Active; 'I' for Inactive)
REMARK    1  A    between atoms: C_4  and  N_5 
REMARK       I    between atoms: N_5  and  C_6 
REMARK    2  A    between atoms: C_6  and  C_7 
REMARK    3  A    between atoms: C_7  and  N_8 
REMARK    4  A    between atoms: N_11  and  C_12 
REMARK    5  A    between atoms: C_12  and  C_13 
REMARK    6  A    between atoms: C_28  and  C_29 
REMARK       I    between atoms: C_29  and  N_30 
REMARK    7  A    between atoms: N_30  and  C_31 
ROOT
HETATM    1  N   UNL     1      -7.535   4.324 -32.133  1.00  0.00    -0.290 N 
HETATM    2  C   UNL     1      -8.674   4.181 -32.920  1.00  0.00     0.332 C 
HETATM    3  O   UNL     1      -8.626   3.508 -33.955  1.00  0.00    -0.246 OA
HETATM    4  N   UNL     1      -9.817   4.856 -32.520  1.00  0.00    -0.261 N 
HETATM    5  C   UNL     1      -9.832   5.750 -31.458  1.00  0.00     0.264 C 
HETATM    6  O   UNL     1     -10.665   6.638 -31.304  1.00  0.00    -0.267 OA
HETATM    7  C   UNL     1      -8.717   5.666 -30.505  1.00  0.00     0.059 A 
HETATM    8  C   UNL     1      -7.563   4.979 -30.873  1.00  0.00     0.056 A 
HETATM    9  C   UNL     1      -8.791   6.365 -29.297  1.00  0.00     0.020 A 
HETATM   10  C   UNL     1      -7.682   6.412 -28.457  1.00  0.00     0.018 A 
HETATM   11  C   UNL     1      -6.494   5.756 -28.810  1.00  0.00     0.034 A 
HETATM   12  C   UNL     1      -6.457   5.006 -30.000  1.00  0.00     0.048 A 
ENDROOT
BRANCH   1  13
HETATM   13  C   UNL     1      -6.262   3.921 -32.737  1.00  0.00     0.237 C 
BRANCH  13  14
HETATM   14  C   UNL     1      -5.811   2.499 -32.402  1.00  0.00     0.240 C 
HETATM   15  N   UNL     1      -6.395   1.547 -33.220  1.00  0.00    -0.325 N 
HETATM   16  H   UNL     1      -7.210   1.861 -33.747  1.00  0.00     0.169 HD
HETATM   17  O   UNL     1      -4.996   2.303 -31.504  1.00  0.00    -0.271 OA
BRANCH  15  18
HETATM   18  C   UNL     1      -5.987   0.211 -33.428  1.00  0.00     0.041 A 
HETATM   19  C   UNL     1      -4.969  -0.379 -32.665  1.00  0.00     0.037 A 
HETATM   20  C   UNL     1      -4.501  -1.671 -32.950  1.00  0.00    -0.060 A 
HETATM   21  C   UNL     1      -3.361  -2.265 -32.175  1.00  0.00     0.048 C 
HETATM   22  C   UNL     1      -5.064  -2.380 -34.011  1.00  0.00     0.007 A 
HETATM   23  C   UNL     1      -6.089  -1.813 -34.767  1.00  0.00     0.009 A 
HETATM   24  C   UNL     1      -6.563  -0.520 -34.488  1.00  0.00    -0.035 A 
HETATM   25  C   UNL     1      -7.666   0.038 -35.347  1.00  0.00     0.050 C 
ENDBRANCH  15  18
ENDBRANCH  13  14
ENDBRANCH   1  13
BRANCH   4  26
HETATM   26  C   UNL     1     -10.906   4.959 -33.489  1.00  0.00     0.175 C 
BRANCH  26  27
HETATM   27  C   UNL     1     -12.027   3.958 -33.298  1.00  0.00    -0.037 A 
HETATM   28  C   UNL     1     -12.343   3.032 -34.304  1.00  0.00     0.048 A 
HETATM   29  C   UNL     1     -13.412   2.184 -34.090  1.00  0.00     0.105 A 
HETATM   30  C   UNL     1     -14.149   2.220 -32.930  1.00  0.00     0.105 A 
HETATM   31  O   UNL     1     -13.870   1.247 -34.963  1.00  0.00    -0.323 OA
HETATM   32  O   UNL     1     -15.160   1.310 -32.925  1.00  0.00    -0.323 OA
HETATM   33  C   UNL     1     -13.862   3.101 -31.915  1.00  0.00     0.040 A 
HETATM   34  C   UNL     1     -14.989   0.711 -34.225  1.00  0.00     0.352 A 
HETATM   35  C   UNL     1     -12.793   3.978 -32.106  1.00  0.00     0.012 A 
ENDBRANCH  26  27
ENDBRANCH   4  26
BRANCH  11  36
HETATM   36  C   UNL     1      -5.304   6.002 -27.936  1.00  0.00     0.252 C 
HETATM   37  N   UNL     1      -4.158   6.514 -28.514  1.00  0.00    -0.352 N 
HETATM   38  H   UNL     1      -4.119   6.688 -29.505  1.00  0.00     0.163 HD
HETATM   39  O   UNL     1      -5.401   5.816 -26.726  1.00  0.00    -0.268 OA
BRANCH  37  40
HETATM   40  C   UNL     1      -3.163   7.209 -27.696  1.00  0.00     0.084 C 
HETATM   41  C   UNL     1      -1.759   7.081 -28.295  1.00  0.00     0.025 C 
HETATM   42  C   UNL     1      -1.574   7.903 -29.569  1.00  0.00     0.002 C 
HETATM   43  C   UNL     1      -1.980   9.361 -29.372  1.00  0.00     0.000 C 
HETATM   44  C   UNL     1      -3.396   9.484 -28.817  1.00  0.00     0.002 C 
HETATM   45  C   UNL     1      -3.564   8.683 -27.525  1.00  0.00     0.025 C 
ENDBRANCH  37  40
ENDBRANCH  11  36
TORSDOF 7
ENDMDL
MODEL 9
REMARK VINA RESULT:      -9.9      2.247      3.635
REMARK  7 active torsions:
REMARK  status: ('A' for Active; 'I' for Inactive)
REMARK    1  A    between atoms: C_4  and  N_5 
REMARK       I    between atoms: N_5  and  C_6 
REMARK    2  A    between atoms: C_6  and  C_7 
REMARK    3  A    between atoms: C_7  and  N_8 
REMARK    4  A    between atoms: N_11  and  C_12 
REMARK    5  A    between atoms: C_12  and  C_13 
REMARK    6  A    between atoms: C_28  and  C_29 
REMARK       I    between atoms: C_29  and  N_30 
REMARK    7  A    between atoms: N_30  and  C_31 
ROOT
HETATM    1  N   UNL     1      -6.145   4.679 -32.587  1.00  0.00    -0.290 N 
HETATM    2  C   UNL     1      -7.330   4.536 -33.304  1.00  0.00     0.332 C 
HETATM    3  O   UNL     1      -7.469   3.583 -34.079  1.00  0.00    -0.246 OA
HETATM    4  N   UNL     1      -8.295   5.518 -33.146  1.00  0.00    -0.261 N 
HETATM    5  C   UNL     1      -8.080   6.677 -32.414  1.00  0.00     0.264 C 
HETATM    6  O   UNL     1      -8.713   7.720 -32.552  1.00  0.00    -0.267 OA
HETATM    7  C   UNL     1      -6.954   6.664 -31.469  1.00  0.00     0.059 A 
HETATM    8  C   UNL     1      -5.978   5.679 -31.592  1.00  0.00     0.056 A 
HETATM    9  C   UNL     1      -6.826   7.699 -30.538  1.00  0.00     0.020 A 
HETATM   10  C   UNL     1      -5.688   7.775 -29.742  1.00  0.00     0.018 A 
HETATM   11  C   UNL     1      -4.672   6.816 -29.860  1.00  0.00     0.034 A 
HETATM   12  C   UNL     1      -4.845   5.747 -30.759  1.00  0.00     0.048 A 
ENDROOT
BRANCH   1  13
HETATM   13  C   UNL     1      -5.009   3.861 -33.022  1.00  0.00     0.237 C 
BRANCH  13  14
HETATM   14  C   UNL     1      -5.058   2.400 -32.573  1.00  0.00     0.240 C 
HETATM   15  N   UNL     1      -5.599   1.564 -33.534  1.00  0.00    -0.325 N 
HETATM   16  H   UNL     1      -6.114   2.029 -34.282  1.00  0.00     0.169 HD
HETATM   17  O   UNL     1      -4.622   2.076 -31.471  1.00  0.00    -0.271 OA
BRANCH  15  18
HETATM   18  C   UNL     1      -5.505   0.157 -33.615  1.00  0.00     0.041 A 
HETATM   19  C   UNL     1      -4.548  -0.563 -32.886  1.00  0.00     0.037 A 
HETATM   20  C   UNL     1      -4.395  -1.948 -33.054  1.00  0.00    -0.060 A 
HETATM   21  C   UNL     1      -3.319  -2.698 -32.325  1.00  0.00     0.048 C 
HETATM   22  C   UNL     1      -5.216  -2.618 -33.962  1.00  0.00     0.007 A 
HETATM   23  C   UNL     1      -6.184  -1.918 -34.681  1.00  0.00     0.009 A 
HETATM   24  C   UNL     1      -6.342  -0.531 -34.518  1.00  0.00    -0.035 A 
HETATM   25  C   UNL     1      -7.400   0.167 -35.330  1.00  0.00     0.050 C 
ENDBRANCH  15  18
ENDBRANCH  13  14
ENDBRANCH   1  13
BRANCH   4  26
HETATM   26  C   UNL     1      -9.392   5.538 -34.111  1.00  0.00     0.175 C 
BRANCH  26  27
HETATM   27  C   UNL     1     -10.499   4.539 -33.841  1.00  0.00    -0.037 A 
HETATM   28  C   UNL     1     -10.997   3.723 -34.868  1.00  0.00     0.048 A 
HETATM   29  C   UNL     1     -12.044   2.873 -34.570  1.00  0.00     0.105 A 
HETATM   30  C   UNL     1     -12.587   2.803 -33.308  1.00  0.00     0.105 A 
HETATM   31  O   UNL     1     -12.662   2.035 -35.444  1.00  0.00    -0.323 OA
HETATM   32  O   UNL     1     -13.612   1.912 -33.230  1.00  0.00    -0.323 OA
HETATM   33  C   UNL     1     -12.118   3.574 -32.272  1.00  0.00     0.040 A 
HETATM   34  C   UNL     1     -13.666   1.443 -34.593  1.00  0.00     0.352 A 
HETATM   35  C   UNL     1     -11.067   4.451 -32.545  1.00  0.00     0.012 A 
ENDBRANCH  26  27
ENDBRANCH   4  26
BRANCH  11  36
HETATM   36  C   UNL     1      -3.412   7.071 -29.092  1.00  0.00     0.252 C 
HETATM   37  N   UNL     1      -2.266   6.396 -29.465  1.00  0.00    -0.352 N 
HETATM   38  H   UNL     1      -2.288   5.726 -30.217  1.00  0.00     0.163 HD
HETATM   39  O   UNL     1      -3.412   7.923 -28.207  1.00  0.00    -0.268 OA
BRANCH  37  40
HETATM   40  C   UNL     1      -0.948   6.919 -29.105  1.00  0.00     0.084 C 
HETATM   41  C   UNL     1      -0.007   5.800 -28.649  1.00  0.00     0.025 C 
HETATM   42  C   UNL     1       0.447   4.895 -29.793  1.00  0.00     0.002 C 
HETATM   43  C   UNL     1       1.031   5.694 -30.955  1.00  0.00     0.000 C 
HETATM   44  C   UNL     1       0.072   6.779 -31.435  1.00  0.00     0.002 C 
HETATM   45  C   UNL     1      -0.354   7.698 -30.290  1.00  0.00     0.025 C 
ENDBRANCH  37  40
ENDBRANCH  11  36
TORSDOF 7
ENDMDL
MODEL 10
REMARK VINA RESULT:      -9.8      3.130      9.040
REMARK  7 active torsions:
REMARK  status: ('A' for Active; 'I' for Inactive)
REMARK    1  A    between atoms: C_4  and  N_5 
REMARK       I    between atoms: N_5  and  C_6 
REMARK    2  A    between atoms: C_6  and  C_7 
REMARK    3  A    between atoms: C_7  and  N_8 
REMARK    4  A    between atoms: N_11  and  C_12 
REMARK    5  A    between atoms: C_12  and  C_13 
REMARK    6  A    between atoms: C_28  and  C_29 
REMARK       I    between atoms: C_29  and  N_30 
REMARK    7  A    between atoms: N_30  and  C_31 
ROOT
HETATM    1  N   UNL     1      -3.870   6.208 -32.921  1.00  0.00    -0.290 N 
HETATM    2  C   UNL     1      -2.978   7.105 -32.340  1.00  0.00     0.332 C 
HETATM    3  O   UNL     1      -1.765   6.984 -32.540  1.00  0.00    -0.246 OA
HETATM    4  N   UNL     1      -3.503   8.080 -31.506  1.00  0.00    -0.261 N 
HETATM    5  C   UNL     1      -4.841   8.116 -31.138  1.00  0.00     0.264 C 
HETATM    6  O   UNL     1      -5.276   8.684 -30.140  1.00  0.00    -0.267 OA
HETATM    7  C   UNL     1      -5.778   7.347 -31.968  1.00  0.00     0.059 A 
HETATM    8  C   UNL     1      -5.278   6.372 -32.828  1.00  0.00     0.056 A 
HETATM    9  C   UNL     1      -7.154   7.529 -31.800  1.00  0.00     0.020 A 
HETATM   10  C   UNL     1      -8.047   6.700 -32.473  1.00  0.00     0.018 A 
HETATM   11  C   UNL     1      -7.577   5.690 -33.324  1.00  0.00     0.034 A 
HETATM   12  C   UNL     1      -6.191   5.561 -33.528  1.00  0.00     0.048 A 
ENDROOT
BRANCH   1  13
HETATM   13  C   UNL     1      -3.297   4.986 -33.491  1.00  0.00     0.237 C 
BRANCH  13  14
HETATM   14  C   UNL     1      -3.266   3.786 -32.544  1.00  0.00     0.240 C 
HETATM   15  N   UNL     1      -4.411   3.011 -32.627  1.00  0.00    -0.325 N 
HETATM   16  H   UNL     1      -5.206   3.450 -33.092  1.00  0.00     0.169 HD
HETATM   17  O   UNL     1      -2.286   3.583 -31.833  1.00  0.00    -0.271 OA
BRANCH  15  18
HETATM   18  C   UNL     1      -4.600   1.687 -32.172  1.00  0.00     0.041 A 
HETATM   19  C   UNL     1      -4.260   0.578 -32.959  1.00  0.00     0.037 A 
HETATM   20  C   UNL     1      -4.548  -0.729 -32.539  1.00  0.00    -0.060 A 
HETATM   21  C   UNL     1      -4.249  -1.905 -33.422  1.00  0.00     0.048 C 
HETATM   22  C   UNL     1      -5.182  -0.925 -31.311  1.00  0.00     0.007 A 
HETATM   23  C   UNL     1      -5.509   0.167 -30.509  1.00  0.00     0.009 A 
HETATM   24  C   UNL     1      -5.224   1.479 -30.924  1.00  0.00    -0.035 A 
HETATM   25  C   UNL     1      -5.610   2.615 -30.015  1.00  0.00     0.050 C 
ENDBRANCH  15  18
ENDBRANCH  13  14
ENDBRANCH   1  13
BRANCH   4  26
HETATM   26  C   UNL     1      -2.564   8.816 -30.664  1.00  0.00     0.175 C 
BRANCH  26  27
HETATM   27  C   UNL     1      -1.977   8.023 -29.515  1.00  0.00    -0.037 A 
HETATM   28  C   UNL     1      -2.773   7.640 -28.425  1.00  0.00     0.048 A 
HETATM   29  C   UNL     1      -2.165   6.966 -27.384  1.00  0.00     0.105 A 
HETATM   30  C   UNL     1      -0.825   6.657 -27.401  1.00  0.00     0.105 A 
HETATM   31  O   UNL     1      -2.776   6.543 -26.245  1.00  0.00    -0.323 OA
HETATM   32  O   UNL     1      -0.425   6.001 -26.278  1.00  0.00    -0.323 OA
HETATM   33  C   UNL     1      -0.014   7.000 -28.456  1.00  0.00     0.040 A 
HETATM   34  C   UNL     1      -1.664   5.950 -25.542  1.00  0.00     0.352 A 
HETATM   35  C   UNL     1      -0.598   7.692 -29.519  1.00  0.00     0.012 A 
ENDBRANCH  26  27
ENDBRANCH   4  26
BRANCH  11  36
HETATM   36  C   UNL     1      -8.598   4.739 -33.869  1.00  0.00     0.252 C 
HETATM   37  N   UNL     1      -8.314   3.387 -33.848  1.00  0.00    -0.352 N 
HETATM   38  H   UNL     1      -7.428   3.055 -33.503  1.00  0.00     0.163 HD
HETATM   39  O   UNL     1      -9.682   5.176 -34.246  1.00  0.00    -0.268 OA
BRANCH  37  40
HETATM   40  C   UNL     1      -9.395   2.403 -33.906  1.00  0.00     0.084 C 
HETATM   41  C   UNL     1      -8.900   1.059 -34.449  1.00  0.00     0.025 C 
HETATM   42  C   UNL     1      -8.004   0.308 -33.465  1.00  0.00     0.002 C 
HETATM   43  C   UNL     1      -8.658   0.165 -32.093  1.00  0.00     0.000 C 
HETATM   44  C   UNL     1      -9.109   1.512 -31.537  1.00  0.00     0.002 C 
HETATM   45  C   UNL     1     -10.030   2.243 -32.516  1.00  0.00     0.025 C 
ENDBRANCH  37  40
ENDBRANCH  11  36
TORSDOF 7
ENDMDL
