MODEL 1
REMARK VINA RESULT:      -9.7      0.000      0.000
REMARK  7 active torsions:
REMARK  status: ('A' for Active; 'I' for Inactive)
REMARK    1  A    between atoms: C_4  and  C_5 
REMARK    2  A    between atoms: C_9  and  C_10 
REMARK       I    between atoms: C_10  and  N_11 
REMARK    3  A    between atoms: N_11  and  N_12 
REMARK       I    between atoms: N_12  and  C_13 
REMARK    4  A    between atoms: C_13  and  C_14 
REMARK    5  A    between atoms: C_14  and  C_15 
REMARK    6  A    between atoms: C_15  and  N_16 
REMARK    7  A    between atoms: C_15  and  C_20 
REMARK       I    between atoms: N_16  and  C_17 
REMARK       I    between atoms: C_17  and  N_18 
ROOT
HETATM    1  N   UNL     1      -3.286   3.455 -32.203  1.00  0.00    -0.267 N 
HETATM    2  C   UNL     1      -3.392   2.099 -31.988  1.00  0.00     0.238 C 
HETATM    3  O   UNL     1      -2.848   1.531 -31.039  1.00  0.00    -0.272 OA
HETATM    4  H   UNL     1      -3.937   3.953 -32.822  1.00  0.00     0.190 HD
ENDROOT
BRANCH   1   5
HETATM    5  N   UNL     1      -2.606   4.201 -31.234  1.00  0.00    -0.262 N 
HETATM    6  C   UNL     1      -1.481   4.918 -31.578  1.00  0.00     0.288 C 
HETATM    7  O   UNL     1      -1.110   5.058 -32.741  1.00  0.00    -0.264 OA
HETATM    8  H   UNL     1      -2.867   4.011 -30.271  1.00  0.00     0.190 HD
BRANCH   6   9
HETATM    9  C   UNL     1      -0.766   5.489 -30.468  1.00  0.00     0.121 A 
HETATM   10  N   UNL     1       0.079   4.743 -29.695  1.00  0.00    -0.272 N 
HETATM   11  N   UNL     1       0.645   5.421 -28.686  1.00  0.00    -0.174 NA
HETATM   12  H   UNL     1       0.296   3.757 -29.809  1.00  0.00     0.189 HD
HETATM   13  C   UNL     1       0.167   6.671 -28.802  1.00  0.00     0.089 A 
HETATM   14  C   UNL     1      -0.721   6.752 -29.913  1.00  0.00     0.071 A 
BRANCH  13  15
HETATM   15  C   UNL     1       0.546   7.736 -27.865  1.00  0.00    -0.006 A 
HETATM   16  C   UNL     1      -0.140   8.960 -27.838  1.00  0.00     0.014 A 
HETATM   17  C   UNL     1       0.221   9.962 -26.932  1.00  0.00     0.001 A 
HETATM   18  C   UNL     1       1.270   9.754 -26.042  1.00  0.00     0.000 A 
HETATM   19  C   UNL     1       1.965   8.547 -26.057  1.00  0.00     0.001 A 
HETATM   20  C   UNL     1       1.605   7.546 -26.964  1.00  0.00     0.014 A 
ENDBRANCH  13  15
ENDBRANCH   6   9
ENDBRANCH   1   5
BRANCH   2  21
HETATM   21  C   UNL     1      -4.223   1.356 -32.999  1.00  0.00     0.134 C 
BRANCH  21  22
HETATM   22  C   UNL     1      -5.202   0.411 -32.297  1.00  0.00     0.128 C 
BRANCH  22  23
HETATM   23  N   UNL     1      -6.482   0.965 -31.854  1.00  0.00    -0.334 N 
HETATM   24  C   UNL     1      -6.768   1.470 -30.628  1.00  0.00     0.314 C 
HETATM   25  N   UNL     1      -7.992   2.044 -30.569  1.00  0.00    -0.352 N 
HETATM   26  O   UNL     1      -6.056   1.392 -29.639  1.00  0.00    -0.248 OA
HETATM   27  H   UNL     1      -8.325   2.553 -31.375  1.00  0.00     0.160 HD
HETATM   28  H   UNL     1      -8.192   2.486 -29.679  1.00  0.00     0.160 HD
HETATM   29  H   UNL     1      -7.179   1.101 -32.570  1.00  0.00     0.165 HD
ENDBRANCH  22  23
BRANCH  22  30
HETATM   30  C   UNL     1      -5.444  -0.831 -33.144  1.00  0.00    -0.035 A 
HETATM   31  C   UNL     1      -6.741  -1.136 -33.587  1.00  0.00     0.011 A 
HETATM   32  C   UNL     1      -6.982  -2.284 -34.346  1.00  0.00     0.024 A 
HETATM   33  C   UNL     1      -5.930  -3.137 -34.667  1.00  0.00     0.034 A 
HETATM   34 CL   UNL     1      -6.229  -4.552 -35.598  1.00  0.00    -0.084 Cl
HETATM   35  C   UNL     1      -4.637  -2.853 -34.234  1.00  0.00     0.024 A 
HETATM   36  C   UNL     1      -4.395  -1.706 -33.473  1.00  0.00     0.011 A 
ENDBRANCH  22  30
ENDBRANCH  21  22
ENDBRANCH   2  21
TORSDOF 7
ENDMDL
MODEL 2
REMARK VINA RESULT:      -9.4      1.028      1.369
REMARK  7 active torsions:
REMARK  status: ('A' for Active; 'I' for Inactive)
REMARK    1  A    between atoms: C_4  and  C_5 
REMARK    2  A    between atoms: C_9  and  C_10 
REMARK       I    between atoms: C_10  and  N_11 
REMARK    3  A    between atoms: N_11  and  N_12 
REMARK       I    between atoms: N_12  and  C_13 
REMARK    4  A    between atoms: C_13  and  C_14 
REMARK    5  A    between atoms: C_14  and  C_15 
REMARK    6  A    between atoms: C_15  and  N_16 
REMARK    7  A    between atoms: C_15  and  C_20 
REMARK       I    between atoms: N_16  and  C_17 
REMARK       I    between atoms: C_17  and  N_18 
ROOT
HETATM    1  N   UNL     1      -3.281   2.929 -32.089  1.00  0.00    -0.267 N 
HETATM    2  C   UNL     1      -4.441   2.325 -31.659  1.00  0.00     0.238 C 
HETATM    3  O   UNL     1      -4.895   2.487 -30.525  1.00  0.00    -0.272 OA
HETATM    4  H   UNL     1      -3.053   3.005 -33.088  1.00  0.00     0.190 HD
ENDROOT
BRANCH   1   5
HETATM    5  N   UNL     1      -2.669   3.829 -31.209  1.00  0.00    -0.262 N 
HETATM    6  C   UNL     1      -1.703   4.697 -31.670  1.00  0.00     0.288 C 
HETATM    7  O   UNL     1      -1.439   4.827 -32.863  1.00  0.00    -0.264 OA
HETATM    8  H   UNL     1      -2.830   3.655 -30.221  1.00  0.00     0.190 HD
BRANCH   6   9
HETATM    9  C   UNL     1      -1.018   5.438 -30.645  1.00  0.00     0.121 A 
HETATM   10  N   UNL     1      -0.088   4.853 -29.833  1.00  0.00    -0.272 N 
HETATM   11  N   UNL     1       0.436   5.677 -28.914  1.00  0.00    -0.174 NA
HETATM   12  H   UNL     1       0.219   3.885 -29.858  1.00  0.00     0.189 HD
HETATM   13  C   UNL     1      -0.162   6.860 -29.133  1.00  0.00     0.089 A 
HETATM   14  C   UNL     1      -1.080   6.748 -30.216  1.00  0.00     0.071 A 
BRANCH  13  15
HETATM   15  C   UNL     1       0.138   8.043 -28.315  1.00  0.00    -0.006 A 
HETATM   16  C   UNL     1       1.417   8.250 -27.778  1.00  0.00     0.014 A 
HETATM   17  C   UNL     1       1.694   9.387 -27.012  1.00  0.00     0.001 A 
HETATM   18  C   UNL     1       0.698  10.330 -26.775  1.00  0.00     0.000 A 
HETATM   19  C   UNL     1      -0.579  10.137 -27.297  1.00  0.00     0.001 A 
HETATM   20  C   UNL     1      -0.856   9.000 -28.061  1.00  0.00     0.014 A 
ENDBRANCH  13  15
ENDBRANCH   6   9
ENDBRANCH   1   5
BRANCH   2  21
HETATM   21  C   UNL     1      -5.120   1.451 -32.678  1.00  0.00     0.134 C 
BRANCH  21  22
HETATM   22  C   UNL     1      -5.748   0.228 -32.003  1.00  0.00     0.128 C 
BRANCH  22  23
HETATM   23  N   UNL     1      -7.054   0.398 -31.367  1.00  0.00    -0.334 N 
HETATM   24  C   UNL     1      -8.040   1.247 -31.751  1.00  0.00     0.314 C 
HETATM   25  N   UNL     1      -9.188   1.068 -31.056  1.00  0.00    -0.352 N 
HETATM   26  O   UNL     1      -7.937   2.130 -32.588  1.00  0.00    -0.248 OA
HETATM   27  H   UNL     1      -9.452   0.129 -30.797  1.00  0.00     0.160 HD
HETATM   28  H   UNL     1      -9.954   1.648 -31.379  1.00  0.00     0.160 HD
HETATM   29  H   UNL     1      -7.292  -0.273 -30.653  1.00  0.00     0.165 HD
ENDBRANCH  22  23
BRANCH  22  30
HETATM   30  C   UNL     1      -5.793  -0.950 -32.968  1.00  0.00    -0.035 A 
HETATM   31  C   UNL     1      -7.011  -1.329 -33.555  1.00  0.00     0.011 A 
HETATM   32  C   UNL     1      -7.073  -2.420 -34.424  1.00  0.00     0.024 A 
HETATM   33  C   UNL     1      -5.918  -3.142 -34.713  1.00  0.00     0.034 A 
HETATM   34 CL   UNL     1      -5.997  -4.488 -35.782  1.00  0.00    -0.084 Cl
HETATM   35  C   UNL     1      -4.702  -2.783 -34.139  1.00  0.00     0.024 A 
HETATM   36  C   UNL     1      -4.639  -1.693 -33.267  1.00  0.00     0.011 A 
ENDBRANCH  22  30
ENDBRANCH  21  22
ENDBRANCH   2  21
TORSDOF 7
ENDMDL
MODEL 3
REMARK VINA RESULT:      -9.4      3.886     10.548
REMARK  7 active torsions:
REMARK  status: ('A' for Active; 'I' for Inactive)
REMARK    1  A    between atoms: C_4  and  C_5 
REMARK    2  A    between atoms: C_9  and  C_10 
REMARK       I    between atoms: C_10  and  N_11 
REMARK    3  A    between atoms: N_11  and  N_12 
REMARK       I    between atoms: N_12  and  C_13 
REMARK    4  A    between atoms: C_13  and  C_14 
REMARK    5  A    between atoms: C_14  and  C_15 
REMARK    6  A    between atoms: C_15  and  N_16 
REMARK    7  A    between atoms: C_15  and  C_20 
REMARK       I    between atoms: N_16  and  C_17 
REMARK       I    between atoms: C_17  and  N_18 
ROOT
HETATM    1  N   UNL     1      -4.870   4.924 -33.203  1.00  0.00    -0.267 N 
HETATM    2  C   UNL     1      -3.578   5.080 -32.753  1.00  0.00     0.238 C 
HETATM    3  O   UNL     1      -2.761   4.158 -32.740  1.00  0.00    -0.272 OA
HETATM    4  H   UNL     1      -5.452   5.731 -33.455  1.00  0.00     0.190 HD
ENDROOT
BRANCH   1   5
HETATM    5  N   UNL     1      -5.206   3.679 -33.749  1.00  0.00    -0.262 N 
HETATM    6  C   UNL     1      -5.881   2.751 -32.988  1.00  0.00     0.288 C 
HETATM    7  O   UNL     1      -6.340   3.006 -31.877  1.00  0.00    -0.264 OA
HETATM    8  H   UNL     1      -4.751   3.449 -34.628  1.00  0.00     0.190 HD
BRANCH   6   9
HETATM    9  C   UNL     1      -6.004   1.450 -33.591  1.00  0.00     0.121 A 
HETATM   10  N   UNL     1      -6.776   1.240 -34.698  1.00  0.00    -0.272 N 
HETATM   11  N   UNL     1      -6.802  -0.034 -35.116  1.00  0.00    -0.174 NA
HETATM   12  H   UNL     1      -7.318   1.935 -35.203  1.00  0.00     0.189 HD
HETATM   13  C   UNL     1      -6.005  -0.694 -34.260  1.00  0.00     0.089 A 
HETATM   14  C   UNL     1      -5.483   0.208 -33.288  1.00  0.00     0.071 A 
BRANCH  13  15
HETATM   15  C   UNL     1      -5.772  -2.139 -34.372  1.00  0.00    -0.006 A 
HETATM   16  C   UNL     1      -6.791  -3.009 -34.790  1.00  0.00     0.014 A 
HETATM   17  C   UNL     1      -6.554  -4.382 -34.907  1.00  0.00     0.001 A 
HETATM   18  C   UNL     1      -5.299  -4.903 -34.608  1.00  0.00     0.000 A 
HETATM   19  C   UNL     1      -4.278  -4.054 -34.188  1.00  0.00     0.001 A 
HETATM   20  C   UNL     1      -4.515  -2.682 -34.069  1.00  0.00     0.014 A 
ENDBRANCH  13  15
ENDBRANCH   6   9
ENDBRANCH   1   5
BRANCH   2  21
HETATM   21  C   UNL     1      -3.233   6.465 -32.275  1.00  0.00     0.134 C 
BRANCH  21  22
HETATM   22  C   UNL     1      -3.455   6.582 -30.765  1.00  0.00     0.128 C 
BRANCH  22  23
HETATM   23  N   UNL     1      -4.010   5.422 -30.068  1.00  0.00    -0.334 N 
HETATM   24  C   UNL     1      -5.225   5.337 -29.471  1.00  0.00     0.314 C 
HETATM   25  N   UNL     1      -5.514   4.086 -29.041  1.00  0.00    -0.352 N 
HETATM   26  O   UNL     1      -5.989   6.268 -29.268  1.00  0.00    -0.248 OA
HETATM   27  H   UNL     1      -5.211   3.303 -29.602  1.00  0.00     0.160 HD
HETATM   28  H   UNL     1      -6.446   3.993 -28.655  1.00  0.00     0.160 HD
HETATM   29  H   UNL     1      -3.490   4.562 -30.152  1.00  0.00     0.165 HD
ENDBRANCH  22  23
BRANCH  22  30
HETATM   30  C   UNL     1      -2.177   7.037 -30.072  1.00  0.00    -0.035 A 
HETATM   31  C   UNL     1      -2.251   7.787 -28.887  1.00  0.00     0.011 A 
HETATM   32  C   UNL     1      -1.088   8.231 -28.252  1.00  0.00     0.024 A 
HETATM   33  C   UNL     1       0.157   7.929 -28.797  1.00  0.00     0.034 A 
HETATM   34 CL   UNL     1       1.588   8.479 -28.015  1.00  0.00    -0.084 Cl
HETATM   35  C   UNL     1       0.250   7.189 -29.972  1.00  0.00     0.024 A 
HETATM   36  C   UNL     1      -0.912   6.747 -30.610  1.00  0.00     0.011 A 
ENDBRANCH  22  30
ENDBRANCH  21  22
ENDBRANCH   2  21
TORSDOF 7
ENDMDL
MODEL 4
REMARK VINA RESULT:      -9.2      3.870     10.376
REMARK  7 active torsions:
REMARK  status: ('A' for Active; 'I' for Inactive)
REMARK    1  A    between atoms: C_4  and  C_5 
REMARK    2  A    between atoms: C_9  and  C_10 
REMARK       I    between atoms: C_10  and  N_11 
REMARK    3  A    between atoms: N_11  and  N_12 
REMARK       I    between atoms: N_12  and  C_13 
REMARK    4  A    between atoms: C_13  and  C_14 
REMARK    5  A    between atoms: C_14  and  C_15 
REMARK    6  A    between atoms: C_15  and  N_16 
REMARK    7  A    between atoms: C_15  and  C_20 
REMARK       I    between atoms: N_16  and  C_17 
REMARK       I    between atoms: C_17  and  N_18 
ROOT
HETATM    1  N   UNL     1      -2.497   4.238 -32.448  1.00  0.00    -0.267 N 
HETATM    2  C   UNL     1      -3.412   5.238 -32.693  1.00  0.00     0.238 C 
HETATM    3  O   UNL     1      -4.499   5.028 -33.233  1.00  0.00    -0.272 OA
HETATM    4  H   UNL     1      -1.729   4.365 -31.778  1.00  0.00     0.190 HD
ENDROOT
BRANCH   1   5
HETATM    5  N   UNL     1      -2.890   2.929 -32.751  1.00  0.00    -0.262 N 
HETATM    6  C   UNL     1      -3.546   2.169 -31.807  1.00  0.00     0.288 C 
HETATM    7  O   UNL     1      -3.940   2.628 -30.738  1.00  0.00    -0.264 OA
HETATM    8  H   UNL     1      -2.486   2.535 -33.596  1.00  0.00     0.190 HD
BRANCH   6   9
HETATM    9  C   UNL     1      -3.730   0.788 -32.166  1.00  0.00     0.121 A 
HETATM   10  N   UNL     1      -2.939  -0.201 -31.653  1.00  0.00    -0.272 N 
HETATM   11  N   UNL     1      -3.226  -1.428 -32.111  1.00  0.00    -0.174 NA
HETATM   12  H   UNL     1      -2.177  -0.089 -30.991  1.00  0.00     0.189 HD
HETATM   13  C   UNL     1      -4.258  -1.248 -32.952  1.00  0.00     0.089 A 
HETATM   14  C   UNL     1      -4.604   0.132 -33.009  1.00  0.00     0.071 A 
BRANCH  13  15
HETATM   15  C   UNL     1      -4.871  -2.368 -33.678  1.00  0.00    -0.006 A 
HETATM   16  C   UNL     1      -4.199  -3.590 -33.832  1.00  0.00     0.014 A 
HETATM   17  C   UNL     1      -4.798  -4.653 -34.514  1.00  0.00     0.001 A 
HETATM   18  C   UNL     1      -6.075  -4.510 -35.050  1.00  0.00     0.000 A 
HETATM   19  C   UNL     1      -6.754  -3.302 -34.910  1.00  0.00     0.001 A 
HETATM   20  C   UNL     1      -6.155  -2.238 -34.230  1.00  0.00     0.014 A 
ENDBRANCH  13  15
ENDBRANCH   6   9
ENDBRANCH   1   5
BRANCH   2  21
HETATM   21  C   UNL     1      -2.987   6.612 -32.251  1.00  0.00     0.134 C 
BRANCH  21  22
HETATM   22  C   UNL     1      -3.295   6.816 -30.764  1.00  0.00     0.128 C 
BRANCH  22  23
HETATM   23  N   UNL     1      -3.918   5.707 -30.042  1.00  0.00    -0.334 N 
HETATM   24  C   UNL     1      -5.016   5.769 -29.248  1.00  0.00     0.314 C 
HETATM   25  N   UNL     1      -5.438   4.549 -28.839  1.00  0.00    -0.352 N 
HETATM   26  O   UNL     1      -5.568   6.790 -28.870  1.00  0.00    -0.248 OA
HETATM   27  H   UNL     1      -5.367   3.775 -29.482  1.00  0.00     0.160 HD
HETATM   28  H   UNL     1      -6.297   4.575 -28.302  1.00  0.00     0.160 HD
HETATM   29  H   UNL     1      -3.571   4.785 -30.258  1.00  0.00     0.165 HD
ENDBRANCH  22  23
BRANCH  22  30
HETATM   30  C   UNL     1      -2.050   7.282 -30.021  1.00  0.00    -0.035 A 
HETATM   31  C   UNL     1      -0.796   6.734 -30.341  1.00  0.00     0.011 A 
HETATM   32  C   UNL     1       0.351   7.134 -29.653  1.00  0.00     0.024 A 
HETATM   33  C   UNL     1       0.256   8.084 -28.640  1.00  0.00     0.034 A 
HETATM   34 CL   UNL     1       1.671   8.574 -27.791  1.00  0.00    -0.084 Cl
HETATM   35  C   UNL     1      -0.978   8.637 -28.307  1.00  0.00     0.024 A 
HETATM   36  C   UNL     1      -2.127   8.235 -28.992  1.00  0.00     0.011 A 
ENDBRANCH  22  30
ENDBRANCH  21  22
ENDBRANCH   2  21
TORSDOF 7
ENDMDL
MODEL 5
REMARK VINA RESULT:      -9.0      1.552      1.711
REMARK  7 active torsions:
REMARK  status: ('A' for Active; 'I' for Inactive)
REMARK    1  A    between atoms: C_4  and  C_5 
REMARK    2  A    between atoms: C_9  and  C_10 
REMARK       I    between atoms: C_10  and  N_11 
REMARK    3  A    between atoms: N_11  and  N_12 
REMARK       I    between atoms: N_12  and  C_13 
REMARK    4  A    between atoms: C_13  and  C_14 
REMARK    5  A    between atoms: C_14  and  C_15 
REMARK    6  A    between atoms: C_15  and  N_16 
REMARK    7  A    between atoms: C_15  and  C_20 
REMARK       I    between atoms: N_16  and  C_17 
REMARK       I    between atoms: C_17  and  N_18 
ROOT
HETATM    1  N   UNL     1      -3.868   3.023 -32.548  1.00  0.00    -0.267 N 
HETATM    2  C   UNL     1      -5.011   2.397 -32.103  1.00  0.00     0.238 C 
HETATM    3  O   UNL     1      -5.374   2.431 -30.926  1.00  0.00    -0.272 OA
HETATM    4  H   UNL     1      -3.713   3.213 -33.545  1.00  0.00     0.190 HD
ENDROOT
BRANCH   1   5
HETATM    5  N   UNL     1      -3.165   3.798 -31.618  1.00  0.00    -0.262 N 
HETATM    6  C   UNL     1      -2.564   4.974 -32.013  1.00  0.00     0.288 C 
HETATM    7  O   UNL     1      -2.729   5.465 -33.126  1.00  0.00    -0.264 OA
HETATM    8  H   UNL     1      -2.964   3.344 -30.731  1.00  0.00     0.190 HD
BRANCH   6   9
HETATM    9  C   UNL     1      -1.719   5.582 -31.020  1.00  0.00     0.121 A 
HETATM   10  N   UNL     1      -0.725   4.885 -30.395  1.00  0.00    -0.272 N 
HETATM   11  N   UNL     1      -0.049   5.592 -29.478  1.00  0.00    -0.174 NA
HETATM   12  H   UNL     1      -0.472   3.913 -30.551  1.00  0.00     0.189 HD
HETATM   13  C   UNL     1      -0.608   6.813 -29.505  1.00  0.00     0.089 A 
HETATM   14  C   UNL     1      -1.660   6.845 -30.465  1.00  0.00     0.071 A 
BRANCH  13  15
HETATM   15  C   UNL     1      -0.150   7.897 -28.626  1.00  0.00    -0.006 A 
HETATM   16  C   UNL     1      -1.017   8.925 -28.226  1.00  0.00     0.014 A 
HETATM   17  C   UNL     1      -0.573   9.944 -27.378  1.00  0.00     0.001 A 
HETATM   18  C   UNL     1       0.742   9.949 -26.919  1.00  0.00     0.000 A 
HETATM   19  C   UNL     1       1.616   8.939 -27.311  1.00  0.00     0.001 A 
HETATM   20  C   UNL     1       1.173   7.921 -28.160  1.00  0.00     0.014 A 
ENDBRANCH  13  15
ENDBRANCH   6   9
ENDBRANCH   1   5
BRANCH   2  21
HETATM   21  C   UNL     1      -5.790   1.666 -33.163  1.00  0.00     0.134 C 
BRANCH  21  22
HETATM   22  C   UNL     1      -6.442   0.409 -32.578  1.00  0.00     0.128 C 
BRANCH  22  23
HETATM   23  N   UNL     1      -7.866   0.201 -32.835  1.00  0.00    -0.334 N 
HETATM   24  C   UNL     1      -8.904   0.763 -32.167  1.00  0.00     0.314 C 
HETATM   25  N   UNL     1     -10.103   0.493 -32.735  1.00  0.00    -0.352 N 
HETATM   26  O   UNL     1      -8.823   1.406 -31.132  1.00  0.00    -0.248 OA
HETATM   27  H   UNL     1     -10.161   0.451 -33.741  1.00  0.00     0.160 HD
HETATM   28  H   UNL     1     -10.881   0.964 -32.286  1.00  0.00     0.160 HD
HETATM   29  H   UNL     1      -8.096  -0.312 -33.673  1.00  0.00     0.165 HD
ENDBRANCH  22  23
BRANCH  22  30
HETATM   30  C   UNL     1      -5.658  -0.833 -32.978  1.00  0.00    -0.035 A 
HETATM   31  C   UNL     1      -6.114  -1.640 -34.034  1.00  0.00     0.011 A 
HETATM   32  C   UNL     1      -5.418  -2.796 -34.398  1.00  0.00     0.024 A 
HETATM   33  C   UNL     1      -4.262  -3.154 -33.710  1.00  0.00     0.034 A 
HETATM   34 CL   UNL     1      -3.408  -4.579 -34.158  1.00  0.00    -0.084 Cl
HETATM   35  C   UNL     1      -3.795  -2.368 -32.660  1.00  0.00     0.024 A 
HETATM   36  C   UNL     1      -4.492  -1.214 -32.292  1.00  0.00     0.011 A 
ENDBRANCH  22  30
ENDBRANCH  21  22
ENDBRANCH   2  21
TORSDOF 7
ENDMDL
MODEL 6
REMARK VINA RESULT:      -8.9      3.978     10.748
REMARK  7 active torsions:
REMARK  status: ('A' for Active; 'I' for Inactive)
REMARK    1  A    between atoms: C_4  and  C_5 
REMARK    2  A    between atoms: C_9  and  C_10 
REMARK       I    between atoms: C_10  and  N_11 
REMARK    3  A    between atoms: N_11  and  N_12 
REMARK       I    between atoms: N_12  and  C_13 
REMARK    4  A    between atoms: C_13  and  C_14 
REMARK    5  A    between atoms: C_14  and  C_15 
REMARK    6  A    between atoms: C_15  and  N_16 
REMARK    7  A    between atoms: C_15  and  C_20 
REMARK       I    between atoms: N_16  and  C_17 
REMARK       I    between atoms: C_17  and  N_18 
ROOT
HETATM    1  N   UNL     1      -1.320   4.612 -30.578  1.00  0.00    -0.267 N 
HETATM    2  C   UNL     1      -0.575   5.521 -31.295  1.00  0.00     0.238 C 
HETATM    3  O   UNL     1      -0.609   5.587 -32.525  1.00  0.00    -0.272 OA
HETATM    4  H   UNL     1      -1.490   4.731 -29.572  1.00  0.00     0.190 HD
ENDROOT
BRANCH   1   5
HETATM    5  N   UNL     1      -2.211   3.809 -31.300  1.00  0.00    -0.262 N 
HETATM    6  C   UNL     1      -3.551   4.127 -31.339  1.00  0.00     0.288 C 
HETATM    7  O   UNL     1      -4.001   5.175 -30.882  1.00  0.00    -0.264 OA
HETATM    8  H   UNL     1      -1.847   2.908 -31.598  1.00  0.00     0.190 HD
BRANCH   6   9
HETATM    9  C   UNL     1      -4.390   3.132 -31.951  1.00  0.00     0.121 A 
HETATM   10  N   UNL     1      -5.714   3.359 -32.199  1.00  0.00    -0.272 N 
HETATM   11  N   UNL     1      -6.357   2.319 -32.749  1.00  0.00    -0.174 NA
HETATM   12  H   UNL     1      -6.233   4.208 -31.998  1.00  0.00     0.189 HD
HETATM   13  C   UNL     1      -5.419   1.367 -32.885  1.00  0.00     0.089 A 
HETATM   14  C   UNL     1      -4.168   1.844 -32.397  1.00  0.00     0.071 A 
BRANCH  13  15
HETATM   15  C   UNL     1      -5.728   0.049 -33.452  1.00  0.00    -0.006 A 
HETATM   16  C   UNL     1      -7.024  -0.272 -33.884  1.00  0.00     0.014 A 
HETATM   17  C   UNL     1      -7.304  -1.526 -34.434  1.00  0.00     0.001 A 
HETATM   18  C   UNL     1      -6.293  -2.476 -34.561  1.00  0.00     0.000 A 
HETATM   19  C   UNL     1      -5.003  -2.175 -34.133  1.00  0.00     0.001 A 
HETATM   20  C   UNL     1      -4.723  -0.922 -33.581  1.00  0.00     0.014 A 
ENDBRANCH  13  15
ENDBRANCH   6   9
ENDBRANCH   1   5
BRANCH   2  21
HETATM   21  C   UNL     1       0.287   6.434 -30.465  1.00  0.00     0.134 C 
BRANCH  21  22
HETATM   22  C   UNL     1      -0.460   7.734 -30.149  1.00  0.00     0.128 C 
BRANCH  22  23
HETATM   23  N   UNL     1      -1.905   7.759 -30.374  1.00  0.00    -0.334 N 
HETATM   24  C   UNL     1      -2.558   8.361 -31.399  1.00  0.00     0.314 C 
HETATM   25  N   UNL     1      -3.882   8.082 -31.415  1.00  0.00    -0.352 N 
HETATM   26  O   UNL     1      -2.061   9.125 -32.212  1.00  0.00    -0.248 OA
HETATM   27  H   UNL     1      -4.182   7.156 -31.147  1.00  0.00     0.160 HD
HETATM   28  H   UNL     1      -4.370   8.469 -32.214  1.00  0.00     0.160 HD
HETATM   29  H   UNL     1      -2.458   7.161 -29.778  1.00  0.00     0.165 HD
ENDBRANCH  22  23
BRANCH  22  30
HETATM   30  C   UNL     1      -0.150   8.195 -28.731  1.00  0.00    -0.035 A 
HETATM   31  C   UNL     1      -1.098   8.944 -28.014  1.00  0.00     0.011 A 
HETATM   32  C   UNL     1      -0.819   9.393 -26.722  1.00  0.00     0.024 A 
HETATM   33  C   UNL     1       0.408   9.099 -26.135  1.00  0.00     0.034 A 
HETATM   34 CL   UNL     1       0.750   9.656 -24.543  1.00  0.00    -0.084 Cl
HETATM   35  C   UNL     1       1.362   8.360 -26.830  1.00  0.00     0.024 A 
HETATM   36  C   UNL     1       1.086   7.912 -28.125  1.00  0.00     0.011 A 
ENDBRANCH  22  30
ENDBRANCH  21  22
ENDBRANCH   2  21
TORSDOF 7
ENDMDL
MODEL 7
REMARK VINA RESULT:      -8.7      3.709     10.813
REMARK  7 active torsions:
REMARK  status: ('A' for Active; 'I' for Inactive)
REMARK    1  A    between atoms: C_4  and  C_5 
REMARK    2  A    between atoms: C_9  and  C_10 
REMARK       I    between atoms: C_10  and  N_11 
REMARK    3  A    between atoms: N_11  and  N_12 
REMARK       I    between atoms: N_12  and  C_13 
REMARK    4  A    between atoms: C_13  and  C_14 
REMARK    5  A    between atoms: C_14  and  C_15 
REMARK    6  A    between atoms: C_15  and  N_16 
REMARK    7  A    between atoms: C_15  and  C_20 
REMARK       I    between atoms: N_16  and  C_17 
REMARK       I    between atoms: C_17  and  N_18 
ROOT
HETATM    1  N   UNL     1      -4.117   4.605 -31.729  1.00  0.00    -0.267 N 
HETATM    2  C   UNL     1      -4.457   5.182 -30.526  1.00  0.00     0.238 C 
HETATM    3  O   UNL     1      -5.326   4.718 -29.787  1.00  0.00    -0.272 OA
HETATM    4  H   UNL     1      -3.236   4.834 -32.205  1.00  0.00     0.190 HD
ENDROOT
BRANCH   1   5
HETATM    5  N   UNL     1      -4.736   3.391 -32.048  1.00  0.00    -0.262 N 
HETATM    6  C   UNL     1      -4.045   2.206 -31.912  1.00  0.00     0.288 C 
HETATM    7  O   UNL     1      -2.939   2.138 -31.382  1.00  0.00    -0.264 OA
HETATM    8  H   UNL     1      -5.609   3.465 -32.562  1.00  0.00     0.190 HD
BRANCH   6   9
HETATM    9  C   UNL     1      -4.716   1.051 -32.445  1.00  0.00     0.121 A 
HETATM   10  N   UNL     1      -6.078   0.959 -32.475  1.00  0.00    -0.272 N 
HETATM   11  N   UNL     1      -6.542  -0.193 -32.979  1.00  0.00    -0.174 NA
HETATM   12  H   UNL     1      -6.742   1.656 -32.151  1.00  0.00     0.189 HD
HETATM   13  C   UNL     1      -5.442  -0.890 -33.310  1.00  0.00     0.089 A 
HETATM   14  C   UNL     1      -4.275  -0.138 -32.992  1.00  0.00     0.071 A 
BRANCH  13  15
HETATM   15  C   UNL     1      -5.522  -2.234 -33.897  1.00  0.00    -0.006 A 
HETATM   16  C   UNL     1      -4.420  -3.103 -33.878  1.00  0.00     0.014 A 
HETATM   17  C   UNL     1      -4.512  -4.385 -34.428  1.00  0.00     0.001 A 
HETATM   18  C   UNL     1      -5.704  -4.815 -35.003  1.00  0.00     0.000 A 
HETATM   19  C   UNL     1      -6.806  -3.964 -35.033  1.00  0.00     0.001 A 
HETATM   20  C   UNL     1      -6.714  -2.682 -34.486  1.00  0.00     0.014 A 
ENDBRANCH  13  15
ENDBRANCH   6   9
ENDBRANCH   1   5
BRANCH   2  21
HETATM   21  C   UNL     1      -3.687   6.428 -30.178  1.00  0.00     0.134 C 
BRANCH  21  22
HETATM   22  C   UNL     1      -2.285   6.380 -30.792  1.00  0.00     0.128 C 
BRANCH  22  23
HETATM   23  N   UNL     1      -2.089   7.028 -32.088  1.00  0.00    -0.334 N 
HETATM   24  C   UNL     1      -1.835   6.417 -33.272  1.00  0.00     0.314 C 
HETATM   25  N   UNL     1      -1.852   7.274 -34.320  1.00  0.00    -0.352 N 
HETATM   26  O   UNL     1      -1.559   5.237 -33.423  1.00  0.00    -0.248 OA
HETATM   27  H   UNL     1      -2.525   8.026 -34.316  1.00  0.00     0.160 HD
HETATM   28  H   UNL     1      -1.732   6.820 -35.219  1.00  0.00     0.160 HD
HETATM   29  H   UNL     1      -2.291   8.016 -32.126  1.00  0.00     0.165 HD
ENDBRANCH  22  23
BRANCH  22  30
HETATM   30  C   UNL     1      -1.251   6.892 -29.797  1.00  0.00    -0.035 A 
HETATM   31  C   UNL     1      -0.216   6.047 -29.365  1.00  0.00     0.011 A 
HETATM   32  C   UNL     1       0.727   6.494 -28.437  1.00  0.00     0.024 A 
HETATM   33  C   UNL     1       0.643   7.788 -27.932  1.00  0.00     0.034 A 
HETATM   34 CL   UNL     1       1.804   8.336 -26.786  1.00  0.00    -0.084 Cl
HETATM   35  C   UNL     1      -0.377   8.640 -28.347  1.00  0.00     0.024 A 
HETATM   36  C   UNL     1      -1.323   8.193 -29.273  1.00  0.00     0.011 A 
ENDBRANCH  22  30
ENDBRANCH  21  22
ENDBRANCH   2  21
TORSDOF 7
ENDMDL
MODEL 8
REMARK VINA RESULT:      -8.7      6.569     10.977
REMARK  7 active torsions:
REMARK  status: ('A' for Active; 'I' for Inactive)
REMARK    1  A    between atoms: C_4  and  C_5 
REMARK    2  A    between atoms: C_9  and  C_10 
REMARK       I    between atoms: C_10  and  N_11 
REMARK    3  A    between atoms: N_11  and  N_12 
REMARK       I    between atoms: N_12  and  C_13 
REMARK    4  A    between atoms: C_13  and  C_14 
REMARK    5  A    between atoms: C_14  and  C_15 
REMARK    6  A    between atoms: C_15  and  N_16 
REMARK    7  A    between atoms: C_15  and  C_20 
REMARK       I    between atoms: N_16  and  C_17 
REMARK       I    between atoms: C_17  and  N_18 
ROOT
HETATM    1  N   UNL     1      -9.504   1.884 -34.587  1.00  0.00    -0.267 N 
HETATM    2  C   UNL     1      -9.033   0.665 -34.153  1.00  0.00     0.238 C 
HETATM    3  O   UNL     1      -9.610  -0.003 -33.293  1.00  0.00    -0.272 OA
HETATM    4  H   UNL     1      -9.179   2.304 -35.467  1.00  0.00     0.190 HD
ENDROOT
BRANCH   1   5
HETATM    5  N   UNL     1     -10.737   2.307 -34.078  1.00  0.00    -0.262 N 
HETATM    6  C   UNL     1     -10.785   3.270 -33.094  1.00  0.00     0.288 C 
HETATM    7  O   UNL     1      -9.795   3.896 -32.726  1.00  0.00    -0.264 OA
HETATM    8  H   UNL     1     -11.535   1.728 -34.325  1.00  0.00     0.190 HD
BRANCH   6   9
HETATM    9  C   UNL     1     -12.088   3.485 -32.523  1.00  0.00     0.121 A 
HETATM   10  N   UNL     1     -12.264   3.676 -31.182  1.00  0.00    -0.272 N 
HETATM   11  N   UNL     1     -13.543   3.835 -30.811  1.00  0.00    -0.174 NA
HETATM   12  H   UNL     1     -11.540   3.695 -30.470  1.00  0.00     0.189 HD
HETATM   13  C   UNL     1     -14.244   3.760 -31.955  1.00  0.00     0.089 A 
HETATM   14  C   UNL     1     -13.362   3.544 -33.053  1.00  0.00     0.071 A 
BRANCH  13  15
HETATM   15  C   UNL     1     -15.707   3.879 -31.978  1.00  0.00    -0.006 A 
HETATM   16  C   UNL     1     -16.527   2.749 -32.115  1.00  0.00     0.014 A 
HETATM   17  C   UNL     1     -17.919   2.873 -32.121  1.00  0.00     0.001 A 
HETATM   18  C   UNL     1     -18.510   4.127 -31.991  1.00  0.00     0.000 A 
HETATM   19  C   UNL     1     -17.711   5.259 -31.858  1.00  0.00     0.001 A 
HETATM   20  C   UNL     1     -16.319   5.136 -31.854  1.00  0.00     0.014 A 
ENDBRANCH  13  15
ENDBRANCH   6   9
ENDBRANCH   1   5
BRANCH   2  21
HETATM   21  C   UNL     1      -7.759   0.204 -34.808  1.00  0.00     0.134 C 
BRANCH  21  22
HETATM   22  C   UNL     1      -6.593   0.269 -33.817  1.00  0.00     0.128 C 
BRANCH  22  23
HETATM   23  N   UNL     1      -6.904   0.583 -32.423  1.00  0.00    -0.334 N 
HETATM   24  C   UNL     1      -6.644   1.746 -31.775  1.00  0.00     0.314 C 
HETATM   25  N   UNL     1      -7.185   1.789 -30.535  1.00  0.00    -0.352 N 
HETATM   26  O   UNL     1      -5.956   2.662 -32.198  1.00  0.00    -0.248 OA
HETATM   27  H   UNL     1      -8.088   1.362 -30.388  1.00  0.00     0.160 HD
HETATM   28  H   UNL     1      -7.057   2.678 -30.065  1.00  0.00     0.160 HD
HETATM   29  H   UNL     1      -7.482  -0.084 -31.935  1.00  0.00     0.165 HD
ENDBRANCH  22  23
BRANCH  22  30
HETATM   30  C   UNL     1      -5.765  -1.007 -33.886  1.00  0.00    -0.035 A 
HETATM   31  C   UNL     1      -6.152  -2.049 -34.745  1.00  0.00     0.011 A 
HETATM   32  C   UNL     1      -5.415  -3.235 -34.803  1.00  0.00     0.024 A 
HETATM   33  C   UNL     1      -4.286  -3.389 -34.003  1.00  0.00     0.034 A 
HETATM   34 CL   UNL     1      -3.382  -4.850 -34.073  1.00  0.00    -0.084 Cl
HETATM   35  C   UNL     1      -3.888  -2.368 -33.144  1.00  0.00     0.024 A 
HETATM   36  C   UNL     1      -4.626  -1.183 -33.083  1.00  0.00     0.011 A 
ENDBRANCH  22  30
ENDBRANCH  21  22
ENDBRANCH   2  21
TORSDOF 7
ENDMDL
MODEL 9
REMARK VINA RESULT:      -8.3      7.771     11.086
REMARK  7 active torsions:
REMARK  status: ('A' for Active; 'I' for Inactive)
REMARK    1  A    between atoms: C_4  and  C_5 
REMARK    2  A    between atoms: C_9  and  C_10 
REMARK       I    between atoms: C_10  and  N_11 
REMARK    3  A    between atoms: N_11  and  N_12 
REMARK       I    between atoms: N_12  and  C_13 
REMARK    4  A    between atoms: C_13  and  C_14 
REMARK    5  A    between atoms: C_14  and  C_15 
REMARK    6  A    between atoms: C_15  and  N_16 
REMARK    7  A    between atoms: C_15  and  C_20 
REMARK       I    between atoms: N_16  and  C_17 
REMARK       I    between atoms: C_17  and  N_18 
ROOT
HETATM    1  N   UNL     1      -9.601   2.994 -33.109  1.00  0.00    -0.267 N 
HETATM    2  C   UNL     1     -10.650   2.795 -33.978  1.00  0.00     0.238 C 
HETATM    3  O   UNL     1     -10.728   1.809 -34.712  1.00  0.00    -0.272 OA
HETATM    4  H   UNL     1      -9.667   3.661 -32.330  1.00  0.00     0.190 HD
ENDROOT
BRANCH   1   5
HETATM    5  N   UNL     1      -8.652   1.970 -33.012  1.00  0.00    -0.262 N 
HETATM    6  C   UNL     1      -7.425   2.105 -33.624  1.00  0.00     0.288 C 
HETATM    7  O   UNL     1      -7.052   3.153 -34.144  1.00  0.00    -0.264 OA
HETATM    8  H   UNL     1      -8.999   1.083 -32.659  1.00  0.00     0.190 HD
BRANCH   6   9
HETATM    9  C   UNL     1      -6.611   0.918 -33.614  1.00  0.00     0.121 A 
HETATM   10  N   UNL     1      -5.346   0.917 -33.099  1.00  0.00    -0.272 N 
HETATM   11  N   UNL     1      -4.716  -0.263 -33.192  1.00  0.00    -0.174 NA
HETATM   12  H   UNL     1      -4.859   1.703 -32.680  1.00  0.00     0.189 HD
HETATM   13  C   UNL     1      -5.603  -1.081 -33.781  1.00  0.00     0.089 A 
HETATM   14  C   UNL     1      -6.808  -0.374 -34.058  1.00  0.00     0.071 A 
BRANCH  13  15
HETATM   15  C   UNL     1      -5.289  -2.485 -34.073  1.00  0.00    -0.006 A 
HETATM   16  C   UNL     1      -4.076  -3.060 -33.663  1.00  0.00     0.014 A 
HETATM   17  C   UNL     1      -3.793  -4.401 -33.935  1.00  0.00     0.001 A 
HETATM   18  C   UNL     1      -4.716  -5.186 -34.620  1.00  0.00     0.000 A 
HETATM   19  C   UNL     1      -5.923  -4.631 -35.038  1.00  0.00     0.001 A 
HETATM   20  C   UNL     1      -6.206  -3.289 -34.768  1.00  0.00     0.014 A 
ENDBRANCH  13  15
ENDBRANCH   6   9
ENDBRANCH   1   5
BRANCH   2  21
HETATM   21  C   UNL     1     -11.700   3.874 -33.967  1.00  0.00     0.134 C 
BRANCH  21  22
HETATM   22  C   UNL     1     -13.041   3.310 -33.489  1.00  0.00     0.128 C 
BRANCH  22  23
HETATM   23  N   UNL     1     -13.099   1.888 -33.150  1.00  0.00    -0.334 N 
HETATM   24  C   UNL     1     -13.796   0.925 -33.802  1.00  0.00     0.314 C 
HETATM   25  N   UNL     1     -13.530  -0.320 -33.341  1.00  0.00    -0.352 N 
HETATM   26  O   UNL     1     -14.626   1.113 -34.679  1.00  0.00    -0.248 OA
HETATM   27  H   UNL     1     -12.587  -0.536 -33.056  1.00  0.00     0.160 HD
HETATM   28  H   UNL     1     -13.992  -1.055 -33.865  1.00  0.00     0.160 HD
HETATM   29  H   UNL     1     -12.454   1.574 -32.440  1.00  0.00     0.165 HD
ENDBRANCH  22  23
BRANCH  22  30
HETATM   30  C   UNL     1     -13.585   4.138 -32.332  1.00  0.00    -0.035 A 
HETATM   31  C   UNL     1     -12.899   4.166 -31.106  1.00  0.00     0.011 A 
HETATM   32  C   UNL     1     -13.397   4.903 -30.029  1.00  0.00     0.024 A 
HETATM   33  C   UNL     1     -14.584   5.616 -30.167  1.00  0.00     0.034 A 
HETATM   34 CL   UNL     1     -15.198   6.520 -28.838  1.00  0.00    -0.084 Cl
HETATM   35  C   UNL     1     -15.280   5.599 -31.373  1.00  0.00     0.024 A 
HETATM   36  C   UNL     1     -14.784   4.860 -32.451  1.00  0.00     0.011 A 
ENDBRANCH  22  30
ENDBRANCH  21  22
ENDBRANCH   2  21
TORSDOF 7
ENDMDL
MODEL 10
REMARK VINA RESULT:      -8.3      2.047      2.670
REMARK  7 active torsions:
REMARK  status: ('A' for Active; 'I' for Inactive)
REMARK    1  A    between atoms: C_4  and  C_5 
REMARK    2  A    between atoms: C_9  and  C_10 
REMARK       I    between atoms: C_10  and  N_11 
REMARK    3  A    between atoms: N_11  and  N_12 
REMARK       I    between atoms: N_12  and  C_13 
REMARK    4  A    between atoms: C_13  and  C_14 
REMARK    5  A    between atoms: C_14  and  C_15 
REMARK    6  A    between atoms: C_15  and  N_16 
REMARK    7  A    between atoms: C_15  and  C_20 
REMARK       I    between atoms: N_16  and  C_17 
REMARK       I    between atoms: C_17  and  N_18 
ROOT
HETATM    1  N   UNL     1      -4.288   2.919 -32.710  1.00  0.00    -0.267 N 
HETATM    2  C   UNL     1      -5.570   2.867 -33.208  1.00  0.00     0.238 C 
HETATM    3  O   UNL     1      -6.320   3.844 -33.218  1.00  0.00    -0.272 OA
HETATM    4  H   UNL     1      -3.592   2.198 -32.938  1.00  0.00     0.190 HD
ENDROOT
BRANCH   1   5
HETATM    5  N   UNL     1      -3.818   4.170 -32.294  1.00  0.00    -0.262 N 
HETATM    6  C   UNL     1      -2.649   4.678 -32.817  1.00  0.00     0.288 C 
HETATM    7  O   UNL     1      -2.052   4.150 -33.751  1.00  0.00    -0.264 OA
HETATM    8  H   UNL     1      -4.267   4.554 -31.467  1.00  0.00     0.190 HD
BRANCH   6   9
HETATM    9  C   UNL     1      -2.173   5.876 -32.179  1.00  0.00     0.121 A 
HETATM   10  N   UNL     1      -0.931   6.385 -32.436  1.00  0.00    -0.272 N 
HETATM   11  N   UNL     1      -0.633   7.491 -31.739  1.00  0.00    -0.174 NA
HETATM   12  H   UNL     1      -0.238   6.005 -33.075  1.00  0.00     0.189 HD
HETATM   13  C   UNL     1      -1.728   7.734 -30.999  1.00  0.00     0.089 A 
HETATM   14  C   UNL     1      -2.718   6.742 -31.252  1.00  0.00     0.071 A 
BRANCH  13  15
HETATM   15  C   UNL     1      -1.802   8.874 -30.076  1.00  0.00    -0.006 A 
HETATM   16  C   UNL     1      -2.434  10.071 -30.448  1.00  0.00     0.014 A 
HETATM   17  C   UNL     1      -2.510  11.145 -29.556  1.00  0.00     0.001 A 
HETATM   18  C   UNL     1      -1.957  11.038 -28.283  1.00  0.00     0.000 A 
HETATM   19  C   UNL     1      -1.322   9.859 -27.900  1.00  0.00     0.001 A 
HETATM   20  C   UNL     1      -1.244   8.786 -28.792  1.00  0.00     0.014 A 
ENDBRANCH  13  15
ENDBRANCH   6   9
ENDBRANCH   1   5
BRANCH   2  21
HETATM   21  C   UNL     1      -5.991   1.524 -33.743  1.00  0.00     0.134 C 
BRANCH  21  22
HETATM   22  C   UNL     1      -5.499   0.403 -32.823  1.00  0.00     0.128 C 
BRANCH  22  23
HETATM   23  N   UNL     1      -6.051   0.343 -31.469  1.00  0.00    -0.334 N 
HETATM   24  C   UNL     1      -5.444   0.748 -30.326  1.00  0.00     0.314 C 
HETATM   25  N   UNL     1      -6.265   0.705 -29.251  1.00  0.00    -0.352 N 
HETATM   26  O   UNL     1      -4.272   1.073 -30.215  1.00  0.00    -0.248 OA
HETATM   27  H   UNL     1      -7.237   0.947 -29.378  1.00  0.00     0.160 HD
HETATM   28  H   UNL     1      -5.846   1.070 -28.403  1.00  0.00     0.160 HD
HETATM   29  H   UNL     1      -7.026   0.096 -31.397  1.00  0.00     0.165 HD
ENDBRANCH  22  23
BRANCH  22  30
HETATM   30  C   UNL     1      -5.655  -0.951 -33.504  1.00  0.00    -0.035 A 
HETATM   31  C   UNL     1      -4.520  -1.729 -33.785  1.00  0.00     0.011 A 
HETATM   32  C   UNL     1      -4.644  -2.962 -34.430  1.00  0.00     0.024 A 
HETATM   33  C   UNL     1      -5.903  -3.427 -34.798  1.00  0.00     0.034 A 
HETATM   34 CL   UNL     1      -6.054  -4.945 -35.594  1.00  0.00    -0.084 Cl
HETATM   35  C   UNL     1      -7.040  -2.670 -34.529  1.00  0.00     0.024 A 
HETATM   36  C   UNL     1      -6.917  -1.434 -33.888  1.00  0.00     0.011 A 
ENDBRANCH  22  30
ENDBRANCH  21  22
ENDBRANCH   2  21
TORSDOF 7
ENDMDL
