MODEL 1
REMARK VINA RESULT:      -9.5      0.000      0.000
REMARK  5 active torsions:
REMARK  status: ('A' for Active; 'I' for Inactive)
REMARK    1  A    between atoms: C_14  and  C_15 
REMARK    2  A    between atoms: C_15  and  C_16 
REMARK    3  A    between atoms: C_16  and  C_17 
REMARK       I    between atoms: C_17  and  N_18 
REMARK    4  A    between atoms: N_21  and  C_22 
REMARK    5  A    between atoms: C_23  and  O_24 
ROOT
HETATM    1  C   UNL     1      -9.071   1.941 -31.224  1.00  0.00     0.051 C 
ENDROOT
BRANCH   1   2
HETATM    2  C   UNL     1      -8.928   1.360 -32.602  1.00  0.00    -0.017 A 
HETATM    3  C   UNL     1      -7.819   0.541 -33.014  1.00  0.00    -0.000 A 
HETATM    4  C   UNL     1      -6.652   0.073 -32.370  1.00  0.00     0.021 A 
HETATM    5  C   UNL     1      -8.035   0.170 -34.334  1.00  0.00     0.043 A 
HETATM    6  C   UNL     1      -5.738  -0.735 -33.068  1.00  0.00    -0.061 A 
HETATM    7  C   UNL     1      -4.515  -1.266 -32.378  1.00  0.00     0.048 C 
HETATM    8  C   UNL     1      -6.002  -1.089 -34.394  1.00  0.00     0.009 A 
HETATM    9  C   UNL     1      -7.151  -0.641 -35.054  1.00  0.00     0.031 A 
HETATM   10  N   UNL     1      -9.225   0.734 -34.713  1.00  0.00    -0.354 N 
HETATM   11  H   UNL     1      -9.646   0.626 -35.624  1.00  0.00     0.166 HD
HETATM   12  C   UNL     1      -9.791   1.465 -33.690  1.00  0.00     0.057 A 
HETATM   13  C   UNL     1     -11.053   2.143 -33.876  1.00  0.00     0.032 A 
HETATM   14  S   UNL     1     -12.109   1.713 -35.171  1.00  0.00    -0.100 SA
HETATM   15  C   UNL     1     -11.601   3.172 -33.133  1.00  0.00     0.021 A 
HETATM   16  C   UNL     1     -13.271   2.877 -34.719  1.00  0.00     0.050 A 
HETATM   17  C   UNL     1     -12.877   3.593 -33.613  1.00  0.00     0.008 A 
ENDBRANCH   1   2
BRANCH   1  18
HETATM   18  C   UNL     1      -8.630   3.404 -31.170  1.00  0.00     0.108 C 
BRANCH  18  19
HETATM   19  C   UNL     1      -7.259   3.553 -30.536  1.00  0.00     0.220 C 
HETATM   20  N   UNL     1      -6.333   4.334 -31.214  1.00  0.00    -0.349 N 
HETATM   21  C   UNL     1      -6.512   4.892 -32.560  1.00  0.00     0.145 C 
HETATM   22  C   UNL     1      -4.953   4.386 -30.717  1.00  0.00     0.145 C 
HETATM   23  C   UNL     1      -5.874   6.289 -32.715  1.00  0.00     0.143 C 
HETATM   24  N   UNL     1      -4.508   6.393 -32.157  1.00  0.00    -0.376 N 
HETATM   25  C   UNL     1      -4.373   5.805 -30.796  1.00  0.00     0.143 C 
HETATM   26  O   UNL     1      -6.992   3.014 -29.463  1.00  0.00    -0.273 OA
BRANCH  24  27
HETATM   27  C   UNL     1      -3.402   6.181 -32.993  1.00  0.00     0.063 A 
HETATM   28  C   UNL     1      -2.366   7.137 -33.004  1.00  0.00     0.092 A 
HETATM   29  C   UNL     1      -1.214   6.998 -33.772  1.00  0.00     0.039 A 
HETATM   30  C   UNL     1      -1.081   5.882 -34.590  1.00  0.00     0.003 A 
HETATM   31  C   UNL     1      -2.100   4.931 -34.633  1.00  0.00     0.002 A 
HETATM   32  C   UNL     1      -3.252   5.083 -33.845  1.00  0.00     0.032 A 
BRANCH  28  33
HETATM   33  O   UNL     1      -2.517   8.292 -32.279  1.00  0.00    -0.358 OA
HETATM   34  H   UNL     1      -3.356   8.658 -32.624  1.00  0.00     0.218 HD
ENDBRANCH  28  33
ENDBRANCH  24  27
ENDBRANCH  18  19
ENDBRANCH   1  18
TORSDOF 5
ENDMDL
MODEL 2
REMARK VINA RESULT:      -9.2      2.185      3.504
REMARK  5 active torsions:
REMARK  status: ('A' for Active; 'I' for Inactive)
REMARK    1  A    between atoms: C_14  and  C_15 
REMARK    2  A    between atoms: C_15  and  C_16 
REMARK    3  A    between atoms: C_16  and  C_17 
REMARK       I    between atoms: C_17  and  N_18 
REMARK    4  A    between atoms: N_21  and  C_22 
REMARK    5  A    between atoms: C_23  and  O_24 
ROOT
HETATM    1  C   UNL     1      -4.438   0.232 -32.928  1.00  0.00     0.051 C 
ENDROOT
BRANCH   1   2
HETATM    2  C   UNL     1      -5.485  -0.593 -33.619  1.00  0.00    -0.017 A 
HETATM    3  C   UNL     1      -5.327  -1.990 -33.930  1.00  0.00    -0.000 A 
HETATM    4  C   UNL     1      -4.289  -2.928 -33.731  1.00  0.00     0.021 A 
HETATM    5  C   UNL     1      -6.496  -2.421 -34.541  1.00  0.00     0.043 A 
HETATM    6  C   UNL     1      -4.449  -4.257 -34.161  1.00  0.00    -0.061 A 
HETATM    7  C   UNL     1      -3.366  -5.267 -33.920  1.00  0.00     0.048 C 
HETATM    8  C   UNL     1      -5.648  -4.647 -34.765  1.00  0.00     0.009 A 
HETATM    9  C   UNL     1      -6.691  -3.738 -34.971  1.00  0.00     0.031 A 
HETATM   10  N   UNL     1      -7.333  -1.339 -34.600  1.00  0.00    -0.354 N 
HETATM   11  H   UNL     1      -8.267  -1.357 -34.986  1.00  0.00     0.166 HD
HETATM   12  C   UNL     1      -6.752  -0.215 -34.054  1.00  0.00     0.057 A 
HETATM   13  C   UNL     1      -7.466   1.041 -34.011  1.00  0.00     0.032 A 
HETATM   14  S   UNL     1      -9.181   1.093 -34.202  1.00  0.00    -0.100 SA
HETATM   15  C   UNL     1      -6.965   2.317 -33.836  1.00  0.00     0.021 A 
HETATM   16  C   UNL     1      -9.229   2.791 -34.035  1.00  0.00     0.050 A 
HETATM   17  C   UNL     1      -7.977   3.324 -33.846  1.00  0.00     0.008 A 
ENDBRANCH   1   2
BRANCH   1  18
HETATM   18  C   UNL     1      -4.613   0.226 -31.409  1.00  0.00     0.108 C 
BRANCH  18  19
HETATM   19  C   UNL     1      -5.287   1.493 -30.917  1.00  0.00     0.220 C 
HETATM   20  N   UNL     1      -4.704   2.699 -31.282  1.00  0.00    -0.349 N 
HETATM   21  C   UNL     1      -3.412   2.849 -31.962  1.00  0.00     0.145 C 
HETATM   22  C   UNL     1      -5.232   3.942 -30.708  1.00  0.00     0.145 C 
HETATM   23  C   UNL     1      -3.400   4.022 -32.965  1.00  0.00     0.143 C 
HETATM   24  N   UNL     1      -3.994   5.271 -32.441  1.00  0.00    -0.376 N 
HETATM   25  C   UNL     1      -5.297   5.068 -31.750  1.00  0.00     0.143 C 
HETATM   26  O   UNL     1      -6.311   1.447 -30.236  1.00  0.00    -0.273 OA
BRANCH  24  27
HETATM   27  C   UNL     1      -3.164   6.232 -31.844  1.00  0.00     0.063 A 
HETATM   28  C   UNL     1      -2.507   7.168 -32.670  1.00  0.00     0.092 A 
HETATM   29  C   UNL     1      -1.694   8.180 -32.170  1.00  0.00     0.039 A 
HETATM   30  C   UNL     1      -1.491   8.264 -30.798  1.00  0.00     0.003 A 
HETATM   31  C   UNL     1      -2.095   7.336 -29.951  1.00  0.00     0.002 A 
HETATM   32  C   UNL     1      -2.920   6.326 -30.471  1.00  0.00     0.032 A 
BRANCH  28  33
HETATM   33  O   UNL     1      -2.616   7.046 -34.032  1.00  0.00    -0.358 OA
HETATM   34  H   UNL     1      -1.733   7.327 -34.347  1.00  0.00     0.218 HD
ENDBRANCH  28  33
ENDBRANCH  24  27
ENDBRANCH  18  19
ENDBRANCH   1  18
TORSDOF 5
ENDMDL
MODEL 3
REMARK VINA RESULT:      -9.0      3.095      5.518
REMARK  5 active torsions:
REMARK  status: ('A' for Active; 'I' for Inactive)
REMARK    1  A    between atoms: C_14  and  C_15 
REMARK    2  A    between atoms: C_15  and  C_16 
REMARK    3  A    between atoms: C_16  and  C_17 
REMARK       I    between atoms: C_17  and  N_18 
REMARK    4  A    between atoms: N_21  and  C_22 
REMARK    5  A    between atoms: C_23  and  O_24 
ROOT
HETATM    1  C   UNL     1      -6.259   2.784 -34.532  1.00  0.00     0.051 C 
ENDROOT
BRANCH   1   2
HETATM    2  C   UNL     1      -7.054   1.712 -33.845  1.00  0.00    -0.017 A 
HETATM    3  C   UNL     1      -8.491   1.641 -33.868  1.00  0.00    -0.000 A 
HETATM    4  C   UNL     1      -9.503   2.437 -34.449  1.00  0.00     0.021 A 
HETATM    5  C   UNL     1      -8.871   0.514 -33.151  1.00  0.00     0.043 A 
HETATM    6  C   UNL     1     -10.855   2.089 -34.284  1.00  0.00    -0.061 A 
HETATM    7  C   UNL     1     -11.933   2.909 -34.930  1.00  0.00     0.048 C 
HETATM    8  C   UNL     1     -11.189   0.940 -33.560  1.00  0.00     0.009 A 
HETATM    9  C   UNL     1     -10.206   0.134 -32.977  1.00  0.00     0.031 A 
HETATM   10  N   UNL     1      -7.717  -0.080 -32.712  1.00  0.00    -0.354 N 
HETATM   11  H   UNL     1      -7.683  -0.932 -32.170  1.00  0.00     0.166 HD
HETATM   12  C   UNL     1      -6.599   0.619 -33.110  1.00  0.00     0.057 A 
HETATM   13  C   UNL     1      -5.275   0.163 -32.754  1.00  0.00     0.032 A 
HETATM   14  S   UNL     1      -5.006  -1.462 -32.239  1.00  0.00    -0.100 SA
HETATM   15  C   UNL     1      -4.087   0.869 -32.750  1.00  0.00     0.021 A 
HETATM   16  C   UNL     1      -3.331  -1.206 -32.035  1.00  0.00     0.050 A 
HETATM   17  C   UNL     1      -2.968   0.084 -32.340  1.00  0.00     0.008 A 
ENDBRANCH   1   2
BRANCH   1  18
HETATM   18  C   UNL     1      -6.036   3.999 -33.630  1.00  0.00     0.108 C 
BRANCH  18  19
HETATM   19  C   UNL     1      -4.798   4.778 -34.036  1.00  0.00     0.220 C 
HETATM   20  N   UNL     1      -3.783   4.884 -33.094  1.00  0.00    -0.349 N 
HETATM   21  C   UNL     1      -3.871   4.447 -31.696  1.00  0.00     0.145 C 
HETATM   22  C   UNL     1      -2.636   5.750 -33.386  1.00  0.00     0.145 C 
HETATM   23  C   UNL     1      -2.539   3.871 -31.168  1.00  0.00     0.143 C 
HETATM   24  N   UNL     1      -1.353   4.686 -31.510  1.00  0.00    -0.376 N 
HETATM   25  C   UNL     1      -1.313   5.114 -32.935  1.00  0.00     0.143 C 
HETATM   26  O   UNL     1      -4.701   5.281 -35.155  1.00  0.00    -0.273 OA
BRANCH  24  27
HETATM   27  C   UNL     1      -0.892   5.650 -30.600  1.00  0.00     0.063 A 
HETATM   28  C   UNL     1       0.183   5.320 -29.749  1.00  0.00     0.092 A 
HETATM   29  C   UNL     1       0.733   6.219 -28.841  1.00  0.00     0.039 A 
HETATM   30  C   UNL     1       0.188   7.493 -28.741  1.00  0.00     0.003 A 
HETATM   31  C   UNL     1      -0.898   7.845 -29.541  1.00  0.00     0.002 A 
HETATM   32  C   UNL     1      -1.435   6.930 -30.459  1.00  0.00     0.032 A 
BRANCH  28  33
HETATM   33  O   UNL     1       0.675   4.039 -29.762  1.00  0.00    -0.358 OA
HETATM   34  H   UNL     1       1.622   4.171 -29.968  1.00  0.00     0.218 HD
ENDBRANCH  28  33
ENDBRANCH  24  27
ENDBRANCH  18  19
ENDBRANCH   1  18
TORSDOF 5
ENDMDL
MODEL 4
REMARK VINA RESULT:      -9.0      3.399      7.200
REMARK  5 active torsions:
REMARK  status: ('A' for Active; 'I' for Inactive)
REMARK    1  A    between atoms: C_14  and  C_15 
REMARK    2  A    between atoms: C_15  and  C_16 
REMARK    3  A    between atoms: C_16  and  C_17 
REMARK       I    between atoms: C_17  and  N_18 
REMARK    4  A    between atoms: N_21  and  C_22 
REMARK    5  A    between atoms: C_23  and  O_24 
ROOT
HETATM    1  C   UNL     1      -7.768   0.855 -34.476  1.00  0.00     0.051 C 
ENDROOT
BRANCH   1   2
HETATM    2  C   UNL     1      -6.481   0.293 -33.945  1.00  0.00    -0.017 A 
HETATM    3  C   UNL     1      -6.065  -1.072 -34.134  1.00  0.00    -0.000 A 
HETATM    4  C   UNL     1      -6.638  -2.191 -34.778  1.00  0.00     0.021 A 
HETATM    5  C   UNL     1      -4.824  -1.223 -33.530  1.00  0.00     0.043 A 
HETATM    6  C   UNL     1      -5.958  -3.422 -34.786  1.00  0.00    -0.061 A 
HETATM    7  C   UNL     1      -6.543  -4.605 -35.501  1.00  0.00     0.048 C 
HETATM    8  C   UNL     1      -4.707  -3.524 -34.172  1.00  0.00     0.009 A 
HETATM    9  C   UNL     1      -4.118  -2.430 -33.530  1.00  0.00     0.031 A 
HETATM   10  N   UNL     1      -4.493  -0.004 -32.999  1.00  0.00    -0.354 N 
HETATM   11  H   UNL     1      -3.633   0.191 -32.507  1.00  0.00     0.166 HD
HETATM   12  C   UNL     1      -5.475   0.936 -33.228  1.00  0.00     0.057 A 
HETATM   13  C   UNL     1      -5.325   2.292 -32.753  1.00  0.00     0.032 A 
HETATM   14  S   UNL     1      -3.778   2.910 -32.305  1.00  0.00    -0.100 SA
HETATM   15  C   UNL     1      -6.297   3.259 -32.574  1.00  0.00     0.021 A 
HETATM   16  C   UNL     1      -4.415   4.440 -31.900  1.00  0.00     0.050 A 
HETATM   17  C   UNL     1      -5.775   4.495 -32.087  1.00  0.00     0.008 A 
ENDBRANCH   1   2
BRANCH   1  18
HETATM   18  C   UNL     1      -8.980   0.353 -33.690  1.00  0.00     0.108 C 
BRANCH  18  19
HETATM   19  C   UNL     1      -9.466   1.385 -32.688  1.00  0.00     0.220 C 
HETATM   20  N   UNL     1     -10.418   2.293 -33.131  1.00  0.00    -0.349 N 
HETATM   21  C   UNL     1     -10.873   2.441 -34.519  1.00  0.00     0.145 C 
HETATM   22  C   UNL     1     -10.806   3.398 -32.247  1.00  0.00     0.145 C 
HETATM   23  C   UNL     1     -12.374   2.787 -34.619  1.00  0.00     0.143 C 
HETATM   24  N   UNL     1     -12.812   3.848 -33.687  1.00  0.00    -0.376 N 
HETATM   25  C   UNL     1     -12.318   3.662 -32.295  1.00  0.00     0.143 C 
HETATM   26  O   UNL     1      -9.039   1.402 -31.534  1.00  0.00    -0.273 OA
BRANCH  24  27
HETATM   27  C   UNL     1     -12.835   5.182 -34.121  1.00  0.00     0.063 A 
HETATM   28  C   UNL     1     -13.953   5.980 -33.803  1.00  0.00     0.092 A 
HETATM   29  C   UNL     1     -14.052   7.322 -34.158  1.00  0.00     0.039 A 
HETATM   30  C   UNL     1     -13.019   7.905 -34.881  1.00  0.00     0.003 A 
HETATM   31  C   UNL     1     -11.911   7.139 -35.244  1.00  0.00     0.002 A 
HETATM   32  C   UNL     1     -11.823   5.789 -34.871  1.00  0.00     0.032 A 
BRANCH  28  33
HETATM   33  O   UNL     1     -15.027   5.402 -33.174  1.00  0.00    -0.358 OA
HETATM   34  H   UNL     1     -14.819   5.531 -32.226  1.00  0.00     0.218 HD
ENDBRANCH  28  33
ENDBRANCH  24  27
ENDBRANCH  18  19
ENDBRANCH   1  18
TORSDOF 5
ENDMDL
MODEL 5
REMARK VINA RESULT:      -8.8      4.073      6.869
REMARK  5 active torsions:
REMARK  status: ('A' for Active; 'I' for Inactive)
REMARK    1  A    between atoms: C_14  and  C_15 
REMARK    2  A    between atoms: C_15  and  C_16 
REMARK    3  A    between atoms: C_16  and  C_17 
REMARK       I    between atoms: C_17  and  N_18 
REMARK    4  A    between atoms: N_21  and  C_22 
REMARK    5  A    between atoms: C_23  and  O_24 
ROOT
HETATM    1  C   UNL     1      -8.698  -0.030 -32.735  1.00  0.00     0.051 C 
ENDROOT
BRANCH   1   2
HETATM    2  C   UNL     1      -7.210  -0.225 -32.778  1.00  0.00    -0.017 A 
HETATM    3  C   UNL     1      -6.564  -1.312 -33.466  1.00  0.00    -0.000 A 
HETATM    4  C   UNL     1      -7.032  -2.412 -34.219  1.00  0.00     0.021 A 
HETATM    5  C   UNL     1      -5.194  -1.157 -33.309  1.00  0.00     0.043 A 
HETATM    6  C   UNL     1      -6.118  -3.323 -34.777  1.00  0.00    -0.061 A 
HETATM    7  C   UNL     1      -6.607  -4.472 -35.610  1.00  0.00     0.048 C 
HETATM    8  C   UNL     1      -4.746  -3.121 -34.600  1.00  0.00     0.009 A 
HETATM    9  C   UNL     1      -4.258  -2.039 -33.861  1.00  0.00     0.031 A 
HETATM   10  N   UNL     1      -5.008  -0.024 -32.562  1.00  0.00    -0.354 N 
HETATM   11  H   UNL     1      -4.106   0.347 -32.299  1.00  0.00     0.166 HD
HETATM   12  C   UNL     1      -6.207   0.564 -32.220  1.00  0.00     0.057 A 
HETATM   13  C   UNL     1      -6.239   1.775 -31.433  1.00  0.00     0.032 A 
HETATM   14  S   UNL     1      -4.839   2.772 -31.281  1.00  0.00    -0.100 SA
HETATM   15  C   UNL     1      -7.290   2.312 -30.713  1.00  0.00     0.021 A 
HETATM   16  C   UNL     1      -5.647   3.896 -30.285  1.00  0.00     0.050 A 
HETATM   17  C   UNL     1      -6.953   3.533 -30.055  1.00  0.00     0.008 A 
ENDBRANCH   1   2
BRANCH   1  18
HETATM   18  C   UNL     1      -9.216   0.704 -33.973  1.00  0.00     0.108 C 
BRANCH  18  19
HETATM   19  C   UNL     1     -10.651   1.164 -33.792  1.00  0.00     0.220 C 
HETATM   20  N   UNL     1     -10.914   2.508 -34.018  1.00  0.00    -0.349 N 
HETATM   21  C   UNL     1      -9.903   3.546 -34.259  1.00  0.00     0.145 C 
HETATM   22  C   UNL     1     -12.252   3.028 -33.712  1.00  0.00     0.145 C 
HETATM   23  C   UNL     1     -10.375   4.613 -35.270  1.00  0.00     0.143 C 
HETATM   24  N   UNL     1     -11.750   5.104 -35.031  1.00  0.00    -0.376 N 
HETATM   25  C   UNL     1     -12.737   4.018 -34.781  1.00  0.00     0.143 C 
HETATM   26  O   UNL     1     -11.538   0.374 -33.471  1.00  0.00    -0.273 OA
BRANCH  24  27
HETATM   27  C   UNL     1     -11.946   6.256 -34.256  1.00  0.00     0.063 A 
HETATM   28  C   UNL     1     -12.351   7.445 -34.898  1.00  0.00     0.092 A 
HETATM   29  C   UNL     1     -12.605   8.628 -34.211  1.00  0.00     0.039 A 
HETATM   30  C   UNL     1     -12.430   8.657 -32.833  1.00  0.00     0.003 A 
HETATM   31  C   UNL     1     -11.997   7.511 -32.166  1.00  0.00     0.002 A 
HETATM   32  C   UNL     1     -11.753   6.324 -32.873  1.00  0.00     0.032 A 
BRANCH  28  33
HETATM   33  O   UNL     1     -12.438   7.467 -36.267  1.00  0.00    -0.358 OA
HETATM   34  H   UNL     1     -13.333   7.830 -36.422  1.00  0.00     0.218 HD
ENDBRANCH  28  33
ENDBRANCH  24  27
ENDBRANCH  18  19
ENDBRANCH   1  18
TORSDOF 5
ENDMDL
MODEL 6
REMARK VINA RESULT:      -8.5      4.273      9.181
REMARK  5 active torsions:
REMARK  status: ('A' for Active; 'I' for Inactive)
REMARK    1  A    between atoms: C_14  and  C_15 
REMARK    2  A    between atoms: C_15  and  C_16 
REMARK    3  A    between atoms: C_16  and  C_17 
REMARK       I    between atoms: C_17  and  N_18 
REMARK    4  A    between atoms: N_21  and  C_22 
REMARK    5  A    between atoms: C_23  and  O_24 
ROOT
HETATM    1  C   UNL     1      -1.472   8.028 -31.272  1.00  0.00     0.051 C 
ENDROOT
BRANCH   1   2
HETATM    2  C   UNL     1      -2.335   7.638 -30.107  1.00  0.00    -0.017 A 
HETATM    3  C   UNL     1      -3.748   7.383 -30.206  1.00  0.00    -0.000 A 
HETATM    4  C   UNL     1      -4.677   7.413 -31.270  1.00  0.00     0.021 A 
HETATM    5  C   UNL     1      -4.204   7.029 -28.944  1.00  0.00     0.043 A 
HETATM    6  C   UNL     1      -6.028   7.103 -31.033  1.00  0.00    -0.061 A 
HETATM    7  C   UNL     1      -7.013   7.096 -32.166  1.00  0.00     0.048 C 
HETATM    8  C   UNL     1      -6.439   6.744 -29.746  1.00  0.00     0.009 A 
HETATM    9  C   UNL     1      -5.538   6.705 -28.677  1.00  0.00     0.031 A 
HETATM   10  N   UNL     1      -3.118   7.063 -28.109  1.00  0.00    -0.354 N 
HETATM   11  H   UNL     1      -3.145   6.838 -27.124  1.00  0.00     0.166 HD
HETATM   12  C   UNL     1      -1.971   7.431 -28.778  1.00  0.00     0.057 A 
HETATM   13  C   UNL     1      -0.707   7.527 -28.084  1.00  0.00     0.032 A 
HETATM   14  S   UNL     1      -0.477   6.766 -26.552  1.00  0.00    -0.100 SA
HETATM   15  C   UNL     1       0.444   8.188 -28.468  1.00  0.00     0.021 A 
HETATM   16  C   UNL     1       1.136   7.308 -26.434  1.00  0.00     0.050 A 
HETATM   17  C   UNL     1       1.506   8.060 -27.523  1.00  0.00     0.008 A 
ENDBRANCH   1   2
BRANCH   1  18
HETATM   18  C   UNL     1      -0.855   6.811 -31.962  1.00  0.00     0.108 C 
BRANCH  18  19
HETATM   19  C   UNL     1      -1.729   6.305 -33.095  1.00  0.00     0.220 C 
HETATM   20  N   UNL     1      -2.521   5.195 -32.833  1.00  0.00    -0.349 N 
HETATM   21  C   UNL     1      -2.465   4.378 -31.614  1.00  0.00     0.145 C 
HETATM   22  C   UNL     1      -3.267   4.582 -33.937  1.00  0.00     0.145 C 
HETATM   23  C   UNL     1      -3.853   3.859 -31.182  1.00  0.00     0.143 C 
HETATM   24  N   UNL     1      -4.660   3.302 -32.289  1.00  0.00    -0.376 N 
HETATM   25  C   UNL     1      -4.678   4.159 -33.505  1.00  0.00     0.143 C 
HETATM   26  O   UNL     1      -1.740   6.867 -34.190  1.00  0.00    -0.273 OA
BRANCH  24  27
HETATM   27  C   UNL     1      -4.615   1.924 -32.550  1.00  0.00     0.063 A 
HETATM   28  C   UNL     1      -5.818   1.249 -32.843  1.00  0.00     0.092 A 
HETATM   29  C   UNL     1      -5.871  -0.107 -33.151  1.00  0.00     0.039 A 
HETATM   30  C   UNL     1      -4.693  -0.845 -33.144  1.00  0.00     0.003 A 
HETATM   31  C   UNL     1      -3.488  -0.220 -32.824  1.00  0.00     0.002 A 
HETATM   32  C   UNL     1      -3.451   1.150 -32.525  1.00  0.00     0.032 A 
BRANCH  28  33
HETATM   33  O   UNL     1      -7.004   1.935 -32.763  1.00  0.00    -0.358 OA
HETATM   34  H   UNL     1      -7.467   1.667 -33.582  1.00  0.00     0.218 HD
ENDBRANCH  28  33
ENDBRANCH  24  27
ENDBRANCH  18  19
ENDBRANCH   1  18
TORSDOF 5
ENDMDL
MODEL 7
REMARK VINA RESULT:      -8.5      2.495      3.302
REMARK  5 active torsions:
REMARK  status: ('A' for Active; 'I' for Inactive)
REMARK    1  A    between atoms: C_14  and  C_15 
REMARK    2  A    between atoms: C_15  and  C_16 
REMARK    3  A    between atoms: C_16  and  C_17 
REMARK       I    between atoms: C_17  and  N_18 
REMARK    4  A    between atoms: N_21  and  C_22 
REMARK    5  A    between atoms: C_23  and  O_24 
ROOT
HETATM    1  C   UNL     1      -6.669   2.912 -32.641  1.00  0.00     0.051 C 
ENDROOT
BRANCH   1   2
HETATM    2  C   UNL     1      -7.331   1.848 -33.468  1.00  0.00    -0.017 A 
HETATM    3  C   UNL     1      -6.759   0.548 -33.708  1.00  0.00    -0.000 A 
HETATM    4  C   UNL     1      -5.556  -0.081 -33.316  1.00  0.00     0.021 A 
HETATM    5  C   UNL     1      -7.654  -0.170 -34.488  1.00  0.00     0.043 A 
HETATM    6  C   UNL     1      -5.285  -1.398 -33.727  1.00  0.00    -0.061 A 
HETATM    7  C   UNL     1      -4.028  -2.086 -33.283  1.00  0.00     0.048 C 
HETATM    8  C   UNL     1      -6.221  -2.085 -34.505  1.00  0.00     0.009 A 
HETATM    9  C   UNL     1      -7.420  -1.485 -34.904  1.00  0.00     0.031 A 
HETATM   10  N   UNL     1      -8.728   0.651 -34.713  1.00  0.00    -0.354 N 
HETATM   11  H   UNL     1      -9.547   0.390 -35.244  1.00  0.00     0.166 HD
HETATM   12  C   UNL     1      -8.564   1.881 -34.113  1.00  0.00     0.057 A 
HETATM   13  C   UNL     1      -9.583   2.900 -34.224  1.00  0.00     0.032 A 
HETATM   14  S   UNL     1     -11.194   2.496 -34.691  1.00  0.00    -0.100 SA
HETATM   15  C   UNL     1      -9.474   4.261 -34.008  1.00  0.00     0.021 A 
HETATM   16  C   UNL     1     -11.718   4.116 -34.585  1.00  0.00     0.050 A 
HETATM   17  C   UNL     1     -10.701   4.961 -34.212  1.00  0.00     0.008 A 
ENDBRANCH   1   2
BRANCH   1  18
HETATM   18  C   UNL     1      -5.519   3.587 -33.389  1.00  0.00     0.108 C 
BRANCH  18  19
HETATM   19  C   UNL     1      -5.413   5.061 -33.044  1.00  0.00     0.220 C 
HETATM   20  N   UNL     1      -4.242   5.481 -32.429  1.00  0.00    -0.349 N 
HETATM   21  C   UNL     1      -3.171   4.601 -31.943  1.00  0.00     0.145 C 
HETATM   22  C   UNL     1      -4.155   6.863 -31.942  1.00  0.00     0.145 C 
HETATM   23  C   UNL     1      -1.767   5.213 -32.131  1.00  0.00     0.143 C 
HETATM   24  N   UNL     1      -1.666   6.630 -31.717  1.00  0.00    -0.376 N 
HETATM   25  C   UNL     1      -2.777   7.480 -32.224  1.00  0.00     0.143 C 
HETATM   26  O   UNL     1      -6.324   5.844 -33.310  1.00  0.00    -0.273 OA
BRANCH  24  27
HETATM   27  C   UNL     1      -1.244   6.940 -30.416  1.00  0.00     0.063 A 
HETATM   28  C   UNL     1       0.128   7.175 -30.185  1.00  0.00     0.092 A 
HETATM   29  C   UNL     1       0.637   7.525 -28.939  1.00  0.00     0.039 A 
HETATM   30  C   UNL     1      -0.232   7.623 -27.859  1.00  0.00     0.003 A 
HETATM   31  C   UNL     1      -1.591   7.364 -28.040  1.00  0.00     0.002 A 
HETATM   32  C   UNL     1      -2.090   7.021 -29.306  1.00  0.00     0.032 A 
BRANCH  28  33
HETATM   33  O   UNL     1       1.018   6.991 -31.214  1.00  0.00    -0.358 OA
HETATM   34  H   UNL     1       0.440   6.981 -32.003  1.00  0.00     0.218 HD
ENDBRANCH  28  33
ENDBRANCH  24  27
ENDBRANCH  18  19
ENDBRANCH   1  18
TORSDOF 5
ENDMDL
MODEL 8
REMARK VINA RESULT:      -8.5      4.004      7.128
REMARK  5 active torsions:
REMARK  status: ('A' for Active; 'I' for Inactive)
REMARK    1  A    between atoms: C_14  and  C_15 
REMARK    2  A    between atoms: C_15  and  C_16 
REMARK    3  A    between atoms: C_16  and  C_17 
REMARK       I    between atoms: C_17  and  N_18 
REMARK    4  A    between atoms: N_21  and  C_22 
REMARK    5  A    between atoms: C_23  and  O_24 
ROOT
HETATM    1  C   UNL     1     -10.179   3.552 -34.689  1.00  0.00     0.051 C 
ENDROOT
BRANCH   1   2
HETATM    2  C   UNL     1     -11.572   4.052 -34.436  1.00  0.00    -0.017 A 
HETATM    3  C   UNL     1     -11.952   5.438 -34.512  1.00  0.00    -0.000 A 
HETATM    4  C   UNL     1     -11.253   6.632 -34.801  1.00  0.00     0.021 A 
HETATM    5  C   UNL     1     -13.311   5.520 -34.241  1.00  0.00     0.043 A 
HETATM    6  C   UNL     1     -11.932   7.863 -34.796  1.00  0.00    -0.061 A 
HETATM    7  C   UNL     1     -11.204   9.130 -35.139  1.00  0.00     0.048 C 
HETATM    8  C   UNL     1     -13.303   7.895 -34.526  1.00  0.00     0.009 A 
HETATM    9  C   UNL     1     -14.017   6.727 -34.239  1.00  0.00     0.031 A 
HETATM   10  N   UNL     1     -13.745   4.241 -34.012  1.00  0.00    -0.354 N 
HETATM   11  H   UNL     1     -14.700   3.989 -33.801  1.00  0.00     0.166 HD
HETATM   12  C   UNL     1     -12.718   3.327 -34.118  1.00  0.00     0.057 A 
HETATM   13  C   UNL     1     -12.959   1.917 -33.916  1.00  0.00     0.032 A 
HETATM   14  S   UNL     1     -14.557   1.270 -33.993  1.00  0.00    -0.100 SA
HETATM   15  C   UNL     1     -12.049   0.913 -33.640  1.00  0.00     0.021 A 
HETATM   16  C   UNL     1     -14.017  -0.318 -33.677  1.00  0.00     0.050 A 
HETATM   17  C   UNL     1     -12.655  -0.372 -33.506  1.00  0.00     0.008 A 
ENDBRANCH   1   2
BRANCH   1  18
HETATM   18  C   UNL     1      -9.241   3.851 -33.519  1.00  0.00     0.108 C 
BRANCH  18  19
HETATM   19  C   UNL     1      -9.124   2.666 -32.577  1.00  0.00     0.220 C 
HETATM   20  N   UNL     1      -8.162   1.713 -32.882  1.00  0.00    -0.349 N 
HETATM   21  C   UNL     1      -7.364   1.671 -34.113  1.00  0.00     0.145 C 
HETATM   22  C   UNL     1      -8.113   0.480 -32.088  1.00  0.00     0.145 C 
HETATM   23  C   UNL     1      -5.923   1.174 -33.871  1.00  0.00     0.143 C 
HETATM   24  N   UNL     1      -5.835  -0.027 -33.013  1.00  0.00    -0.376 N 
HETATM   25  C   UNL     1      -6.668   0.056 -31.782  1.00  0.00     0.143 C 
HETATM   26  O   UNL     1      -9.845   2.567 -31.585  1.00  0.00    -0.273 OA
BRANCH  24  27
HETATM   27  C   UNL     1      -5.800  -1.299 -33.605  1.00  0.00     0.063 A 
HETATM   28  C   UNL     1      -4.580  -2.006 -33.624  1.00  0.00     0.092 A 
HETATM   29  C   UNL     1      -4.454  -3.285 -34.155  1.00  0.00     0.039 A 
HETATM   30  C   UNL     1      -5.569  -3.892 -34.721  1.00  0.00     0.003 A 
HETATM   31  C   UNL     1      -6.785  -3.211 -34.752  1.00  0.00     0.002 A 
HETATM   32  C   UNL     1      -6.898  -1.924 -34.204  1.00  0.00     0.032 A 
BRANCH  28  33
HETATM   33  O   UNL     1      -3.445  -1.389 -33.158  1.00  0.00    -0.358 OA
HETATM   34  H   UNL     1      -3.746  -0.472 -32.998  1.00  0.00     0.218 HD
ENDBRANCH  28  33
ENDBRANCH  24  27
ENDBRANCH  18  19
ENDBRANCH   1  18
TORSDOF 5
ENDMDL
MODEL 9
REMARK VINA RESULT:      -8.5      1.796      2.167
REMARK  5 active torsions:
REMARK  status: ('A' for Active; 'I' for Inactive)
REMARK    1  A    between atoms: C_14  and  C_15 
REMARK    2  A    between atoms: C_15  and  C_16 
REMARK    3  A    between atoms: C_16  and  C_17 
REMARK       I    between atoms: C_17  and  N_18 
REMARK    4  A    between atoms: N_21  and  C_22 
REMARK    5  A    between atoms: C_23  and  O_24 
ROOT
HETATM    1  C   UNL     1      -8.967   3.075 -31.129  1.00  0.00     0.051 C 
ENDROOT
BRANCH   1   2
HETATM    2  C   UNL     1      -8.978   1.925 -32.095  1.00  0.00    -0.017 A 
HETATM    3  C   UNL     1      -7.871   1.024 -32.279  1.00  0.00    -0.000 A 
HETATM    4  C   UNL     1      -6.581   0.925 -31.710  1.00  0.00     0.021 A 
HETATM    5  C   UNL     1      -8.246   0.081 -33.226  1.00  0.00     0.043 A 
HETATM    6  C   UNL     1      -5.710  -0.101 -32.115  1.00  0.00    -0.061 A 
HETATM    7  C   UNL     1      -4.353  -0.234 -31.488  1.00  0.00     0.048 C 
HETATM    8  C   UNL     1      -6.135  -1.033 -33.067  1.00  0.00     0.009 A 
HETATM    9  C   UNL     1      -7.408  -0.958 -33.643  1.00  0.00     0.031 A 
HETATM   10  N   UNL     1      -9.527   0.389 -33.602  1.00  0.00    -0.354 N 
HETATM   11  H   UNL     1     -10.068  -0.136 -34.275  1.00  0.00     0.166 HD
HETATM   12  C   UNL     1     -10.000   1.501 -32.940  1.00  0.00     0.057 A 
HETATM   13  C   UNL     1     -11.334   1.998 -33.187  1.00  0.00     0.032 A 
HETATM   14  S   UNL     1     -12.527   1.001 -33.937  1.00  0.00    -0.100 SA
HETATM   15  C   UNL     1     -11.860   3.245 -32.907  1.00  0.00     0.021 A 
HETATM   16  C   UNL     1     -13.713   2.226 -33.865  1.00  0.00     0.050 A 
HETATM   17  C   UNL     1     -13.228   3.377 -33.293  1.00  0.00     0.008 A 
ENDBRANCH   1   2
BRANCH   1  18
HETATM   18  C   UNL     1      -8.923   4.425 -31.846  1.00  0.00     0.108 C 
BRANCH  18  19
HETATM   19  C   UNL     1      -7.898   4.432 -32.966  1.00  0.00     0.220 C 
HETATM   20  N   UNL     1      -6.574   4.641 -32.607  1.00  0.00    -0.349 N 
HETATM   21  C   UNL     1      -6.103   5.012 -31.266  1.00  0.00     0.145 C 
HETATM   22  C   UNL     1      -5.571   4.804 -33.665  1.00  0.00     0.145 C 
HETATM   23  C   UNL     1      -4.749   4.364 -30.911  1.00  0.00     0.143 C 
HETATM   24  N   UNL     1      -3.739   4.448 -31.988  1.00  0.00    -0.376 N 
HETATM   25  C   UNL     1      -4.264   4.073 -33.329  1.00  0.00     0.143 C 
HETATM   26  O   UNL     1      -8.233   4.248 -34.136  1.00  0.00    -0.273 OA
BRANCH  24  27
HETATM   27  C   UNL     1      -2.828   5.515 -31.999  1.00  0.00     0.063 A 
HETATM   28  C   UNL     1      -1.545   5.318 -31.447  1.00  0.00     0.092 A 
HETATM   29  C   UNL     1      -0.562   6.302 -31.443  1.00  0.00     0.039 A 
HETATM   30  C   UNL     1      -0.857   7.549 -31.982  1.00  0.00     0.003 A 
HETATM   31  C   UNL     1      -2.125   7.794 -32.506  1.00  0.00     0.002 A 
HETATM   32  C   UNL     1      -3.103   6.787 -32.510  1.00  0.00     0.032 A 
BRANCH  28  33
HETATM   33  O   UNL     1      -1.263   4.128 -30.824  1.00  0.00    -0.358 OA
HETATM   34  H   UNL     1      -0.293   4.168 -30.706  1.00  0.00     0.218 HD
ENDBRANCH  28  33
ENDBRANCH  24  27
ENDBRANCH  18  19
ENDBRANCH   1  18
TORSDOF 5
ENDMDL
MODEL 10
REMARK VINA RESULT:      -8.4      2.685      4.192
REMARK  5 active torsions:
REMARK  status: ('A' for Active; 'I' for Inactive)
REMARK    1  A    between atoms: C_14  and  C_15 
REMARK    2  A    between atoms: C_15  and  C_16 
REMARK    3  A    between atoms: C_16  and  C_17 
REMARK       I    between atoms: C_17  and  N_18 
REMARK    4  A    between atoms: N_21  and  C_22 
REMARK    5  A    between atoms: C_23  and  O_24 
ROOT
HETATM    1  C   UNL     1      -8.506   0.202 -33.104  1.00  0.00     0.051 C 
ENDROOT
BRANCH   1   2
HETATM    2  C   UNL     1      -7.110  -0.236 -32.765  1.00  0.00    -0.017 A 
HETATM    3  C   UNL     1      -6.446  -1.349 -33.391  1.00  0.00    -0.000 A 
HETATM    4  C   UNL     1      -6.820  -2.281 -34.386  1.00  0.00     0.021 A 
HETATM    5  C   UNL     1      -5.172  -1.442 -32.848  1.00  0.00     0.043 A 
HETATM    6  C   UNL     1      -5.915  -3.278 -34.792  1.00  0.00    -0.061 A 
HETATM    7  C   UNL     1      -6.292  -4.247 -35.874  1.00  0.00     0.048 C 
HETATM    8  C   UNL     1      -4.640  -3.327 -34.221  1.00  0.00     0.009 A 
HETATM    9  C   UNL     1      -4.246  -2.415 -33.237  1.00  0.00     0.031 A 
HETATM   10  N   UNL     1      -5.060  -0.429 -31.932  1.00  0.00    -0.354 N 
HETATM   11  H   UNL     1      -4.232  -0.242 -31.384  1.00  0.00     0.166 HD
HETATM   12  C   UNL     1      -6.215   0.318 -31.853  1.00  0.00     0.057 A 
HETATM   13  C   UNL     1      -6.311   1.440 -30.948  1.00  0.00     0.032 A 
HETATM   14  S   UNL     1      -4.893   2.169 -30.286  1.00  0.00    -0.100 SA
HETATM   15  C   UNL     1      -7.442   2.079 -30.476  1.00  0.00     0.021 A 
HETATM   16  C   UNL     1      -5.796   3.317 -29.405  1.00  0.00     0.050 A 
HETATM   17  C   UNL     1      -7.148   3.160 -29.592  1.00  0.00     0.008 A 
ENDBRANCH   1   2
BRANCH   1  18
HETATM   18  C   UNL     1      -8.520   1.286 -34.182  1.00  0.00     0.108 C 
BRANCH  18  19
HETATM   19  C   UNL     1      -8.667   2.672 -33.581  1.00  0.00     0.220 C 
HETATM   20  N   UNL     1      -7.530   3.468 -33.549  1.00  0.00    -0.349 N 
HETATM   21  C   UNL     1      -6.173   3.029 -33.895  1.00  0.00     0.145 C 
HETATM   22  C   UNL     1      -7.588   4.754 -32.845  1.00  0.00     0.145 C 
HETATM   23  C   UNL     1      -5.352   4.131 -34.598  1.00  0.00     0.143 C 
HETATM   24  N   UNL     1      -5.449   5.459 -33.953  1.00  0.00    -0.376 N 
HETATM   25  C   UNL     1      -6.842   5.857 -33.611  1.00  0.00     0.143 C 
HETATM   26  O   UNL     1      -9.751   3.070 -33.156  1.00  0.00    -0.273 OA
BRANCH  24  27
HETATM   27  C   UNL     1      -4.487   5.837 -33.004  1.00  0.00     0.063 A 
HETATM   28  C   UNL     1      -3.246   6.331 -33.456  1.00  0.00     0.092 A 
HETATM   29  C   UNL     1      -2.244   6.765 -32.594  1.00  0.00     0.039 A 
HETATM   30  C   UNL     1      -2.455   6.685 -31.222  1.00  0.00     0.003 A 
HETATM   31  C   UNL     1      -3.656   6.170 -30.737  1.00  0.00     0.002 A 
HETATM   32  C   UNL     1      -4.661   5.745 -31.620  1.00  0.00     0.032 A 
BRANCH  28  33
HETATM   33  O   UNL     1      -2.977   6.330 -34.802  1.00  0.00    -0.358 OA
HETATM   34  H   UNL     1      -3.343   5.471 -35.096  1.00  0.00     0.218 HD
ENDBRANCH  28  33
ENDBRANCH  24  27
ENDBRANCH  18  19
ENDBRANCH   1  18
TORSDOF 5
ENDMDL
