MODEL 1
REMARK VINA RESULT:      -9.4      0.000      0.000
REMARK  6 active torsions:
REMARK  status: ('A' for Active; 'I' for Inactive)
REMARK    1  A    between atoms: C_5  and  C_6 
REMARK    2  A    between atoms: C_11  and  C_12 
REMARK       I    between atoms: C_12  and  N_13 
REMARK    3  A    between atoms: N_13  and  C_14 
REMARK    4  A    between atoms: C_16  and  C_17 
REMARK    5  A    between atoms: C_17  and  O_18 
REMARK    6  A    between atoms: C_25  and  C_26 
ROOT
HETATM    1  C   UNL     1      -1.698   6.207 -32.183  1.00  0.00     0.118 C 
HETATM    2  N   UNL     1      -1.726   4.769 -32.423  1.00  0.00    -0.366 N 
HETATM    3  C   UNL     1      -2.853   4.034 -32.328  1.00  0.00     0.123 A 
HETATM    4  N   UNL     1      -4.061   4.598 -32.032  1.00  0.00    -0.240 N 
HETATM    5  N   UNL     1      -5.088   3.726 -32.038  1.00  0.00    -0.165 NA
HETATM    6  C   UNL     1      -4.492   2.540 -32.303  1.00  0.00     0.148 A 
HETATM    7  C   UNL     1      -3.092   2.696 -32.487  1.00  0.00     0.089 A 
HETATM    8  C   UNL     1      -4.259   6.014 -31.792  1.00  0.00     0.221 C 
HETATM    9  C   UNL     1      -3.093   6.829 -32.380  1.00  0.00     0.066 C 
HETATM   10  H   UNL     1      -0.815   4.326 -32.528  1.00  0.00     0.161 HD
ENDROOT
BRANCH   6  11
HETATM   11  C   UNL     1      -5.247   1.276 -32.389  1.00  0.00     0.276 C 
HETATM   12  N   UNL     1      -4.846   0.502 -33.460  1.00  0.00    -0.322 N 
HETATM   13  H   UNL     1      -4.119   0.936 -34.024  1.00  0.00     0.169 HD
HETATM   14  O   UNL     1      -6.127   1.008 -31.578  1.00  0.00    -0.266 OA
BRANCH  12  15
HETATM   15  C   UNL     1      -5.327  -0.758 -33.853  1.00  0.00     0.035 A 
HETATM   16  C   UNL     1      -4.537  -1.910 -33.899  1.00  0.00     0.039 A 
HETATM   17  C   UNL     1      -5.072  -3.147 -34.304  1.00  0.00    -0.028 A 
HETATM   18  C   UNL     1      -6.427  -3.213 -34.653  1.00  0.00     0.010 A 
HETATM   19  C   UNL     1      -7.222  -2.068 -34.615  1.00  0.00     0.003 A 
HETATM   20  C   UNL     1      -6.674  -0.846 -34.220  1.00  0.00     0.029 A 
BRANCH  17  21
HETATM   21  C   UNL     1      -4.178  -4.369 -34.323  1.00  0.00     0.147 C 
HETATM   22  C   UNL     1      -3.412  -4.524 -33.014  1.00  0.00     0.044 C 
BRANCH  21  23
HETATM   23  O   UNL     1      -4.944  -5.551 -34.554  1.00  0.00    -0.391 OA
HETATM   24  H   UNL     1      -5.819  -5.398 -34.163  1.00  0.00     0.210 HD
ENDBRANCH  21  23
ENDBRANCH  17  21
ENDBRANCH  12  15
ENDBRANCH   6  11
BRANCH   8  25
HETATM   25  C   UNL     1      -4.515   6.267 -30.325  1.00  0.00     0.409 C 
HETATM   26  F   UNL     1      -3.726   5.555 -29.500  1.00  0.00    -0.169 F 
HETATM   27  F   UNL     1      -4.320   7.580 -30.036  1.00  0.00    -0.169 F 
HETATM   28  F   UNL     1      -5.799   5.997 -29.987  1.00  0.00    -0.169 F 
ENDBRANCH   8  25
BRANCH   1  29
HETATM   29  C   UNL     1      -1.007   6.571 -30.883  1.00  0.00    -0.035 A 
HETATM   30  C   UNL     1      -0.225   5.602 -30.231  1.00  0.00     0.010 A 
HETATM   31  C   UNL     1       0.407   5.880 -29.016  1.00  0.00     0.007 A 
HETATM   32  C   UNL     1       0.270   7.135 -28.417  1.00  0.00    -0.062 A 
HETATM   33  C   UNL     1       0.967   7.455 -27.128  1.00  0.00     0.048 C 
HETATM   34  C   UNL     1      -0.493   8.111 -29.063  1.00  0.00     0.007 A 
HETATM   35  C   UNL     1      -1.132   7.829 -30.275  1.00  0.00     0.010 A 
ENDBRANCH   1  29
TORSDOF 6
ENDMDL
MODEL 2
REMARK VINA RESULT:      -9.4      6.251      9.726
REMARK  6 active torsions:
REMARK  status: ('A' for Active; 'I' for Inactive)
REMARK    1  A    between atoms: C_5  and  C_6 
REMARK    2  A    between atoms: C_11  and  C_12 
REMARK       I    between atoms: C_12  and  N_13 
REMARK    3  A    between atoms: N_13  and  C_14 
REMARK    4  A    between atoms: C_16  and  C_17 
REMARK    5  A    between atoms: C_17  and  O_18 
REMARK    6  A    between atoms: C_25  and  C_26 
ROOT
HETATM    1  C   UNL     1      -5.871   0.931 -34.054  1.00  0.00     0.118 C 
HETATM    2  N   UNL     1      -7.233   1.405 -34.266  1.00  0.00    -0.366 N 
HETATM    3  C   UNL     1      -8.004   1.883 -33.268  1.00  0.00     0.123 A 
HETATM    4  N   UNL     1      -7.544   1.988 -31.986  1.00  0.00    -0.240 N 
HETATM    5  N   UNL     1      -8.426   2.542 -31.131  1.00  0.00    -0.165 NA
HETATM    6  C   UNL     1      -9.519   2.754 -31.901  1.00  0.00     0.148 A 
HETATM    7  C   UNL     1      -9.290   2.349 -33.244  1.00  0.00     0.089 A 
HETATM    8  C   UNL     1      -6.209   1.606 -31.569  1.00  0.00     0.221 C 
HETATM    9  C   UNL     1      -5.261   1.545 -32.781  1.00  0.00     0.066 C 
HETATM   10  H   UNL     1      -7.622   1.222 -35.190  1.00  0.00     0.161 HD
ENDROOT
BRANCH   6  11
HETATM   11  C   UNL     1     -10.762   3.340 -31.367  1.00  0.00     0.276 C 
HETATM   12  N   UNL     1     -11.791   3.305 -32.287  1.00  0.00    -0.322 N 
HETATM   13  H   UNL     1     -11.520   2.905 -33.183  1.00  0.00     0.169 HD
HETATM   14  O   UNL     1     -10.808   3.802 -30.232  1.00  0.00    -0.266 OA
BRANCH  12  15
HETATM   15  C   UNL     1     -13.111   3.761 -32.136  1.00  0.00     0.035 A 
HETATM   16  C   UNL     1     -14.231   2.927 -32.202  1.00  0.00     0.039 A 
HETATM   17  C   UNL     1     -15.533   3.440 -32.046  1.00  0.00    -0.028 A 
HETATM   18  C   UNL     1     -15.693   4.811 -31.808  1.00  0.00     0.010 A 
HETATM   19  C   UNL     1     -14.582   5.651 -31.745  1.00  0.00     0.003 A 
HETATM   20  C   UNL     1     -13.298   5.128 -31.912  1.00  0.00     0.029 A 
BRANCH  17  21
HETATM   21  C   UNL     1     -16.714   2.494 -32.112  1.00  0.00     0.147 C 
HETATM   22  C   UNL     1     -18.013   3.191 -31.724  1.00  0.00     0.044 C 
BRANCH  21  23
HETATM   23  O   UNL     1     -16.852   1.952 -33.425  1.00  0.00    -0.391 OA
HETATM   24  H   UNL     1     -16.547   2.635 -34.043  1.00  0.00     0.210 HD
ENDBRANCH  21  23
ENDBRANCH  17  21
ENDBRANCH  12  15
ENDBRANCH   6  11
BRANCH   8  25
HETATM   25  C   UNL     1      -6.257   0.334 -30.755  1.00  0.00     0.409 C 
HETATM   26  F   UNL     1      -7.282  -0.479 -31.069  1.00  0.00    -0.169 F 
HETATM   27  F   UNL     1      -5.112  -0.375 -30.929  1.00  0.00    -0.169 F 
HETATM   28  F   UNL     1      -6.340   0.592 -29.428  1.00  0.00    -0.169 F 
ENDBRANCH   8  25
BRANCH   1  29
HETATM   29  C   UNL     1      -5.751  -0.577 -34.164  1.00  0.00    -0.035 A 
HETATM   30  C   UNL     1      -4.507  -1.182 -33.913  1.00  0.00     0.010 A 
HETATM   31  C   UNL     1      -4.337  -2.565 -34.030  1.00  0.00     0.007 A 
HETATM   32  C   UNL     1      -5.408  -3.379 -34.409  1.00  0.00    -0.062 A 
HETATM   33  C   UNL     1      -5.247  -4.867 -34.510  1.00  0.00     0.048 C 
HETATM   34  C   UNL     1      -6.652  -2.791 -34.647  1.00  0.00     0.007 A 
HETATM   35  C   UNL     1      -6.818  -1.406 -34.537  1.00  0.00     0.010 A 
ENDBRANCH   1  29
TORSDOF 6
ENDMDL
MODEL 3
REMARK VINA RESULT:      -9.3      1.471      2.101
REMARK  6 active torsions:
REMARK  status: ('A' for Active; 'I' for Inactive)
REMARK    1  A    between atoms: C_5  and  C_6 
REMARK    2  A    between atoms: C_11  and  C_12 
REMARK       I    between atoms: C_12  and  N_13 
REMARK    3  A    between atoms: N_13  and  C_14 
REMARK    4  A    between atoms: C_16  and  C_17 
REMARK    5  A    between atoms: C_17  and  O_18 
REMARK    6  A    between atoms: C_25  and  C_26 
ROOT
HETATM    1  C   UNL     1      -0.314   6.459 -31.170  1.00  0.00     0.118 C 
HETATM    2  N   UNL     1      -0.739   5.075 -31.338  1.00  0.00    -0.366 N 
HETATM    3  C   UNL     1      -2.031   4.721 -31.496  1.00  0.00     0.123 A 
HETATM    4  N   UNL     1      -3.033   5.647 -31.545  1.00  0.00    -0.240 N 
HETATM    5  N   UNL     1      -4.254   5.121 -31.768  1.00  0.00    -0.165 NA
HETATM    6  C   UNL     1      -4.018   3.789 -31.815  1.00  0.00     0.148 A 
HETATM    7  C   UNL     1      -2.637   3.503 -31.644  1.00  0.00     0.089 A 
HETATM    8  C   UNL     1      -2.824   7.077 -31.434  1.00  0.00     0.221 C 
HETATM    9  C   UNL     1      -1.359   7.434 -31.745  1.00  0.00     0.066 C 
HETATM   10  H   UNL     1      -0.015   4.374 -31.187  1.00  0.00     0.161 HD
ENDROOT
BRANCH   6  11
HETATM   11  C   UNL     1      -5.093   2.802 -32.026  1.00  0.00     0.276 C 
HETATM   12  N   UNL     1      -4.917   2.083 -33.192  1.00  0.00    -0.322 N 
HETATM   13  H   UNL     1      -4.095   2.364 -33.722  1.00  0.00     0.169 HD
HETATM   14  O   UNL     1      -6.018   2.691 -31.228  1.00  0.00    -0.266 OA
BRANCH  12  15
HETATM   15  C   UNL     1      -5.726   1.061 -33.716  1.00  0.00     0.035 A 
HETATM   16  C   UNL     1      -5.383  -0.293 -33.684  1.00  0.00     0.039 A 
HETATM   17  C   UNL     1      -6.232  -1.275 -34.228  1.00  0.00    -0.028 A 
HETATM   18  C   UNL     1      -7.447  -0.874 -34.798  1.00  0.00     0.010 A 
HETATM   19  C   UNL     1      -7.797   0.476 -34.839  1.00  0.00     0.003 A 
HETATM   20  C   UNL     1      -6.938   1.438 -34.303  1.00  0.00     0.029 A 
BRANCH  17  21
HETATM   21  C   UNL     1      -5.821  -2.731 -34.157  1.00  0.00     0.147 C 
HETATM   22  C   UNL     1      -6.810  -3.629 -34.891  1.00  0.00     0.044 C 
BRANCH  21  23
HETATM   23  O   UNL     1      -4.523  -2.916 -34.719  1.00  0.00    -0.391 OA
HETATM   24  H   UNL     1      -4.642  -3.004 -35.678  1.00  0.00     0.210 HD
ENDBRANCH  21  23
ENDBRANCH  17  21
ENDBRANCH  12  15
ENDBRANCH   6  11
BRANCH   8  25
HETATM   25  C   UNL     1      -3.311   7.576 -30.093  1.00  0.00     0.409 C 
HETATM   26  F   UNL     1      -3.204   6.676 -29.100  1.00  0.00    -0.169 F 
HETATM   27  F   UNL     1      -2.606   8.675 -29.720  1.00  0.00    -0.169 F 
HETATM   28  F   UNL     1      -4.608   7.965 -30.146  1.00  0.00    -0.169 F 
ENDBRANCH   8  25
BRANCH   1  29
HETATM   29  C   UNL     1       0.144   6.766 -29.757  1.00  0.00    -0.035 A 
HETATM   30  C   UNL     1       0.724   8.016 -29.484  1.00  0.00     0.010 A 
HETATM   31  C   UNL     1       1.190   8.335 -28.205  1.00  0.00     0.007 A 
HETATM   32  C   UNL     1       1.092   7.407 -27.165  1.00  0.00    -0.062 A 
HETATM   33  C   UNL     1       1.561   7.747 -25.782  1.00  0.00     0.048 C 
HETATM   34  C   UNL     1       0.504   6.166 -27.421  1.00  0.00     0.007 A 
HETATM   35  C   UNL     1       0.045   5.846 -28.704  1.00  0.00     0.010 A 
ENDBRANCH   1  29
TORSDOF 6
ENDMDL
MODEL 4
REMARK VINA RESULT:      -9.2      2.539      3.643
REMARK  6 active torsions:
REMARK  status: ('A' for Active; 'I' for Inactive)
REMARK    1  A    between atoms: C_5  and  C_6 
REMARK    2  A    between atoms: C_11  and  C_12 
REMARK       I    between atoms: C_12  and  N_13 
REMARK    3  A    between atoms: N_13  and  C_14 
REMARK    4  A    between atoms: C_16  and  C_17 
REMARK    5  A    between atoms: C_17  and  O_18 
REMARK    6  A    between atoms: C_25  and  C_26 
ROOT
HETATM    1  C   UNL     1      -0.093   6.288 -31.955  1.00  0.00     0.118 C 
HETATM    2  N   UNL     1      -0.766   5.020 -32.212  1.00  0.00    -0.366 N 
HETATM    3  C   UNL     1      -2.062   4.942 -32.576  1.00  0.00     0.123 A 
HETATM    4  N   UNL     1      -2.829   6.057 -32.764  1.00  0.00    -0.240 N 
HETATM    5  N   UNL     1      -4.082   5.795 -33.185  1.00  0.00    -0.165 NA
HETATM    6  C   UNL     1      -4.126   4.443 -33.218  1.00  0.00     0.148 A 
HETATM    7  C   UNL     1      -2.879   3.877 -32.839  1.00  0.00     0.089 A 
HETATM    8  C   UNL     1      -2.344   7.414 -32.596  1.00  0.00     0.221 C 
HETATM    9  C   UNL     1      -0.807   7.450 -32.669  1.00  0.00     0.066 C 
HETATM   10  H   UNL     1      -0.238   4.186 -31.962  1.00  0.00     0.161 HD
ENDROOT
BRANCH   6  11
HETATM   11  C   UNL     1      -5.337   3.700 -33.612  1.00  0.00     0.276 C 
HETATM   12  N   UNL     1      -5.320   2.397 -33.154  1.00  0.00    -0.322 N 
HETATM   13  H   UNL     1      -4.473   2.158 -32.644  1.00  0.00     0.169 HD
HETATM   14  O   UNL     1      -6.217   4.231 -34.282  1.00  0.00    -0.266 OA
BRANCH  12  15
HETATM   15  C   UNL     1      -6.296   1.400 -33.325  1.00  0.00     0.035 A 
HETATM   16  C   UNL     1      -7.656   1.595 -33.070  1.00  0.00     0.039 A 
HETATM   17  C   UNL     1      -8.590   0.558 -33.256  1.00  0.00    -0.028 A 
HETATM   18  C   UNL     1      -8.134  -0.683 -33.720  1.00  0.00     0.010 A 
HETATM   19  C   UNL     1      -6.778  -0.887 -33.973  1.00  0.00     0.003 A 
HETATM   20  C   UNL     1      -5.864   0.148 -33.774  1.00  0.00     0.029 A 
BRANCH  17  21
HETATM   21  C   UNL     1     -10.055   0.823 -32.978  1.00  0.00     0.147 C 
HETATM   22  C   UNL     1     -10.719   1.564 -34.133  1.00  0.00     0.044 C 
BRANCH  21  23
HETATM   23  O   UNL     1     -10.753  -0.400 -32.750  1.00  0.00    -0.391 OA
HETATM   24  H   UNL     1     -11.696  -0.177 -32.684  1.00  0.00     0.210 HD
ENDBRANCH  21  23
ENDBRANCH  17  21
ENDBRANCH  12  15
ENDBRANCH   6  11
BRANCH   8  25
HETATM   25  C   UNL     1      -2.920   8.024 -31.340  1.00  0.00     0.409 C 
HETATM   26  F   UNL     1      -4.192   8.444 -31.467  1.00  0.00    -0.169 F 
HETATM   27  F   UNL     1      -2.893   7.120 -30.327  1.00  0.00    -0.169 F 
HETATM   28  F   UNL     1      -2.187   9.082 -30.917  1.00  0.00    -0.169 F 
ENDBRANCH   8  25
BRANCH   1  29
HETATM   29  C   UNL     1       0.192   6.513 -30.482  1.00  0.00    -0.035 A 
HETATM   30  C   UNL     1       0.557   7.799 -30.047  1.00  0.00     0.010 A 
HETATM   31  C   UNL     1       0.859   8.050 -28.706  1.00  0.00     0.007 A 
HETATM   32  C   UNL     1       0.809   7.019 -27.764  1.00  0.00    -0.062 A 
HETATM   33  C   UNL     1       1.103   7.282 -26.317  1.00  0.00     0.048 C 
HETATM   34  C   UNL     1       0.434   5.740 -28.182  1.00  0.00     0.007 A 
HETATM   35  C   UNL     1       0.140   5.488 -29.527  1.00  0.00     0.010 A 
ENDBRANCH   1  29
TORSDOF 6
ENDMDL
MODEL 5
REMARK VINA RESULT:      -8.9      3.609      9.495
REMARK  6 active torsions:
REMARK  status: ('A' for Active; 'I' for Inactive)
REMARK    1  A    between atoms: C_5  and  C_6 
REMARK    2  A    between atoms: C_11  and  C_12 
REMARK       I    between atoms: C_12  and  N_13 
REMARK    3  A    between atoms: N_13  and  C_14 
REMARK    4  A    between atoms: C_16  and  C_17 
REMARK    5  A    between atoms: C_17  and  O_18 
REMARK    6  A    between atoms: C_25  and  C_26 
ROOT
HETATM    1  C   UNL     1      -7.846   0.969 -31.943  1.00  0.00     0.118 C 
HETATM    2  N   UNL     1      -7.221   1.421 -30.705  1.00  0.00    -0.366 N 
HETATM    3  C   UNL     1      -6.650   2.635 -30.576  1.00  0.00     0.123 A 
HETATM    4  N   UNL     1      -6.647   3.544 -31.595  1.00  0.00    -0.240 N 
HETATM    5  N   UNL     1      -6.086   4.727 -31.273  1.00  0.00    -0.165 NA
HETATM    6  C   UNL     1      -5.669   4.539 -29.999  1.00  0.00     0.148 A 
HETATM    7  C   UNL     1      -6.002   3.238 -29.533  1.00  0.00     0.089 A 
HETATM    8  C   UNL     1      -7.244   3.309 -32.896  1.00  0.00     0.221 C 
HETATM    9  C   UNL     1      -8.268   2.162 -32.819  1.00  0.00     0.066 C 
HETATM   10  H   UNL     1      -7.116   0.710 -29.983  1.00  0.00     0.161 HD
ENDROOT
BRANCH   6  11
HETATM   11  C   UNL     1      -4.968   5.586 -29.234  1.00  0.00     0.276 C 
HETATM   12  N   UNL     1      -3.866   6.074 -29.909  1.00  0.00    -0.322 N 
HETATM   13  H   UNL     1      -3.705   5.619 -30.805  1.00  0.00     0.169 HD
HETATM   14  O   UNL     1      -5.361   5.931 -28.124  1.00  0.00    -0.266 OA
BRANCH  12  15
HETATM   15  C   UNL     1      -2.966   7.074 -29.502  1.00  0.00     0.035 A 
HETATM   16  C   UNL     1      -1.605   6.848 -29.279  1.00  0.00     0.039 A 
HETATM   17  C   UNL     1      -0.749   7.888 -28.868  1.00  0.00    -0.028 A 
HETATM   18  C   UNL     1      -1.284   9.171 -28.697  1.00  0.00     0.010 A 
HETATM   19  C   UNL     1      -2.642   9.405 -28.913  1.00  0.00     0.003 A 
HETATM   20  C   UNL     1      -3.479   8.360 -29.310  1.00  0.00     0.029 A 
BRANCH  17  21
HETATM   21  C   UNL     1       0.720   7.595 -28.652  1.00  0.00     0.147 C 
HETATM   22  C   UNL     1       1.372   8.637 -27.751  1.00  0.00     0.044 C 
BRANCH  21  23
HETATM   23  O   UNL     1       0.897   6.304 -28.071  1.00  0.00    -0.391 OA
HETATM   24  H   UNL     1       0.193   5.737 -28.428  1.00  0.00     0.210 HD
ENDBRANCH  21  23
ENDBRANCH  17  21
ENDBRANCH  12  15
ENDBRANCH   6  11
BRANCH   8  25
HETATM   25  C   UNL     1      -6.169   3.112 -33.939  1.00  0.00     0.409 C 
HETATM   26  F   UNL     1      -5.829   4.235 -34.596  1.00  0.00    -0.169 F 
HETATM   27  F   UNL     1      -5.041   2.626 -33.360  1.00  0.00    -0.169 F 
HETATM   28  F   UNL     1      -6.536   2.197 -34.868  1.00  0.00    -0.169 F 
ENDBRANCH   8  25
BRANCH   1  29
HETATM   29  C   UNL     1      -7.035  -0.099 -32.653  1.00  0.00    -0.035 A 
HETATM   30  C   UNL     1      -5.742  -0.396 -32.188  1.00  0.00     0.010 A 
HETATM   31  C   UNL     1      -4.944  -1.350 -32.826  1.00  0.00     0.007 A 
HETATM   32  C   UNL     1      -5.417  -2.028 -33.953  1.00  0.00    -0.062 A 
HETATM   33  C   UNL     1      -4.582  -3.074 -34.630  1.00  0.00     0.048 C 
HETATM   34  C   UNL     1      -6.706  -1.751 -34.416  1.00  0.00     0.007 A 
HETATM   35  C   UNL     1      -7.500  -0.790 -33.780  1.00  0.00     0.010 A 
ENDBRANCH   1  29
TORSDOF 6
ENDMDL
MODEL 6
REMARK VINA RESULT:      -8.8      2.898      3.914
REMARK  6 active torsions:
REMARK  status: ('A' for Active; 'I' for Inactive)
REMARK    1  A    between atoms: C_5  and  C_6 
REMARK    2  A    between atoms: C_11  and  C_12 
REMARK       I    between atoms: C_12  and  N_13 
REMARK    3  A    between atoms: N_13  and  C_14 
REMARK    4  A    between atoms: C_16  and  C_17 
REMARK    5  A    between atoms: C_17  and  O_18 
REMARK    6  A    between atoms: C_25  and  C_26 
ROOT
HETATM    1  C   UNL     1      -0.207   6.333 -31.305  1.00  0.00     0.118 C 
HETATM    2  N   UNL     1      -0.725   4.972 -31.356  1.00  0.00    -0.366 N 
HETATM    3  C   UNL     1      -2.038   4.693 -31.489  1.00  0.00     0.123 A 
HETATM    4  N   UNL     1      -2.975   5.678 -31.621  1.00  0.00    -0.240 N 
HETATM    5  N   UNL     1      -4.229   5.219 -31.804  1.00  0.00    -0.165 NA
HETATM    6  C   UNL     1      -4.084   3.875 -31.736  1.00  0.00     0.148 A 
HETATM    7  C   UNL     1      -2.725   3.512 -31.536  1.00  0.00     0.089 A 
HETATM    8  C   UNL     1      -2.669   7.095 -31.632  1.00  0.00     0.221 C 
HETATM    9  C   UNL     1      -1.183   7.324 -31.965  1.00  0.00     0.066 C 
HETATM   10  H   UNL     1      -0.050   4.239 -31.142  1.00  0.00     0.161 HD
ENDROOT
BRANCH   6  11
HETATM   11  C   UNL     1      -5.225   2.949 -31.867  1.00  0.00     0.276 C 
HETATM   12  N   UNL     1      -5.795   3.002 -33.124  1.00  0.00    -0.322 N 
HETATM   13  H   UNL     1      -5.355   3.682 -33.741  1.00  0.00     0.169 HD
HETATM   14  O   UNL     1      -5.584   2.248 -30.927  1.00  0.00    -0.266 OA
BRANCH  12  15
HETATM   15  C   UNL     1      -6.885   2.266 -33.618  1.00  0.00     0.035 A 
HETATM   16  C   UNL     1      -8.217   2.548 -33.302  1.00  0.00     0.039 A 
HETATM   17  C   UNL     1      -9.272   1.774 -33.824  1.00  0.00    -0.028 A 
HETATM   18  C   UNL     1      -8.965   0.713 -34.686  1.00  0.00     0.010 A 
HETATM   19  C   UNL     1      -7.638   0.421 -35.003  1.00  0.00     0.003 A 
HETATM   20  C   UNL     1      -6.604   1.193 -34.469  1.00  0.00     0.029 A 
BRANCH  17  21
HETATM   21  C   UNL     1     -10.699   2.128 -33.463  1.00  0.00     0.147 C 
HETATM   22  C   UNL     1     -11.652   0.974 -33.750  1.00  0.00     0.044 C 
BRANCH  21  23
HETATM   23  O   UNL     1     -10.797   2.477 -32.082  1.00  0.00    -0.391 OA
HETATM   24  H   UNL     1     -11.434   3.208 -32.023  1.00  0.00     0.210 HD
ENDBRANCH  21  23
ENDBRANCH  17  21
ENDBRANCH  12  15
ENDBRANCH   6  11
BRANCH   8  25
HETATM   25  C   UNL     1      -3.120   7.739 -30.341  1.00  0.00     0.409 C 
HETATM   26  F   UNL     1      -2.435   8.849 -30.012  1.00  0.00    -0.169 F 
HETATM   27  F   UNL     1      -4.431   8.084 -30.424  1.00  0.00    -0.169 F 
HETATM   28  F   UNL     1      -3.024   6.882 -29.295  1.00  0.00    -0.169 F 
ENDBRANCH   8  25
BRANCH   1  29
HETATM   29  C   UNL     1       0.273   6.727 -29.921  1.00  0.00    -0.035 A 
HETATM   30  C   UNL     1       0.232   5.775 -28.888  1.00  0.00     0.010 A 
HETATM   31  C   UNL     1       0.635   6.098 -27.589  1.00  0.00     0.007 A 
HETATM   32  C   UNL     1       1.084   7.386 -27.287  1.00  0.00    -0.062 A 
HETATM   33  C   UNL     1       1.546   7.737 -25.904  1.00  0.00     0.048 C 
HETATM   34  C   UNL     1       1.143   8.337 -28.309  1.00  0.00     0.007 A 
HETATM   35  C   UNL     1       0.732   8.014 -29.607  1.00  0.00     0.010 A 
ENDBRANCH   1  29
TORSDOF 6
ENDMDL
MODEL 7
REMARK VINA RESULT:      -8.8      4.622      9.705
REMARK  6 active torsions:
REMARK  status: ('A' for Active; 'I' for Inactive)
REMARK    1  A    between atoms: C_5  and  C_6 
REMARK    2  A    between atoms: C_11  and  C_12 
REMARK       I    between atoms: C_12  and  N_13 
REMARK    3  A    between atoms: N_13  and  C_14 
REMARK    4  A    between atoms: C_16  and  C_17 
REMARK    5  A    between atoms: C_17  and  O_18 
REMARK    6  A    between atoms: C_25  and  C_26 
ROOT
HETATM    1  C   UNL     1      -9.824   2.294 -34.557  1.00  0.00     0.118 C 
HETATM    2  N   UNL     1      -9.055   3.505 -34.295  1.00  0.00    -0.366 N 
HETATM    3  C   UNL     1      -7.976   3.525 -33.487  1.00  0.00     0.123 A 
HETATM    4  N   UNL     1      -7.505   2.395 -32.881  1.00  0.00    -0.240 N 
HETATM    5  N   UNL     1      -6.384   2.587 -32.158  1.00  0.00    -0.165 NA
HETATM    6  C   UNL     1      -6.162   3.917 -32.273  1.00  0.00     0.148 A 
HETATM    7  C   UNL     1      -7.142   4.536 -33.095  1.00  0.00     0.089 A 
HETATM    8  C   UNL     1      -8.101   1.082 -33.037  1.00  0.00     0.221 C 
HETATM    9  C   UNL     1      -8.977   1.033 -34.302  1.00  0.00     0.066 C 
HETATM   10  H   UNL     1      -9.466   4.368 -34.647  1.00  0.00     0.161 HD
ENDROOT
BRANCH   6  11
HETATM   11  C   UNL     1      -5.026   4.589 -31.613  1.00  0.00     0.276 C 
HETATM   12  N   UNL     1      -4.065   4.994 -32.519  1.00  0.00    -0.322 N 
HETATM   13  H   UNL     1      -4.284   4.746 -33.482  1.00  0.00     0.169 HD
HETATM   14  O   UNL     1      -4.992   4.728 -30.396  1.00  0.00    -0.266 OA
BRANCH  12  15
HETATM   15  C   UNL     1      -2.858   5.667 -32.266  1.00  0.00     0.035 A 
HETATM   16  C   UNL     1      -1.885   5.204 -31.376  1.00  0.00     0.039 A 
HETATM   17  C   UNL     1      -0.693   5.921 -31.159  1.00  0.00    -0.028 A 
HETATM   18  C   UNL     1      -0.487   7.113 -31.865  1.00  0.00     0.010 A 
HETATM   19  C   UNL     1      -1.454   7.586 -32.752  1.00  0.00     0.003 A 
HETATM   20  C   UNL     1      -2.635   6.867 -32.948  1.00  0.00     0.029 A 
BRANCH  17  21
HETATM   21  C   UNL     1       0.337   5.370 -30.195  1.00  0.00     0.147 C 
HETATM   22  C   UNL     1       0.388   6.182 -28.906  1.00  0.00     0.044 C 
BRANCH  21  23
HETATM   23  O   UNL     1       0.050   4.010 -29.875  1.00  0.00    -0.391 OA
HETATM   24  H   UNL     1       0.110   3.931 -28.909  1.00  0.00     0.210 HD
ENDBRANCH  21  23
ENDBRANCH  17  21
ENDBRANCH  12  15
ENDBRANCH   6  11
BRANCH   8  25
HETATM   25  C   UNL     1      -8.818   0.677 -31.771  1.00  0.00     0.409 C 
HETATM   26  F   UNL     1      -8.031   0.077 -30.861  1.00  0.00    -0.169 F 
HETATM   27  F   UNL     1      -9.363   1.769 -31.174  1.00  0.00    -0.169 F 
HETATM   28  F   UNL     1      -9.850  -0.163 -32.027  1.00  0.00    -0.169 F 
ENDBRANCH   8  25
BRANCH   1  29
HETATM   29  C   UNL     1     -11.183   2.304 -33.884  1.00  0.00    -0.035 A 
HETATM   30  C   UNL     1     -12.061   1.229 -34.105  1.00  0.00     0.010 A 
HETATM   31  C   UNL     1     -13.336   1.206 -33.532  1.00  0.00     0.007 A 
HETATM   32  C   UNL     1     -13.769   2.264 -32.727  1.00  0.00    -0.062 A 
HETATM   33  C   UNL     1     -15.123   2.238 -32.083  1.00  0.00     0.048 C 
HETATM   34  C   UNL     1     -12.899   3.330 -32.489  1.00  0.00     0.007 A 
HETATM   35  C   UNL     1     -11.627   3.355 -33.070  1.00  0.00     0.010 A 
ENDBRANCH   1  29
TORSDOF 6
ENDMDL
MODEL 8
REMARK VINA RESULT:      -8.5      3.073      4.237
REMARK  6 active torsions:
REMARK  status: ('A' for Active; 'I' for Inactive)
REMARK    1  A    between atoms: C_5  and  C_6 
REMARK    2  A    between atoms: C_11  and  C_12 
REMARK       I    between atoms: C_12  and  N_13 
REMARK    3  A    between atoms: N_13  and  C_14 
REMARK    4  A    between atoms: C_16  and  C_17 
REMARK    5  A    between atoms: C_17  and  O_18 
REMARK    6  A    between atoms: C_25  and  C_26 
ROOT
HETATM    1  C   UNL     1      -0.861   6.261 -32.039  1.00  0.00     0.118 C 
HETATM    2  N   UNL     1      -1.234   4.876 -32.302  1.00  0.00    -0.366 N 
HETATM    3  C   UNL     1      -2.516   4.472 -32.407  1.00  0.00     0.123 A 
HETATM    4  N   UNL     1      -3.560   5.347 -32.307  1.00  0.00    -0.240 N 
HETATM    5  N   UNL     1      -4.768   4.781 -32.497  1.00  0.00    -0.165 NA
HETATM    6  C   UNL     1      -4.477   3.472 -32.678  1.00  0.00     0.148 A 
HETATM    7  C   UNL     1      -3.075   3.242 -32.624  1.00  0.00     0.089 A 
HETATM    8  C   UNL     1      -3.407   6.771 -32.082  1.00  0.00     0.221 C 
HETATM    9  C   UNL     1      -1.985   7.227 -32.455  1.00  0.00     0.066 C 
HETATM   10  H   UNL     1      -0.470   4.202 -32.262  1.00  0.00     0.161 HD
ENDROOT
BRANCH   6  11
HETATM   11  C   UNL     1      -5.519   2.453 -32.907  1.00  0.00     0.276 C 
HETATM   12  N   UNL     1      -6.791   2.967 -32.744  1.00  0.00    -0.322 N 
HETATM   13  H   UNL     1      -6.801   3.948 -32.473  1.00  0.00     0.169 HD
HETATM   14  O   UNL     1      -5.224   1.298 -33.193  1.00  0.00    -0.266 OA
BRANCH  12  15
HETATM   15  C   UNL     1      -8.022   2.304 -32.886  1.00  0.00     0.035 A 
HETATM   16  C   UNL     1      -9.064   2.770 -33.693  1.00  0.00     0.039 A 
HETATM   17  C   UNL     1     -10.279   2.066 -33.796  1.00  0.00    -0.028 A 
HETATM   18  C   UNL     1     -10.427   0.871 -33.079  1.00  0.00     0.010 A 
HETATM   19  C   UNL     1      -9.395   0.402 -32.267  1.00  0.00     0.003 A 
HETATM   20  C   UNL     1      -8.200   1.117 -32.169  1.00  0.00     0.029 A 
BRANCH  17  21
HETATM   21  C   UNL     1     -11.373   2.604 -34.694  1.00  0.00     0.147 C 
HETATM   22  C   UNL     1     -10.944   3.891 -35.389  1.00  0.00     0.044 C 
BRANCH  21  23
HETATM   23  O   UNL     1     -11.731   1.641 -35.684  1.00  0.00    -0.391 OA
HETATM   24  H   UNL     1     -10.905   1.343 -36.098  1.00  0.00     0.210 HD
ENDBRANCH  21  23
ENDBRANCH  17  21
ENDBRANCH  12  15
ENDBRANCH   6  11
BRANCH   8  25
HETATM   25  C   UNL     1      -3.823   7.127 -30.674  1.00  0.00     0.409 C 
HETATM   26  F   UNL     1      -3.303   8.283 -30.224  1.00  0.00    -0.169 F 
HETATM   27  F   UNL     1      -5.175   7.236 -30.599  1.00  0.00    -0.169 F 
HETATM   28  F   UNL     1      -3.476   6.159 -29.791  1.00  0.00    -0.169 F 
ENDBRANCH   8  25
BRANCH   1  29
HETATM   29  C   UNL     1      -0.320   6.466 -30.636  1.00  0.00    -0.035 A 
HETATM   30  C   UNL     1      -0.181   7.776 -30.145  1.00  0.00     0.010 A 
HETATM   31  C   UNL     1       0.341   8.019 -28.870  1.00  0.00     0.007 A 
HETATM   32  C   UNL     1       0.743   6.957 -28.056  1.00  0.00    -0.062 A 
HETATM   33  C   UNL     1       1.276   7.202 -26.676  1.00  0.00     0.048 C 
HETATM   34  C   UNL     1       0.595   5.650 -28.529  1.00  0.00     0.007 A 
HETATM   35  C   UNL     1       0.080   5.409 -29.807  1.00  0.00     0.010 A 
ENDBRANCH   1  29
TORSDOF 6
ENDMDL
MODEL 9
REMARK VINA RESULT:      -8.5      3.966      9.856
REMARK  6 active torsions:
REMARK  status: ('A' for Active; 'I' for Inactive)
REMARK    1  A    between atoms: C_5  and  C_6 
REMARK    2  A    between atoms: C_11  and  C_12 
REMARK       I    between atoms: C_12  and  N_13 
REMARK    3  A    between atoms: N_13  and  C_14 
REMARK    4  A    between atoms: C_16  and  C_17 
REMARK    5  A    between atoms: C_17  and  O_18 
REMARK    6  A    between atoms: C_25  and  C_26 
ROOT
HETATM    1  C   UNL     1      -8.194   0.946 -32.302  1.00  0.00     0.118 C 
HETATM    2  N   UNL     1      -7.860   1.382 -30.952  1.00  0.00    -0.366 N 
HETATM    3  C   UNL     1      -7.399   2.619 -30.676  1.00  0.00     0.123 A 
HETATM    4  N   UNL     1      -7.246   3.566 -31.648  1.00  0.00    -0.240 N 
HETATM    5  N   UNL     1      -6.833   4.763 -31.185  1.00  0.00    -0.165 NA
HETATM    6  C   UNL     1      -6.670   4.547 -29.859  1.00  0.00     0.148 A 
HETATM    7  C   UNL     1      -7.012   3.214 -29.506  1.00  0.00     0.089 A 
HETATM    8  C   UNL     1      -7.554   3.350 -33.048  1.00  0.00     0.221 C 
HETATM    9  C   UNL     1      -8.502   2.148 -33.213  1.00  0.00     0.066 C 
HETATM   10  H   UNL     1      -7.860   0.649 -30.243  1.00  0.00     0.161 HD
ENDROOT
BRANCH   6  11
HETATM   11  C   UNL     1      -6.202   5.600 -28.939  1.00  0.00     0.276 C 
HETATM   12  N   UNL     1      -4.857   5.873 -29.102  1.00  0.00    -0.322 N 
HETATM   13  H   UNL     1      -4.408   5.292 -29.807  1.00  0.00     0.169 HD
HETATM   14  O   UNL     1      -6.965   6.125 -28.135  1.00  0.00    -0.266 OA
BRANCH  12  15
HETATM   15  C   UNL     1      -4.069   6.810 -28.414  1.00  0.00     0.035 A 
HETATM   16  C   UNL     1      -4.135   7.015 -27.033  1.00  0.00     0.039 A 
HETATM   17  C   UNL     1      -3.321   7.971 -26.397  1.00  0.00    -0.028 A 
HETATM   18  C   UNL     1      -2.425   8.716 -27.173  1.00  0.00     0.010 A 
HETATM   19  C   UNL     1      -2.355   8.522 -28.553  1.00  0.00     0.003 A 
HETATM   20  C   UNL     1      -3.175   7.576 -29.170  1.00  0.00     0.029 A 
BRANCH  17  21
HETATM   21  C   UNL     1      -3.421   8.146 -24.896  1.00  0.00     0.147 C 
HETATM   22  C   UNL     1      -2.770   9.446 -24.439  1.00  0.00     0.044 C 
BRANCH  21  23
HETATM   23  O   UNL     1      -4.785   8.139 -24.477  1.00  0.00    -0.391 OA
HETATM   24  H   UNL     1      -5.115   7.236 -24.613  1.00  0.00     0.210 HD
ENDBRANCH  21  23
ENDBRANCH  17  21
ENDBRANCH  12  15
ENDBRANCH   6  11
BRANCH   8  25
HETATM   25  C   UNL     1      -6.281   3.251 -33.856  1.00  0.00     0.409 C 
HETATM   26  F   UNL     1      -5.888   4.414 -34.406  1.00  0.00    -0.169 F 
HETATM   27  F   UNL     1      -5.264   2.812 -33.071  1.00  0.00    -0.169 F 
HETATM   28  F   UNL     1      -6.395   2.349 -34.860  1.00  0.00    -0.169 F 
ENDBRANCH   8  25
BRANCH   1  29
HETATM   29  C   UNL     1      -7.194  -0.048 -32.862  1.00  0.00    -0.035 A 
HETATM   30  C   UNL     1      -7.505  -0.731 -34.051  1.00  0.00     0.010 A 
HETATM   31  C   UNL     1      -6.630  -1.678 -34.591  1.00  0.00     0.007 A 
HETATM   32  C   UNL     1      -5.423  -1.972 -33.952  1.00  0.00    -0.062 A 
HETATM   33  C   UNL     1      -4.463  -2.965 -34.537  1.00  0.00     0.048 C 
HETATM   34  C   UNL     1      -5.097  -1.289 -32.778  1.00  0.00     0.007 A 
HETATM   35  C   UNL     1      -5.977  -0.347 -32.234  1.00  0.00     0.010 A 
ENDBRANCH   1  29
TORSDOF 6
ENDMDL
MODEL 10
REMARK VINA RESULT:      -8.5      1.673      2.350
REMARK  6 active torsions:
REMARK  status: ('A' for Active; 'I' for Inactive)
REMARK    1  A    between atoms: C_5  and  C_6 
REMARK    2  A    between atoms: C_11  and  C_12 
REMARK       I    between atoms: C_12  and  N_13 
REMARK    3  A    between atoms: N_13  and  C_14 
REMARK    4  A    between atoms: C_16  and  C_17 
REMARK    5  A    between atoms: C_17  and  O_18 
REMARK    6  A    between atoms: C_25  and  C_26 
ROOT
HETATM    1  C   UNL     1      -2.099   7.811 -30.704  1.00  0.00     0.118 C 
HETATM    2  N   UNL     1      -2.191   6.517 -31.369  1.00  0.00    -0.366 N 
HETATM    3  C   UNL     1      -3.262   5.707 -31.247  1.00  0.00     0.123 A 
HETATM    4  N   UNL     1      -4.357   6.063 -30.512  1.00  0.00    -0.240 N 
HETATM    5  N   UNL     1      -5.358   5.161 -30.549  1.00  0.00    -0.165 NA
HETATM    6  C   UNL     1      -4.850   4.161 -31.306  1.00  0.00     0.148 A 
HETATM    7  C   UNL     1      -3.538   4.468 -31.756  1.00  0.00     0.089 A 
HETATM    8  C   UNL     1      -4.485   7.320 -29.801  1.00  0.00     0.221 C 
HETATM    9  C   UNL     1      -3.496   8.360 -30.360  1.00  0.00     0.066 C 
HETATM   10  H   UNL     1      -1.336   6.196 -31.820  1.00  0.00     0.161 HD
ENDROOT
BRANCH   6  11
HETATM   11  C   UNL     1      -5.608   2.931 -31.603  1.00  0.00     0.276 C 
HETATM   12  N   UNL     1      -5.437   2.517 -32.910  1.00  0.00    -0.322 N 
HETATM   13  H   UNL     1      -4.841   3.135 -33.456  1.00  0.00     0.169 HD
HETATM   14  O   UNL     1      -6.303   2.393 -30.748  1.00  0.00    -0.266 OA
BRANCH  12  15
HETATM   15  C   UNL     1      -5.990   1.394 -33.548  1.00  0.00     0.035 A 
HETATM   16  C   UNL     1      -5.451   0.108 -33.458  1.00  0.00     0.039 A 
HETATM   17  C   UNL     1      -6.046  -0.982 -34.122  1.00  0.00    -0.028 A 
HETATM   18  C   UNL     1      -7.208  -0.759 -34.872  1.00  0.00     0.010 A 
HETATM   19  C   UNL     1      -7.751   0.521 -34.971  1.00  0.00     0.003 A 
HETATM   20  C   UNL     1      -7.143   1.593 -34.314  1.00  0.00     0.029 A 
BRANCH  17  21
HETATM   21  C   UNL     1      -5.431  -2.358 -33.983  1.00  0.00     0.147 C 
HETATM   22  C   UNL     1      -6.041  -3.346 -34.971  1.00  0.00     0.044 C 
BRANCH  21  23
HETATM   23  O   UNL     1      -4.021  -2.304 -34.195  1.00  0.00    -0.391 OA
HETATM   24  H   UNL     1      -3.602  -2.506 -33.342  1.00  0.00     0.210 HD
ENDBRANCH  21  23
ENDBRANCH  17  21
ENDBRANCH  12  15
ENDBRANCH   6  11
BRANCH   8  25
HETATM   25  C   UNL     1      -4.368   7.094 -28.312  1.00  0.00     0.409 C 
HETATM   26  F   UNL     1      -3.320   6.332 -27.952  1.00  0.00    -0.169 F 
HETATM   27  F   UNL     1      -4.243   8.283 -27.667  1.00  0.00    -0.169 F 
HETATM   28  F   UNL     1      -5.482   6.510 -27.806  1.00  0.00    -0.169 F 
ENDBRANCH   8  25
BRANCH   1  29
HETATM   29  C   UNL     1      -1.106   7.812 -29.556  1.00  0.00    -0.035 A 
HETATM   30  C   UNL     1      -1.114   8.885 -28.649  1.00  0.00     0.010 A 
HETATM   31  C   UNL     1      -0.200   8.947 -27.593  1.00  0.00     0.007 A 
HETATM   32  C   UNL     1       0.752   7.938 -27.421  1.00  0.00    -0.062 A 
HETATM   33  C   UNL     1       1.719   7.978 -26.275  1.00  0.00     0.048 C 
HETATM   34  C   UNL     1       0.759   6.859 -28.308  1.00  0.00     0.007 A 
HETATM   35  C   UNL     1      -0.151   6.803 -29.369  1.00  0.00     0.010 A 
ENDBRANCH   1  29
TORSDOF 6
ENDMDL
