MODEL 1
REMARK VINA RESULT:      -9.2      0.000      0.000
REMARK  6 active torsions:
REMARK  status: ('A' for Active; 'I' for Inactive)
REMARK    1  A    between atoms: O_2  and  C_3 
REMARK    2  A    between atoms: C_5  and  N_6 
REMARK    3  A    between atoms: C_7  and  O_8 
REMARK    4  A    between atoms: C_7  and  C_9 
REMARK       I    between atoms: C_9  and  N_10 
REMARK    5  A    between atoms: N_10  and  C_11 
REMARK    6  A    between atoms: C_11  and  C_12 
ROOT
HETATM    1  N   UNL     1      -9.414   2.898 -32.692  1.00  0.00    -0.254 N 
HETATM    2  C   UNL     1      -8.763   1.719 -32.094  1.00  0.00     0.256 C 
HETATM    3  C   UNL     1      -7.333   1.973 -31.655  1.00  0.00     0.034 A 
HETATM    4  C   UNL     1      -6.630   2.996 -32.273  1.00  0.00     0.048 A 
HETATM    5  N   UNL     1      -7.292   3.799 -33.185  1.00  0.00    -0.308 N 
HETATM    6  C   UNL     1      -8.638   3.809 -33.402  1.00  0.00     0.330 C 
HETATM    7  O   UNL     1      -9.054   4.605 -34.244  1.00  0.00    -0.246 OA
HETATM    8  C   UNL     1      -6.657   1.159 -30.729  1.00  0.00     0.015 A 
HETATM    9  C   UNL     1      -5.311   1.386 -30.433  1.00  0.00     0.001 A 
HETATM   10  C   UNL     1      -4.622   2.415 -31.071  1.00  0.00     0.002 A 
HETATM   11  C   UNL     1      -5.279   3.221 -31.998  1.00  0.00     0.030 A 
HETATM   12  H   UNL     1      -6.789   4.530 -33.675  1.00  0.00     0.170 HD
ENDROOT
BRANCH   2  13
HETATM   13  O   UNL     1      -9.463   1.358 -30.897  1.00  0.00    -0.359 OA
HETATM   14  H   UNL     1     -10.289   0.937 -31.205  1.00  0.00     0.213 HD
ENDBRANCH   2  13
BRANCH   2  15
HETATM   15  C   UNL     1      -8.761   0.504 -33.113  1.00  0.00     0.279 C 
HETATM   16  N   UNL     1      -7.762   0.474 -34.061  1.00  0.00    -0.352 N 
HETATM   17  H   UNL     1      -7.243   1.323 -34.247  1.00  0.00     0.162 HD
HETATM   18  O   UNL     1      -9.586  -0.409 -32.994  1.00  0.00    -0.268 OA
BRANCH  16  19
HETATM   19  C   UNL     1      -7.681  -0.579 -35.041  1.00  0.00     0.161 C 
BRANCH  19  20
HETATM   20  C   UNL     1      -6.615  -1.570 -34.655  1.00  0.00    -0.040 A 
HETATM   21  C   UNL     1      -5.468  -1.141 -33.970  1.00  0.00     0.010 A 
HETATM   22  C   UNL     1      -4.458  -2.048 -33.642  1.00  0.00     0.024 A 
HETATM   23  C   UNL     1      -4.586  -3.387 -34.005  1.00  0.00     0.034 A 
HETATM   24 CL   UNL     1      -3.341  -4.504 -33.605  1.00  0.00    -0.084 Cl
HETATM   25  C   UNL     1      -5.713  -3.825 -34.698  1.00  0.00     0.024 A 
HETATM   26  C   UNL     1      -6.723  -2.918 -35.025  1.00  0.00     0.010 A 
ENDBRANCH  19  20
ENDBRANCH  16  19
ENDBRANCH   2  15
BRANCH   1  27
HETATM   27  C   UNL     1     -10.859   2.998 -32.733  1.00  0.00     0.045 A 
HETATM   28  C   UNL     1     -11.598   2.263 -33.679  1.00  0.00     0.066 A 
HETATM   29  C   UNL     1     -12.994   2.345 -33.769  1.00  0.00     0.070 A 
HETATM   30  C   UNL     1     -13.686   3.185 -32.903  1.00  0.00     0.037 A 
HETATM   31  C   UNL     1     -12.982   3.931 -31.962  1.00  0.00     0.005 A 
HETATM   32  C   UNL     1     -11.587   3.841 -31.880  1.00  0.00     0.030 A 
BRANCH  29  33
HETATM   33  O   UNL     1     -13.551   1.569 -34.749  1.00  0.00    -0.356 OA
HETATM   34  C   UNL     1     -14.676   0.779 -34.388  1.00  0.00     0.210 C 
ENDBRANCH  29  33
ENDBRANCH   1  27
TORSDOF 6
ENDMDL
MODEL 2
REMARK VINA RESULT:      -8.7      3.618      5.361
REMARK  6 active torsions:
REMARK  status: ('A' for Active; 'I' for Inactive)
REMARK    1  A    between atoms: O_2  and  C_3 
REMARK    2  A    between atoms: C_5  and  N_6 
REMARK    3  A    between atoms: C_7  and  O_8 
REMARK    4  A    between atoms: C_7  and  C_9 
REMARK       I    between atoms: C_9  and  N_10 
REMARK    5  A    between atoms: N_10  and  C_11 
REMARK    6  A    between atoms: C_11  and  C_12 
ROOT
HETATM    1  N   UNL     1      -4.511   4.995 -33.371  1.00  0.00    -0.254 N 
HETATM    2  C   UNL     1      -3.782   4.741 -32.116  1.00  0.00     0.256 C 
HETATM    3  C   UNL     1      -2.559   5.620 -31.936  1.00  0.00     0.034 A 
HETATM    4  C   UNL     1      -1.957   6.146 -33.069  1.00  0.00     0.048 A 
HETATM    5  N   UNL     1      -2.555   5.929 -34.299  1.00  0.00    -0.308 N 
HETATM    6  C   UNL     1      -3.798   5.404 -34.494  1.00  0.00     0.330 C 
HETATM    7  O   UNL     1      -4.175   5.300 -35.661  1.00  0.00    -0.246 OA
HETATM    8  C   UNL     1      -1.948   5.842 -30.689  1.00  0.00     0.015 A 
HETATM    9  C   UNL     1      -0.769   6.585 -30.597  1.00  0.00     0.001 A 
HETATM   10  C   UNL     1      -0.178   7.099 -31.750  1.00  0.00     0.002 A 
HETATM   11  C   UNL     1      -0.769   6.875 -32.992  1.00  0.00     0.030 A 
HETATM   12  H   UNL     1      -2.115   6.274 -35.144  1.00  0.00     0.170 HD
ENDROOT
BRANCH   2  13
HETATM   13  O   UNL     1      -4.636   5.057 -31.009  1.00  0.00    -0.359 OA
HETATM   14  H   UNL     1      -4.070   5.560 -30.391  1.00  0.00     0.213 HD
ENDBRANCH   2  13
BRANCH   2  15
HETATM   15  C   UNL     1      -3.321   3.226 -32.034  1.00  0.00     0.279 C 
HETATM   16  N   UNL     1      -3.953   2.421 -31.112  1.00  0.00    -0.352 N 
HETATM   17  H   UNL     1      -4.476   2.857 -30.363  1.00  0.00     0.162 HD
HETATM   18  O   UNL     1      -2.483   2.788 -32.829  1.00  0.00    -0.268 OA
BRANCH  16  19
HETATM   19  C   UNL     1      -3.596   1.033 -30.950  1.00  0.00     0.161 C 
BRANCH  19  20
HETATM   20  C   UNL     1      -4.405   0.175 -31.886  1.00  0.00    -0.040 A 
HETATM   21  C   UNL     1      -5.780  -0.002 -31.670  1.00  0.00     0.010 A 
HETATM   22  C   UNL     1      -6.529  -0.827 -32.513  1.00  0.00     0.024 A 
HETATM   23  C   UNL     1      -5.904  -1.486 -33.570  1.00  0.00     0.034 A 
HETATM   24 CL   UNL     1      -6.825  -2.504 -34.607  1.00  0.00    -0.084 Cl
HETATM   25  C   UNL     1      -4.537  -1.330 -33.788  1.00  0.00     0.024 A 
HETATM   26  C   UNL     1      -3.788  -0.505 -32.946  1.00  0.00     0.010 A 
ENDBRANCH  19  20
ENDBRANCH  16  19
ENDBRANCH   2  15
BRANCH   1  27
HETATM   27  C   UNL     1      -5.905   4.619 -33.500  1.00  0.00     0.045 A 
HETATM   28  C   UNL     1      -6.258   3.302 -33.852  1.00  0.00     0.066 A 
HETATM   29  C   UNL     1      -7.591   2.900 -34.010  1.00  0.00     0.070 A 
HETATM   30  C   UNL     1      -8.611   3.826 -33.822  1.00  0.00     0.037 A 
HETATM   31  C   UNL     1      -8.293   5.138 -33.482  1.00  0.00     0.005 A 
HETATM   32  C   UNL     1      -6.957   5.530 -33.326  1.00  0.00     0.030 A 
BRANCH  29  33
HETATM   33  O   UNL     1      -7.754   1.587 -34.360  1.00  0.00    -0.356 OA
HETATM   34  C   UNL     1      -9.075   1.065 -34.315  1.00  0.00     0.210 C 
ENDBRANCH  29  33
ENDBRANCH   1  27
TORSDOF 6
ENDMDL
MODEL 3
REMARK VINA RESULT:      -8.7      1.026      1.861
REMARK  6 active torsions:
REMARK  status: ('A' for Active; 'I' for Inactive)
REMARK    1  A    between atoms: O_2  and  C_3 
REMARK    2  A    between atoms: C_5  and  N_6 
REMARK    3  A    between atoms: C_7  and  O_8 
REMARK    4  A    between atoms: C_7  and  C_9 
REMARK       I    between atoms: C_9  and  N_10 
REMARK    5  A    between atoms: N_10  and  C_11 
REMARK    6  A    between atoms: C_11  and  C_12 
ROOT
HETATM    1  N   UNL     1      -9.330   2.942 -32.669  1.00  0.00    -0.254 N 
HETATM    2  C   UNL     1      -8.681   1.757 -32.080  1.00  0.00     0.256 C 
HETATM    3  C   UNL     1      -7.240   1.997 -31.670  1.00  0.00     0.034 A 
HETATM    4  C   UNL     1      -6.537   3.009 -32.305  1.00  0.00     0.048 A 
HETATM    5  N   UNL     1      -7.208   3.817 -33.207  1.00  0.00    -0.308 N 
HETATM    6  C   UNL     1      -8.558   3.842 -33.397  1.00  0.00     0.330 C 
HETATM    7  O   UNL     1      -8.982   4.640 -34.233  1.00  0.00    -0.246 OA
HETATM    8  C   UNL     1      -6.555   1.178 -30.755  1.00  0.00     0.015 A 
HETATM    9  C   UNL     1      -5.201   1.390 -30.486  1.00  0.00     0.001 A 
HETATM   10  C   UNL     1      -4.513   2.409 -31.141  1.00  0.00     0.002 A 
HETATM   11  C   UNL     1      -5.179   3.219 -32.058  1.00  0.00     0.030 A 
HETATM   12  H   UNL     1      -6.707   4.541 -33.708  1.00  0.00     0.170 HD
ENDROOT
BRANCH   2  13
HETATM   13  O   UNL     1      -9.361   1.408 -30.868  1.00  0.00    -0.359 OA
HETATM   14  H   UNL     1      -9.433   0.434 -30.891  1.00  0.00     0.213 HD
ENDBRANCH   2  13
BRANCH   2  15
HETATM   15  C   UNL     1      -8.713   0.539 -33.095  1.00  0.00     0.279 C 
HETATM   16  N   UNL     1      -7.717   0.480 -34.044  1.00  0.00    -0.352 N 
HETATM   17  H   UNL     1      -7.175   1.314 -34.233  1.00  0.00     0.162 HD
HETATM   18  O   UNL     1      -9.562  -0.351 -32.971  1.00  0.00    -0.268 OA
BRANCH  16  19
HETATM   19  C   UNL     1      -7.666  -0.579 -35.020  1.00  0.00     0.161 C 
BRANCH  19  20
HETATM   20  C   UNL     1      -6.569  -1.552 -34.678  1.00  0.00    -0.040 A 
HETATM   21  C   UNL     1      -6.678  -2.899 -35.055  1.00  0.00     0.010 A 
HETATM   22  C   UNL     1      -5.681  -3.815 -34.708  1.00  0.00     0.024 A 
HETATM   23  C   UNL     1      -4.575  -3.388 -33.976  1.00  0.00     0.034 A 
HETATM   24 CL   UNL     1      -3.348  -4.515 -33.547  1.00  0.00    -0.084 Cl
HETATM   25  C   UNL     1      -4.460  -2.056 -33.584  1.00  0.00     0.024 A 
HETATM   26  C   UNL     1      -5.456  -1.141 -33.931  1.00  0.00     0.010 A 
ENDBRANCH  19  20
ENDBRANCH  16  19
ENDBRANCH   2  15
BRANCH   1  27
HETATM   27  C   UNL     1     -10.775   3.058 -32.681  1.00  0.00     0.045 A 
HETATM   28  C   UNL     1     -11.435   3.837 -31.712  1.00  0.00     0.066 A 
HETATM   29  C   UNL     1     -12.831   3.961 -31.673  1.00  0.00     0.070 A 
HETATM   30  C   UNL     1     -13.603   3.288 -32.614  1.00  0.00     0.037 A 
HETATM   31  C   UNL     1     -12.978   2.502 -33.579  1.00  0.00     0.005 A 
HETATM   32  C   UNL     1     -11.583   2.387 -33.610  1.00  0.00     0.030 A 
BRANCH  29  33
HETATM   33  O   UNL     1     -13.306   4.751 -30.662  1.00  0.00    -0.356 OA
HETATM   34  C   UNL     1     -14.550   5.404 -30.882  1.00  0.00     0.210 C 
ENDBRANCH  29  33
ENDBRANCH   1  27
TORSDOF 6
ENDMDL
MODEL 4
REMARK VINA RESULT:      -8.5      3.751      5.526
REMARK  6 active torsions:
REMARK  status: ('A' for Active; 'I' for Inactive)
REMARK    1  A    between atoms: O_2  and  C_3 
REMARK    2  A    between atoms: C_5  and  N_6 
REMARK    3  A    between atoms: C_7  and  O_8 
REMARK    4  A    between atoms: C_7  and  C_9 
REMARK       I    between atoms: C_9  and  N_10 
REMARK    5  A    between atoms: N_10  and  C_11 
REMARK    6  A    between atoms: C_11  and  C_12 
ROOT
HETATM    1  N   UNL     1      -5.225   4.704 -32.286  1.00  0.00    -0.254 N 
HETATM    2  C   UNL     1      -3.932   4.545 -31.598  1.00  0.00     0.256 C 
HETATM    3  C   UNL     1      -2.871   5.523 -32.067  1.00  0.00     0.034 A 
HETATM    4  C   UNL     1      -2.991   6.061 -33.339  1.00  0.00     0.048 A 
HETATM    5  N   UNL     1      -4.121   5.761 -34.081  1.00  0.00    -0.308 N 
HETATM    6  C   UNL     1      -5.236   5.135 -33.610  1.00  0.00     0.330 C 
HETATM    7  O   UNL     1      -6.154   4.967 -34.413  1.00  0.00    -0.246 OA
HETATM    8  C   UNL     1      -1.723   5.829 -31.316  1.00  0.00     0.015 A 
HETATM    9  C   UNL     1      -0.733   6.664 -31.838  1.00  0.00     0.001 A 
HETATM   10  C   UNL     1      -0.872   7.189 -33.121  1.00  0.00     0.002 A 
HETATM   11  C   UNL     1      -2.001   6.883 -33.879  1.00  0.00     0.030 A 
HETATM   12  H   UNL     1      -4.214   6.115 -35.026  1.00  0.00     0.170 HD
ENDROOT
BRANCH   2  13
HETATM   13  O   UNL     1      -4.110   4.825 -30.203  1.00  0.00    -0.359 OA
HETATM   14  H   UNL     1      -4.393   5.760 -30.169  1.00  0.00     0.213 HD
ENDBRANCH   2  13
BRANCH   2  15
HETATM   15  C   UNL     1      -3.373   3.074 -31.792  1.00  0.00     0.279 C 
HETATM   16  N   UNL     1      -3.736   2.130 -30.857  1.00  0.00    -0.352 N 
HETATM   17  H   UNL     1      -4.108   2.443 -29.969  1.00  0.00     0.162 HD
HETATM   18  O   UNL     1      -2.704   2.791 -32.792  1.00  0.00    -0.268 OA
BRANCH  16  19
HETATM   19  C   UNL     1      -3.268   0.769 -30.937  1.00  0.00     0.161 C 
BRANCH  19  20
HETATM   20  C   UNL     1      -4.160  -0.037 -31.845  1.00  0.00    -0.040 A 
HETATM   21  C   UNL     1      -3.624  -0.677 -32.973  1.00  0.00     0.010 A 
HETATM   22  C   UNL     1      -4.452  -1.395 -33.840  1.00  0.00     0.024 A 
HETATM   23  C   UNL     1      -5.821  -1.468 -33.587  1.00  0.00     0.034 A 
HETATM   24 CL   UNL     1      -6.841  -2.350 -34.655  1.00  0.00    -0.084 Cl
HETATM   25  C   UNL     1      -6.368  -0.826 -32.478  1.00  0.00     0.024 A 
HETATM   26  C   UNL     1      -5.540  -0.109 -31.611  1.00  0.00     0.010 A 
ENDBRANCH  19  20
ENDBRANCH  16  19
ENDBRANCH   2  15
BRANCH   1  27
HETATM   27  C   UNL     1      -6.447   4.216 -31.678  1.00  0.00     0.045 A 
HETATM   28  C   UNL     1      -7.168   5.024 -30.779  1.00  0.00     0.066 A 
HETATM   29  C   UNL     1      -8.342   4.584 -30.152  1.00  0.00     0.070 A 
HETATM   30  C   UNL     1      -8.818   3.304 -30.412  1.00  0.00     0.037 A 
HETATM   31  C   UNL     1      -8.121   2.479 -31.290  1.00  0.00     0.005 A 
HETATM   32  C   UNL     1      -6.949   2.928 -31.913  1.00  0.00     0.030 A 
BRANCH  29  33
HETATM   33  O   UNL     1      -8.911   5.495 -29.303  1.00  0.00    -0.356 OA
HETATM   34  C   UNL     1      -8.040   6.180 -28.412  1.00  0.00     0.210 C 
ENDBRANCH  29  33
ENDBRANCH   1  27
TORSDOF 6
ENDMDL
MODEL 5
REMARK VINA RESULT:      -8.4      3.232      6.799
REMARK  6 active torsions:
REMARK  status: ('A' for Active; 'I' for Inactive)
REMARK    1  A    between atoms: O_2  and  C_3 
REMARK    2  A    between atoms: C_5  and  N_6 
REMARK    3  A    between atoms: C_7  and  O_8 
REMARK    4  A    between atoms: C_7  and  C_9 
REMARK       I    between atoms: C_9  and  N_10 
REMARK    5  A    between atoms: N_10  and  C_11 
REMARK    6  A    between atoms: C_11  and  C_12 
ROOT
HETATM    1  N   UNL     1      -4.991   1.151 -32.615  1.00  0.00    -0.254 N 
HETATM    2  C   UNL     1      -5.539   2.478 -32.946  1.00  0.00     0.256 C 
HETATM    3  C   UNL     1      -4.551   3.611 -32.741  1.00  0.00     0.034 A 
HETATM    4  C   UNL     1      -3.514   3.422 -31.840  1.00  0.00     0.048 A 
HETATM    5  N   UNL     1      -3.371   2.180 -31.246  1.00  0.00    -0.308 N 
HETATM    6  C   UNL     1      -4.039   1.047 -31.605  1.00  0.00     0.330 C 
HETATM    7  O   UNL     1      -3.770   0.025 -30.974  1.00  0.00    -0.246 OA
HETATM    8  C   UNL     1      -4.694   4.874 -33.343  1.00  0.00     0.015 A 
HETATM    9  C   UNL     1      -3.804   5.908 -33.044  1.00  0.00     0.001 A 
HETATM   10  C   UNL     1      -2.774   5.698 -32.130  1.00  0.00     0.002 A 
HETATM   11  C   UNL     1      -2.630   4.454 -31.520  1.00  0.00     0.030 A 
HETATM   12  H   UNL     1      -2.642   2.029 -30.558  1.00  0.00     0.170 HD
ENDROOT
BRANCH   2  13
HETATM   13  O   UNL     1      -5.864   2.513 -34.342  1.00  0.00    -0.359 OA
HETATM   14  H   UNL     1      -5.207   3.118 -34.738  1.00  0.00     0.213 HD
ENDBRANCH   2  13
BRANCH   2  15
HETATM   15  C   UNL     1      -6.830   2.782 -32.078  1.00  0.00     0.279 C 
HETATM   16  N   UNL     1      -7.948   3.237 -32.742  1.00  0.00    -0.352 N 
HETATM   17  H   UNL     1      -7.840   3.606 -33.679  1.00  0.00     0.162 HD
HETATM   18  O   UNL     1      -6.835   2.539 -30.866  1.00  0.00    -0.268 OA
BRANCH  16  19
HETATM   19  C   UNL     1      -9.166   3.556 -32.041  1.00  0.00     0.161 C 
BRANCH  19  20
HETATM   20  C   UNL     1     -10.307   2.733 -32.577  1.00  0.00    -0.040 A 
HETATM   21  C   UNL     1     -10.093   1.404 -32.975  1.00  0.00     0.010 A 
HETATM   22  C   UNL     1     -11.139   0.647 -33.507  1.00  0.00     0.024 A 
HETATM   23  C   UNL     1     -12.402   1.217 -33.652  1.00  0.00     0.034 A 
HETATM   24 CL   UNL     1     -13.689   0.286 -34.311  1.00  0.00    -0.084 Cl
HETATM   25  C   UNL     1     -12.626   2.539 -33.274  1.00  0.00     0.024 A 
HETATM   26  C   UNL     1     -11.580   3.296 -32.741  1.00  0.00     0.010 A 
ENDBRANCH  19  20
ENDBRANCH  16  19
ENDBRANCH   2  15
BRANCH   1  27
HETATM   27  C   UNL     1      -5.584  -0.049 -33.172  1.00  0.00     0.045 A 
HETATM   28  C   UNL     1      -4.772  -1.038 -33.759  1.00  0.00     0.066 A 
HETATM   29  C   UNL     1      -5.304  -2.203 -34.328  1.00  0.00     0.070 A 
HETATM   30  C   UNL     1      -6.681  -2.398 -34.326  1.00  0.00     0.037 A 
HETATM   31  C   UNL     1      -7.509  -1.433 -33.761  1.00  0.00     0.005 A 
HETATM   32  C   UNL     1      -6.968  -0.272 -33.193  1.00  0.00     0.030 A 
BRANCH  29  33
HETATM   33  O   UNL     1      -4.374  -3.055 -34.861  1.00  0.00    -0.356 OA
HETATM   34  C   UNL     1      -4.016  -4.190 -34.083  1.00  0.00     0.210 C 
ENDBRANCH  29  33
ENDBRANCH   1  27
TORSDOF 6
ENDMDL
MODEL 6
REMARK VINA RESULT:      -8.2      1.885      5.516
REMARK  6 active torsions:
REMARK  status: ('A' for Active; 'I' for Inactive)
REMARK    1  A    between atoms: O_2  and  C_3 
REMARK    2  A    between atoms: C_5  and  N_6 
REMARK    3  A    between atoms: C_7  and  O_8 
REMARK    4  A    between atoms: C_7  and  C_9 
REMARK       I    between atoms: C_9  and  N_10 
REMARK    5  A    between atoms: N_10  and  C_11 
REMARK    6  A    between atoms: C_11  and  C_12 
ROOT
HETATM    1  N   UNL     1      -9.326   3.303 -32.702  1.00  0.00    -0.254 N 
HETATM    2  C   UNL     1      -9.791   2.268 -33.643  1.00  0.00     0.256 C 
HETATM    3  C   UNL     1     -11.300   2.218 -33.791  1.00  0.00     0.034 A 
HETATM    4  C   UNL     1     -12.078   2.702 -32.751  1.00  0.00     0.048 A 
HETATM    5  N   UNL     1     -11.446   3.296 -31.672  1.00  0.00    -0.308 N 
HETATM    6  C   UNL     1     -10.127   3.633 -31.613  1.00  0.00     0.330 C 
HETATM    7  O   UNL     1      -9.742   4.173 -30.576  1.00  0.00    -0.246 OA
HETATM    8  C   UNL     1     -11.945   1.614 -34.885  1.00  0.00     0.015 A 
HETATM    9  C   UNL     1     -13.337   1.515 -34.924  1.00  0.00     0.001 A 
HETATM   10  C   UNL     1     -14.099   2.002 -33.863  1.00  0.00     0.002 A 
HETATM   11  C   UNL     1     -13.470   2.592 -32.769  1.00  0.00     0.030 A 
HETATM   12  H   UNL     1     -11.992   3.625 -30.884  1.00  0.00     0.170 HD
ENDROOT
BRANCH   2  13
HETATM   13  O   UNL     1      -9.296   2.573 -34.953  1.00  0.00    -0.359 OA
HETATM   14  H   UNL     1      -8.472   3.075 -34.800  1.00  0.00     0.213 HD
ENDBRANCH   2  13
BRANCH   2  15
HETATM   15  C   UNL     1      -9.289   0.834 -33.190  1.00  0.00     0.279 C 
HETATM   16  N   UNL     1      -8.387   0.191 -34.009  1.00  0.00    -0.352 N 
HETATM   17  H   UNL     1      -8.281   0.513 -34.963  1.00  0.00     0.162 HD
HETATM   18  O   UNL     1      -9.645   0.366 -32.103  1.00  0.00    -0.268 OA
BRANCH  16  19
HETATM   19  C   UNL     1      -7.882  -1.121 -33.692  1.00  0.00     0.161 C 
BRANCH  19  20
HETATM   20  C   UNL     1      -6.458  -1.030 -33.211  1.00  0.00    -0.040 A 
HETATM   21  C   UNL     1      -5.406  -1.461 -34.033  1.00  0.00     0.010 A 
HETATM   22  C   UNL     1      -4.086  -1.413 -33.579  1.00  0.00     0.024 A 
HETATM   23  C   UNL     1      -3.813  -0.942 -32.296  1.00  0.00     0.034 A 
HETATM   24 CL   UNL     1      -2.188  -0.886 -31.734  1.00  0.00    -0.084 Cl
HETATM   25  C   UNL     1      -4.849  -0.524 -31.463  1.00  0.00     0.024 A 
HETATM   26  C   UNL     1      -6.168  -0.571 -31.918  1.00  0.00     0.010 A 
ENDBRANCH  19  20
ENDBRANCH  16  19
ENDBRANCH   2  15
BRANCH   1  27
HETATM   27  C   UNL     1      -7.971   3.811 -32.780  1.00  0.00     0.045 A 
HETATM   28  C   UNL     1      -6.916   3.124 -32.150  1.00  0.00     0.066 A 
HETATM   29  C   UNL     1      -5.594   3.590 -32.181  1.00  0.00     0.070 A 
HETATM   30  C   UNL     1      -5.302   4.775 -32.846  1.00  0.00     0.037 A 
HETATM   31  C   UNL     1      -6.327   5.481 -33.471  1.00  0.00     0.005 A 
HETATM   32  C   UNL     1      -7.644   5.007 -33.435  1.00  0.00     0.030 A 
BRANCH  29  33
HETATM   33  O   UNL     1      -4.695   2.803 -31.511  1.00  0.00    -0.356 OA
HETATM   34  C   UNL     1      -3.343   2.853 -31.947  1.00  0.00     0.210 C 
ENDBRANCH  29  33
ENDBRANCH   1  27
TORSDOF 6
ENDMDL
MODEL 7
REMARK VINA RESULT:      -8.2      2.847      5.887
REMARK  6 active torsions:
REMARK  status: ('A' for Active; 'I' for Inactive)
REMARK    1  A    between atoms: O_2  and  C_3 
REMARK    2  A    between atoms: C_5  and  N_6 
REMARK    3  A    between atoms: C_7  and  O_8 
REMARK    4  A    between atoms: C_7  and  C_9 
REMARK       I    between atoms: C_9  and  N_10 
REMARK    5  A    between atoms: N_10  and  C_11 
REMARK    6  A    between atoms: C_11  and  C_12 
ROOT
HETATM    1  N   UNL     1      -6.809   3.962 -31.438  1.00  0.00    -0.254 N 
HETATM    2  C   UNL     1      -6.838   3.274 -32.741  1.00  0.00     0.256 C 
HETATM    3  C   UNL     1      -8.066   2.405 -32.941  1.00  0.00     0.034 A 
HETATM    4  C   UNL     1      -8.722   1.927 -31.816  1.00  0.00     0.048 A 
HETATM    5  N   UNL     1      -8.288   2.344 -30.569  1.00  0.00    -0.308 N 
HETATM    6  C   UNL     1      -7.390   3.342 -30.335  1.00  0.00     0.330 C 
HETATM    7  O   UNL     1      -7.135   3.589 -29.156  1.00  0.00    -0.246 OA
HETATM    8  C   UNL     1      -8.509   1.980 -34.206  1.00  0.00     0.015 A 
HETATM    9  C   UNL     1      -9.590   1.104 -34.323  1.00  0.00     0.001 A 
HETATM   10  C   UNL     1     -10.230   0.631 -33.179  1.00  0.00     0.002 A 
HETATM   11  C   UNL     1      -9.792   1.038 -31.920  1.00  0.00     0.030 A 
HETATM   12  H   UNL     1      -8.729   1.981 -29.733  1.00  0.00     0.170 HD
ENDROOT
BRANCH   2  13
HETATM   13  O   UNL     1      -6.900   4.255 -33.784  1.00  0.00    -0.359 OA
HETATM   14  H   UNL     1      -6.547   3.804 -34.575  1.00  0.00     0.213 HD
ENDBRANCH   2  13
BRANCH   2  15
HETATM   15  C   UNL     1      -5.552   2.365 -32.922  1.00  0.00     0.279 C 
HETATM   16  N   UNL     1      -5.664   1.034 -32.584  1.00  0.00    -0.352 N 
HETATM   17  H   UNL     1      -6.442   0.744 -32.004  1.00  0.00     0.162 HD
HETATM   18  O   UNL     1      -4.524   2.835 -33.421  1.00  0.00    -0.268 OA
BRANCH  16  19
HETATM   19  C   UNL     1      -4.549   0.129 -32.698  1.00  0.00     0.161 C 
BRANCH  19  20
HETATM   20  C   UNL     1      -4.957  -1.110 -33.451  1.00  0.00    -0.040 A 
HETATM   21  C   UNL     1      -6.256  -1.223 -33.971  1.00  0.00     0.010 A 
HETATM   22  C   UNL     1      -6.653  -2.385 -34.638  1.00  0.00     0.024 A 
HETATM   23  C   UNL     1      -5.755  -3.441 -34.781  1.00  0.00     0.034 A 
HETATM   24 CL   UNL     1      -6.245  -4.873 -35.600  1.00  0.00    -0.084 Cl
HETATM   25  C   UNL     1      -4.467  -3.348 -34.258  1.00  0.00     0.024 A 
HETATM   26  C   UNL     1      -4.071  -2.186 -33.592  1.00  0.00     0.010 A 
ENDBRANCH  19  20
ENDBRANCH  16  19
ENDBRANCH   2  15
BRANCH   1  27
HETATM   27  C   UNL     1      -6.006   5.154 -31.254  1.00  0.00     0.045 A 
HETATM   28  C   UNL     1      -4.607   5.058 -31.132  1.00  0.00     0.066 A 
HETATM   29  C   UNL     1      -3.793   6.181 -30.932  1.00  0.00     0.070 A 
HETATM   30  C   UNL     1      -4.376   7.440 -30.839  1.00  0.00     0.037 A 
HETATM   31  C   UNL     1      -5.758   7.565 -30.946  1.00  0.00     0.005 A 
HETATM   32  C   UNL     1      -6.563   6.437 -31.148  1.00  0.00     0.030 A 
BRANCH  29  33
HETATM   33  O   UNL     1      -2.455   5.906 -30.829  1.00  0.00    -0.356 OA
HETATM   34  C   UNL     1      -1.995   4.702 -31.427  1.00  0.00     0.210 C 
ENDBRANCH  29  33
ENDBRANCH   1  27
TORSDOF 6
ENDMDL
MODEL 8
REMARK VINA RESULT:      -8.2      3.501      7.371
REMARK  6 active torsions:
REMARK  status: ('A' for Active; 'I' for Inactive)
REMARK    1  A    between atoms: O_2  and  C_3 
REMARK    2  A    between atoms: C_5  and  N_6 
REMARK    3  A    between atoms: C_7  and  O_8 
REMARK    4  A    between atoms: C_7  and  C_9 
REMARK       I    between atoms: C_9  and  N_10 
REMARK    5  A    between atoms: N_10  and  C_11 
REMARK    6  A    between atoms: C_11  and  C_12 
ROOT
HETATM    1  N   UNL     1      -5.706   0.037 -33.163  1.00  0.00    -0.254 N 
HETATM    2  C   UNL     1      -6.532   1.136 -33.693  1.00  0.00     0.256 C 
HETATM    3  C   UNL     1      -5.948   2.512 -33.436  1.00  0.00     0.034 A 
HETATM    4  C   UNL     1      -5.075   2.666 -32.370  1.00  0.00     0.048 A 
HETATM    5  N   UNL     1      -4.701   1.543 -31.652  1.00  0.00    -0.308 N 
HETATM    6  C   UNL     1      -4.956   0.252 -32.010  1.00  0.00     0.330 C 
HETATM    7  O   UNL     1      -4.530  -0.623 -31.256  1.00  0.00    -0.246 OA
HETATM    8  C   UNL     1      -6.326   3.655 -34.162  1.00  0.00     0.015 A 
HETATM    9  C   UNL     1      -5.824   4.913 -33.821  1.00  0.00     0.001 A 
HETATM   10  C   UNL     1      -4.954   5.045 -32.741  1.00  0.00     0.002 A 
HETATM   11  C   UNL     1      -4.581   3.920 -32.007  1.00  0.00     0.030 A 
HETATM   12  H   UNL     1      -4.092   1.636 -30.847  1.00  0.00     0.170 HD
ENDROOT
BRANCH   2  13
HETATM   13  O   UNL     1      -6.603   1.019 -35.120  1.00  0.00    -0.359 OA
HETATM   14  H   UNL     1      -6.255   0.128 -35.317  1.00  0.00     0.213 HD
ENDBRANCH   2  13
BRANCH   2  15
HETATM   15  C   UNL     1      -7.989   1.091 -33.068  1.00  0.00     0.279 C 
HETATM   16  N   UNL     1      -9.040   0.864 -33.930  1.00  0.00    -0.352 N 
HETATM   17  H   UNL     1      -8.893   0.995 -34.922  1.00  0.00     0.162 HD
HETATM   18  O   UNL     1      -8.144   1.180 -31.846  1.00  0.00    -0.268 OA
BRANCH  16  19
HETATM   19  C   UNL     1     -10.403   0.819 -33.463  1.00  0.00     0.161 C 
BRANCH  19  20
HETATM   20  C   UNL     1     -11.159   2.030 -33.942  1.00  0.00    -0.040 A 
HETATM   21  C   UNL     1     -11.953   1.955 -35.096  1.00  0.00     0.010 A 
HETATM   22  C   UNL     1     -12.627   3.085 -35.567  1.00  0.00     0.024 A 
HETATM   23  C   UNL     1     -12.502   4.297 -34.891  1.00  0.00     0.034 A 
HETATM   24 CL   UNL     1     -13.330   5.688 -35.472  1.00  0.00    -0.084 Cl
HETATM   25  C   UNL     1     -11.706   4.389 -33.751  1.00  0.00     0.024 A 
HETATM   26  C   UNL     1     -11.033   3.260 -33.280  1.00  0.00     0.010 A 
ENDBRANCH  19  20
ENDBRANCH  16  19
ENDBRANCH   2  15
BRANCH   1  27
HETATM   27  C   UNL     1      -5.836  -1.304 -33.696  1.00  0.00     0.045 A 
HETATM   28  C   UNL     1      -4.699  -2.115 -33.873  1.00  0.00     0.066 A 
HETATM   29  C   UNL     1      -4.775  -3.409 -34.406  1.00  0.00     0.070 A 
HETATM   30  C   UNL     1      -6.012  -3.920 -34.785  1.00  0.00     0.037 A 
HETATM   31  C   UNL     1      -7.154  -3.138 -34.630  1.00  0.00     0.005 A 
HETATM   32  C   UNL     1      -7.066  -1.846 -34.096  1.00  0.00     0.030 A 
BRANCH  29  33
HETATM   33  O   UNL     1      -3.573  -4.054 -34.514  1.00  0.00    -0.356 OA
HETATM   34  C   UNL     1      -3.226  -4.955 -33.471  1.00  0.00     0.210 C 
ENDBRANCH  29  33
ENDBRANCH   1  27
TORSDOF 6
ENDMDL
MODEL 9
REMARK VINA RESULT:      -8.2      4.500      7.658
REMARK  6 active torsions:
REMARK  status: ('A' for Active; 'I' for Inactive)
REMARK    1  A    between atoms: O_2  and  C_3 
REMARK    2  A    between atoms: C_5  and  N_6 
REMARK    3  A    between atoms: C_7  and  O_8 
REMARK    4  A    between atoms: C_7  and  C_9 
REMARK       I    between atoms: C_9  and  N_10 
REMARK    5  A    between atoms: N_10  and  C_11 
REMARK    6  A    between atoms: C_11  and  C_12 
ROOT
HETATM    1  N   UNL     1      -6.254   2.550 -31.060  1.00  0.00    -0.254 N 
HETATM    2  C   UNL     1      -6.053   2.669 -32.515  1.00  0.00     0.256 C 
HETATM    3  C   UNL     1      -6.472   1.432 -33.288  1.00  0.00     0.034 A 
HETATM    4  C   UNL     1      -6.488   0.216 -32.621  1.00  0.00     0.048 A 
HETATM    5  N   UNL     1      -6.220   0.201 -31.263  1.00  0.00    -0.308 N 
HETATM    6  C   UNL     1      -6.127   1.300 -30.461  1.00  0.00     0.330 C 
HETATM    7  O   UNL     1      -5.899   1.094 -29.269  1.00  0.00    -0.246 OA
HETATM    8  C   UNL     1      -6.745   1.443 -34.667  1.00  0.00     0.015 A 
HETATM    9  C   UNL     1      -7.035   0.257 -35.344  1.00  0.00     0.001 A 
HETATM   10  C   UNL     1      -7.039  -0.955 -34.656  1.00  0.00     0.002 A 
HETATM   11  C   UNL     1      -6.759  -0.979 -33.291  1.00  0.00     0.030 A 
HETATM   12  H   UNL     1      -6.192  -0.679 -30.762  1.00  0.00     0.170 HD
ENDROOT
BRANCH   2  13
HETATM   13  O   UNL     1      -6.886   3.722 -33.016  1.00  0.00    -0.359 OA
HETATM   14  H   UNL     1      -6.282   4.477 -33.152  1.00  0.00     0.213 HD
ENDBRANCH   2  13
BRANCH   2  15
HETATM   15  C   UNL     1      -4.532   2.970 -32.847  1.00  0.00     0.279 C 
HETATM   16  N   UNL     1      -4.229   4.215 -33.352  1.00  0.00    -0.352 N 
HETATM   17  H   UNL     1      -4.977   4.780 -33.734  1.00  0.00     0.162 HD
HETATM   18  O   UNL     1      -3.661   2.135 -32.581  1.00  0.00    -0.268 OA
BRANCH  16  19
HETATM   19  C   UNL     1      -2.879   4.581 -33.699  1.00  0.00     0.161 C 
BRANCH  19  20
HETATM   20  C   UNL     1      -2.255   5.384 -32.589  1.00  0.00    -0.040 A 
HETATM   21  C   UNL     1      -2.377   6.782 -32.574  1.00  0.00     0.010 A 
HETATM   22  C   UNL     1      -1.769   7.536 -31.567  1.00  0.00     0.024 A 
HETATM   23  C   UNL     1      -1.029   6.896 -30.575  1.00  0.00     0.034 A 
HETATM   24 CL   UNL     1      -0.278   7.823 -29.337  1.00  0.00    -0.084 Cl
HETATM   25  C   UNL     1      -0.888   5.510 -30.585  1.00  0.00     0.024 A 
HETATM   26  C   UNL     1      -1.496   4.756 -31.591  1.00  0.00     0.010 A 
ENDBRANCH  19  20
ENDBRANCH  16  19
ENDBRANCH   2  15
BRANCH   1  27
HETATM   27  C   UNL     1      -6.363   3.736 -30.234  1.00  0.00     0.045 A 
HETATM   28  C   UNL     1      -5.245   4.566 -30.028  1.00  0.00     0.066 A 
HETATM   29  C   UNL     1      -5.300   5.710 -29.220  1.00  0.00     0.070 A 
HETATM   30  C   UNL     1      -6.492   6.044 -28.588  1.00  0.00     0.037 A 
HETATM   31  C   UNL     1      -7.613   5.237 -28.766  1.00  0.00     0.005 A 
HETATM   32  C   UNL     1      -7.548   4.097 -29.576  1.00  0.00     0.030 A 
BRANCH  29  33
HETATM   33  O   UNL     1      -4.120   6.398 -29.123  1.00  0.00    -0.356 OA
HETATM   34  C   UNL     1      -4.054   7.435 -28.154  1.00  0.00     0.210 C 
ENDBRANCH  29  33
ENDBRANCH   1  27
TORSDOF 6
ENDMDL
MODEL 10
REMARK VINA RESULT:      -8.1      3.364      7.106
REMARK  6 active torsions:
REMARK  status: ('A' for Active; 'I' for Inactive)
REMARK    1  A    between atoms: O_2  and  C_3 
REMARK    2  A    between atoms: C_5  and  N_6 
REMARK    3  A    between atoms: C_7  and  O_8 
REMARK    4  A    between atoms: C_7  and  C_9 
REMARK       I    between atoms: C_9  and  N_10 
REMARK    5  A    between atoms: N_10  and  C_11 
REMARK    6  A    between atoms: C_11  and  C_12 
ROOT
HETATM    1  N   UNL     1      -6.490   0.751 -32.209  1.00  0.00    -0.254 N 
HETATM    2  C   UNL     1      -7.057   1.887 -32.957  1.00  0.00     0.256 C 
HETATM    3  C   UNL     1      -7.244   3.135 -32.114  1.00  0.00     0.034 A 
HETATM    4  C   UNL     1      -7.382   2.985 -30.742  1.00  0.00     0.048 A 
HETATM    5  N   UNL     1      -7.243   1.721 -30.196  1.00  0.00    -0.308 N 
HETATM    6  C   UNL     1      -6.787   0.618 -30.856  1.00  0.00     0.330 C 
HETATM    7  O   UNL     1      -6.713  -0.423 -30.203  1.00  0.00    -0.246 OA
HETATM    8  C   UNL     1      -7.386   4.421 -32.665  1.00  0.00     0.015 A 
HETATM    9  C   UNL     1      -7.650   5.520 -31.845  1.00  0.00     0.001 A 
HETATM   10  C   UNL     1      -7.791   5.346 -30.470  1.00  0.00     0.002 A 
HETATM   11  C   UNL     1      -7.663   4.074 -29.915  1.00  0.00     0.030 A 
HETATM   12  H   UNL     1      -7.374   1.582 -29.201  1.00  0.00     0.170 HD
ENDROOT
BRANCH   2  13
HETATM   13  O   UNL     1      -6.140   2.269 -33.991  1.00  0.00    -0.359 OA
HETATM   14  H   UNL     1      -5.988   3.224 -33.852  1.00  0.00     0.213 HD
ENDBRANCH   2  13
BRANCH   2  15
HETATM   15  C   UNL     1      -8.459   1.499 -33.586  1.00  0.00     0.279 C 
HETATM   16  N   UNL     1      -9.562   1.560 -32.763  1.00  0.00    -0.352 N 
HETATM   17  H   UNL     1      -9.419   1.587 -31.761  1.00  0.00     0.162 HD
HETATM   18  O   UNL     1      -8.547   1.230 -34.789  1.00  0.00    -0.268 OA
BRANCH  16  19
HETATM   19  C   UNL     1     -10.878   1.212 -33.236  1.00  0.00     0.161 C 
BRANCH  19  20
HETATM   20  C   UNL     1     -11.515   2.393 -33.921  1.00  0.00    -0.040 A 
HETATM   21  C   UNL     1     -12.074   2.249 -35.200  1.00  0.00     0.010 A 
HETATM   22  C   UNL     1     -12.633   3.348 -35.856  1.00  0.00     0.024 A 
HETATM   23  C   UNL     1     -12.627   4.598 -35.239  1.00  0.00     0.034 A 
HETATM   24 CL   UNL     1     -13.313   5.952 -36.048  1.00  0.00    -0.084 Cl
HETATM   25  C   UNL     1     -12.063   4.758 -33.976  1.00  0.00     0.024 A 
HETATM   26  C   UNL     1     -11.505   3.659 -33.319  1.00  0.00     0.010 A 
ENDBRANCH  19  20
ENDBRANCH  16  19
ENDBRANCH   2  15
BRANCH   1  27
HETATM   27  C   UNL     1      -5.818  -0.326 -32.908  1.00  0.00     0.045 A 
HETATM   28  C   UNL     1      -6.561  -1.278 -33.632  1.00  0.00     0.066 A 
HETATM   29  C   UNL     1      -5.955  -2.348 -34.305  1.00  0.00     0.070 A 
HETATM   30  C   UNL     1      -4.573  -2.491 -34.256  1.00  0.00     0.037 A 
HETATM   31  C   UNL     1      -3.812  -1.571 -33.540  1.00  0.00     0.005 A 
HETATM   32  C   UNL     1      -4.427  -0.504 -32.872  1.00  0.00     0.030 A 
BRANCH  29  33
HETATM   33  O   UNL     1      -6.826  -3.182 -34.953  1.00  0.00    -0.356 OA
HETATM   34  C   UNL     1      -6.453  -4.549 -35.060  1.00  0.00     0.210 C 
ENDBRANCH  29  33
ENDBRANCH   1  27
TORSDOF 6
ENDMDL
