MODEL 1
REMARK VINA RESULT:      -8.7      0.000      0.000
REMARK  5 active torsions:
REMARK  status: ('A' for Active; 'I' for Inactive)
REMARK       I    between atoms: N_2  and  C_3 
REMARK    1  A    between atoms: C_3  and  C_4 
REMARK    2  A    between atoms: C_6  and  N_7 
REMARK    3  A    between atoms: N_7  and  C_8 
REMARK    4  A    between atoms: C_8  and  C_9 
REMARK    5  A    between atoms: C_19  and  O_20 
ROOT
HETATM    1  C   UNL     1     -11.637   1.816 -33.440  1.00  0.00     0.033 A 
HETATM    2  C   UNL     1     -10.687   0.788 -33.472  1.00  0.00     0.043 A 
HETATM    3  C   UNL     1      -9.348   1.025 -33.134  1.00  0.00     0.043 A 
HETATM    4  C   UNL     1      -8.978   2.324 -32.712  1.00  0.00     0.089 A 
HETATM    5  C   UNL     1      -9.920   3.358 -32.700  1.00  0.00     0.039 A 
HETATM    6  C   UNL     1     -11.243   3.105 -33.070  1.00  0.00     0.020 A 
ENDROOT
BRANCH   3   7
HETATM    7  N   UNL     1      -8.389  -0.009 -33.079  1.00  0.00    -0.286 NA
HETATM    8  H   UNL     1      -7.766   0.185 -32.293  1.00  0.00     0.128 HD
BRANCH   7   9
HETATM    9  C   UNL     1      -7.651  -0.367 -34.294  1.00  0.00     0.132 C 
BRANCH   9  10
HETATM   10  C   UNL     1      -6.278  -0.939 -33.982  1.00  0.00    -0.034 A 
HETATM   11  C   UNL     1      -5.918  -2.297 -34.239  1.00  0.00    -0.018 A 
HETATM   12  C   UNL     1      -4.606  -2.726 -33.902  1.00  0.00    -0.025 A 
HETATM   13  C   UNL     1      -6.788  -3.267 -34.797  1.00  0.00     0.013 A 
HETATM   14  C   UNL     1      -4.219  -4.060 -34.114  1.00  0.00     0.012 A 
HETATM   15  C   UNL     1      -3.688  -1.822 -33.352  1.00  0.00     0.012 A 
HETATM   16  C   UNL     1      -5.104  -4.989 -34.657  1.00  0.00     0.001 A 
HETATM   17  C   UNL     1      -6.388  -4.592 -34.999  1.00  0.00     0.001 A 
HETATM   18  C   UNL     1      -4.039  -0.497 -33.122  1.00  0.00     0.002 A 
HETATM   19  C   UNL     1      -5.320  -0.061 -33.436  1.00  0.00     0.009 A 
ENDBRANCH   9  10
ENDBRANCH   7   9
ENDBRANCH   3   7
BRANCH   4  20
HETATM   20  O   UNL     1      -7.651   2.471 -32.378  1.00  0.00    -0.354 OA
HETATM   21  C   UNL     1      -6.870   3.324 -33.206  1.00  0.00     0.210 C 
ENDBRANCH   4  20
BRANCH   1  22
HETATM   22  C   UNL     1     -13.060   1.584 -33.817  1.00  0.00     0.251 C 
HETATM   23  N   UNL     1     -13.989   1.643 -32.799  1.00  0.00    -0.361 N 
HETATM   24  C   UNL     1     -15.395   1.486 -33.074  1.00  0.00     0.149 C 
HETATM   25  H   UNL     1     -13.724   2.016 -31.897  1.00  0.00     0.162 HD
HETATM   26  O   UNL     1     -13.357   1.375 -34.988  1.00  0.00    -0.268 OA
ENDBRANCH   1  22
TORSDOF 5
ENDMDL
MODEL 2
REMARK VINA RESULT:      -8.7      4.209      6.704
REMARK  5 active torsions:
REMARK  status: ('A' for Active; 'I' for Inactive)
REMARK       I    between atoms: N_2  and  C_3 
REMARK    1  A    between atoms: C_3  and  C_4 
REMARK    2  A    between atoms: C_6  and  N_7 
REMARK    3  A    between atoms: N_7  and  C_8 
REMARK    4  A    between atoms: C_8  and  C_9 
REMARK    5  A    between atoms: C_19  and  O_20 
ROOT
HETATM    1  C   UNL     1      -3.042   3.866 -31.824  1.00  0.00     0.033 A 
HETATM    2  C   UNL     1      -3.025   2.466 -31.849  1.00  0.00     0.043 A 
HETATM    3  C   UNL     1      -4.061   1.716 -31.277  1.00  0.00     0.043 A 
HETATM    4  C   UNL     1      -5.158   2.406 -30.708  1.00  0.00     0.089 A 
HETATM    5  C   UNL     1      -5.167   3.804 -30.662  1.00  0.00     0.039 A 
HETATM    6  C   UNL     1      -4.108   4.530 -31.213  1.00  0.00     0.020 A 
ENDROOT
BRANCH   3   7
HETATM    7  N   UNL     1      -4.109   0.308 -31.360  1.00  0.00    -0.286 NA
HETATM    8  H   UNL     1      -3.712  -0.068 -30.498  1.00  0.00     0.128 HD
BRANCH   7   9
HETATM    9  C   UNL     1      -3.578  -0.359 -32.551  1.00  0.00     0.132 C 
BRANCH   9  10
HETATM   10  C   UNL     1      -4.675  -0.998 -33.387  1.00  0.00    -0.034 A 
HETATM   11  C   UNL     1      -4.708  -2.390 -33.703  1.00  0.00    -0.018 A 
HETATM   12  C   UNL     1      -5.779  -2.880 -34.498  1.00  0.00    -0.025 A 
HETATM   13  C   UNL     1      -3.731  -3.332 -33.293  1.00  0.00     0.013 A 
HETATM   14  C   UNL     1      -5.836  -4.237 -34.854  1.00  0.00     0.012 A 
HETATM   15  C   UNL     1      -6.787  -2.010 -34.936  1.00  0.00     0.012 A 
HETATM   16  C   UNL     1      -4.853  -5.133 -34.440  1.00  0.00     0.001 A 
HETATM   17  C   UNL     1      -3.801  -4.680 -33.658  1.00  0.00     0.001 A 
HETATM   18  C   UNL     1      -6.758  -0.660 -34.609  1.00  0.00     0.002 A 
HETATM   19  C   UNL     1      -5.714  -0.160 -33.841  1.00  0.00     0.009 A 
ENDBRANCH   9  10
ENDBRANCH   7   9
ENDBRANCH   3   7
BRANCH   4  20
HETATM   20  O   UNL     1      -6.144   1.599 -30.185  1.00  0.00    -0.354 OA
HETATM   21  C   UNL     1      -7.421   1.659 -30.809  1.00  0.00     0.210 C 
ENDBRANCH   4  20
BRANCH   1  22
HETATM   22  C   UNL     1      -1.937   4.676 -32.410  1.00  0.00     0.251 C 
HETATM   23  N   UNL     1      -2.200   5.312 -33.606  1.00  0.00    -0.361 N 
HETATM   24  C   UNL     1      -1.212   6.162 -34.221  1.00  0.00     0.149 C 
HETATM   25  H   UNL     1      -3.151   5.372 -33.945  1.00  0.00     0.162 HD
HETATM   26  O   UNL     1      -0.866   4.768 -31.821  1.00  0.00    -0.268 OA
ENDBRANCH   1  22
TORSDOF 5
ENDMDL
MODEL 3
REMARK VINA RESULT:      -8.4      2.262      5.312
REMARK  5 active torsions:
REMARK  status: ('A' for Active; 'I' for Inactive)
REMARK       I    between atoms: N_2  and  C_3 
REMARK    1  A    between atoms: C_3  and  C_4 
REMARK    2  A    between atoms: C_6  and  N_7 
REMARK    3  A    between atoms: N_7  and  C_8 
REMARK    4  A    between atoms: C_8  and  C_9 
REMARK    5  A    between atoms: C_19  and  O_20 
ROOT
HETATM    1  C   UNL     1      -6.453   3.874 -33.999  1.00  0.00     0.033 A 
HETATM    2  C   UNL     1      -6.740   2.518 -34.191  1.00  0.00     0.043 A 
HETATM    3  C   UNL     1      -8.057   2.041 -34.148  1.00  0.00     0.043 A 
HETATM    4  C   UNL     1      -9.105   2.971 -33.950  1.00  0.00     0.089 A 
HETATM    5  C   UNL     1      -8.820   4.324 -33.737  1.00  0.00     0.039 A 
HETATM    6  C   UNL     1      -7.496   4.771 -33.754  1.00  0.00     0.020 A 
ENDROOT
BRANCH   3   7
HETATM    7  N   UNL     1      -8.382   0.694 -34.417  1.00  0.00    -0.286 NA
HETATM    8  H   UNL     1      -9.338   0.670 -34.774  1.00  0.00     0.128 HD
BRANCH   7   9
HETATM    9  C   UNL     1      -8.151  -0.320 -33.385  1.00  0.00     0.132 C 
BRANCH   9  10
HETATM   10  C   UNL     1      -6.838  -1.057 -33.590  1.00  0.00    -0.034 A 
HETATM   11  C   UNL     1      -5.683  -0.838 -32.779  1.00  0.00    -0.018 A 
HETATM   12  C   UNL     1      -4.505  -1.580 -33.063  1.00  0.00    -0.025 A 
HETATM   13  C   UNL     1      -5.616   0.086 -31.707  1.00  0.00     0.013 A 
HETATM   14  C   UNL     1      -3.338  -1.377 -32.307  1.00  0.00     0.012 A 
HETATM   15  C   UNL     1      -4.496  -2.518 -34.105  1.00  0.00     0.012 A 
HETATM   16  C   UNL     1      -3.307  -0.453 -31.265  1.00  0.00     0.001 A 
HETATM   17  C   UNL     1      -4.446   0.278 -30.965  1.00  0.00     0.001 A 
HETATM   18  C   UNL     1      -5.629  -2.738 -34.878  1.00  0.00     0.002 A 
HETATM   19  C   UNL     1      -6.787  -2.016 -34.622  1.00  0.00     0.009 A 
ENDBRANCH   9  10
ENDBRANCH   7   9
ENDBRANCH   3   7
BRANCH   4  20
HETATM   20  O   UNL     1     -10.370   2.427 -33.941  1.00  0.00    -0.354 OA
HETATM   21  C   UNL     1     -11.233   2.823 -32.881  1.00  0.00     0.210 C 
ENDBRANCH   4  20
BRANCH   1  22
HETATM   22  C   UNL     1      -5.056   4.392 -34.021  1.00  0.00     0.251 C 
HETATM   23  N   UNL     1      -4.185   3.871 -33.086  1.00  0.00    -0.361 N 
HETATM   24  C   UNL     1      -2.801   4.268 -33.065  1.00  0.00     0.149 C 
HETATM   25  H   UNL     1      -4.448   3.048 -32.558  1.00  0.00     0.162 HD
HETATM   26  O   UNL     1      -4.724   5.225 -34.857  1.00  0.00    -0.268 OA
ENDBRANCH   1  22
TORSDOF 5
ENDMDL
MODEL 4
REMARK VINA RESULT:      -8.3      4.404      7.639
REMARK  5 active torsions:
REMARK  status: ('A' for Active; 'I' for Inactive)
REMARK       I    between atoms: N_2  and  C_3 
REMARK    1  A    between atoms: C_3  and  C_4 
REMARK    2  A    between atoms: C_6  and  N_7 
REMARK    3  A    between atoms: N_7  and  C_8 
REMARK    4  A    between atoms: C_8  and  C_9 
REMARK    5  A    between atoms: C_19  and  O_20 
ROOT
HETATM    1  C   UNL     1      -1.805   4.773 -31.673  1.00  0.00     0.033 A 
HETATM    2  C   UNL     1      -2.659   3.704 -31.374  1.00  0.00     0.043 A 
HETATM    3  C   UNL     1      -3.820   3.470 -32.122  1.00  0.00     0.043 A 
HETATM    4  C   UNL     1      -4.094   4.315 -33.225  1.00  0.00     0.089 A 
HETATM    5  C   UNL     1      -3.255   5.396 -33.512  1.00  0.00     0.039 A 
HETATM    6  C   UNL     1      -2.118   5.627 -32.734  1.00  0.00     0.020 A 
ENDROOT
BRANCH   3   7
HETATM    7  N   UNL     1      -4.654   2.355 -31.894  1.00  0.00    -0.286 NA
HETATM    8  H   UNL     1      -4.788   2.267 -30.885  1.00  0.00     0.128 HD
BRANCH   7   9
HETATM    9  C   UNL     1      -4.325   1.073 -32.523  1.00  0.00     0.132 C 
BRANCH   9  10
HETATM   10  C   UNL     1      -5.562   0.346 -33.023  1.00  0.00    -0.034 A 
HETATM   11  C   UNL     1      -5.522  -0.959 -33.602  1.00  0.00    -0.018 A 
HETATM   12  C   UNL     1      -6.741  -1.543 -34.042  1.00  0.00    -0.025 A 
HETATM   13  C   UNL     1      -4.342  -1.721 -33.789  1.00  0.00     0.013 A 
HETATM   14  C   UNL     1      -6.744  -2.813 -34.641  1.00  0.00     0.012 A 
HETATM   15  C   UNL     1      -7.951  -0.852 -33.885  1.00  0.00     0.012 A 
HETATM   16  C   UNL     1      -5.562  -3.529 -34.816  1.00  0.00     0.001 A 
HETATM   17  C   UNL     1      -4.361  -2.983 -34.390  1.00  0.00     0.001 A 
HETATM   18  C   UNL     1      -7.984   0.409 -33.303  1.00  0.00     0.002 A 
HETATM   19  C   UNL     1      -6.802   1.001 -32.876  1.00  0.00     0.009 A 
ENDBRANCH   9  10
ENDBRANCH   7   9
ENDBRANCH   3   7
BRANCH   4  20
HETATM   20  O   UNL     1      -5.241   4.008 -33.921  1.00  0.00    -0.354 OA
HETATM   21  C   UNL     1      -6.308   4.946 -33.847  1.00  0.00     0.210 C 
ENDBRANCH   4  20
BRANCH   1  22
HETATM   22  C   UNL     1      -0.578   5.046 -30.873  1.00  0.00     0.251 C 
HETATM   23  N   UNL     1      -0.758   5.652 -29.647  1.00  0.00    -0.361 N 
HETATM   24  C   UNL     1       0.363   5.906 -28.778  1.00  0.00     0.149 C 
HETATM   25  H   UNL     1      -1.687   5.719 -29.251  1.00  0.00     0.162 HD
HETATM   26  O   UNL     1       0.521   4.714 -31.305  1.00  0.00    -0.268 OA
ENDBRANCH   1  22
TORSDOF 5
ENDMDL
MODEL 5
REMARK VINA RESULT:      -8.3      1.115      2.499
REMARK  5 active torsions:
REMARK  status: ('A' for Active; 'I' for Inactive)
REMARK       I    between atoms: N_2  and  C_3 
REMARK    1  A    between atoms: C_3  and  C_4 
REMARK    2  A    between atoms: C_6  and  N_7 
REMARK    3  A    between atoms: N_7  and  C_8 
REMARK    4  A    between atoms: C_8  and  C_9 
REMARK    5  A    between atoms: C_19  and  O_20 
ROOT
HETATM    1  C   UNL     1     -11.686   2.251 -33.796  1.00  0.00     0.033 A 
HETATM    2  C   UNL     1     -10.688   1.330 -34.137  1.00  0.00     0.043 A 
HETATM    3  C   UNL     1      -9.331   1.670 -34.065  1.00  0.00     0.043 A 
HETATM    4  C   UNL     1      -8.982   2.959 -33.594  1.00  0.00     0.089 A 
HETATM    5  C   UNL     1      -9.977   3.887 -33.274  1.00  0.00     0.039 A 
HETATM    6  C   UNL     1     -11.324   3.535 -33.382  1.00  0.00     0.020 A 
ENDROOT
BRANCH   3   7
HETATM    7  N   UNL     1      -8.303   0.738 -34.325  1.00  0.00    -0.286 NA
HETATM    8  H   UNL     1      -8.341   0.501 -35.317  1.00  0.00     0.128 HD
BRANCH   7   9
HETATM    9  C   UNL     1      -8.182  -0.451 -33.477  1.00  0.00     0.132 C 
BRANCH   9  10
HETATM   10  C   UNL     1      -6.844  -1.147 -33.654  1.00  0.00    -0.034 A 
HETATM   11  C   UNL     1      -5.710  -0.887 -32.824  1.00  0.00    -0.018 A 
HETATM   12  C   UNL     1      -4.505  -1.593 -33.083  1.00  0.00    -0.025 A 
HETATM   13  C   UNL     1      -5.691   0.046 -31.758  1.00  0.00     0.013 A 
HETATM   14  C   UNL     1      -3.358  -1.348 -32.308  1.00  0.00     0.012 A 
HETATM   15  C   UNL     1      -4.448  -2.536 -34.118  1.00  0.00     0.012 A 
HETATM   16  C   UNL     1      -3.375  -0.416 -31.273  1.00  0.00     0.001 A 
HETATM   17  C   UNL     1      -4.541   0.280 -30.997  1.00  0.00     0.001 A 
HETATM   18  C   UNL     1      -5.560  -2.798 -34.909  1.00  0.00     0.002 A 
HETATM   19  C   UNL     1      -6.745  -2.111 -34.678  1.00  0.00     0.009 A 
ENDBRANCH   9  10
ENDBRANCH   7   9
ENDBRANCH   3   7
BRANCH   4  20
HETATM   20  O   UNL     1      -7.629   3.208 -33.533  1.00  0.00    -0.354 OA
HETATM   21  C   UNL     1      -7.212   4.547 -33.770  1.00  0.00     0.210 C 
ENDBRANCH   4  20
BRANCH   1  22
HETATM   22  C   UNL     1     -13.134   1.909 -33.888  1.00  0.00     0.251 C 
HETATM   23  N   UNL     1     -13.869   2.004 -32.724  1.00  0.00    -0.361 N 
HETATM   24  C   UNL     1     -15.287   1.749 -32.725  1.00  0.00     0.149 C 
HETATM   25  H   UNL     1     -13.473   2.466 -31.916  1.00  0.00     0.162 HD
HETATM   26  O   UNL     1     -13.620   1.586 -34.966  1.00  0.00    -0.268 OA
ENDBRANCH   1  22
TORSDOF 5
ENDMDL
MODEL 6
REMARK VINA RESULT:      -8.1      5.449      8.606
REMARK  5 active torsions:
REMARK  status: ('A' for Active; 'I' for Inactive)
REMARK       I    between atoms: N_2  and  C_3 
REMARK    1  A    between atoms: C_3  and  C_4 
REMARK    2  A    between atoms: C_6  and  N_7 
REMARK    3  A    between atoms: N_7  and  C_8 
REMARK    4  A    between atoms: C_8  and  C_9 
REMARK    5  A    between atoms: C_19  and  O_20 
ROOT
HETATM    1  C   UNL     1      -1.213   6.218 -30.915  1.00  0.00     0.033 A 
HETATM    2  C   UNL     1      -1.779   4.956 -31.132  1.00  0.00     0.043 A 
HETATM    3  C   UNL     1      -2.134   4.530 -32.418  1.00  0.00     0.043 A 
HETATM    4  C   UNL     1      -1.866   5.389 -33.511  1.00  0.00     0.089 A 
HETATM    5  C   UNL     1      -1.320   6.658 -33.296  1.00  0.00     0.039 A 
HETATM    6  C   UNL     1      -1.002   7.073 -32.001  1.00  0.00     0.020 A 
ENDROOT
BRANCH   3   7
HETATM    7  N   UNL     1      -2.631   3.235 -32.675  1.00  0.00    -0.286 NA
HETATM    8  H   UNL     1      -2.823   3.167 -33.675  1.00  0.00     0.128 HD
BRANCH   7   9
HETATM    9  C   UNL     1      -3.736   2.716 -31.863  1.00  0.00     0.132 C 
BRANCH   9  10
HETATM   10  C   UNL     1      -3.982   1.237 -32.109  1.00  0.00    -0.034 A 
HETATM   11  C   UNL     1      -5.007   0.748 -32.975  1.00  0.00    -0.018 A 
HETATM   12  C   UNL     1      -5.152  -0.658 -33.126  1.00  0.00    -0.025 A 
HETATM   13  C   UNL     1      -5.915   1.567 -33.691  1.00  0.00     0.013 A 
HETATM   14  C   UNL     1      -6.164  -1.183 -33.947  1.00  0.00     0.012 A 
HETATM   15  C   UNL     1      -4.288  -1.533 -32.454  1.00  0.00     0.012 A 
HETATM   16  C   UNL     1      -7.044  -0.346 -34.630  1.00  0.00     0.001 A 
HETATM   17  C   UNL     1      -6.918   1.029 -34.503  1.00  0.00     0.001 A 
HETATM   18  C   UNL     1      -3.281  -1.049 -31.628  1.00  0.00     0.002 A 
HETATM   19  C   UNL     1      -3.129   0.322 -31.459  1.00  0.00     0.009 A 
ENDBRANCH   9  10
ENDBRANCH   7   9
ENDBRANCH   3   7
BRANCH   4  20
HETATM   20  O   UNL     1      -2.225   4.890 -34.743  1.00  0.00    -0.354 OA
HETATM   21  C   UNL     1      -3.489   5.292 -35.256  1.00  0.00     0.210 C 
ENDBRANCH   4  20
BRANCH   1  22
HETATM   22  C   UNL     1      -0.850   6.693 -29.550  1.00  0.00     0.251 C 
HETATM   23  N   UNL     1      -0.361   5.746 -28.673  1.00  0.00    -0.361 N 
HETATM   24  C   UNL     1       0.069   6.120 -27.350  1.00  0.00     0.149 C 
HETATM   25  H   UNL     1      -0.090   4.834 -29.018  1.00  0.00     0.162 HD
HETATM   26  O   UNL     1      -0.971   7.878 -29.261  1.00  0.00    -0.268 OA
ENDBRANCH   1  22
TORSDOF 5
ENDMDL
MODEL 7
REMARK VINA RESULT:      -8.1      2.504      7.311
REMARK  5 active torsions:
REMARK  status: ('A' for Active; 'I' for Inactive)
REMARK       I    between atoms: N_2  and  C_3 
REMARK    1  A    between atoms: C_3  and  C_4 
REMARK    2  A    between atoms: C_6  and  N_7 
REMARK    3  A    between atoms: N_7  and  C_8 
REMARK    4  A    between atoms: C_8  and  C_9 
REMARK    5  A    between atoms: C_19  and  O_20 
ROOT
HETATM    1  C   UNL     1      -5.380  -1.539 -33.638  1.00  0.00     0.033 A 
HETATM    2  C   UNL     1      -6.631  -1.023 -33.280  1.00  0.00     0.043 A 
HETATM    3  C   UNL     1      -6.746   0.195 -32.597  1.00  0.00     0.043 A 
HETATM    4  C   UNL     1      -5.566   0.924 -32.313  1.00  0.00     0.089 A 
HETATM    5  C   UNL     1      -4.314   0.400 -32.650  1.00  0.00     0.039 A 
HETATM    6  C   UNL     1      -4.223  -0.831 -33.304  1.00  0.00     0.020 A 
ENDROOT
BRANCH   3   7
HETATM    7  N   UNL     1      -7.996   0.778 -32.296  1.00  0.00    -0.286 NA
HETATM    8  H   UNL     1      -8.043   0.910 -31.284  1.00  0.00     0.128 HD
BRANCH   7   9
HETATM    9  C   UNL     1      -9.218   0.171 -32.831  1.00  0.00     0.132 C 
BRANCH   9  10
HETATM   10  C   UNL     1     -10.096   1.185 -33.545  1.00  0.00    -0.034 A 
HETATM   11  C   UNL     1     -11.493   0.990 -33.770  1.00  0.00    -0.018 A 
HETATM   12  C   UNL     1     -12.217   2.003 -34.454  1.00  0.00    -0.025 A 
HETATM   13  C   UNL     1     -12.219  -0.160 -33.372  1.00  0.00     0.013 A 
HETATM   14  C   UNL     1     -13.587   1.840 -34.720  1.00  0.00     0.012 A 
HETATM   15  C   UNL     1     -11.569   3.172 -34.875  1.00  0.00     0.012 A 
HETATM   16  C   UNL     1     -14.266   0.691 -34.320  1.00  0.00     0.001 A 
HETATM   17  C   UNL     1     -13.582  -0.308 -33.646  1.00  0.00     0.001 A 
HETATM   18  C   UNL     1     -10.213   3.363 -34.636  1.00  0.00     0.002 A 
HETATM   19  C   UNL     1      -9.486   2.380 -33.977  1.00  0.00     0.009 A 
ENDBRANCH   9  10
ENDBRANCH   7   9
ENDBRANCH   3   7
BRANCH   4  20
HETATM   20  O   UNL     1      -5.765   2.119 -31.659  1.00  0.00    -0.354 OA
HETATM   21  C   UNL     1      -5.207   2.239 -30.356  1.00  0.00     0.210 C 
ENDBRANCH   4  20
BRANCH   1  22
HETATM   22  C   UNL     1      -5.242  -2.844 -34.345  1.00  0.00     0.251 C 
HETATM   23  N   UNL     1      -6.408  -3.445 -34.772  1.00  0.00    -0.361 N 
HETATM   24  C   UNL     1      -6.372  -4.680 -35.513  1.00  0.00     0.149 C 
HETATM   25  H   UNL     1      -7.274  -2.922 -34.768  1.00  0.00     0.162 HD
HETATM   26  O   UNL     1      -4.129  -3.319 -34.541  1.00  0.00    -0.268 OA
ENDBRANCH   1  22
TORSDOF 5
ENDMDL
MODEL 8
REMARK VINA RESULT:      -8.1      2.567      7.687
REMARK  5 active torsions:
REMARK  status: ('A' for Active; 'I' for Inactive)
REMARK       I    between atoms: N_2  and  C_3 
REMARK    1  A    between atoms: C_3  and  C_4 
REMARK    2  A    between atoms: C_6  and  N_7 
REMARK    3  A    between atoms: N_7  and  C_8 
REMARK    4  A    between atoms: C_8  and  C_9 
REMARK    5  A    between atoms: C_19  and  O_20 
ROOT
HETATM    1  C   UNL     1      -4.634   0.036 -32.721  1.00  0.00     0.033 A 
HETATM    2  C   UNL     1      -6.021   0.178 -32.843  1.00  0.00     0.043 A 
HETATM    3  C   UNL     1      -6.797  -0.791 -33.492  1.00  0.00     0.043 A 
HETATM    4  C   UNL     1      -6.152  -1.950 -33.989  1.00  0.00     0.089 A 
HETATM    5  C   UNL     1      -4.764  -2.084 -33.888  1.00  0.00     0.039 A 
HETATM    6  C   UNL     1      -4.008  -1.090 -33.262  1.00  0.00     0.020 A 
ENDROOT
BRANCH   3   7
HETATM    7  N   UNL     1      -8.204  -0.713 -33.558  1.00  0.00    -0.286 NA
HETATM    8  H   UNL     1      -8.463  -0.559 -34.534  1.00  0.00     0.128 HD
BRANCH   7   9
HETATM    9  C   UNL     1      -8.916   0.190 -32.649  1.00  0.00     0.132 C 
BRANCH   9  10
HETATM   10  C   UNL     1      -9.743   1.221 -33.397  1.00  0.00    -0.034 A 
HETATM   11  C   UNL     1     -11.129   1.046 -33.695  1.00  0.00    -0.018 A 
HETATM   12  C   UNL     1     -11.805   2.075 -34.406  1.00  0.00    -0.025 A 
HETATM   13  C   UNL     1     -11.889  -0.098 -33.345  1.00  0.00     0.013 A 
HETATM   14  C   UNL     1     -13.161   1.932 -34.742  1.00  0.00     0.012 A 
HETATM   15  C   UNL     1     -11.121   3.239 -34.781  1.00  0.00     0.012 A 
HETATM   16  C   UNL     1     -13.874   0.789 -34.389  1.00  0.00     0.001 A 
HETATM   17  C   UNL     1     -13.238  -0.225 -33.690  1.00  0.00     0.001 A 
HETATM   18  C   UNL     1      -9.777   3.410 -34.472  1.00  0.00     0.002 A 
HETATM   19  C   UNL     1      -9.097   2.412 -33.786  1.00  0.00     0.009 A 
ENDBRANCH   9  10
ENDBRANCH   7   9
ENDBRANCH   3   7
BRANCH   4  20
HETATM   20  O   UNL     1      -6.986  -2.863 -34.594  1.00  0.00    -0.354 OA
HETATM   21  C   UNL     1      -6.407  -4.104 -34.979  1.00  0.00     0.210 C 
ENDBRANCH   4  20
BRANCH   1  22
HETATM   22  C   UNL     1      -3.794   1.069 -32.052  1.00  0.00     0.251 C 
HETATM   23  N   UNL     1      -4.048   2.384 -32.381  1.00  0.00    -0.361 N 
HETATM   24  C   UNL     1      -3.325   3.456 -31.745  1.00  0.00     0.149 C 
HETATM   25  H   UNL     1      -4.885   2.621 -32.897  1.00  0.00     0.162 HD
HETATM   26  O   UNL     1      -2.942   0.732 -31.236  1.00  0.00    -0.268 OA
ENDBRANCH   1  22
TORSDOF 5
ENDMDL
MODEL 9
REMARK VINA RESULT:      -8.0      3.523      6.487
REMARK  5 active torsions:
REMARK  status: ('A' for Active; 'I' for Inactive)
REMARK       I    between atoms: N_2  and  C_3 
REMARK    1  A    between atoms: C_3  and  C_4 
REMARK    2  A    between atoms: C_6  and  N_7 
REMARK    3  A    between atoms: N_7  and  C_8 
REMARK    4  A    between atoms: C_8  and  C_9 
REMARK    5  A    between atoms: C_19  and  O_20 
ROOT
HETATM    1  C   UNL     1      -4.384   4.332 -31.266  1.00  0.00     0.033 A 
HETATM    2  C   UNL     1      -4.793   3.156 -30.625  1.00  0.00     0.043 A 
HETATM    3  C   UNL     1      -6.087   3.024 -30.104  1.00  0.00     0.043 A 
HETATM    4  C   UNL     1      -6.997   4.095 -30.279  1.00  0.00     0.089 A 
HETATM    5  C   UNL     1      -6.585   5.278 -30.901  1.00  0.00     0.039 A 
HETATM    6  C   UNL     1      -5.281   5.397 -31.385  1.00  0.00     0.020 A 
ENDROOT
BRANCH   3   7
HETATM    7  N   UNL     1      -6.550   1.823 -29.525  1.00  0.00    -0.286 NA
HETATM    8  H   UNL     1      -6.462   1.911 -28.512  1.00  0.00     0.128 HD
BRANCH   7   9
HETATM    9  C   UNL     1      -6.031   0.544 -30.017  1.00  0.00     0.132 C 
BRANCH   9  10
HETATM   10  C   UNL     1      -6.698   0.115 -31.313  1.00  0.00    -0.034 A 
HETATM   11  C   UNL     1      -6.052  -0.695 -32.296  1.00  0.00    -0.018 A 
HETATM   12  C   UNL     1      -6.769  -1.032 -33.475  1.00  0.00    -0.025 A 
HETATM   13  C   UNL     1      -4.725  -1.182 -32.190  1.00  0.00     0.013 A 
HETATM   14  C   UNL     1      -6.162  -1.805 -34.479  1.00  0.00     0.012 A 
HETATM   15  C   UNL     1      -8.088  -0.591 -33.648  1.00  0.00     0.012 A 
HETATM   16  C   UNL     1      -4.852  -2.259 -34.344  1.00  0.00     0.001 A 
HETATM   17  C   UNL     1      -4.134  -1.948 -33.200  1.00  0.00     0.001 A 
HETATM   18  C   UNL     1      -8.717   0.180 -32.680  1.00  0.00     0.002 A 
HETATM   19  C   UNL     1      -8.030   0.528 -31.524  1.00  0.00     0.009 A 
ENDBRANCH   9  10
ENDBRANCH   7   9
ENDBRANCH   3   7
BRANCH   4  20
HETATM   20  O   UNL     1      -8.253   3.880 -29.758  1.00  0.00    -0.354 OA
HETATM   21  C   UNL     1      -9.343   3.922 -30.671  1.00  0.00     0.210 C 
ENDBRANCH   4  20
BRANCH   1  22
HETATM   22  C   UNL     1      -3.005   4.494 -31.806  1.00  0.00     0.251 C 
HETATM   23  N   UNL     1      -2.777   5.593 -32.609  1.00  0.00    -0.361 N 
HETATM   24  C   UNL     1      -1.463   5.864 -33.132  1.00  0.00     0.149 C 
HETATM   25  H   UNL     1      -3.465   6.333 -32.654  1.00  0.00     0.162 HD
HETATM   26  O   UNL     1      -2.133   3.683 -31.513  1.00  0.00    -0.268 OA
ENDBRANCH   1  22
TORSDOF 5
ENDMDL
MODEL 10
REMARK VINA RESULT:      -8.0      2.273      3.521
REMARK  5 active torsions:
REMARK  status: ('A' for Active; 'I' for Inactive)
REMARK       I    between atoms: N_2  and  C_3 
REMARK    1  A    between atoms: C_3  and  C_4 
REMARK    2  A    between atoms: C_6  and  N_7 
REMARK    3  A    between atoms: N_7  and  C_8 
REMARK    4  A    between atoms: C_8  and  C_9 
REMARK    5  A    between atoms: C_19  and  O_20 
ROOT
HETATM    1  C   UNL     1     -10.780   3.974 -34.627  1.00  0.00     0.033 A 
HETATM    2  C   UNL     1      -9.854   2.967 -34.327  1.00  0.00     0.043 A 
HETATM    3  C   UNL     1     -10.272   1.698 -33.908  1.00  0.00     0.043 A 
HETATM    4  C   UNL     1     -11.661   1.434 -33.835  1.00  0.00     0.089 A 
HETATM    5  C   UNL     1     -12.588   2.444 -34.113  1.00  0.00     0.039 A 
HETATM    6  C   UNL     1     -12.146   3.712 -34.500  1.00  0.00     0.020 A 
ENDROOT
BRANCH   3   7
HETATM    7  N   UNL     1      -9.364   0.642 -33.678  1.00  0.00    -0.286 NA
HETATM    8  H   UNL     1      -8.932   0.795 -32.765  1.00  0.00     0.128 HD
BRANCH   7   9
HETATM    9  C   UNL     1      -8.378   0.306 -34.708  1.00  0.00     0.132 C 
BRANCH   9  10
HETATM   10  C   UNL     1      -6.997   0.063 -34.122  1.00  0.00    -0.034 A 
HETATM   11  C   UNL     1      -6.313  -1.187 -34.224  1.00  0.00    -0.018 A 
HETATM   12  C   UNL     1      -5.026  -1.305 -33.633  1.00  0.00    -0.025 A 
HETATM   13  C   UNL     1      -6.832  -2.339 -34.865  1.00  0.00     0.013 A 
HETATM   14  C   UNL     1      -4.328  -2.523 -33.688  1.00  0.00     0.012 A 
HETATM   15  C   UNL     1      -4.443  -0.206 -32.986  1.00  0.00     0.012 A 
HETATM   16  C   UNL     1      -4.875  -3.638 -34.319  1.00  0.00     0.001 A 
HETATM   17  C   UNL     1      -6.126  -3.545 -34.909  1.00  0.00     0.001 A 
HETATM   18  C   UNL     1      -5.107   1.012 -32.907  1.00  0.00     0.002 A 
HETATM   19  C   UNL     1      -6.370   1.144 -33.470  1.00  0.00     0.009 A 
ENDBRANCH   9  10
ENDBRANCH   7   9
ENDBRANCH   3   7
BRANCH   4  20
HETATM   20  O   UNL     1     -11.990   0.158 -33.435  1.00  0.00    -0.354 OA
HETATM   21  C   UNL     1     -13.337  -0.252 -33.638  1.00  0.00     0.210 C 
ENDBRANCH   4  20
BRANCH   1  22
HETATM   22  C   UNL     1     -10.350   5.336 -35.054  1.00  0.00     0.251 C 
HETATM   23  N   UNL     1     -11.349   6.256 -35.293  1.00  0.00    -0.361 N 
HETATM   24  C   UNL     1     -11.030   7.613 -35.656  1.00  0.00     0.149 C 
HETATM   25  H   UNL     1     -12.297   6.056 -35.002  1.00  0.00     0.162 HD
HETATM   26  O   UNL     1      -9.156   5.597 -35.155  1.00  0.00    -0.268 OA
ENDBRANCH   1  22
TORSDOF 5
ENDMDL
