MODEL 1
REMARK VINA RESULT:     -10.1      0.000      0.000
REMARK  2 active torsions:
REMARK  status: ('A' for Active; 'I' for Inactive)
REMARK    1  A    between atoms: O_2  and  C_3 
REMARK    2  A    between atoms: C_5  and  N_6 
ROOT
HETATM    1  N   UNL     1      -5.275  -0.432 -33.490  1.00  0.00    -0.252 N 
HETATM    2  C   UNL     1      -4.799   0.769 -33.014  1.00  0.00     0.239 C 
HETATM    3  O   UNL     1      -3.750   1.056 -32.460  1.00  0.00    -0.272 OA
HETATM    4  C   UNL     1      -5.849   1.812 -33.200  1.00  0.00     0.145 C 
HETATM    5  C   UNL     1      -6.759   1.222 -34.260  1.00  0.00     0.126 C 
HETATM    6  C   UNL     1      -6.499  -0.258 -34.104  1.00  0.00     0.238 C 
HETATM    7  O   UNL     1      -7.320  -1.091 -34.451  1.00  0.00    -0.272 OA
HETATM    8  C   UNL     1      -6.694   2.029 -31.934  1.00  0.00     0.250 A 
HETATM    9  C   UNL     1      -6.309   1.145 -30.687  1.00  0.00     0.264 A 
HETATM   10  O   UNL     1      -6.376  -0.071 -30.626  1.00  0.00    -0.270 OA
HETATM   11  N   UNL     1      -5.951   1.993 -29.657  1.00  0.00    -0.324 N 
HETATM   12  C   UNL     1      -6.062   3.320 -30.034  1.00  0.00     0.044 A 
HETATM   13  C   UNL     1      -6.507   3.420 -31.357  1.00  0.00     0.015 A 
HETATM   14  C   UNL     1      -5.795   4.421 -29.251  1.00  0.00     0.030 A 
HETATM   15  C   UNL     1      -5.991   5.677 -29.826  1.00  0.00     0.002 A 
HETATM   16  C   UNL     1      -6.444   5.799 -31.152  1.00  0.00     0.001 A 
HETATM   17  C   UNL     1      -6.705   4.667 -31.931  1.00  0.00     0.012 A 
HETATM   18  N   UNL     1      -8.153   1.829 -32.402  1.00  0.00    -0.043 N 
HETATM   19  H   UNL     1      -8.705   2.642 -32.091  1.00  0.00     0.282 HD
HETATM   20  C   UNL     1      -8.142   1.749 -33.910  1.00  0.00     0.204 C 
HETATM   21  C   UNL     1      -8.908   0.597 -31.949  1.00  0.00     0.237 C 
HETATM   22  C   UNL     1     -10.024   0.516 -32.971  1.00  0.00     0.030 C 
HETATM   23  C   UNL     1      -9.401   0.977 -34.284  1.00  0.00     0.036 C 
HETATM   24  H   UNL     1      -5.642   1.667 -28.749  1.00  0.00     0.169 HD
ENDROOT
BRANCH   1  25
HETATM   25  C   UNL     1      -4.661  -1.705 -33.243  1.00  0.00     0.048 A 
HETATM   26  C   UNL     1      -4.967  -2.833 -34.022  1.00  0.00     0.066 A 
HETATM   27  C   UNL     1      -4.323  -4.065 -33.840  1.00  0.00     0.070 A 
HETATM   28  C   UNL     1      -3.371  -4.200 -32.837  1.00  0.00     0.037 A 
HETATM   29  C   UNL     1      -3.066  -3.107 -32.031  1.00  0.00     0.005 A 
HETATM   30  C   UNL     1      -3.703  -1.876 -32.233  1.00  0.00     0.030 A 
BRANCH  27  31
HETATM   31  O   UNL     1      -4.720  -5.047 -34.706  1.00  0.00    -0.356 OA
HETATM   32  C   UNL     1      -5.980  -4.867 -35.342  1.00  0.00     0.210 C 
ENDBRANCH  27  31
ENDBRANCH   1  25
TORSDOF 2
ENDMDL
MODEL 2
REMARK VINA RESULT:      -9.5      2.621      4.846
REMARK  2 active torsions:
REMARK  status: ('A' for Active; 'I' for Inactive)
REMARK    1  A    between atoms: O_2  and  C_3 
REMARK    2  A    between atoms: C_5  and  N_6 
ROOT
HETATM    1  N   UNL     1      -7.234   0.886 -32.215  1.00  0.00    -0.252 N 
HETATM    2  C   UNL     1      -8.527   0.905 -31.743  1.00  0.00     0.239 C 
HETATM    3  O   UNL     1      -9.395   0.047 -31.740  1.00  0.00    -0.272 OA
HETATM    4  C   UNL     1      -8.833   2.271 -31.229  1.00  0.00     0.145 C 
HETATM    5  C   UNL     1      -7.466   2.882 -30.994  1.00  0.00     0.126 C 
HETATM    6  C   UNL     1      -6.600   2.081 -31.938  1.00  0.00     0.238 C 
HETATM    7  O   UNL     1      -5.548   2.522 -32.372  1.00  0.00    -0.272 OA
HETATM    8  C   UNL     1      -9.556   3.143 -32.268  1.00  0.00     0.250 A 
HETATM    9  C   UNL     1      -9.853   2.459 -33.657  1.00  0.00     0.264 A 
HETATM   10  O   UNL     1      -9.017   2.060 -34.449  1.00  0.00    -0.270 OA
HETATM   11  N   UNL     1     -11.221   2.456 -33.847  1.00  0.00    -0.324 N 
HETATM   12  C   UNL     1     -11.879   3.061 -32.790  1.00  0.00     0.044 A 
HETATM   13  C   UNL     1     -10.964   3.502 -31.829  1.00  0.00     0.015 A 
HETATM   14  C   UNL     1     -13.239   3.237 -32.663  1.00  0.00     0.030 A 
HETATM   15  C   UNL     1     -13.694   3.892 -31.519  1.00  0.00     0.002 A 
HETATM   16  C   UNL     1     -12.790   4.349 -30.543  1.00  0.00     0.001 A 
HETATM   17  C   UNL     1     -11.412   4.156 -30.691  1.00  0.00     0.012 A 
HETATM   18  N   UNL     1      -8.684   4.414 -32.384  1.00  0.00    -0.043 N 
HETATM   19  H   UNL     1      -9.295   5.236 -32.266  1.00  0.00     0.282 HD
HETATM   20  C   UNL     1      -7.656   4.364 -31.278  1.00  0.00     0.204 C 
HETATM   21  C   UNL     1      -7.888   4.647 -33.651  1.00  0.00     0.237 C 
HETATM   22  C   UNL     1      -6.843   5.642 -33.189  1.00  0.00     0.030 C 
HETATM   23  C   UNL     1      -6.502   5.233 -31.760  1.00  0.00     0.036 C 
HETATM   24  H   UNL     1     -11.670   2.052 -34.662  1.00  0.00     0.169 HD
ENDROOT
BRANCH   1  25
HETATM   25  C   UNL     1      -6.677  -0.164 -33.019  1.00  0.00     0.048 A 
HETATM   26  C   UNL     1      -5.485  -0.814 -32.658  1.00  0.00     0.066 A 
HETATM   27  C   UNL     1      -4.967  -1.889 -33.393  1.00  0.00     0.070 A 
HETATM   28  C   UNL     1      -5.626  -2.317 -34.540  1.00  0.00     0.037 A 
HETATM   29  C   UNL     1      -6.795  -1.676 -34.938  1.00  0.00     0.005 A 
HETATM   30  C   UNL     1      -7.313  -0.613 -34.186  1.00  0.00     0.030 A 
BRANCH  27  31
HETATM   31  O   UNL     1      -3.816  -2.423 -32.883  1.00  0.00    -0.356 OA
HETATM   32  C   UNL     1      -3.124  -1.645 -31.914  1.00  0.00     0.210 C 
ENDBRANCH  27  31
ENDBRANCH   1  25
TORSDOF 2
ENDMDL
MODEL 3
REMARK VINA RESULT:      -9.4      2.064      3.850
REMARK  2 active torsions:
REMARK  status: ('A' for Active; 'I' for Inactive)
REMARK    1  A    between atoms: O_2  and  C_3 
REMARK    2  A    between atoms: C_5  and  N_6 
ROOT
HETATM    1  N   UNL     1      -5.462   0.214 -32.222  1.00  0.00    -0.252 N 
HETATM    2  C   UNL     1      -6.515   0.739 -31.507  1.00  0.00     0.239 C 
HETATM    3  O   UNL     1      -7.661   0.346 -31.359  1.00  0.00    -0.272 OA
HETATM    4  C   UNL     1      -6.092   2.037 -30.907  1.00  0.00     0.145 C 
HETATM    5  C   UNL     1      -4.578   1.966 -30.925  1.00  0.00     0.126 C 
HETATM    6  C   UNL     1      -4.326   0.979 -32.041  1.00  0.00     0.238 C 
HETATM    7  O   UNL     1      -3.274   0.966 -32.658  1.00  0.00    -0.272 OA
HETATM    8  C   UNL     1      -6.508   3.245 -31.762  1.00  0.00     0.250 A 
HETATM    9  C   UNL     1      -7.300   2.914 -33.084  1.00  0.00     0.264 A 
HETATM   10  O   UNL     1      -6.870   2.282 -34.034  1.00  0.00    -0.270 OA
HETATM   11  N   UNL     1      -8.537   3.525 -33.005  1.00  0.00    -0.324 N 
HETATM   12  C   UNL     1      -8.675   4.234 -31.825  1.00  0.00     0.044 A 
HETATM   13  C   UNL     1      -7.517   4.127 -31.048  1.00  0.00     0.015 A 
HETATM   14  C   UNL     1      -9.774   4.966 -31.432  1.00  0.00     0.030 A 
HETATM   15  C   UNL     1      -9.696   5.623 -30.203  1.00  0.00     0.002 A 
HETATM   16  C   UNL     1      -8.538   5.533 -29.410  1.00  0.00     0.001 A 
HETATM   17  C   UNL     1      -7.435   4.780 -29.828  1.00  0.00     0.012 A 
HETATM   18  N   UNL     1      -5.193   4.017 -32.010  1.00  0.00    -0.043 N 
HETATM   19  H   UNL     1      -5.346   5.004 -31.754  1.00  0.00     0.282 HD
HETATM   20  C   UNL     1      -4.131   3.406 -31.127  1.00  0.00     0.204 C 
HETATM   21  C   UNL     1      -4.594   4.021 -33.401  1.00  0.00     0.237 C 
HETATM   22  C   UNL     1      -3.155   4.409 -33.125  1.00  0.00     0.030 C 
HETATM   23  C   UNL     1      -2.806   3.737 -31.800  1.00  0.00     0.036 C 
HETATM   24  H   UNL     1      -9.243   3.447 -33.728  1.00  0.00     0.169 HD
ENDROOT
BRANCH   1  25
HETATM   25  C   UNL     1      -5.570  -0.877 -33.146  1.00  0.00     0.048 A 
HETATM   26  C   UNL     1      -4.552  -1.836 -33.275  1.00  0.00     0.066 A 
HETATM   27  C   UNL     1      -4.674  -2.948 -34.120  1.00  0.00     0.070 A 
HETATM   28  C   UNL     1      -5.820  -3.103 -34.890  1.00  0.00     0.037 A 
HETATM   29  C   UNL     1      -6.835  -2.154 -34.804  1.00  0.00     0.005 A 
HETATM   30  C   UNL     1      -6.710  -1.056 -33.943  1.00  0.00     0.030 A 
BRANCH  27  31
HETATM   31  O   UNL     1      -3.601  -3.797 -34.100  1.00  0.00    -0.356 OA
HETATM   32  C   UNL     1      -3.785  -5.044 -33.440  1.00  0.00     0.210 C 
ENDBRANCH  27  31
ENDBRANCH   1  25
TORSDOF 2
ENDMDL
MODEL 4
REMARK VINA RESULT:      -9.4      2.469      6.919
REMARK  2 active torsions:
REMARK  status: ('A' for Active; 'I' for Inactive)
REMARK    1  A    between atoms: O_2  and  C_3 
REMARK    2  A    between atoms: C_5  and  N_6 
ROOT
HETATM    1  N   UNL     1      -7.118   2.539 -33.735  1.00  0.00    -0.252 N 
HETATM    2  C   UNL     1      -6.724   1.512 -34.564  1.00  0.00     0.239 C 
HETATM    3  O   UNL     1      -7.129   1.164 -35.661  1.00  0.00    -0.272 OA
HETATM    4  C   UNL     1      -5.664   0.717 -33.878  1.00  0.00     0.145 C 
HETATM    5  C   UNL     1      -5.142   1.659 -32.811  1.00  0.00     0.126 C 
HETATM    6  C   UNL     1      -6.318   2.585 -32.610  1.00  0.00     0.238 C 
HETATM    7  O   UNL     1      -6.479   3.197 -31.567  1.00  0.00    -0.272 OA
HETATM    8  C   UNL     1      -6.227  -0.523 -33.164  1.00  0.00     0.250 A 
HETATM    9  C   UNL     1      -7.783  -0.743 -33.287  1.00  0.00     0.264 A 
HETATM   10  O   UNL     1      -8.645   0.002 -32.853  1.00  0.00    -0.270 OA
HETATM   11  N   UNL     1      -7.994  -1.959 -33.907  1.00  0.00    -0.324 N 
HETATM   12  C   UNL     1      -6.799  -2.592 -34.198  1.00  0.00     0.044 A 
HETATM   13  C   UNL     1      -5.715  -1.814 -33.779  1.00  0.00     0.015 A 
HETATM   14  C   UNL     1      -6.646  -3.820 -34.803  1.00  0.00     0.030 A 
HETATM   15  C   UNL     1      -5.344  -4.284 -34.987  1.00  0.00     0.002 A 
HETATM   16  C   UNL     1      -4.240  -3.519 -34.567  1.00  0.00     0.001 A 
HETATM   17  C   UNL     1      -4.418  -2.272 -33.958  1.00  0.00     0.012 A 
HETATM   18  N   UNL     1      -5.739  -0.387 -31.705  1.00  0.00    -0.043 N 
HETATM   19  H   UNL     1      -5.285  -1.272 -31.433  1.00  0.00     0.282 HD
HETATM   20  C   UNL     1      -4.742   0.747 -31.661  1.00  0.00     0.204 C 
HETATM   21  C   UNL     1      -6.745  -0.067 -30.620  1.00  0.00     0.237 C 
HETATM   22  C   UNL     1      -5.858   0.464 -29.512  1.00  0.00     0.030 C 
HETATM   23  C   UNL     1      -4.752   1.240 -30.220  1.00  0.00     0.036 C 
HETATM   24  H   UNL     1      -8.916  -2.323 -34.120  1.00  0.00     0.169 HD
ENDROOT
BRANCH   1  25
HETATM   25  C   UNL     1      -8.288   3.343 -33.937  1.00  0.00     0.048 A 
HETATM   26  C   UNL     1      -9.560   2.767 -34.085  1.00  0.00     0.066 A 
HETATM   27  C   UNL     1     -10.722   3.541 -34.211  1.00  0.00     0.070 A 
HETATM   28  C   UNL     1     -10.625   4.928 -34.226  1.00  0.00     0.037 A 
HETATM   29  C   UNL     1      -9.374   5.527 -34.108  1.00  0.00     0.005 A 
HETATM   30  C   UNL     1      -8.221   4.744 -33.965  1.00  0.00     0.030 A 
BRANCH  27  31
HETATM   31  O   UNL     1     -11.878   2.818 -34.315  1.00  0.00    -0.356 OA
HETATM   32  C   UNL     1     -11.880   1.526 -33.719  1.00  0.00     0.210 C 
ENDBRANCH  27  31
ENDBRANCH   1  25
TORSDOF 2
ENDMDL
MODEL 5
REMARK VINA RESULT:      -9.4      1.995      4.020
REMARK  2 active torsions:
REMARK  status: ('A' for Active; 'I' for Inactive)
REMARK    1  A    between atoms: O_2  and  C_3 
REMARK    2  A    between atoms: C_5  and  N_6 
ROOT
HETATM    1  N   UNL     1      -5.719   0.445 -32.099  1.00  0.00    -0.252 N 
HETATM    2  C   UNL     1      -7.064   0.626 -31.864  1.00  0.00     0.239 C 
HETATM    3  O   UNL     1      -7.988  -0.170 -31.821  1.00  0.00    -0.272 OA
HETATM    4  C   UNL     1      -7.336   2.086 -31.717  1.00  0.00     0.145 C 
HETATM    5  C   UNL     1      -5.976   2.675 -31.395  1.00  0.00     0.126 C 
HETATM    6  C   UNL     1      -5.043   1.644 -31.984  1.00  0.00     0.238 C 
HETATM    7  O   UNL     1      -3.905   1.929 -32.321  1.00  0.00    -0.272 OA
HETATM    8  C   UNL     1      -7.819   2.730 -33.027  1.00  0.00     0.250 A 
HETATM    9  C   UNL     1      -7.954   1.762 -34.263  1.00  0.00     0.264 A 
HETATM   10  O   UNL     1      -7.040   1.158 -34.799  1.00  0.00    -0.270 OA
HETATM   11  N   UNL     1      -9.272   1.776 -34.674  1.00  0.00    -0.324 N 
HETATM   12  C   UNL     1     -10.034   2.631 -33.899  1.00  0.00     0.044 A 
HETATM   13  C   UNL     1      -9.245   3.239 -32.917  1.00  0.00     0.015 A 
HETATM   14  C   UNL     1     -11.379   2.891 -34.042  1.00  0.00     0.030 A 
HETATM   15  C   UNL     1     -11.950   3.807 -33.160  1.00  0.00     0.002 A 
HETATM   16  C   UNL     1     -11.173   4.434 -32.169  1.00  0.00     0.001 A 
HETATM   17  C   UNL     1      -9.808   4.153 -32.039  1.00  0.00     0.012 A 
HETATM   18  N   UNL     1      -6.842   3.902 -33.267  1.00  0.00    -0.043 N 
HETATM   19  H   UNL     1      -7.397   4.755 -33.434  1.00  0.00     0.282 HD
HETATM   20  C   UNL     1      -6.003   4.060 -32.021  1.00  0.00     0.204 C 
HETATM   21  C   UNL     1      -5.845   3.808 -34.403  1.00  0.00     0.237 C 
HETATM   22  C   UNL     1      -4.807   4.836 -34.000  1.00  0.00     0.030 C 
HETATM   23  C   UNL     1      -4.723   4.746 -32.479  1.00  0.00     0.036 C 
HETATM   24  H   UNL     1      -9.621   1.217 -35.446  1.00  0.00     0.169 HD
ENDROOT
BRANCH   1  25
HETATM   25  C   UNL     1      -5.131  -0.783 -32.551  1.00  0.00     0.048 A 
HETATM   26  C   UNL     1      -5.612  -1.454 -33.687  1.00  0.00     0.066 A 
HETATM   27  C   UNL     1      -5.003  -2.615 -34.183  1.00  0.00     0.070 A 
HETATM   28  C   UNL     1      -3.907  -3.153 -33.519  1.00  0.00     0.037 A 
HETATM   29  C   UNL     1      -3.425  -2.526 -32.374  1.00  0.00     0.005 A 
HETATM   30  C   UNL     1      -4.030  -1.355 -31.897  1.00  0.00     0.030 A 
BRANCH  27  31
HETATM   31  O   UNL     1      -5.581  -3.120 -35.315  1.00  0.00    -0.356 OA
HETATM   32  C   UNL     1      -6.415  -4.262 -35.153  1.00  0.00     0.210 C 
ENDBRANCH  27  31
ENDBRANCH   1  25
TORSDOF 2
ENDMDL
MODEL 6
REMARK VINA RESULT:      -9.3     14.707     16.956
REMARK  2 active torsions:
REMARK  status: ('A' for Active; 'I' for Inactive)
REMARK    1  A    between atoms: O_2  and  C_3 
REMARK    2  A    between atoms: C_5  and  N_6 
ROOT
HETATM    1  N   UNL     1      -7.242 -12.951 -38.725  1.00  0.00    -0.252 N 
HETATM    2  C   UNL     1      -6.077 -12.633 -39.387  1.00  0.00     0.239 C 
HETATM    3  O   UNL     1      -5.876 -12.273 -40.536  1.00  0.00    -0.272 OA
HETATM    4  C   UNL     1      -4.923 -12.865 -38.470  1.00  0.00     0.145 C 
HETATM    5  C   UNL     1      -5.553 -12.865 -37.091  1.00  0.00     0.126 C 
HETATM    6  C   UNL     1      -6.982 -13.244 -37.401  1.00  0.00     0.238 C 
HETATM    7  O   UNL     1      -7.701 -13.766 -36.565  1.00  0.00    -0.272 OA
HETATM    8  C   UNL     1      -4.272 -14.242 -38.680  1.00  0.00     0.250 A 
HETATM    9  C   UNL     1      -4.909 -15.143 -39.805  1.00  0.00     0.264 A 
HETATM   10  O   UNL     1      -6.045 -15.586 -39.806  1.00  0.00    -0.270 OA
HETATM   11  N   UNL     1      -3.934 -15.398 -40.750  1.00  0.00    -0.324 N 
HETATM   12  C   UNL     1      -2.730 -14.811 -40.405  1.00  0.00     0.044 A 
HETATM   13  C   UNL     1      -2.847 -14.125 -39.192  1.00  0.00     0.015 A 
HETATM   14  C   UNL     1      -1.552 -14.875 -41.116  1.00  0.00     0.030 A 
HETATM   15  C   UNL     1      -0.444 -14.223 -40.575  1.00  0.00     0.002 A 
HETATM   16  C   UNL     1      -0.539 -13.532 -39.353  1.00  0.00     0.001 A 
HETATM   17  C   UNL     1      -1.747 -13.477 -38.650  1.00  0.00     0.012 A 
HETATM   18  N   UNL     1      -4.292 -14.899 -37.281  1.00  0.00    -0.043 N 
HETATM   19  H   UNL     1      -3.341 -15.234 -37.069  1.00  0.00     0.282 HD
HETATM   20  C   UNL     1      -4.710 -13.842 -36.286  1.00  0.00     0.204 C 
HETATM   21  C   UNL     1      -5.225 -16.065 -37.031  1.00  0.00     0.237 C 
HETATM   22  C   UNL     1      -5.322 -16.074 -35.518  1.00  0.00     0.030 C 
HETATM   23  C   UNL     1      -5.293 -14.605 -35.105  1.00  0.00     0.036 C 
HETATM   24  H   UNL     1      -4.101 -15.944 -41.588  1.00  0.00     0.169 HD
ENDROOT
BRANCH   1  25
HETATM   25  C   UNL     1      -8.519 -13.108 -39.359  1.00  0.00     0.048 A 
HETATM   26  C   UNL     1      -9.076 -14.377 -39.588  1.00  0.00     0.066 A 
HETATM   27  C   UNL     1     -10.353 -14.545 -40.141  1.00  0.00     0.070 A 
HETATM   28  C   UNL     1     -11.094 -13.428 -40.511  1.00  0.00     0.037 A 
HETATM   29  C   UNL     1     -10.557 -12.158 -40.320  1.00  0.00     0.005 A 
HETATM   30  C   UNL     1      -9.287 -12.001 -39.751  1.00  0.00     0.030 A 
BRANCH  27  31
HETATM   31  O   UNL     1     -10.751 -15.847 -40.266  1.00  0.00    -0.356 OA
HETATM   32  C   UNL     1      -9.904 -16.834 -39.688  1.00  0.00     0.210 C 
ENDBRANCH  27  31
ENDBRANCH   1  25
TORSDOF 2
ENDMDL
MODEL 7
REMARK VINA RESULT:      -9.2      3.291      6.342
REMARK  2 active torsions:
REMARK  status: ('A' for Active; 'I' for Inactive)
REMARK    1  A    between atoms: O_2  and  C_3 
REMARK    2  A    between atoms: C_5  and  N_6 
ROOT
HETATM    1  N   UNL     1      -8.377   2.937 -31.249  1.00  0.00    -0.252 N 
HETATM    2  C   UNL     1      -7.335   3.836 -31.195  1.00  0.00     0.239 C 
HETATM    3  O   UNL     1      -7.325   5.056 -31.159  1.00  0.00    -0.272 OA
HETATM    4  C   UNL     1      -6.047   3.086 -31.263  1.00  0.00     0.145 C 
HETATM    5  C   UNL     1      -6.431   1.675 -30.863  1.00  0.00     0.126 C 
HETATM    6  C   UNL     1      -7.901   1.642 -31.209  1.00  0.00     0.238 C 
HETATM    7  O   UNL     1      -8.479   0.594 -31.446  1.00  0.00    -0.272 OA
HETATM    8  C   UNL     1      -5.476   3.022 -32.689  1.00  0.00     0.250 A 
HETATM    9  C   UNL     1      -6.320   3.752 -33.803  1.00  0.00     0.264 A 
HETATM   10  O   UNL     1      -7.450   3.454 -34.151  1.00  0.00    -0.270 OA
HETATM   11  N   UNL     1      -5.529   4.737 -34.361  1.00  0.00    -0.324 N 
HETATM   12  C   UNL     1      -4.269   4.756 -33.790  1.00  0.00     0.044 A 
HETATM   13  C   UNL     1      -4.158   3.767 -32.808  1.00  0.00     0.015 A 
HETATM   14  C   UNL     1      -3.232   5.602 -34.118  1.00  0.00     0.030 A 
HETATM   15  C   UNL     1      -2.031   5.437 -33.427  1.00  0.00     0.002 A 
HETATM   16  C   UNL     1      -1.898   4.444 -32.440  1.00  0.00     0.001 A 
HETATM   17  C   UNL     1      -2.966   3.598 -32.120  1.00  0.00     0.012 A 
HETATM   18  N   UNL     1      -5.274   1.515 -32.960  1.00  0.00    -0.043 N 
HETATM   19  H   UNL     1      -4.309   1.375 -33.295  1.00  0.00     0.282 HD
HETATM   20  C   UNL     1      -5.487   0.784 -31.656  1.00  0.00     0.204 C 
HETATM   21  C   UNL     1      -6.179   0.818 -33.954  1.00  0.00     0.237 C 
HETATM   22  C   UNL     1      -6.015  -0.638 -33.566  1.00  0.00     0.030 C 
HETATM   23  C   UNL     1      -5.878  -0.635 -32.046  1.00  0.00     0.036 C 
HETATM   24  H   UNL     1      -5.851   5.363 -35.091  1.00  0.00     0.169 HD
ENDROOT
BRANCH   1  25
HETATM   25  C   UNL     1      -9.747   3.295 -31.475  1.00  0.00     0.048 A 
HETATM   26  C   UNL     1     -10.394   3.005 -32.687  1.00  0.00     0.066 A 
HETATM   27  C   UNL     1     -11.752   3.283 -32.896  1.00  0.00     0.070 A 
HETATM   28  C   UNL     1     -12.489   3.899 -31.892  1.00  0.00     0.037 A 
HETATM   29  C   UNL     1     -11.869   4.223 -30.689  1.00  0.00     0.005 A 
HETATM   30  C   UNL     1     -10.516   3.925 -30.484  1.00  0.00     0.030 A 
BRANCH  27  31
HETATM   31  O   UNL     1     -12.227   2.906 -34.123  1.00  0.00    -0.356 OA
HETATM   32  C   UNL     1     -13.170   1.842 -34.144  1.00  0.00     0.210 C 
ENDBRANCH  27  31
ENDBRANCH   1  25
TORSDOF 2
ENDMDL
MODEL 8
REMARK VINA RESULT:      -9.1      3.112      6.493
REMARK  2 active torsions:
REMARK  status: ('A' for Active; 'I' for Inactive)
REMARK    1  A    between atoms: O_2  and  C_3 
REMARK    2  A    between atoms: C_5  and  N_6 
ROOT
HETATM    1  N   UNL     1      -5.297   3.902 -33.220  1.00  0.00    -0.252 N 
HETATM    2  C   UNL     1      -6.547   3.945 -33.795  1.00  0.00     0.239 C 
HETATM    3  O   UNL     1      -7.172   4.868 -34.293  1.00  0.00    -0.272 OA
HETATM    4  C   UNL     1      -7.179   2.599 -33.678  1.00  0.00     0.145 C 
HETATM    5  C   UNL     1      -6.005   1.670 -33.437  1.00  0.00     0.126 C 
HETATM    6  C   UNL     1      -4.979   2.610 -32.849  1.00  0.00     0.238 C 
HETATM    7  O   UNL     1      -4.077   2.207 -32.133  1.00  0.00    -0.272 OA
HETATM    8  C   UNL     1      -8.111   2.490 -32.460  1.00  0.00     0.250 A 
HETATM    9  C   UNL     1      -8.246   3.788 -31.576  1.00  0.00     0.264 A 
HETATM   10  O   UNL     1      -7.347   4.319 -30.946  1.00  0.00    -0.270 OA
HETATM   11  N   UNL     1      -9.572   4.174 -31.584  1.00  0.00    -0.324 N 
HETATM   12  C   UNL     1     -10.346   3.305 -32.332  1.00  0.00     0.044 A 
HETATM   13  C   UNL     1      -9.558   2.281 -32.869  1.00  0.00     0.015 A 
HETATM   14  C   UNL     1     -11.705   3.388 -32.540  1.00  0.00     0.030 A 
HETATM   15  C   UNL     1     -12.294   2.391 -33.318  1.00  0.00     0.002 A 
HETATM   16  C   UNL     1     -11.520   1.349 -33.861  1.00  0.00     0.001 A 
HETATM   17  C   UNL     1     -10.140   1.287 -33.641  1.00  0.00     0.012 A 
HETATM   18  N   UNL     1      -7.587   1.265 -31.678  1.00  0.00    -0.043 N 
HETATM   19  H   UNL     1      -8.383   0.637 -31.492  1.00  0.00     0.282 HD
HETATM   20  C   UNL     1      -6.564   0.572 -32.546  1.00  0.00     0.204 C 
HETATM   21  C   UNL     1      -6.892   1.483 -30.350  1.00  0.00     0.237 C 
HETATM   22  C   UNL     1      -6.123   0.188 -30.179  1.00  0.00     0.030 C 
HETATM   23  C   UNL     1      -5.671  -0.199 -31.584  1.00  0.00     0.036 C 
HETATM   24  H   UNL     1      -9.916   4.996 -31.101  1.00  0.00     0.169 HD
ENDROOT
BRANCH   1  25
HETATM   25  C   UNL     1      -4.506   5.058 -32.907  1.00  0.00     0.048 A 
HETATM   26  C   UNL     1      -3.380   5.406 -33.670  1.00  0.00     0.066 A 
HETATM   27  C   UNL     1      -2.639   6.571 -33.422  1.00  0.00     0.070 A 
HETATM   28  C   UNL     1      -2.998   7.401 -32.367  1.00  0.00     0.037 A 
HETATM   29  C   UNL     1      -4.094   7.067 -31.576  1.00  0.00     0.005 A 
HETATM   30  C   UNL     1      -4.837   5.910 -31.844  1.00  0.00     0.030 A 
BRANCH  27  31
HETATM   31  O   UNL     1      -1.593   6.772 -34.281  1.00  0.00    -0.356 OA
HETATM   32  C   UNL     1      -1.006   5.612 -34.857  1.00  0.00     0.210 C 
ENDBRANCH  27  31
ENDBRANCH   1  25
TORSDOF 2
ENDMDL
MODEL 9
REMARK VINA RESULT:      -9.0      1.473      2.162
REMARK  2 active torsions:
REMARK  status: ('A' for Active; 'I' for Inactive)
REMARK    1  A    between atoms: O_2  and  C_3 
REMARK    2  A    between atoms: C_5  and  N_6 
ROOT
HETATM    1  N   UNL     1      -6.294   0.560 -34.007  1.00  0.00    -0.252 N 
HETATM    2  C   UNL     1      -5.883   1.679 -33.316  1.00  0.00     0.239 C 
HETATM    3  O   UNL     1      -4.852   1.915 -32.708  1.00  0.00    -0.272 OA
HETATM    4  C   UNL     1      -6.988   2.681 -33.322  1.00  0.00     0.145 C 
HETATM    5  C   UNL     1      -7.864   2.246 -34.480  1.00  0.00     0.126 C 
HETATM    6  C   UNL     1      -7.526   0.778 -34.592  1.00  0.00     0.238 C 
HETATM    7  O   UNL     1      -8.300  -0.020 -35.093  1.00  0.00    -0.272 OA
HETATM    8  C   UNL     1      -7.845   2.620 -32.047  1.00  0.00     0.250 A 
HETATM    9  C   UNL     1      -7.414   1.547 -30.976  1.00  0.00     0.264 A 
HETATM   10  O   UNL     1      -7.416   0.338 -31.137  1.00  0.00    -0.270 OA
HETATM   11  N   UNL     1      -7.103   2.212 -29.806  1.00  0.00    -0.324 N 
HETATM   12  C   UNL     1      -7.285   3.577 -29.938  1.00  0.00     0.044 A 
HETATM   13  C   UNL     1      -7.733   3.892 -31.225  1.00  0.00     0.015 A 
HETATM   14  C   UNL     1      -7.078   4.531 -28.965  1.00  0.00     0.030 A 
HETATM   15  C   UNL     1      -7.341   5.857 -29.305  1.00  0.00     0.002 A 
HETATM   16  C   UNL     1      -7.798   6.194 -30.592  1.00  0.00     0.001 A 
HETATM   17  C   UNL     1      -7.998   5.210 -31.567  1.00  0.00     0.012 A 
HETATM   18  N   UNL     1      -9.290   2.432 -32.559  1.00  0.00    -0.043 N 
HETATM   19  H   UNL     1      -9.886   3.145 -32.112  1.00  0.00     0.282 HD
HETATM   20  C   UNL     1      -9.274   2.627 -34.056  1.00  0.00     0.204 C 
HETATM   21  C   UNL     1      -9.979   1.100 -32.344  1.00  0.00     0.237 C 
HETATM   22  C   UNL     1     -11.088   1.147 -33.376  1.00  0.00     0.030 C 
HETATM   23  C   UNL     1     -10.489   1.871 -34.577  1.00  0.00     0.036 C 
HETATM   24  H   UNL     1      -6.778   1.743 -28.968  1.00  0.00     0.169 HD
ENDROOT
BRANCH   1  25
HETATM   25  C   UNL     1      -5.613  -0.702 -33.988  1.00  0.00     0.048 A 
HETATM   26  C   UNL     1      -4.564  -0.959 -33.090  1.00  0.00     0.066 A 
HETATM   27  C   UNL     1      -3.937  -2.210 -33.010  1.00  0.00     0.070 A 
HETATM   28  C   UNL     1      -4.331  -3.232 -33.866  1.00  0.00     0.037 A 
HETATM   29  C   UNL     1      -5.350  -2.999 -34.785  1.00  0.00     0.005 A 
HETATM   30  C   UNL     1      -5.982  -1.750 -34.844  1.00  0.00     0.030 A 
BRANCH  27  31
HETATM   31  O   UNL     1      -2.956  -2.294 -32.060  1.00  0.00    -0.356 OA
HETATM   32  C   UNL     1      -2.346  -1.073 -31.660  1.00  0.00     0.210 C 
ENDBRANCH  27  31
ENDBRANCH   1  25
TORSDOF 2
ENDMDL
MODEL 10
REMARK VINA RESULT:      -9.0      2.813      5.056
REMARK  2 active torsions:
REMARK  status: ('A' for Active; 'I' for Inactive)
REMARK    1  A    between atoms: O_2  and  C_3 
REMARK    2  A    between atoms: C_5  and  N_6 
ROOT
HETATM    1  N   UNL     1      -5.301   2.335 -32.445  1.00  0.00    -0.252 N 
HETATM    2  C   UNL     1      -6.121   3.170 -31.719  1.00  0.00     0.239 C 
HETATM    3  O   UNL     1      -7.326   3.148 -31.529  1.00  0.00    -0.272 OA
HETATM    4  C   UNL     1      -5.303   4.290 -31.167  1.00  0.00     0.145 C 
HETATM    5  C   UNL     1      -3.884   3.761 -31.224  1.00  0.00     0.126 C 
HETATM    6  C   UNL     1      -3.981   2.721 -32.316  1.00  0.00     0.238 C 
HETATM    7  O   UNL     1      -3.004   2.376 -32.960  1.00  0.00    -0.272 OA
HETATM    8  C   UNL     1      -5.361   5.549 -32.047  1.00  0.00     0.250 A 
HETATM    9  C   UNL     1      -6.261   5.449 -33.338  1.00  0.00     0.264 A 
HETATM   10  O   UNL     1      -6.075   4.698 -34.280  1.00  0.00    -0.270 OA
HETATM   11  N   UNL     1      -7.249   6.409 -33.244  1.00  0.00    -0.324 N 
HETATM   12  C   UNL     1      -7.126   7.149 -32.082  1.00  0.00     0.044 A 
HETATM   13  C   UNL     1      -6.030   6.711 -31.333  1.00  0.00     0.015 A 
HETATM   14  C   UNL     1      -7.936   8.189 -31.682  1.00  0.00     0.030 A 
HETATM   15  C   UNL     1      -7.622   8.816 -30.476  1.00  0.00     0.002 A 
HETATM   16  C   UNL     1      -6.520   8.393 -29.710  1.00  0.00     0.001 A 
HETATM   17  C   UNL     1      -5.713   7.332 -30.134  1.00  0.00     0.012 A 
HETATM   18  N   UNL     1      -3.883   5.879 -32.351  1.00  0.00    -0.043 N 
HETATM   19  H   UNL     1      -3.720   6.871 -32.120  1.00  0.00     0.282 HD
HETATM   20  C   UNL     1      -3.028   4.991 -31.479  1.00  0.00     0.204 C 
HETATM   21  C   UNL     1      -3.358   5.673 -33.757  1.00  0.00     0.237 C 
HETATM   22  C   UNL     1      -1.861   5.609 -33.529  1.00  0.00     0.030 C 
HETATM   23  C   UNL     1      -1.688   4.889 -32.195  1.00  0.00     0.036 C 
HETATM   24  H   UNL     1      -7.970   6.536 -33.946  1.00  0.00     0.169 HD
ENDROOT
BRANCH   1  25
HETATM   25  C   UNL     1      -5.767   1.310 -33.334  1.00  0.00     0.048 A 
HETATM   26  C   UNL     1      -5.310  -0.014 -33.234  1.00  0.00     0.066 A 
HETATM   27  C   UNL     1      -5.809  -1.041 -34.047  1.00  0.00     0.070 A 
HETATM   28  C   UNL     1      -6.763  -0.749 -35.014  1.00  0.00     0.037 A 
HETATM   29  C   UNL     1      -7.216   0.560 -35.155  1.00  0.00     0.005 A 
HETATM   30  C   UNL     1      -6.723   1.575 -34.325  1.00  0.00     0.030 A 
BRANCH  27  31
HETATM   31  O   UNL     1      -5.276  -2.275 -33.794  1.00  0.00    -0.356 OA
HETATM   32  C   UNL     1      -5.128  -3.148 -34.907  1.00  0.00     0.210 C 
ENDBRANCH  27  31
ENDBRANCH   1  25
TORSDOF 2
ENDMDL
