MODEL 1
REMARK VINA RESULT:      -9.1      0.000      0.000
REMARK  11 active torsions:
REMARK  status: ('A' for Active; 'I' for Inactive)
REMARK    1  A    between atoms: C_2  and  C_3 
REMARK    2  A    between atoms: C_3  and  C_4 
REMARK    3  A    between atoms: C_4  and  O_5 
REMARK    4  A    between atoms: O_5  and  C_6 
REMARK    5  A    between atoms: C_8  and  C_9 
REMARK       I    between atoms: C_9  and  N_10 
REMARK    6  A    between atoms: N_10  and  C_11 
REMARK    7  A    between atoms: C_11  and  N_12 
REMARK    8  A    between atoms: N_12  and  C_13 
REMARK    9  A    between atoms: C_15  and  C_16 
REMARK   10  A    between atoms: C_23  and  C_24 
REMARK   11  A    between atoms: C_27  and  O_28 
ROOT
HETATM    1  C   UNL     1      -8.065   4.713 -33.771  1.00  0.00     0.035 A 
HETATM    2  C   UNL     1      -7.436   3.476 -33.931  1.00  0.00     0.048 A 
HETATM    3  C   UNL     1      -8.159   2.317 -34.251  1.00  0.00     0.052 A 
HETATM    4  C   UNL     1      -9.542   2.422 -34.415  1.00  0.00     0.080 A 
HETATM    5  C   UNL     1     -10.172   3.666 -34.343  1.00  0.00     0.040 A 
HETATM    6  C   UNL     1      -9.430   4.815 -34.041  1.00  0.00     0.032 A 
ENDROOT
BRANCH   1   7
HETATM    7  N   UNL     1      -7.349   5.867 -33.391  1.00  0.00    -0.333 N 
HETATM    8  H   UNL     1      -7.492   6.705 -33.955  1.00  0.00     0.168 HD
BRANCH   7   9
HETATM    9  C   UNL     1      -6.651   6.081 -32.224  1.00  0.00     0.179 C 
HETATM   10  S   UNL     1      -7.213   6.035 -30.646  1.00  0.00    -0.040 SA
BRANCH   9  11
HETATM   11  N   UNL     1      -5.314   6.375 -32.368  1.00  0.00    -0.299 N 
HETATM   12  C   UNL     1      -4.402   5.899 -33.296  1.00  0.00     0.257 C 
HETATM   13  O   UNL     1      -4.695   5.488 -34.411  1.00  0.00    -0.267 OA
HETATM   14  H   UNL     1      -4.954   6.920 -31.595  1.00  0.00     0.171 HD
BRANCH  12  15
HETATM   15  C   UNL     1      -2.986   6.052 -32.868  1.00  0.00     0.035 A 
HETATM   16  C   UNL     1      -2.504   5.292 -31.796  1.00  0.00     0.053 A 
HETATM   17  C   UNL     1      -1.155   5.376 -31.450  1.00  0.00     0.069 A 
HETATM   18  C   UNL     1      -0.310   6.239 -32.156  1.00  0.00     0.037 A 
HETATM   19  C   UNL     1      -0.797   7.024 -33.200  1.00  0.00     0.004 A 
HETATM   20  C   UNL     1      -2.138   6.932 -33.559  1.00  0.00     0.017 A 
BRANCH  17  21
HETATM   21  O   UNL     1      -0.524   4.663 -30.471  1.00  0.00    -0.351 OA
BRANCH  21  22
HETATM   22  C   UNL     1       0.668   5.211 -29.911  1.00  0.00     0.175 C 
BRANCH  22  23
HETATM   23  C   UNL     1       0.302   5.930 -28.613  1.00  0.00     0.026 C 
BRANCH  23  24
HETATM   24  C   UNL     1       0.526   7.442 -28.697  1.00  0.00    -0.002 C 
HETATM   25  C   UNL     1       1.266   7.962 -27.475  1.00  0.00     0.005 C 
ENDBRANCH  23  24
ENDBRANCH  22  23
ENDBRANCH  21  22
ENDBRANCH  17  21
ENDBRANCH  12  15
ENDBRANCH   9  11
ENDBRANCH   7   9
ENDBRANCH   1   7
BRANCH   3  26
HETATM   26  C   UNL     1      -7.455   1.049 -34.372  1.00  0.00     0.183 A 
HETATM   27  O   UNL     1      -6.228   0.986 -33.765  1.00  0.00    -0.289 OA
HETATM   28  C   UNL     1      -5.838  -0.304 -33.947  1.00  0.00     0.106 A 
HETATM   29  C   UNL     1      -6.833  -0.953 -34.656  1.00  0.00     0.094 A 
HETATM   30  C   UNL     1      -4.670  -0.894 -33.492  1.00  0.00     0.040 A 
HETATM   31  N   UNL     1      -7.834  -0.062 -34.981  1.00  0.00    -0.221 NA
HETATM   32  C   UNL     1      -6.692  -2.326 -34.901  1.00  0.00     0.041 A 
HETATM   33  C   UNL     1      -5.548  -2.998 -34.407  1.00  0.00    -0.056 A 
HETATM   34  C   UNL     1      -4.546  -2.266 -33.742  1.00  0.00     0.010 A 
BRANCH  33  35
HETATM   35  C   UNL     1      -5.448  -4.492 -34.641  1.00  0.00     0.034 C 
HETATM   36  C   UNL     1      -4.230  -5.189 -34.042  1.00  0.00     0.010 C 
ENDBRANCH  33  35
ENDBRANCH   3  26
BRANCH   4  37
HETATM   37  O   UNL     1     -10.343   1.339 -34.662  1.00  0.00    -0.360 OA
HETATM   38  H   UNL     1      -9.813   0.526 -34.531  1.00  0.00     0.217 HD
ENDBRANCH   4  37
TORSDOF 11
ENDMDL
MODEL 2
REMARK VINA RESULT:      -8.9      2.192      2.481
REMARK  11 active torsions:
REMARK  status: ('A' for Active; 'I' for Inactive)
REMARK    1  A    between atoms: C_2  and  C_3 
REMARK    2  A    between atoms: C_3  and  C_4 
REMARK    3  A    between atoms: C_4  and  O_5 
REMARK    4  A    between atoms: O_5  and  C_6 
REMARK    5  A    between atoms: C_8  and  C_9 
REMARK       I    between atoms: C_9  and  N_10 
REMARK    6  A    between atoms: N_10  and  C_11 
REMARK    7  A    between atoms: C_11  and  N_12 
REMARK    8  A    between atoms: N_12  and  C_13 
REMARK    9  A    between atoms: C_15  and  C_16 
REMARK   10  A    between atoms: C_23  and  C_24 
REMARK   11  A    between atoms: C_27  and  O_28 
ROOT
HETATM    1  C   UNL     1      -7.175   3.767 -29.708  1.00  0.00     0.035 A 
HETATM    2  C   UNL     1      -6.687   2.756 -30.539  1.00  0.00     0.048 A 
HETATM    3  C   UNL     1      -7.544   1.959 -31.312  1.00  0.00     0.052 A 
HETATM    4  C   UNL     1      -8.918   2.201 -31.242  1.00  0.00     0.080 A 
HETATM    5  C   UNL     1      -9.412   3.264 -30.483  1.00  0.00     0.040 A 
HETATM    6  C   UNL     1      -8.539   4.060 -29.732  1.00  0.00     0.032 A 
ENDROOT
BRANCH   1   7
HETATM    7  N   UNL     1      -6.320   4.529 -28.884  1.00  0.00    -0.333 N 
HETATM    8  H   UNL     1      -5.844   4.033 -28.131  1.00  0.00     0.168 HD
BRANCH   7   9
HETATM    9  C   UNL     1      -5.865   5.811 -29.097  1.00  0.00     0.179 C 
HETATM   10  S   UNL     1      -6.277   7.216 -28.282  1.00  0.00    -0.040 SA
BRANCH   9  11
HETATM   11  N   UNL     1      -4.953   5.963 -30.116  1.00  0.00    -0.299 N 
HETATM   12  C   UNL     1      -5.166   6.080 -31.481  1.00  0.00     0.257 C 
HETATM   13  O   UNL     1      -6.192   6.514 -31.988  1.00  0.00    -0.267 OA
HETATM   14  H   UNL     1      -3.999   5.841 -29.800  1.00  0.00     0.171 HD
BRANCH  12  15
HETATM   15  C   UNL     1      -3.969   5.750 -32.298  1.00  0.00     0.035 A 
HETATM   16  C   UNL     1      -2.738   5.540 -31.665  1.00  0.00     0.053 A 
HETATM   17  C   UNL     1      -1.636   5.149 -32.426  1.00  0.00     0.069 A 
HETATM   18  C   UNL     1      -1.766   5.003 -33.811  1.00  0.00     0.037 A 
HETATM   19  C   UNL     1      -2.982   5.248 -34.448  1.00  0.00     0.004 A 
HETATM   20  C   UNL     1      -4.087   5.623 -33.691  1.00  0.00     0.017 A 
BRANCH  17  21
HETATM   21  O   UNL     1      -0.389   4.855 -31.954  1.00  0.00    -0.351 OA
BRANCH  21  22
HETATM   22  C   UNL     1      -0.085   5.212 -30.606  1.00  0.00     0.175 C 
BRANCH  22  23
HETATM   23  C   UNL     1       0.609   6.574 -30.616  1.00  0.00     0.026 C 
BRANCH  23  24
HETATM   24  C   UNL     1       0.176   7.461 -29.445  1.00  0.00    -0.002 C 
HETATM   25  C   UNL     1       0.741   6.954 -28.127  1.00  0.00     0.005 C 
ENDBRANCH  23  24
ENDBRANCH  22  23
ENDBRANCH  21  22
ENDBRANCH  17  21
ENDBRANCH  12  15
ENDBRANCH   9  11
ENDBRANCH   7   9
ENDBRANCH   1   7
BRANCH   3  26
HETATM   26  C   UNL     1      -6.982   0.897 -32.134  1.00  0.00     0.183 A 
HETATM   27  O   UNL     1      -5.634   0.690 -32.003  1.00  0.00    -0.289 OA
HETATM   28  C   UNL     1      -5.389  -0.390 -32.790  1.00  0.00     0.106 A 
HETATM   29  C   UNL     1      -6.588  -0.778 -33.363  1.00  0.00     0.094 A 
HETATM   30  C   UNL     1      -4.173  -1.024 -32.982  1.00  0.00     0.040 A 
HETATM   31  N   UNL     1      -7.590   0.091 -32.988  1.00  0.00    -0.221 NA
HETATM   32  C   UNL     1      -6.604  -1.929 -34.164  1.00  0.00     0.041 A 
HETATM   33  C   UNL     1      -5.404  -2.656 -34.347  1.00  0.00    -0.056 A 
HETATM   34  C   UNL     1      -4.207  -2.174 -33.782  1.00  0.00     0.010 A 
BRANCH  33  35
HETATM   35  C   UNL     1      -5.462  -3.924 -35.174  1.00  0.00     0.034 C 
HETATM   36  C   UNL     1      -6.840  -4.555 -35.347  1.00  0.00     0.010 C 
ENDBRANCH  33  35
ENDBRANCH   3  26
BRANCH   4  37
HETATM   37  O   UNL     1      -9.840   1.436 -31.906  1.00  0.00    -0.360 OA
HETATM   38  H   UNL     1     -10.224   1.974 -32.630  1.00  0.00     0.217 HD
ENDBRANCH   4  37
TORSDOF 11
ENDMDL
MODEL 3
REMARK VINA RESULT:      -8.9      3.036      5.022
REMARK  11 active torsions:
REMARK  status: ('A' for Active; 'I' for Inactive)
REMARK    1  A    between atoms: C_2  and  C_3 
REMARK    2  A    between atoms: C_3  and  C_4 
REMARK    3  A    between atoms: C_4  and  O_5 
REMARK    4  A    between atoms: O_5  and  C_6 
REMARK    5  A    between atoms: C_8  and  C_9 
REMARK       I    between atoms: C_9  and  N_10 
REMARK    6  A    between atoms: N_10  and  C_11 
REMARK    7  A    between atoms: C_11  and  N_12 
REMARK    8  A    between atoms: N_12  and  C_13 
REMARK    9  A    between atoms: C_15  and  C_16 
REMARK   10  A    between atoms: C_23  and  C_24 
REMARK   11  A    between atoms: C_27  and  O_28 
ROOT
HETATM    1  C   UNL     1      -2.835   4.584 -31.533  1.00  0.00     0.035 A 
HETATM    2  C   UNL     1      -3.237   3.357 -32.065  1.00  0.00     0.048 A 
HETATM    3  C   UNL     1      -4.536   2.861 -31.876  1.00  0.00     0.052 A 
HETATM    4  C   UNL     1      -5.439   3.631 -31.139  1.00  0.00     0.080 A 
HETATM    5  C   UNL     1      -5.077   4.897 -30.675  1.00  0.00     0.040 A 
HETATM    6  C   UNL     1      -3.781   5.383 -30.889  1.00  0.00     0.032 A 
ENDROOT
BRANCH   1   7
HETATM    7  N   UNL     1      -1.513   5.056 -31.671  1.00  0.00    -0.333 N 
HETATM    8  H   UNL     1      -0.769   4.359 -31.631  1.00  0.00     0.168 HD
BRANCH   7   9
HETATM    9  C   UNL     1      -1.101   6.304 -32.079  1.00  0.00     0.179 C 
HETATM   10  S   UNL     1      -1.201   6.993 -33.603  1.00  0.00    -0.040 SA
BRANCH   9  11
HETATM   11  N   UNL     1      -0.527   7.094 -31.109  1.00  0.00    -0.299 N 
HETATM   12  C   UNL     1       0.052   6.730 -29.903  1.00  0.00     0.257 C 
HETATM   13  O   UNL     1       0.558   5.639 -29.678  1.00  0.00    -0.267 OA
HETATM   14  H   UNL     1      -0.681   8.081 -31.275  1.00  0.00     0.171 HD
BRANCH  12  15
HETATM   15  C   UNL     1       0.127   7.843 -28.921  1.00  0.00     0.035 A 
HETATM   16  C   UNL     1      -1.006   8.632 -28.684  1.00  0.00     0.053 A 
HETATM   17  C   UNL     1      -0.957   9.622 -27.703  1.00  0.00     0.069 A 
HETATM   18  C   UNL     1       0.229   9.835 -26.990  1.00  0.00     0.037 A 
HETATM   19  C   UNL     1       1.368   9.075 -27.251  1.00  0.00     0.004 A 
HETATM   20  C   UNL     1       1.319   8.076 -28.218  1.00  0.00     0.017 A 
BRANCH  17  21
HETATM   21  O   UNL     1      -1.986  10.433 -27.318  1.00  0.00    -0.351 OA
BRANCH  21  22
HETATM   22  C   UNL     1      -2.524  10.252 -26.009  1.00  0.00     0.175 C 
BRANCH  22  23
HETATM   23  C   UNL     1      -3.402   9.001 -26.021  1.00  0.00     0.026 C 
BRANCH  23  24
HETATM   24  C   UNL     1      -2.950   7.958 -24.994  1.00  0.00    -0.002 C 
HETATM   25  C   UNL     1      -2.199   6.815 -25.658  1.00  0.00     0.005 C 
ENDBRANCH  23  24
ENDBRANCH  22  23
ENDBRANCH  21  22
ENDBRANCH  17  21
ENDBRANCH  12  15
ENDBRANCH   9  11
ENDBRANCH   7   9
ENDBRANCH   1   7
BRANCH   3  26
HETATM   26  C   UNL     1      -4.889   1.560 -32.425  1.00  0.00     0.183 A 
HETATM   27  O   UNL     1      -6.101   1.490 -33.062  1.00  0.00    -0.289 OA
HETATM   28  C   UNL     1      -6.142   0.221 -33.548  1.00  0.00     0.106 A 
HETATM   29  C   UNL     1      -4.969  -0.414 -33.179  1.00  0.00     0.094 A 
HETATM   30  C   UNL     1      -7.153  -0.350 -34.303  1.00  0.00     0.040 A 
HETATM   31  N   UNL     1      -4.203   0.430 -32.405  1.00  0.00    -0.221 NA
HETATM   32  C   UNL     1      -4.745  -1.721 -33.636  1.00  0.00     0.041 A 
HETATM   33  C   UNL     1      -5.715  -2.336 -34.462  1.00  0.00    -0.056 A 
HETATM   34  C   UNL     1      -6.912  -1.655 -34.753  1.00  0.00     0.010 A 
BRANCH  33  35
HETATM   35  C   UNL     1      -5.421  -3.728 -34.984  1.00  0.00     0.034 C 
HETATM   36  C   UNL     1      -6.631  -4.575 -35.367  1.00  0.00     0.010 C 
ENDBRANCH  33  35
ENDBRANCH   3  26
BRANCH   4  37
HETATM   37  O   UNL     1      -6.707   3.205 -30.843  1.00  0.00    -0.360 OA
HETATM   38  H   UNL     1      -7.313   3.971 -30.910  1.00  0.00     0.217 HD
ENDBRANCH   4  37
TORSDOF 11
ENDMDL
MODEL 4
REMARK VINA RESULT:      -8.7      2.070      9.340
REMARK  11 active torsions:
REMARK  status: ('A' for Active; 'I' for Inactive)
REMARK    1  A    between atoms: C_2  and  C_3 
REMARK    2  A    between atoms: C_3  and  C_4 
REMARK    3  A    between atoms: C_4  and  O_5 
REMARK    4  A    between atoms: O_5  and  C_6 
REMARK    5  A    between atoms: C_8  and  C_9 
REMARK       I    between atoms: C_9  and  N_10 
REMARK    6  A    between atoms: N_10  and  C_11 
REMARK    7  A    between atoms: C_11  and  N_12 
REMARK    8  A    between atoms: N_12  and  C_13 
REMARK    9  A    between atoms: C_15  and  C_16 
REMARK   10  A    between atoms: C_23  and  C_24 
REMARK   11  A    between atoms: C_27  and  O_28 
ROOT
HETATM    1  C   UNL     1      -5.029   5.351 -33.716  1.00  0.00     0.035 A 
HETATM    2  C   UNL     1      -4.240   5.781 -32.647  1.00  0.00     0.048 A 
HETATM    3  C   UNL     1      -2.841   5.839 -32.740  1.00  0.00     0.052 A 
HETATM    4  C   UNL     1      -2.240   5.459 -33.942  1.00  0.00     0.080 A 
HETATM    5  C   UNL     1      -3.021   5.109 -35.046  1.00  0.00     0.040 A 
HETATM    6  C   UNL     1      -4.417   5.075 -34.939  1.00  0.00     0.032 A 
ENDROOT
BRANCH   1   7
HETATM    7  N   UNL     1      -6.431   5.235 -33.605  1.00  0.00    -0.333 N 
HETATM    8  H   UNL     1      -6.986   5.599 -34.379  1.00  0.00     0.168 HD
BRANCH   7   9
HETATM    9  C   UNL     1      -7.146   4.493 -32.692  1.00  0.00     0.179 C 
HETATM   10  S   UNL     1      -8.086   5.030 -31.413  1.00  0.00    -0.040 SA
BRANCH   9  11
HETATM   11  N   UNL     1      -7.082   3.127 -32.847  1.00  0.00    -0.299 N 
HETATM   12  C   UNL     1      -6.200   2.216 -32.285  1.00  0.00     0.257 C 
HETATM   13  O   UNL     1      -5.612   2.383 -31.225  1.00  0.00    -0.267 OA
HETATM   14  H   UNL     1      -7.698   2.792 -33.577  1.00  0.00     0.171 HD
BRANCH  12  15
HETATM   15  C   UNL     1      -6.121   0.932 -33.029  1.00  0.00     0.035 A 
HETATM   16  C   UNL     1      -4.939   0.183 -32.990  1.00  0.00     0.053 A 
HETATM   17  C   UNL     1      -4.895  -1.061 -33.620  1.00  0.00     0.069 A 
HETATM   18  C   UNL     1      -6.020  -1.530 -34.307  1.00  0.00     0.037 A 
HETATM   19  C   UNL     1      -7.186  -0.769 -34.378  1.00  0.00     0.004 A 
HETATM   20  C   UNL     1      -7.239   0.465 -33.738  1.00  0.00     0.017 A 
BRANCH  17  21
HETATM   21  O   UNL     1      -3.841  -1.929 -33.626  1.00  0.00    -0.351 OA
BRANCH  21  22
HETATM   22  C   UNL     1      -3.372  -2.416 -32.370  1.00  0.00     0.175 C 
BRANCH  22  23
HETATM   23  C   UNL     1      -3.512  -3.938 -32.364  1.00  0.00     0.026 C 
BRANCH  23  24
HETATM   24  C   UNL     1      -3.387  -4.544 -33.765  1.00  0.00    -0.002 C 
HETATM   25  C   UNL     1      -4.714  -5.109 -34.245  1.00  0.00     0.005 C 
ENDBRANCH  23  24
ENDBRANCH  22  23
ENDBRANCH  21  22
ENDBRANCH  17  21
ENDBRANCH  12  15
ENDBRANCH   9  11
ENDBRANCH   7   9
ENDBRANCH   1   7
BRANCH   3  26
HETATM   26  C   UNL     1      -2.067   6.263 -31.583  1.00  0.00     0.183 A 
HETATM   27  O   UNL     1      -1.290   5.297 -30.998  1.00  0.00    -0.289 OA
HETATM   28  C   UNL     1      -0.617   5.964 -30.023  1.00  0.00     0.106 A 
HETATM   29  C   UNL     1      -1.021   7.287 -30.057  1.00  0.00     0.094 A 
HETATM   30  C   UNL     1       0.327   5.442 -29.154  1.00  0.00     0.040 A 
HETATM   31  N   UNL     1      -1.997   7.455 -31.015  1.00  0.00    -0.221 NA
HETATM   32  C   UNL     1      -0.404   8.197 -29.186  1.00  0.00     0.041 A 
HETATM   33  C   UNL     1       0.613   7.734 -28.317  1.00  0.00    -0.056 A 
HETATM   34  C   UNL     1       0.936   6.364 -28.293  1.00  0.00     0.010 A 
BRANCH  33  35
HETATM   35  C   UNL     1       1.299   8.749 -27.425  1.00  0.00     0.034 C 
HETATM   36  C   UNL     1       1.961   8.202 -26.164  1.00  0.00     0.010 C 
ENDBRANCH  33  35
ENDBRANCH   3  26
BRANCH   4  37
HETATM   37  O   UNL     1      -0.881   5.417 -34.111  1.00  0.00    -0.360 OA
HETATM   38  H   UNL     1      -0.526   4.683 -33.568  1.00  0.00     0.217 HD
ENDBRANCH   4  37
TORSDOF 11
ENDMDL
MODEL 5
REMARK VINA RESULT:      -8.7      3.085      5.245
REMARK  11 active torsions:
REMARK  status: ('A' for Active; 'I' for Inactive)
REMARK    1  A    between atoms: C_2  and  C_3 
REMARK    2  A    between atoms: C_3  and  C_4 
REMARK    3  A    between atoms: C_4  and  O_5 
REMARK    4  A    between atoms: O_5  and  C_6 
REMARK    5  A    between atoms: C_8  and  C_9 
REMARK       I    between atoms: C_9  and  N_10 
REMARK    6  A    between atoms: N_10  and  C_11 
REMARK    7  A    between atoms: C_11  and  N_12 
REMARK    8  A    between atoms: N_12  and  C_13 
REMARK    9  A    between atoms: C_15  and  C_16 
REMARK   10  A    between atoms: C_23  and  C_24 
REMARK   11  A    between atoms: C_27  and  O_28 
ROOT
HETATM    1  C   UNL     1      -3.056   4.659 -31.271  1.00  0.00     0.035 A 
HETATM    2  C   UNL     1      -3.403   3.413 -31.797  1.00  0.00     0.048 A 
HETATM    3  C   UNL     1      -4.742   3.021 -31.945  1.00  0.00     0.052 A 
HETATM    4  C   UNL     1      -5.741   3.917 -31.557  1.00  0.00     0.080 A 
HETATM    5  C   UNL     1      -5.410   5.198 -31.111  1.00  0.00     0.040 A 
HETATM    6  C   UNL     1      -4.067   5.577 -30.986  1.00  0.00     0.032 A 
ENDROOT
BRANCH   1   7
HETATM    7  N   UNL     1      -1.710   5.030 -31.065  1.00  0.00    -0.333 N 
HETATM    8  H   UNL     1      -1.080   4.304 -30.722  1.00  0.00     0.168 HD
BRANCH   7   9
HETATM    9  C   UNL     1      -1.079   6.181 -31.479  1.00  0.00     0.179 C 
HETATM   10  S   UNL     1      -1.007   6.839 -33.018  1.00  0.00    -0.040 SA
BRANCH   9  11
HETATM   11  N   UNL     1      -0.415   6.887 -30.501  1.00  0.00    -0.299 N 
HETATM   12  C   UNL     1       0.143   6.438 -29.315  1.00  0.00     0.257 C 
HETATM   13  O   UNL     1       0.542   5.297 -29.123  1.00  0.00    -0.267 OA
HETATM   14  H   UNL     1      -0.473   7.888 -30.642  1.00  0.00     0.171 HD
BRANCH  12  15
HETATM   15  C   UNL     1       0.342   7.515 -28.309  1.00  0.00     0.035 A 
HETATM   16  C   UNL     1       1.373   7.399 -27.369  1.00  0.00     0.053 A 
HETATM   17  C   UNL     1       1.610   8.448 -26.480  1.00  0.00     0.069 A 
HETATM   18  C   UNL     1       0.797   9.586 -26.519  1.00  0.00     0.037 A 
HETATM   19  C   UNL     1      -0.254   9.687 -27.429  1.00  0.00     0.004 A 
HETATM   20  C   UNL     1      -0.483   8.650 -28.328  1.00  0.00     0.017 A 
BRANCH  17  21
HETATM   21  O   UNL     1       2.605   8.510 -25.547  1.00  0.00    -0.351 OA
BRANCH  21  22
HETATM   22  C   UNL     1       2.288   9.063 -24.271  1.00  0.00     0.175 C 
BRANCH  22  23
HETATM   23  C   UNL     1       3.457   9.940 -23.825  1.00  0.00     0.026 C 
BRANCH  23  24
HETATM   24  C   UNL     1       4.132   9.415 -22.554  1.00  0.00    -0.002 C 
HETATM   25  C   UNL     1       3.374   8.232 -21.972  1.00  0.00     0.005 C 
ENDBRANCH  23  24
ENDBRANCH  22  23
ENDBRANCH  21  22
ENDBRANCH  17  21
ENDBRANCH  12  15
ENDBRANCH   9  11
ENDBRANCH   7   9
ENDBRANCH   1   7
BRANCH   3  26
HETATM   26  C   UNL     1      -5.045   1.697 -32.468  1.00  0.00     0.183 A 
HETATM   27  O   UNL     1      -6.198   1.593 -33.201  1.00  0.00    -0.289 OA
HETATM   28  C   UNL     1      -6.195   0.305 -33.636  1.00  0.00     0.106 A 
HETATM   29  C   UNL     1      -5.055  -0.306 -33.144  1.00  0.00     0.094 A 
HETATM   30  C   UNL     1      -7.137  -0.302 -34.449  1.00  0.00     0.040 A 
HETATM   31  N   UNL     1      -4.359   0.573 -32.344  1.00  0.00    -0.221 NA
HETATM   32  C   UNL     1      -4.790  -1.629 -33.526  1.00  0.00     0.041 A 
HETATM   33  C   UNL     1      -5.685  -2.284 -34.405  1.00  0.00    -0.056 A 
HETATM   34  C   UNL     1      -6.856  -1.623 -34.823  1.00  0.00     0.010 A 
BRANCH  33  35
HETATM   35  C   UNL     1      -5.345  -3.694 -34.843  1.00  0.00     0.034 C 
HETATM   36  C   UNL     1      -6.492  -4.516 -35.422  1.00  0.00     0.010 C 
ENDBRANCH  33  35
ENDBRANCH   3  26
BRANCH   4  37
HETATM   37  O   UNL     1      -7.074   3.605 -31.600  1.00  0.00    -0.360 OA
HETATM   38  H   UNL     1      -7.428   3.638 -30.688  1.00  0.00     0.217 HD
ENDBRANCH   4  37
TORSDOF 11
ENDMDL
MODEL 6
REMARK VINA RESULT:      -8.6      2.879      7.833
REMARK  11 active torsions:
REMARK  status: ('A' for Active; 'I' for Inactive)
REMARK    1  A    between atoms: C_2  and  C_3 
REMARK    2  A    between atoms: C_3  and  C_4 
REMARK    3  A    between atoms: C_4  and  O_5 
REMARK    4  A    between atoms: O_5  and  C_6 
REMARK    5  A    between atoms: C_8  and  C_9 
REMARK       I    between atoms: C_9  and  N_10 
REMARK    6  A    between atoms: N_10  and  C_11 
REMARK    7  A    between atoms: C_11  and  N_12 
REMARK    8  A    between atoms: N_12  and  C_13 
REMARK    9  A    between atoms: C_15  and  C_16 
REMARK   10  A    between atoms: C_23  and  C_24 
REMARK   11  A    between atoms: C_27  and  O_28 
ROOT
HETATM    1  C   UNL     1      -5.777   5.196 -32.543  1.00  0.00     0.035 A 
HETATM    2  C   UNL     1      -5.851   3.832 -32.836  1.00  0.00     0.048 A 
HETATM    3  C   UNL     1      -4.889   2.924 -32.369  1.00  0.00     0.052 A 
HETATM    4  C   UNL     1      -3.839   3.413 -31.587  1.00  0.00     0.080 A 
HETATM    5  C   UNL     1      -3.801   4.758 -31.215  1.00  0.00     0.040 A 
HETATM    6  C   UNL     1      -4.780   5.646 -31.676  1.00  0.00     0.032 A 
ENDROOT
BRANCH   1   7
HETATM    7  N   UNL     1      -6.709   6.119 -33.061  1.00  0.00    -0.333 N 
HETATM    8  H   UNL     1      -6.439   6.618 -33.909  1.00  0.00     0.168 HD
BRANCH   7   9
HETATM    9  C   UNL     1      -8.030   6.274 -32.706  1.00  0.00     0.179 C 
HETATM   10  S   UNL     1      -8.833   7.671 -32.249  1.00  0.00    -0.040 SA
BRANCH   9  11
HETATM   11  N   UNL     1      -8.795   5.130 -32.725  1.00  0.00    -0.299 N 
HETATM   12  C   UNL     1      -9.076   4.239 -31.700  1.00  0.00     0.257 C 
HETATM   13  O   UNL     1      -9.074   4.527 -30.511  1.00  0.00    -0.267 OA
HETATM   14  H   UNL     1      -9.071   4.866 -33.663  1.00  0.00     0.171 HD
BRANCH  12  15
HETATM   15  C   UNL     1      -9.518   2.903 -32.180  1.00  0.00     0.035 A 
HETATM   16  C   UNL     1     -10.488   2.818 -33.186  1.00  0.00     0.053 A 
HETATM   17  C   UNL     1     -10.840   1.566 -33.693  1.00  0.00     0.069 A 
HETATM   18  C   UNL     1     -10.244   0.414 -33.169  1.00  0.00     0.037 A 
HETATM   19  C   UNL     1      -9.305   0.495 -32.142  1.00  0.00     0.004 A 
HETATM   20  C   UNL     1      -8.939   1.742 -31.645  1.00  0.00     0.017 A 
BRANCH  17  21
HETATM   21  O   UNL     1     -11.723   1.321 -34.704  1.00  0.00    -0.351 OA
BRANCH  21  22
HETATM   22  C   UNL     1     -12.830   2.209 -34.853  1.00  0.00     0.175 C 
BRANCH  22  23
HETATM   23  C   UNL     1     -14.001   1.655 -34.042  1.00  0.00     0.026 C 
BRANCH  23  24
HETATM   24  C   UNL     1     -14.242   2.439 -32.749  1.00  0.00    -0.002 C 
HETATM   25  C   UNL     1     -15.586   2.090 -32.131  1.00  0.00     0.005 C 
ENDBRANCH  23  24
ENDBRANCH  22  23
ENDBRANCH  21  22
ENDBRANCH  17  21
ENDBRANCH  12  15
ENDBRANCH   9  11
ENDBRANCH   7   9
ENDBRANCH   1   7
BRANCH   3  26
HETATM   26  C   UNL     1      -4.998   1.519 -32.733  1.00  0.00     0.183 A 
HETATM   27  O   UNL     1      -6.046   1.195 -33.556  1.00  0.00    -0.289 OA
HETATM   28  C   UNL     1      -5.866  -0.128 -33.810  1.00  0.00     0.106 A 
HETATM   29  C   UNL     1      -4.734  -0.542 -33.129  1.00  0.00     0.094 A 
HETATM   30  C   UNL     1      -6.646  -0.935 -34.622  1.00  0.00     0.040 A 
HETATM   31  N   UNL     1      -4.223   0.504 -32.390  1.00  0.00    -0.221 NA
HETATM   32  C   UNL     1      -4.298  -1.864 -33.299  1.00  0.00     0.041 A 
HETATM   33  C   UNL     1      -5.019  -2.719 -34.165  1.00  0.00    -0.056 A 
HETATM   34  C   UNL     1      -6.195  -2.252 -34.783  1.00  0.00     0.010 A 
BRANCH  33  35
HETATM   35  C   UNL     1      -4.494  -4.126 -34.371  1.00  0.00     0.034 C 
HETATM   36  C   UNL     1      -3.426  -4.598 -33.390  1.00  0.00     0.010 C 
ENDBRANCH  33  35
ENDBRANCH   3  26
BRANCH   4  37
HETATM   37  O   UNL     1      -2.817   2.619 -31.140  1.00  0.00    -0.360 OA
HETATM   38  H   UNL     1      -2.148   3.191 -30.709  1.00  0.00     0.217 HD
ENDBRANCH   4  37
TORSDOF 11
ENDMDL
MODEL 7
REMARK VINA RESULT:      -8.5      2.373      9.590
REMARK  11 active torsions:
REMARK  status: ('A' for Active; 'I' for Inactive)
REMARK    1  A    between atoms: C_2  and  C_3 
REMARK    2  A    between atoms: C_3  and  C_4 
REMARK    3  A    between atoms: C_4  and  O_5 
REMARK    4  A    between atoms: O_5  and  C_6 
REMARK    5  A    between atoms: C_8  and  C_9 
REMARK       I    between atoms: C_9  and  N_10 
REMARK    6  A    between atoms: N_10  and  C_11 
REMARK    7  A    between atoms: C_11  and  N_12 
REMARK    8  A    between atoms: N_12  and  C_13 
REMARK    9  A    between atoms: C_15  and  C_16 
REMARK   10  A    between atoms: C_23  and  C_24 
REMARK   11  A    between atoms: C_27  and  O_28 
ROOT
HETATM    1  C   UNL     1      -5.059   5.227 -33.559  1.00  0.00     0.035 A 
HETATM    2  C   UNL     1      -4.233   5.826 -32.605  1.00  0.00     0.048 A 
HETATM    3  C   UNL     1      -2.892   6.135 -32.881  1.00  0.00     0.052 A 
HETATM    4  C   UNL     1      -2.390   5.835 -34.150  1.00  0.00     0.080 A 
HETATM    5  C   UNL     1      -3.228   5.316 -35.139  1.00  0.00     0.040 A 
HETATM    6  C   UNL     1      -4.568   5.031 -34.850  1.00  0.00     0.032 A 
ENDROOT
BRANCH   1   7
HETATM    7  N   UNL     1      -6.389   4.861 -33.264  1.00  0.00    -0.333 N 
HETATM    8  H   UNL     1      -7.048   4.853 -34.042  1.00  0.00     0.168 HD
BRANCH   7   9
HETATM    9  C   UNL     1      -6.871   4.293 -32.106  1.00  0.00     0.179 C 
HETATM   10  S   UNL     1      -7.876   4.969 -30.948  1.00  0.00    -0.040 SA
BRANCH   9  11
HETATM   11  N   UNL     1      -6.474   2.998 -31.862  1.00  0.00    -0.299 N 
HETATM   12  C   UNL     1      -5.362   2.530 -31.179  1.00  0.00     0.257 C 
HETATM   13  O   UNL     1      -4.777   3.147 -30.299  1.00  0.00    -0.267 OA
HETATM   14  H   UNL     1      -7.027   2.322 -32.376  1.00  0.00     0.171 HD
BRANCH  12  15
HETATM   15  C   UNL     1      -5.005   1.127 -31.520  1.00  0.00     0.035 A 
HETATM   16  C   UNL     1      -5.921   0.331 -32.217  1.00  0.00     0.053 A 
HETATM   17  C   UNL     1      -5.551  -0.956 -32.607  1.00  0.00     0.069 A 
HETATM   18  C   UNL     1      -4.284  -1.445 -32.271  1.00  0.00     0.037 A 
HETATM   19  C   UNL     1      -3.384  -0.667 -31.545  1.00  0.00     0.004 A 
HETATM   20  C   UNL     1      -3.743   0.623 -31.167  1.00  0.00     0.017 A 
BRANCH  17  21
HETATM   21  O   UNL     1      -6.307  -1.830 -33.334  1.00  0.00    -0.351 OA
BRANCH  21  22
HETATM   22  C   UNL     1      -6.280  -1.712 -34.755  1.00  0.00     0.175 C 
BRANCH  22  23
HETATM   23  C   UNL     1      -5.469  -2.879 -35.318  1.00  0.00     0.026 C 
BRANCH  23  24
HETATM   24  C   UNL     1      -5.992  -4.238 -34.844  1.00  0.00    -0.002 C 
HETATM   25  C   UNL     1      -4.864  -5.113 -34.318  1.00  0.00     0.005 C 
ENDBRANCH  23  24
ENDBRANCH  22  23
ENDBRANCH  21  22
ENDBRANCH  17  21
ENDBRANCH  12  15
ENDBRANCH   9  11
ENDBRANCH   7   9
ENDBRANCH   1   7
BRANCH   3  26
HETATM   26  C   UNL     1      -2.068   6.727 -31.838  1.00  0.00     0.183 A 
HETATM   27  O   UNL     1      -2.664   7.709 -31.091  1.00  0.00    -0.289 OA
HETATM   28  C   UNL     1      -1.731   8.019 -30.152  1.00  0.00     0.106 A 
HETATM   29  C   UNL     1      -0.621   7.224 -30.378  1.00  0.00     0.094 A 
HETATM   30  C   UNL     1      -1.854   8.942 -29.127  1.00  0.00     0.040 A 
HETATM   31  N   UNL     1      -0.821   6.448 -31.499  1.00  0.00    -0.221 NA
HETATM   32  C   UNL     1       0.455   7.309 -29.483  1.00  0.00     0.041 A 
HETATM   33  C   UNL     1       0.363   8.190 -28.379  1.00  0.00    -0.056 A 
HETATM   34  C   UNL     1      -0.772   9.013 -28.240  1.00  0.00     0.010 A 
BRANCH  33  35
HETATM   35  C   UNL     1       1.518   8.222 -27.399  1.00  0.00     0.034 C 
HETATM   36  C   UNL     1       1.518   9.368 -26.393  1.00  0.00     0.010 C 
ENDBRANCH  33  35
ENDBRANCH   3  26
BRANCH   4  37
HETATM   37  O   UNL     1      -1.080   6.036 -34.495  1.00  0.00    -0.360 OA
HETATM   38  H   UNL     1      -0.539   5.338 -34.073  1.00  0.00     0.217 HD
ENDBRANCH   4  37
TORSDOF 11
ENDMDL
MODEL 8
REMARK VINA RESULT:      -8.4      3.120     10.724
REMARK  11 active torsions:
REMARK  status: ('A' for Active; 'I' for Inactive)
REMARK    1  A    between atoms: C_2  and  C_3 
REMARK    2  A    between atoms: C_3  and  C_4 
REMARK    3  A    between atoms: C_4  and  O_5 
REMARK    4  A    between atoms: O_5  and  C_6 
REMARK    5  A    between atoms: C_8  and  C_9 
REMARK       I    between atoms: C_9  and  N_10 
REMARK    6  A    between atoms: N_10  and  C_11 
REMARK    7  A    between atoms: C_11  and  N_12 
REMARK    8  A    between atoms: N_12  and  C_13 
REMARK    9  A    between atoms: C_15  and  C_16 
REMARK   10  A    between atoms: C_23  and  C_24 
REMARK   11  A    between atoms: C_27  and  O_28 
ROOT
HETATM    1  C   UNL     1      -2.863   4.309 -32.215  1.00  0.00     0.035 A 
HETATM    2  C   UNL     1      -2.180   5.034 -31.236  1.00  0.00     0.048 A 
HETATM    3  C   UNL     1      -1.673   6.318 -31.488  1.00  0.00     0.052 A 
HETATM    4  C   UNL     1      -1.873   6.873 -32.754  1.00  0.00     0.080 A 
HETATM    5  C   UNL     1      -2.628   6.195 -33.714  1.00  0.00     0.040 A 
HETATM    6  C   UNL     1      -3.140   4.922 -33.437  1.00  0.00     0.032 A 
ENDROOT
BRANCH   1   7
HETATM    7  N   UNL     1      -3.319   2.995 -31.983  1.00  0.00    -0.333 N 
HETATM    8  H   UNL     1      -2.641   2.243 -32.106  1.00  0.00     0.168 HD
BRANCH   7   9
HETATM    9  C   UNL     1      -4.500   2.603 -31.393  1.00  0.00     0.179 C 
HETATM   10  S   UNL     1      -5.368   3.368 -30.181  1.00  0.00    -0.040 SA
BRANCH   9  11
HETATM   11  N   UNL     1      -5.041   1.425 -31.855  1.00  0.00    -0.299 N 
HETATM   12  C   UNL     1      -4.415   0.343 -32.454  1.00  0.00     0.257 C 
HETATM   13  O   UNL     1      -3.243   0.037 -32.284  1.00  0.00    -0.267 OA
HETATM   14  H   UNL     1      -6.053   1.440 -31.856  1.00  0.00     0.171 HD
BRANCH  12  15
HETATM   15  C   UNL     1      -5.340  -0.516 -33.240  1.00  0.00     0.035 A 
HETATM   16  C   UNL     1      -4.816  -1.487 -34.102  1.00  0.00     0.053 A 
HETATM   17  C   UNL     1      -5.686  -2.346 -34.774  1.00  0.00     0.069 A 
HETATM   18  C   UNL     1      -7.068  -2.207 -34.603  1.00  0.00     0.037 A 
HETATM   19  C   UNL     1      -7.592  -1.217 -33.774  1.00  0.00     0.004 A 
HETATM   20  C   UNL     1      -6.728  -0.368 -33.089  1.00  0.00     0.017 A 
BRANCH  17  21
HETATM   21  O   UNL     1      -5.331  -3.372 -35.602  1.00  0.00    -0.351 OA
BRANCH  21  22
HETATM   22  C   UNL     1      -5.628  -4.702 -35.180  1.00  0.00     0.175 C 
BRANCH  22  23
HETATM   23  C   UNL     1      -5.112  -4.879 -33.752  1.00  0.00     0.026 C 
BRANCH  23  24
HETATM   24  C   UNL     1      -3.582  -4.893 -33.680  1.00  0.00    -0.002 C 
HETATM   25  C   UNL     1      -3.077  -4.135 -32.463  1.00  0.00     0.005 C 
ENDBRANCH  23  24
ENDBRANCH  22  23
ENDBRANCH  21  22
ENDBRANCH  17  21
ENDBRANCH  12  15
ENDBRANCH   9  11
ENDBRANCH   7   9
ENDBRANCH   1   7
BRANCH   3  26
HETATM   26  C   UNL     1      -0.940   7.013 -30.441  1.00  0.00     0.183 A 
HETATM   27  O   UNL     1      -1.578   8.087 -29.876  1.00  0.00    -0.289 OA
HETATM   28  C   UNL     1      -0.734   8.488 -28.888  1.00  0.00     0.106 A 
HETATM   29  C   UNL     1       0.369   7.652 -28.907  1.00  0.00     0.094 A 
HETATM   30  C   UNL     1      -0.931   9.526 -27.994  1.00  0.00     0.040 A 
HETATM   31  N   UNL     1       0.259   6.753 -29.946  1.00  0.00    -0.221 NA
HETATM   32  C   UNL     1       1.352   7.821 -27.922  1.00  0.00     0.041 A 
HETATM   33  C   UNL     1       1.177   8.827 -26.942  1.00  0.00    -0.056 A 
HETATM   34  C   UNL     1       0.059   9.681 -27.014  1.00  0.00     0.010 A 
BRANCH  33  35
HETATM   35  C   UNL     1       2.229   8.952 -25.858  1.00  0.00     0.034 C 
HETATM   36  C   UNL     1       1.776   9.587 -24.547  1.00  0.00     0.010 C 
ENDBRANCH  33  35
ENDBRANCH   3  26
BRANCH   4  37
HETATM   37  O   UNL     1      -1.361   8.090 -33.119  1.00  0.00    -0.360 OA
HETATM   38  H   UNL     1      -2.100   8.729 -33.182  1.00  0.00     0.217 HD
ENDBRANCH   4  37
TORSDOF 11
ENDMDL
MODEL 9
REMARK VINA RESULT:      -8.4      3.496      5.359
REMARK  11 active torsions:
REMARK  status: ('A' for Active; 'I' for Inactive)
REMARK    1  A    between atoms: C_2  and  C_3 
REMARK    2  A    between atoms: C_3  and  C_4 
REMARK    3  A    between atoms: C_4  and  O_5 
REMARK    4  A    between atoms: O_5  and  C_6 
REMARK    5  A    between atoms: C_8  and  C_9 
REMARK       I    between atoms: C_9  and  N_10 
REMARK    6  A    between atoms: N_10  and  C_11 
REMARK    7  A    between atoms: C_11  and  N_12 
REMARK    8  A    between atoms: N_12  and  C_13 
REMARK    9  A    between atoms: C_15  and  C_16 
REMARK   10  A    between atoms: C_23  and  C_24 
REMARK   11  A    between atoms: C_27  and  O_28 
ROOT
HETATM    1  C   UNL     1     -12.723   2.752 -34.752  1.00  0.00     0.035 A 
HETATM    2  C   UNL     1     -11.444   2.311 -34.405  1.00  0.00     0.048 A 
HETATM    3  C   UNL     1     -11.234   1.063 -33.799  1.00  0.00     0.052 A 
HETATM    4  C   UNL     1     -12.343   0.251 -33.551  1.00  0.00     0.080 A 
HETATM    5  C   UNL     1     -13.616   0.643 -33.971  1.00  0.00     0.040 A 
HETATM    6  C   UNL     1     -13.803   1.885 -34.590  1.00  0.00     0.032 A 
ENDROOT
BRANCH   1   7
HETATM    7  N   UNL     1     -12.942   4.031 -35.306  1.00  0.00    -0.333 N 
HETATM    8  H   UNL     1     -13.673   4.107 -36.014  1.00  0.00     0.168 HD
BRANCH   7   9
HETATM    9  C   UNL     1     -12.457   5.239 -34.858  1.00  0.00     0.179 C 
HETATM   10  S   UNL     1     -13.064   6.777 -35.131  1.00  0.00    -0.040 SA
BRANCH   9  11
HETATM   11  N   UNL     1     -11.319   5.180 -34.085  1.00  0.00    -0.299 N 
HETATM   12  C   UNL     1      -9.988   5.240 -34.469  1.00  0.00     0.257 C 
HETATM   13  O   UNL     1      -9.582   5.795 -35.481  1.00  0.00    -0.267 OA
HETATM   14  H   UNL     1     -11.518   4.930 -33.125  1.00  0.00     0.171 HD
BRANCH  12  15
HETATM   15  C   UNL     1      -9.054   4.674 -33.460  1.00  0.00     0.035 A 
HETATM   16  C   UNL     1      -7.798   4.209 -33.867  1.00  0.00     0.053 A 
HETATM   17  C   UNL     1      -6.893   3.755 -32.907  1.00  0.00     0.069 A 
HETATM   18  C   UNL     1      -7.261   3.742 -31.557  1.00  0.00     0.037 A 
HETATM   19  C   UNL     1      -8.525   4.171 -31.154  1.00  0.00     0.004 A 
HETATM   20  C   UNL     1      -9.426   4.639 -32.107  1.00  0.00     0.017 A 
BRANCH  17  21
HETATM   21  O   UNL     1      -5.619   3.323 -33.136  1.00  0.00    -0.351 OA
BRANCH  21  22
HETATM   22  C   UNL     1      -4.657   3.501 -32.098  1.00  0.00     0.175 C 
BRANCH  22  23
HETATM   23  C   UNL     1      -3.266   3.278 -32.689  1.00  0.00     0.026 C 
BRANCH  23  24
HETATM   24  C   UNL     1      -2.453   4.573 -32.778  1.00  0.00    -0.002 C 
HETATM   25  C   UNL     1      -1.960   4.823 -34.195  1.00  0.00     0.005 C 
ENDBRANCH  23  24
ENDBRANCH  22  23
ENDBRANCH  21  22
ENDBRANCH  17  21
ENDBRANCH  12  15
ENDBRANCH   9  11
ENDBRANCH   7   9
ENDBRANCH   1   7
BRANCH   3  26
HETATM   26  C   UNL     1      -9.883   0.669 -33.428  1.00  0.00     0.183 A 
HETATM   27  O   UNL     1      -8.996   0.525 -34.463  1.00  0.00    -0.289 OA
HETATM   28  C   UNL     1      -7.816   0.250 -33.847  1.00  0.00     0.106 A 
HETATM   29  C   UNL     1      -8.042   0.232 -32.483  1.00  0.00     0.094 A 
HETATM   30  C   UNL     1      -6.587   0.047 -34.454  1.00  0.00     0.040 A 
HETATM   31  N   UNL     1      -9.381   0.436 -32.227  1.00  0.00    -0.221 NA
HETATM   32  C   UNL     1      -6.948   0.043 -31.626  1.00  0.00     0.041 A 
HETATM   33  C   UNL     1      -5.657  -0.109 -32.185  1.00  0.00    -0.056 A 
HETATM   34  C   UNL     1      -5.504  -0.138 -33.585  1.00  0.00     0.010 A 
BRANCH  33  35
HETATM   35  C   UNL     1      -4.486  -0.258 -31.234  1.00  0.00     0.034 C 
HETATM   36  C   UNL     1      -3.101  -0.313 -31.872  1.00  0.00     0.010 C 
ENDBRANCH  33  35
ENDBRANCH   3  26
BRANCH   4  37
HETATM   37  O   UNL     1     -12.250  -0.954 -32.906  1.00  0.00    -0.360 OA
HETATM   38  H   UNL     1     -11.333  -1.283 -32.997  1.00  0.00     0.217 HD
ENDBRANCH   4  37
TORSDOF 11
ENDMDL
MODEL 10
REMARK VINA RESULT:      -8.1      2.978      4.467
REMARK  11 active torsions:
REMARK  status: ('A' for Active; 'I' for Inactive)
REMARK    1  A    between atoms: C_2  and  C_3 
REMARK    2  A    between atoms: C_3  and  C_4 
REMARK    3  A    between atoms: C_4  and  O_5 
REMARK    4  A    between atoms: O_5  and  C_6 
REMARK    5  A    between atoms: C_8  and  C_9 
REMARK       I    between atoms: C_9  and  N_10 
REMARK    6  A    between atoms: N_10  and  C_11 
REMARK    7  A    between atoms: C_11  and  N_12 
REMARK    8  A    between atoms: N_12  and  C_13 
REMARK    9  A    between atoms: C_15  and  C_16 
REMARK   10  A    between atoms: C_23  and  C_24 
REMARK   11  A    between atoms: C_27  and  O_28 
ROOT
HETATM    1  C   UNL     1      -3.318   4.397 -31.860  1.00  0.00     0.035 A 
HETATM    2  C   UNL     1      -3.539   3.084 -32.285  1.00  0.00     0.048 A 
HETATM    3  C   UNL     1      -4.816   2.504 -32.253  1.00  0.00     0.052 A 
HETATM    4  C   UNL     1      -5.883   3.275 -31.787  1.00  0.00     0.080 A 
HETATM    5  C   UNL     1      -5.692   4.614 -31.441  1.00  0.00     0.040 A 
HETATM    6  C   UNL     1      -4.413   5.181 -31.497  1.00  0.00     0.032 A 
ENDROOT
BRANCH   1   7
HETATM    7  N   UNL     1      -2.026   4.962 -31.835  1.00  0.00    -0.333 N 
HETATM    8  H   UNL     1      -1.281   4.390 -31.437  1.00  0.00     0.168 HD
BRANCH   7   9
HETATM    9  C   UNL     1      -1.587   6.095 -32.482  1.00  0.00     0.179 C 
HETATM   10  S   UNL     1      -1.208   6.294 -34.102  1.00  0.00    -0.040 SA
BRANCH   9  11
HETATM   11  N   UNL     1      -1.436   7.215 -31.697  1.00  0.00    -0.299 N 
HETATM   12  C   UNL     1      -1.094   7.313 -30.357  1.00  0.00     0.257 C 
HETATM   13  O   UNL     1      -0.437   6.481 -29.746  1.00  0.00    -0.267 OA
HETATM   14  H   UNL     1      -1.751   8.057 -32.162  1.00  0.00     0.171 HD
BRANCH  12  15
HETATM   15  C   UNL     1      -1.488   8.606 -29.738  1.00  0.00     0.035 A 
HETATM   16  C   UNL     1      -1.004   8.938 -28.467  1.00  0.00     0.053 A 
HETATM   17  C   UNL     1      -1.308  10.186 -27.923  1.00  0.00     0.069 A 
HETATM   18  C   UNL     1      -2.115  11.077 -28.640  1.00  0.00     0.037 A 
HETATM   19  C   UNL     1      -2.628  10.733 -29.891  1.00  0.00     0.004 A 
HETATM   20  C   UNL     1      -2.314   9.495 -30.442  1.00  0.00     0.017 A 
BRANCH  17  21
HETATM   21  O   UNL     1      -0.871  10.677 -26.727  1.00  0.00    -0.351 OA
BRANCH  21  22
HETATM   22  C   UNL     1      -0.402   9.744 -25.755  1.00  0.00     0.175 C 
BRANCH  22  23
HETATM   23  C   UNL     1       1.086  10.002 -25.522  1.00  0.00     0.026 C 
BRANCH  23  24
HETATM   24  C   UNL     1       1.865   8.716 -25.232  1.00  0.00    -0.002 C 
HETATM   25  C   UNL     1       1.796   7.750 -26.405  1.00  0.00     0.005 C 
ENDBRANCH  23  24
ENDBRANCH  22  23
ENDBRANCH  21  22
ENDBRANCH  17  21
ENDBRANCH  12  15
ENDBRANCH   9  11
ENDBRANCH   7   9
ENDBRANCH   1   7
BRANCH   3  26
HETATM   26  C   UNL     1      -4.981   1.121 -32.676  1.00  0.00     0.183 A 
HETATM   27  O   UNL     1      -6.021   0.879 -33.535  1.00  0.00    -0.289 OA
HETATM   28  C   UNL     1      -5.897  -0.440 -33.837  1.00  0.00     0.106 A 
HETATM   29  C   UNL     1      -4.803  -0.933 -33.147  1.00  0.00     0.094 A 
HETATM   30  C   UNL     1      -6.693  -1.177 -34.698  1.00  0.00     0.040 A 
HETATM   31  N   UNL     1      -4.263   0.058 -32.355  1.00  0.00    -0.221 NA
HETATM   32  C   UNL     1      -4.425  -2.267 -33.359  1.00  0.00     0.041 A 
HETATM   33  C   UNL     1      -5.163  -3.053 -34.275  1.00  0.00    -0.056 A 
HETATM   34  C   UNL     1      -6.300  -2.506 -34.901  1.00  0.00     0.010 A 
BRANCH  33  35
HETATM   35  C   UNL     1      -4.699  -4.474 -34.524  1.00  0.00     0.034 C 
HETATM   36  C   UNL     1      -3.422  -4.902 -33.810  1.00  0.00     0.010 C 
ENDBRANCH  33  35
ENDBRANCH   3  26
BRANCH   4  37
HETATM   37  O   UNL     1      -7.153   2.779 -31.654  1.00  0.00    -0.360 OA
HETATM   38  H   UNL     1      -7.767   3.371 -32.136  1.00  0.00     0.217 HD
ENDBRANCH   4  37
TORSDOF 11
ENDMDL
