MODEL 1
REMARK VINA RESULT:      -7.5      0.000      0.000
REMARK  6 active torsions:
REMARK  status: ('A' for Active; 'I' for Inactive)
REMARK    1  A    between atoms: C_4  and  C_5 
REMARK       I    between atoms: C_5  and  N_6 
REMARK    2  A    between atoms: N_6  and  C_7 
REMARK    3  A    between atoms: C_15  and  C_16 
REMARK       I    between atoms: C_16  and  N_17 
REMARK    4  A    between atoms: N_17  and  C_18 
REMARK    5  A    between atoms: C_18  and  C_19 
REMARK    6  A    between atoms: C_19  and  N_20 
ROOT
HETATM    1  C   UNL     1      -4.928  -0.444 -32.972  1.00  0.00     0.093 A 
HETATM    2  S   UNL     1      -3.726  -1.628 -32.788  1.00  0.00    -0.075 SA
HETATM    3  C   UNL     1      -4.590  -2.752 -33.705  1.00  0.00    -0.008 A 
HETATM    4  C   UNL     1      -5.778  -2.244 -34.201  1.00  0.00    -0.026 A 
HETATM    5  C   UNL     1      -6.693  -3.133 -35.005  1.00  0.00     0.041 C 
HETATM    6  C   UNL     1      -6.389  -4.625 -34.808  1.00  0.00     0.005 C 
HETATM    7  C   UNL     1      -4.887  -4.907 -34.931  1.00  0.00     0.005 C 
HETATM    8  C   UNL     1      -4.092  -4.159 -33.854  1.00  0.00     0.047 C 
HETATM    9  C   UNL     1      -5.958  -0.847 -33.822  1.00  0.00     0.073 A 
ENDROOT
BRANCH   1  10
HETATM   10  N   UNL     1      -4.856   0.745 -32.252  1.00  0.00    -0.316 N 
HETATM   11  C   UNL     1      -5.640   1.090 -31.161  1.00  0.00     0.256 C 
HETATM   12  O   UNL     1      -6.303   0.311 -30.485  1.00  0.00    -0.267 OA
HETATM   13  H   UNL     1      -4.195   1.416 -32.620  1.00  0.00     0.169 HD
BRANCH  11  14
HETATM   14  C   UNL     1      -5.652   2.538 -30.769  1.00  0.00     0.032 A 
HETATM   15  C   UNL     1      -6.645   3.128 -29.975  1.00  0.00     0.017 A 
HETATM   16  C   UNL     1      -6.559   4.482 -29.629  1.00  0.00     0.001 A 
HETATM   17  C   UNL     1      -5.487   5.255 -30.072  1.00  0.00     0.000 A 
HETATM   18  C   UNL     1      -4.500   4.682 -30.868  1.00  0.00     0.001 A 
HETATM   19  C   UNL     1      -4.583   3.333 -31.215  1.00  0.00     0.017 A 
ENDBRANCH  11  14
ENDBRANCH   1  10
BRANCH   9  20
HETATM   20  C   UNL     1      -7.033   0.081 -34.191  1.00  0.00     0.255 C 
HETATM   21  N   UNL     1      -8.297  -0.191 -33.711  1.00  0.00    -0.355 N 
HETATM   22  H   UNL     1      -8.390  -0.991 -33.098  1.00  0.00     0.162 HD
HETATM   23  O   UNL     1      -6.882   1.002 -34.998  1.00  0.00    -0.268 OA
BRANCH  21  24
HETATM   24  C   UNL     1      -9.380   0.786 -33.661  1.00  0.00     0.150 C 
BRANCH  24  25
HETATM   25  C   UNL     1      -9.495   1.653 -32.394  1.00  0.00     0.249 C 
BRANCH  25  26
HETATM   26  N   UNL     1      -9.295   0.845 -31.167  1.00  0.00    -0.078 N 
HETATM   27  H   UNL     1      -8.414   0.313 -31.290  1.00  0.00     0.274 HD
HETATM   28  H   UNL     1      -9.193   1.414 -30.320  1.00  0.00     0.274 HD
HETATM   29  H   UNL     1     -10.042   0.156 -31.023  1.00  0.00     0.274 HD
ENDBRANCH  25  26
ENDBRANCH  24  25
ENDBRANCH  21  24
ENDBRANCH   9  20
TORSDOF 6
ENDMDL
MODEL 2
REMARK VINA RESULT:      -7.4      2.347      7.388
REMARK  6 active torsions:
REMARK  status: ('A' for Active; 'I' for Inactive)
REMARK    1  A    between atoms: C_4  and  C_5 
REMARK       I    between atoms: C_5  and  N_6 
REMARK    2  A    between atoms: N_6  and  C_7 
REMARK    3  A    between atoms: C_15  and  C_16 
REMARK       I    between atoms: C_16  and  N_17 
REMARK    4  A    between atoms: N_17  and  C_18 
REMARK    5  A    between atoms: C_18  and  C_19 
REMARK    6  A    between atoms: C_19  and  N_20 
ROOT
HETATM    1  C   UNL     1      -6.465   1.048 -32.246  1.00  0.00     0.093 A 
HETATM    2  S   UNL     1      -8.111   1.118 -31.839  1.00  0.00    -0.075 SA
HETATM    3  C   UNL     1      -7.946   2.640 -31.127  1.00  0.00    -0.008 A 
HETATM    4  C   UNL     1      -6.659   3.142 -31.220  1.00  0.00    -0.026 A 
HETATM    5  C   UNL     1      -6.329   4.473 -30.595  1.00  0.00     0.041 C 
HETATM    6  C   UNL     1      -7.371   4.911 -29.554  1.00  0.00     0.005 C 
HETATM    7  C   UNL     1      -8.797   4.747 -30.093  1.00  0.00     0.005 C 
HETATM    8  C   UNL     1      -9.102   3.281 -30.419  1.00  0.00     0.047 C 
HETATM    9  C   UNL     1      -5.783   2.226 -31.942  1.00  0.00     0.073 A 
ENDROOT
BRANCH   1  10
HETATM   10  N   UNL     1      -5.918  -0.128 -32.752  1.00  0.00    -0.316 N 
HETATM   11  C   UNL     1      -6.119  -0.643 -34.024  1.00  0.00     0.256 C 
HETATM   12  O   UNL     1      -6.557  -0.018 -34.985  1.00  0.00    -0.267 OA
HETATM   13  H   UNL     1      -5.372  -0.654 -32.085  1.00  0.00     0.169 HD
BRANCH  11  14
HETATM   14  C   UNL     1      -5.743  -2.079 -34.239  1.00  0.00     0.032 A 
HETATM   15  C   UNL     1      -4.465  -2.601 -33.993  1.00  0.00     0.017 A 
HETATM   16  C   UNL     1      -4.211  -3.964 -34.190  1.00  0.00     0.001 A 
HETATM   17  C   UNL     1      -5.224  -4.812 -34.635  1.00  0.00     0.000 A 
HETATM   18  C   UNL     1      -6.493  -4.303 -34.891  1.00  0.00     0.001 A 
HETATM   19  C   UNL     1      -6.750  -2.945 -34.696  1.00  0.00     0.017 A 
ENDBRANCH  11  14
ENDBRANCH   1  10
BRANCH   9  20
HETATM   20  C   UNL     1      -4.375   2.397 -32.321  1.00  0.00     0.255 C 
HETATM   21  N   UNL     1      -4.028   3.571 -32.954  1.00  0.00    -0.355 N 
HETATM   22  H   UNL     1      -4.762   4.258 -33.076  1.00  0.00     0.162 HD
HETATM   23  O   UNL     1      -3.534   1.500 -32.213  1.00  0.00    -0.268 OA
BRANCH  21  24
HETATM   24  C   UNL     1      -2.659   4.067 -33.066  1.00  0.00     0.150 C 
BRANCH  24  25
HETATM   25  C   UNL     1      -2.279   4.819 -34.354  1.00  0.00     0.249 C 
BRANCH  25  26
HETATM   26  N   UNL     1      -3.484   5.315 -35.064  1.00  0.00    -0.078 N 
HETATM   27  H   UNL     1      -3.202   6.158 -35.595  1.00  0.00     0.274 HD
HETATM   28  H   UNL     1      -3.862   4.640 -35.738  1.00  0.00     0.274 HD
HETATM   29  H   UNL     1      -4.230   5.603 -34.420  1.00  0.00     0.274 HD
ENDBRANCH  25  26
ENDBRANCH  24  25
ENDBRANCH  21  24
ENDBRANCH   9  20
TORSDOF 6
ENDMDL
MODEL 3
REMARK VINA RESULT:      -7.4      2.104      6.680
REMARK  6 active torsions:
REMARK  status: ('A' for Active; 'I' for Inactive)
REMARK    1  A    between atoms: C_4  and  C_5 
REMARK       I    between atoms: C_5  and  N_6 
REMARK    2  A    between atoms: N_6  and  C_7 
REMARK    3  A    between atoms: C_15  and  C_16 
REMARK       I    between atoms: C_16  and  N_17 
REMARK    4  A    between atoms: N_17  and  C_18 
REMARK    5  A    between atoms: C_18  and  C_19 
REMARK    6  A    between atoms: C_19  and  N_20 
ROOT
HETATM    1  C   UNL     1      -7.276   0.808 -31.551  1.00  0.00     0.093 A 
HETATM    2  S   UNL     1      -6.443   1.582 -30.292  1.00  0.00    -0.075 SA
HETATM    3  C   UNL     1      -7.424   2.954 -30.387  1.00  0.00    -0.008 A 
HETATM    4  C   UNL     1      -8.422   2.837 -31.339  1.00  0.00    -0.026 A 
HETATM    5  C   UNL     1      -9.359   3.992 -31.584  1.00  0.00     0.041 C 
HETATM    6  C   UNL     1      -8.814   5.321 -31.039  1.00  0.00     0.005 C 
HETATM    7  C   UNL     1      -8.291   5.161 -29.607  1.00  0.00     0.005 C 
HETATM    8  C   UNL     1      -7.131   4.162 -29.548  1.00  0.00     0.047 C 
HETATM    9  C   UNL     1      -8.381   1.535 -31.995  1.00  0.00     0.073 A 
ENDROOT
BRANCH   1  10
HETATM   10  N   UNL     1      -6.794  -0.386 -32.080  1.00  0.00    -0.316 N 
HETATM   11  C   UNL     1      -5.959  -0.515 -33.180  1.00  0.00     0.256 C 
HETATM   12  O   UNL     1      -5.287   0.384 -33.675  1.00  0.00    -0.267 OA
HETATM   13  H   UNL     1      -7.148  -1.216 -31.626  1.00  0.00     0.169 HD
BRANCH  11  14
HETATM   14  C   UNL     1      -5.857  -1.880 -33.795  1.00  0.00     0.032 A 
HETATM   15  C   UNL     1      -6.941  -2.573 -34.352  1.00  0.00     0.017 A 
HETATM   16  C   UNL     1      -6.747  -3.831 -34.935  1.00  0.00     0.001 A 
HETATM   17  C   UNL     1      -5.477  -4.406 -34.964  1.00  0.00     0.000 A 
HETATM   18  C   UNL     1      -4.397  -3.731 -34.406  1.00  0.00     0.001 A 
HETATM   19  C   UNL     1      -4.586  -2.477 -33.823  1.00  0.00     0.017 A 
ENDBRANCH  11  14
ENDBRANCH   1  10
BRANCH   9  20
HETATM   20  C   UNL     1      -9.290   0.978 -33.004  1.00  0.00     0.255 C 
HETATM   21  N   UNL     1     -10.558   0.630 -32.590  1.00  0.00    -0.355 N 
HETATM   22  H   UNL     1     -10.793   0.825 -31.626  1.00  0.00     0.162 HD
HETATM   23  O   UNL     1      -8.932   0.695 -34.151  1.00  0.00    -0.268 OA
BRANCH  21  24
HETATM   24  C   UNL     1     -11.684   0.420 -33.496  1.00  0.00     0.150 C 
BRANCH  24  25
HETATM   25  C   UNL     1     -12.255   1.654 -34.217  1.00  0.00     0.249 C 
BRANCH  25  26
HETATM   26  N   UNL     1     -11.648   1.822 -35.559  1.00  0.00    -0.078 N 
HETATM   27  H   UNL     1     -10.802   1.226 -35.591  1.00  0.00     0.274 HD
HETATM   28  H   UNL     1     -12.265   1.520 -36.323  1.00  0.00     0.274 HD
HETATM   29  H   UNL     1     -11.342   2.787 -35.735  1.00  0.00     0.274 HD
ENDBRANCH  25  26
ENDBRANCH  24  25
ENDBRANCH  21  24
ENDBRANCH   9  20
TORSDOF 6
ENDMDL
MODEL 4
REMARK VINA RESULT:      -7.4      2.004      6.502
REMARK  6 active torsions:
REMARK  status: ('A' for Active; 'I' for Inactive)
REMARK    1  A    between atoms: C_4  and  C_5 
REMARK       I    between atoms: C_5  and  N_6 
REMARK    2  A    between atoms: N_6  and  C_7 
REMARK    3  A    between atoms: C_15  and  C_16 
REMARK       I    between atoms: C_16  and  N_17 
REMARK    4  A    between atoms: N_17  and  C_18 
REMARK    5  A    between atoms: C_18  and  C_19 
REMARK    6  A    between atoms: C_19  and  N_20 
ROOT
HETATM    1  C   UNL     1      -5.235   1.115 -32.670  1.00  0.00     0.093 A 
HETATM    2  S   UNL     1      -3.974   1.719 -31.709  1.00  0.00    -0.075 SA
HETATM    3  C   UNL     1      -4.340   3.319 -32.102  1.00  0.00    -0.008 A 
HETATM    4  C   UNL     1      -5.445   3.431 -32.930  1.00  0.00    -0.026 A 
HETATM    5  C   UNL     1      -5.880   4.791 -33.413  1.00  0.00     0.041 C 
HETATM    6  C   UNL     1      -4.778   5.851 -33.268  1.00  0.00     0.005 C 
HETATM    7  C   UNL     1      -4.136   5.797 -31.878  1.00  0.00     0.005 C 
HETATM    8  C   UNL     1      -3.466   4.442 -31.627  1.00  0.00     0.047 C 
HETATM    9  C   UNL     1      -6.023   2.125 -33.223  1.00  0.00     0.073 A 
ENDROOT
BRANCH   1  10
HETATM   10  N   UNL     1      -5.351  -0.254 -32.895  1.00  0.00    -0.316 N 
HETATM   11  C   UNL     1      -4.419  -1.060 -33.531  1.00  0.00     0.256 C 
HETATM   12  O   UNL     1      -3.244  -0.770 -33.731  1.00  0.00    -0.267 OA
HETATM   13  H   UNL     1      -6.232  -0.651 -32.600  1.00  0.00     0.169 HD
BRANCH  11  14
HETATM   14  C   UNL     1      -4.892  -2.408 -33.988  1.00  0.00     0.032 A 
HETATM   15  C   UNL     1      -4.124  -3.579 -33.906  1.00  0.00     0.017 A 
HETATM   16  C   UNL     1      -4.658  -4.802 -34.326  1.00  0.00     0.001 A 
HETATM   17  C   UNL     1      -5.956  -4.868 -34.831  1.00  0.00     0.000 A 
HETATM   18  C   UNL     1      -6.724  -3.712 -34.925  1.00  0.00     0.001 A 
HETATM   19  C   UNL     1      -6.194  -2.490 -34.508  1.00  0.00     0.017 A 
ENDBRANCH  11  14
ENDBRANCH   1  10
BRANCH   9  20
HETATM   20  C   UNL     1      -7.227   1.798 -33.996  1.00  0.00     0.255 C 
HETATM   21  N   UNL     1      -8.443   2.169 -33.460  1.00  0.00    -0.355 N 
HETATM   22  H   UNL     1      -8.420   2.682 -32.589  1.00  0.00     0.162 HD
HETATM   23  O   UNL     1      -7.206   1.109 -35.019  1.00  0.00    -0.268 OA
BRANCH  21  24
HETATM   24  C   UNL     1      -9.680   2.263 -34.229  1.00  0.00     0.150 C 
BRANCH  24  25
HETATM   25  C   UNL     1     -10.849   1.354 -33.807  1.00  0.00     0.249 C 
BRANCH  25  26
HETATM   26  N   UNL     1     -10.433   0.395 -32.754  1.00  0.00    -0.078 N 
HETATM   27  H   UNL     1     -10.777  -0.540 -33.037  1.00  0.00     0.274 HD
HETATM   28  H   UNL     1      -9.414   0.328 -32.648  1.00  0.00     0.274 HD
HETATM   29  H   UNL     1     -10.854   0.605 -31.842  1.00  0.00     0.274 HD
ENDBRANCH  25  26
ENDBRANCH  24  25
ENDBRANCH  21  24
ENDBRANCH   9  20
TORSDOF 6
ENDMDL
MODEL 5
REMARK VINA RESULT:      -7.2      2.433      7.214
REMARK  6 active torsions:
REMARK  status: ('A' for Active; 'I' for Inactive)
REMARK    1  A    between atoms: C_4  and  C_5 
REMARK       I    between atoms: C_5  and  N_6 
REMARK    2  A    between atoms: N_6  and  C_7 
REMARK    3  A    between atoms: C_15  and  C_16 
REMARK       I    between atoms: C_16  and  N_17 
REMARK    4  A    between atoms: N_17  and  C_18 
REMARK    5  A    between atoms: C_18  and  C_19 
REMARK    6  A    between atoms: C_19  and  N_20 
ROOT
HETATM    1  C   UNL     1      -8.446   0.735 -32.814  1.00  0.00     0.093 A 
HETATM    2  S   UNL     1      -9.855   0.898 -33.746  1.00  0.00    -0.075 SA
HETATM    3  C   UNL     1     -10.400   2.205 -32.827  1.00  0.00    -0.008 A 
HETATM    4  C   UNL     1      -9.513   2.570 -31.829  1.00  0.00    -0.026 A 
HETATM    5  C   UNL     1      -9.868   3.692 -30.887  1.00  0.00     0.041 C 
HETATM    6  C   UNL     1     -11.370   4.010 -30.888  1.00  0.00     0.005 C 
HETATM    7  C   UNL     1     -11.913   4.125 -32.317  1.00  0.00     0.005 C 
HETATM    8  C   UNL     1     -11.752   2.805 -33.079  1.00  0.00     0.047 C 
HETATM    9  C   UNL     1      -8.315   1.738 -31.854  1.00  0.00     0.073 A 
ENDROOT
BRANCH   1  10
HETATM   10  N   UNL     1      -7.606  -0.360 -33.001  1.00  0.00    -0.316 N 
HETATM   11  C   UNL     1      -6.775  -0.577 -34.090  1.00  0.00     0.256 C 
HETATM   12  O   UNL     1      -6.428   0.274 -34.902  1.00  0.00    -0.267 OA
HETATM   13  H   UNL     1      -7.674  -1.065 -32.280  1.00  0.00     0.169 HD
BRANCH  11  14
HETATM   14  C   UNL     1      -6.240  -1.967 -34.265  1.00  0.00     0.032 A 
HETATM   15  C   UNL     1      -7.018  -3.063 -34.665  1.00  0.00     0.017 A 
HETATM   16  C   UNL     1      -6.428  -4.321 -34.836  1.00  0.00     0.001 A 
HETATM   17  C   UNL     1      -5.064  -4.495 -34.607  1.00  0.00     0.000 A 
HETATM   18  C   UNL     1      -4.284  -3.417 -34.201  1.00  0.00     0.001 A 
HETATM   19  C   UNL     1      -4.869  -2.162 -34.029  1.00  0.00     0.017 A 
ENDBRANCH  11  14
ENDBRANCH   1  10
BRANCH   9  20
HETATM   20  C   UNL     1      -7.108   1.828 -31.024  1.00  0.00     0.255 C 
HETATM   21  N   UNL     1      -6.453   3.041 -30.990  1.00  0.00    -0.355 N 
HETATM   22  H   UNL     1      -6.875   3.802 -31.506  1.00  0.00     0.162 HD
HETATM   23  O   UNL     1      -6.595   0.852 -30.470  1.00  0.00    -0.268 OA
BRANCH  21  24
HETATM   24  C   UNL     1      -5.485   3.419 -29.964  1.00  0.00     0.150 C 
BRANCH  24  25
HETATM   25  C   UNL     1      -5.576   4.846 -29.393  1.00  0.00     0.249 C 
BRANCH  25  26
HETATM   26  N   UNL     1      -5.255   4.869 -27.946  1.00  0.00    -0.078 N 
HETATM   27  H   UNL     1      -5.294   3.891 -27.607  1.00  0.00     0.274 HD
HETATM   28  H   UNL     1      -4.314   5.226 -27.746  1.00  0.00     0.274 HD
HETATM   29  H   UNL     1      -5.941   5.403 -27.399  1.00  0.00     0.274 HD
ENDBRANCH  25  26
ENDBRANCH  24  25
ENDBRANCH  21  24
ENDBRANCH   9  20
TORSDOF 6
ENDMDL
MODEL 6
REMARK VINA RESULT:      -7.1     14.625     15.856
REMARK  6 active torsions:
REMARK  status: ('A' for Active; 'I' for Inactive)
REMARK    1  A    between atoms: C_4  and  C_5 
REMARK       I    between atoms: C_5  and  N_6 
REMARK    2  A    between atoms: N_6  and  C_7 
REMARK    3  A    between atoms: C_15  and  C_16 
REMARK       I    between atoms: C_16  and  N_17 
REMARK    4  A    between atoms: N_17  and  C_18 
REMARK    5  A    between atoms: C_18  and  C_19 
REMARK    6  A    between atoms: C_19  and  N_20 
ROOT
HETATM    1  C   UNL     1      -5.133 -13.547 -38.163  1.00  0.00     0.093 A 
HETATM    2  S   UNL     1      -5.376 -12.696 -39.611  1.00  0.00    -0.075 SA
HETATM    3  C   UNL     1      -7.056 -12.754 -39.450  1.00  0.00    -0.008 A 
HETATM    4  C   UNL     1      -7.464 -13.377 -38.283  1.00  0.00    -0.026 A 
HETATM    5  C   UNL     1      -8.935 -13.553 -38.006  1.00  0.00     0.041 C 
HETATM    6  C   UNL     1      -9.797 -13.396 -39.268  1.00  0.00     0.005 C 
HETATM    7  C   UNL     1      -9.399 -12.145 -40.060  1.00  0.00     0.005 C 
HETATM    8  C   UNL     1      -7.945 -12.230 -40.539  1.00  0.00     0.047 C 
HETATM    9  C   UNL     1      -6.322 -13.798 -37.479  1.00  0.00     0.073 A 
ENDROOT
BRANCH   1  10
HETATM   10  N   UNL     1      -3.858 -13.981 -37.811  1.00  0.00    -0.316 N 
HETATM   11  C   UNL     1      -2.701 -13.217 -37.828  1.00  0.00     0.256 C 
HETATM   12  O   UNL     1      -2.655 -11.992 -37.866  1.00  0.00    -0.267 OA
HETATM   13  H   UNL     1      -3.802 -14.963 -37.579  1.00  0.00     0.169 HD
BRANCH  11  14
HETATM   14  C   UNL     1      -1.399 -13.962 -37.766  1.00  0.00     0.032 A 
HETATM   15  C   UNL     1      -1.085 -14.914 -36.786  1.00  0.00     0.017 A 
HETATM   16  C   UNL     1       0.143 -15.585 -36.826  1.00  0.00     0.001 A 
HETATM   17  C   UNL     1       1.063 -15.312 -37.836  1.00  0.00     0.000 A 
HETATM   18  C   UNL     1       0.765 -14.363 -38.809  1.00  0.00     0.001 A 
HETATM   19  C   UNL     1      -0.457 -13.691 -38.772  1.00  0.00     0.017 A 
ENDBRANCH  11  14
ENDBRANCH   1  10
BRANCH   9  20
HETATM   20  C   UNL     1      -6.306 -14.427 -36.153  1.00  0.00     0.255 C 
HETATM   21  N   UNL     1      -6.622 -13.633 -35.072  1.00  0.00    -0.355 N 
HETATM   22  H   UNL     1      -6.888 -12.677 -35.270  1.00  0.00     0.162 HD
HETATM   23  O   UNL     1      -5.907 -15.578 -35.958  1.00  0.00    -0.268 OA
BRANCH  21  24
HETATM   24  C   UNL     1      -7.012 -14.150 -33.763  1.00  0.00     0.150 C 
BRANCH  24  25
HETATM   25  C   UNL     1      -5.929 -14.210 -32.671  1.00  0.00     0.249 C 
BRANCH  25  26
HETATM   26  N   UNL     1      -4.610 -14.580 -33.240  1.00  0.00    -0.078 N 
HETATM   27  H   UNL     1      -4.783 -14.983 -34.179  1.00  0.00     0.274 HD
HETATM   28  H   UNL     1      -3.982 -13.778 -33.362  1.00  0.00     0.274 HD
HETATM   29  H   UNL     1      -4.132 -15.302 -32.688  1.00  0.00     0.274 HD
ENDBRANCH  25  26
ENDBRANCH  24  25
ENDBRANCH  21  24
ENDBRANCH   9  20
TORSDOF 6
ENDMDL
MODEL 7
REMARK VINA RESULT:      -7.0      1.827      6.634
REMARK  6 active torsions:
REMARK  status: ('A' for Active; 'I' for Inactive)
REMARK    1  A    between atoms: C_4  and  C_5 
REMARK       I    between atoms: C_5  and  N_6 
REMARK    2  A    between atoms: N_6  and  C_7 
REMARK    3  A    between atoms: C_15  and  C_16 
REMARK       I    between atoms: C_16  and  N_17 
REMARK    4  A    between atoms: N_17  and  C_18 
REMARK    5  A    between atoms: C_18  and  C_19 
REMARK    6  A    between atoms: C_19  and  N_20 
ROOT
HETATM    1  C   UNL     1      -5.135   2.059 -32.748  1.00  0.00     0.093 A 
HETATM    2  S   UNL     1      -3.601   2.390 -32.103  1.00  0.00    -0.075 SA
HETATM    3  C   UNL     1      -4.002   3.998 -31.781  1.00  0.00    -0.008 A 
HETATM    4  C   UNL     1      -5.311   4.304 -32.113  1.00  0.00    -0.026 A 
HETATM    5  C   UNL     1      -5.818   5.711 -31.930  1.00  0.00     0.041 C 
HETATM    6  C   UNL     1      -4.682   6.736 -31.796  1.00  0.00     0.005 C 
HETATM    7  C   UNL     1      -3.621   6.261 -30.797  1.00  0.00     0.005 C 
HETATM    8  C   UNL     1      -2.969   4.953 -31.260  1.00  0.00     0.047 C 
HETATM    9  C   UNL     1      -6.014   3.136 -32.632  1.00  0.00     0.073 A 
ENDROOT
BRANCH   1  10
HETATM   10  N   UNL     1      -5.381   0.843 -33.379  1.00  0.00    -0.316 N 
HETATM   11  C   UNL     1      -5.856  -0.311 -32.774  1.00  0.00     0.256 C 
HETATM   12  O   UNL     1      -6.404  -0.369 -31.678  1.00  0.00    -0.267 OA
HETATM   13  H   UNL     1      -5.129   0.823 -34.357  1.00  0.00     0.169 HD
BRANCH  11  14
HETATM   14  C   UNL     1      -5.705  -1.590 -33.545  1.00  0.00     0.032 A 
HETATM   15  C   UNL     1      -4.487  -2.260 -33.723  1.00  0.00     0.017 A 
HETATM   16  C   UNL     1      -4.444  -3.467 -34.430  1.00  0.00     0.001 A 
HETATM   17  C   UNL     1      -5.610  -4.011 -34.966  1.00  0.00     0.000 A 
HETATM   18  C   UNL     1      -6.823  -3.350 -34.804  1.00  0.00     0.001 A 
HETATM   19  C   UNL     1      -6.870  -2.146 -34.100  1.00  0.00     0.017 A 
ENDBRANCH  11  14
ENDBRANCH   1  10
BRANCH   9  20
HETATM   20  C   UNL     1      -7.418   3.004 -33.035  1.00  0.00     0.255 C 
HETATM   21  N   UNL     1      -8.213   2.158 -32.291  1.00  0.00    -0.355 N 
HETATM   22  H   UNL     1      -7.783   1.717 -31.488  1.00  0.00     0.162 HD
HETATM   23  O   UNL     1      -7.876   3.509 -34.064  1.00  0.00    -0.268 OA
BRANCH  21  24
HETATM   24  C   UNL     1      -9.673   2.183 -32.305  1.00  0.00     0.150 C 
BRANCH  24  25
HETATM   25  C   UNL     1     -10.391   1.179 -33.225  1.00  0.00     0.249 C 
BRANCH  25  26
HETATM   26  N   UNL     1     -10.204   1.528 -34.654  1.00  0.00    -0.078 N 
HETATM   27  H   UNL     1     -11.134   1.783 -35.033  1.00  0.00     0.274 HD
HETATM   28  H   UNL     1      -9.584   2.334 -34.796  1.00  0.00     0.274 HD
HETATM   29  H   UNL     1      -9.861   0.737 -35.211  1.00  0.00     0.274 HD
ENDBRANCH  25  26
ENDBRANCH  24  25
ENDBRANCH  21  24
ENDBRANCH   9  20
TORSDOF 6
ENDMDL
MODEL 8
REMARK VINA RESULT:      -7.0      2.612      7.547
REMARK  6 active torsions:
REMARK  status: ('A' for Active; 'I' for Inactive)
REMARK    1  A    between atoms: C_4  and  C_5 
REMARK       I    between atoms: C_5  and  N_6 
REMARK    2  A    between atoms: N_6  and  C_7 
REMARK    3  A    between atoms: C_15  and  C_16 
REMARK       I    between atoms: C_16  and  N_17 
REMARK    4  A    between atoms: N_17  and  C_18 
REMARK    5  A    between atoms: C_18  and  C_19 
REMARK    6  A    between atoms: C_19  and  N_20 
ROOT
HETATM    1  C   UNL     1      -6.579   2.656 -31.599  1.00  0.00     0.093 A 
HETATM    2  S   UNL     1      -7.977   3.183 -30.794  1.00  0.00    -0.075 SA
HETATM    3  C   UNL     1      -7.138   4.404 -29.983  1.00  0.00    -0.008 A 
HETATM    4  C   UNL     1      -5.801   4.465 -30.336  1.00  0.00    -0.026 A 
HETATM    5  C   UNL     1      -4.898   5.472 -29.670  1.00  0.00     0.041 C 
HETATM    6  C   UNL     1      -5.490   6.023 -28.364  1.00  0.00     0.005 C 
HETATM    7  C   UNL     1      -6.953   6.440 -28.549  1.00  0.00     0.005 C 
HETATM    8  C   UNL     1      -7.825   5.244 -28.947  1.00  0.00     0.047 C 
HETATM    9  C   UNL     1      -5.472   3.466 -31.347  1.00  0.00     0.073 A 
ENDROOT
BRANCH   1  10
HETATM   10  N   UNL     1      -6.603   1.483 -32.349  1.00  0.00    -0.316 N 
HETATM   11  C   UNL     1      -6.412   0.198 -31.864  1.00  0.00     0.256 C 
HETATM   12  O   UNL     1      -6.485  -0.138 -30.686  1.00  0.00    -0.267 OA
HETATM   13  H   UNL     1      -6.721   1.626 -33.342  1.00  0.00     0.169 HD
BRANCH  11  14
HETATM   14  C   UNL     1      -6.118  -0.870 -32.876  1.00  0.00     0.032 A 
HETATM   15  C   UNL     1      -7.073  -1.408 -33.750  1.00  0.00     0.017 A 
HETATM   16  C   UNL     1      -6.702  -2.379 -34.687  1.00  0.00     0.001 A 
HETATM   17  C   UNL     1      -5.381  -2.821 -34.758  1.00  0.00     0.000 A 
HETATM   18  C   UNL     1      -4.427  -2.300 -33.891  1.00  0.00     0.001 A 
HETATM   19  C   UNL     1      -4.794  -1.332 -32.955  1.00  0.00     0.017 A 
ENDBRANCH  11  14
ENDBRANCH   1  10
BRANCH   9  20
HETATM   20  C   UNL     1      -4.199   3.234 -32.039  1.00  0.00     0.255 C 
HETATM   21  N   UNL     1      -3.763   4.213 -32.907  1.00  0.00    -0.355 N 
HETATM   22  H   UNL     1      -4.331   5.049 -32.974  1.00  0.00     0.162 HD
HETATM   23  O   UNL     1      -3.581   2.168 -31.976  1.00  0.00    -0.268 OA
BRANCH  21  24
HETATM   24  C   UNL     1      -2.389   4.330 -33.384  1.00  0.00     0.150 C 
BRANCH  24  25
HETATM   25  C   UNL     1      -2.161   5.060 -34.720  1.00  0.00     0.249 C 
BRANCH  25  26
HETATM   26  N   UNL     1      -3.447   5.450 -35.347  1.00  0.00    -0.078 N 
HETATM   27  H   UNL     1      -4.204   5.159 -34.703  1.00  0.00     0.274 HD
HETATM   28  H   UNL     1      -3.537   6.462 -35.489  1.00  0.00     0.274 HD
HETATM   29  H   UNL     1      -3.612   4.969 -36.239  1.00  0.00     0.274 HD
ENDBRANCH  25  26
ENDBRANCH  24  25
ENDBRANCH  21  24
ENDBRANCH   9  20
TORSDOF 6
ENDMDL
MODEL 9
REMARK VINA RESULT:      -6.9      1.921      6.895
REMARK  6 active torsions:
REMARK  status: ('A' for Active; 'I' for Inactive)
REMARK    1  A    between atoms: C_4  and  C_5 
REMARK       I    between atoms: C_5  and  N_6 
REMARK    2  A    between atoms: N_6  and  C_7 
REMARK    3  A    between atoms: C_15  and  C_16 
REMARK       I    between atoms: C_16  and  N_17 
REMARK    4  A    between atoms: N_17  and  C_18 
REMARK    5  A    between atoms: C_18  and  C_19 
REMARK    6  A    between atoms: C_19  and  N_20 
ROOT
HETATM    1  C   UNL     1      -4.568   2.455 -32.008  1.00  0.00     0.093 A 
HETATM    2  S   UNL     1      -3.060   3.085 -32.463  1.00  0.00    -0.075 SA
HETATM    3  C   UNL     1      -3.309   4.509 -31.590  1.00  0.00    -0.008 A 
HETATM    4  C   UNL     1      -4.513   4.519 -30.907  1.00  0.00    -0.026 A 
HETATM    5  C   UNL     1      -4.911   5.737 -30.113  1.00  0.00     0.041 C 
HETATM    6  C   UNL     1      -4.117   6.989 -30.515  1.00  0.00     0.005 C 
HETATM    7  C   UNL     1      -2.616   6.692 -30.597  1.00  0.00     0.005 C 
HETATM    8  C   UNL     1      -2.317   5.632 -31.662  1.00  0.00     0.047 C 
HETATM    9  C   UNL     1      -5.243   3.270 -31.099  1.00  0.00     0.073 A 
ENDROOT
BRANCH   1  10
HETATM   10  N   UNL     1      -5.041   1.281 -32.589  1.00  0.00    -0.316 N 
HETATM   11  C   UNL     1      -4.707  -0.011 -32.212  1.00  0.00     0.256 C 
HETATM   12  O   UNL     1      -4.189  -0.332 -31.147  1.00  0.00    -0.267 OA
HETATM   13  H   UNL     1      -5.640   1.426 -33.390  1.00  0.00     0.169 HD
BRANCH  11  14
HETATM   14  C   UNL     1      -5.034  -1.104 -33.186  1.00  0.00     0.032 A 
HETATM   15  C   UNL     1      -4.126  -2.093 -33.591  1.00  0.00     0.017 A 
HETATM   16  C   UNL     1      -4.527  -3.097 -34.480  1.00  0.00     0.001 A 
HETATM   17  C   UNL     1      -5.832  -3.121 -34.971  1.00  0.00     0.000 A 
HETATM   18  C   UNL     1      -6.739  -2.141 -34.583  1.00  0.00     0.001 A 
HETATM   19  C   UNL     1      -6.342  -1.138 -33.698  1.00  0.00     0.017 A 
ENDBRANCH  11  14
ENDBRANCH   1  10
BRANCH   9  20
HETATM   20  C   UNL     1      -6.514   2.841 -30.506  1.00  0.00     0.255 C 
HETATM   21  N   UNL     1      -7.610   3.655 -30.700  1.00  0.00    -0.355 N 
HETATM   22  H   UNL     1      -7.473   4.474 -31.279  1.00  0.00     0.162 HD
HETATM   23  O   UNL     1      -6.612   1.871 -29.750  1.00  0.00    -0.268 OA
BRANCH  21  24
HETATM   24  C   UNL     1      -8.993   3.223 -30.514  1.00  0.00     0.150 C 
BRANCH  24  25
HETATM   25  C   UNL     1      -9.591   2.282 -31.575  1.00  0.00     0.249 C 
BRANCH  25  26
HETATM   26  N   UNL     1      -9.366   0.859 -31.221  1.00  0.00    -0.078 N 
HETATM   27  H   UNL     1      -8.761   0.843 -30.381  1.00  0.00     0.274 HD
HETATM   28  H   UNL     1     -10.231   0.360 -30.986  1.00  0.00     0.274 HD
HETATM   29  H   UNL     1      -8.869   0.344 -31.957  1.00  0.00     0.274 HD
ENDBRANCH  25  26
ENDBRANCH  24  25
ENDBRANCH  21  24
ENDBRANCH   9  20
TORSDOF 6
ENDMDL
MODEL 10
REMARK VINA RESULT:      -6.9     14.479     16.043
REMARK  6 active torsions:
REMARK  status: ('A' for Active; 'I' for Inactive)
REMARK    1  A    between atoms: C_4  and  C_5 
REMARK       I    between atoms: C_5  and  N_6 
REMARK    2  A    between atoms: N_6  and  C_7 
REMARK    3  A    between atoms: C_15  and  C_16 
REMARK       I    between atoms: C_16  and  N_17 
REMARK    4  A    between atoms: N_17  and  C_18 
REMARK    5  A    between atoms: C_18  and  C_19 
REMARK    6  A    between atoms: C_19  and  N_20 
ROOT
HETATM    1  C   UNL     1      -4.594 -13.782 -39.366  1.00  0.00     0.093 A 
HETATM    2  S   UNL     1      -3.815 -14.258 -40.797  1.00  0.00    -0.075 SA
HETATM    3  C   UNL     1      -2.303 -14.300 -40.047  1.00  0.00    -0.008 A 
HETATM    4  C   UNL     1      -2.362 -13.998 -38.697  1.00  0.00    -0.026 A 
HETATM    5  C   UNL     1      -1.092 -13.948 -37.886  1.00  0.00     0.041 C 
HETATM    6  C   UNL     1       0.163 -13.819 -38.762  1.00  0.00     0.005 C 
HETATM    7  C   UNL     1       0.136 -14.821 -39.922  1.00  0.00     0.005 C 
HETATM    8  C   UNL     1      -1.062 -14.570 -40.845  1.00  0.00     0.047 C 
HETATM    9  C   UNL     1      -3.734 -13.749 -38.268  1.00  0.00     0.073 A 
ENDROOT
BRANCH   1  10
HETATM   10  N   UNL     1      -5.933 -13.403 -39.391  1.00  0.00    -0.316 N 
HETATM   11  C   UNL     1      -7.021 -14.228 -39.142  1.00  0.00     0.256 C 
HETATM   12  O   UNL     1      -6.975 -15.319 -38.584  1.00  0.00    -0.267 OA
HETATM   13  H   UNL     1      -6.090 -12.445 -39.672  1.00  0.00     0.169 HD
BRANCH  11  14
HETATM   14  C   UNL     1      -8.365 -13.720 -39.573  1.00  0.00     0.032 A 
HETATM   15  C   UNL     1      -9.510 -14.523 -39.680  1.00  0.00     0.017 A 
HETATM   16  C   UNL     1     -10.734 -13.958 -40.058  1.00  0.00     0.001 A 
HETATM   17  C   UNL     1     -10.824 -12.594 -40.333  1.00  0.00     0.000 A 
HETATM   18  C   UNL     1      -9.693 -11.790 -40.238  1.00  0.00     0.001 A 
HETATM   19  C   UNL     1      -8.472 -12.350 -39.863  1.00  0.00     0.017 A 
ENDBRANCH  11  14
ENDBRANCH   1  10
BRANCH   9  20
HETATM   20  C   UNL     1      -4.246 -13.466 -36.923  1.00  0.00     0.255 C 
HETATM   21  N   UNL     1      -4.935 -14.474 -36.282  1.00  0.00    -0.355 N 
HETATM   22  H   UNL     1      -5.002 -15.360 -36.767  1.00  0.00     0.162 HD
HETATM   23  O   UNL     1      -4.199 -12.347 -36.405  1.00  0.00    -0.268 OA
BRANCH  21  24
HETATM   24  C   UNL     1      -5.185 -14.509 -34.844  1.00  0.00     0.150 C 
BRANCH  24  25
HETATM   25  C   UNL     1      -6.546 -13.988 -34.348  1.00  0.00     0.249 C 
BRANCH  25  26
HETATM   26  N   UNL     1      -6.540 -12.512 -34.207  1.00  0.00    -0.078 N 
HETATM   27  H   UNL     1      -5.751 -12.153 -34.774  1.00  0.00     0.274 HD
HETATM   28  H   UNL     1      -7.396 -12.069 -34.558  1.00  0.00     0.274 HD
HETATM   29  H   UNL     1      -6.376 -12.209 -33.240  1.00  0.00     0.274 HD
ENDBRANCH  25  26
ENDBRANCH  24  25
ENDBRANCH  21  24
ENDBRANCH   9  20
TORSDOF 6
ENDMDL
