MODEL 1
REMARK VINA RESULT:     -11.0      0.000      0.000
REMARK  9 active torsions:
REMARK  status: ('A' for Active; 'I' for Inactive)
REMARK    1  A    between atoms: C_5  and  C_6 
REMARK    2  A    between atoms: C_6  and  N_7 
REMARK       I    between atoms: N_7  and  C_8 
REMARK    3  A    between atoms: C_8  and  C_9 
REMARK    4  A    between atoms: C_9  and  N_10 
REMARK    5  A    between atoms: N_14  and  C_15 
REMARK    6  A    between atoms: C_17  and  N_18 
REMARK    7  A    between atoms: N_18  and  C_19 
REMARK    8  A    between atoms: C_26  and  N_27 
REMARK    9  A    between atoms: N_27  and  C_28 
ROOT
HETATM    1  C   UNL     1      -6.575   1.200 -31.783  1.00  0.00     0.756 A 
HETATM    2  N   UNL     1      -7.881   1.346 -31.649  1.00  0.00     0.131 NA
HETATM    3  C   UNL     1      -8.649   0.700 -32.521  1.00  0.00     0.758 A 
HETATM    4  N   UNL     1      -8.174  -0.051 -33.504  1.00  0.00     0.131 NA
HETATM    5  C   UNL     1      -6.859  -0.219 -33.519  1.00  0.00     0.758 A 
HETATM    6  N   UNL     1      -6.036   0.375 -32.663  1.00  0.00     0.131 NA
ENDROOT
BRANCH   1   7
HETATM    7  N   UNL     1      -5.734   1.959 -30.995  1.00  0.00    -0.210 N 
HETATM    8  C   UNL     1      -6.207   3.233 -30.455  1.00  0.00     0.169 C 
HETATM    9  C   UNL     1      -5.434   4.404 -31.102  1.00  0.00     0.256 C 
HETATM   10  N   UNL     1      -3.930   4.170 -30.927  1.00  0.00    -0.060 N 
HETATM   11  H   UNL     1      -3.783   4.018 -29.922  1.00  0.00     0.280 HD
HETATM   12  C   UNL     1      -3.521   2.862 -31.619  1.00  0.00     0.256 C 
HETATM   13  C   UNL     1      -4.295   1.687 -30.986  1.00  0.00     0.169 C 
BRANCH  10  14
HETATM   14  C   UNL     1      -3.075   5.371 -31.305  1.00  0.00     0.337 C 
BRANCH  14  15
HETATM   15  C   UNL     1      -1.564   5.240 -31.088  1.00  0.00     0.243 C 
HETATM   16  N   UNL     1      -1.146   5.625 -29.834  1.00  0.00    -0.355 N 
HETATM   17  H   UNL     1      -1.762   6.129 -29.209  1.00  0.00     0.162 HD
HETATM   18  O   UNL     1      -0.814   4.800 -31.953  1.00  0.00    -0.272 OA
BRANCH  16  19
HETATM   19  C   UNL     1       0.251   5.578 -29.444  1.00  0.00     0.161 C 
BRANCH  19  20
HETATM   20  C   UNL     1       0.573   6.623 -28.410  1.00  0.00    -0.041 A 
HETATM   21  C   UNL     1       0.357   6.379 -27.046  1.00  0.00     0.009 A 
HETATM   22  C   UNL     1       0.699   7.338 -26.090  1.00  0.00     0.007 A 
HETATM   23  C   UNL     1       1.258   8.560 -26.477  1.00  0.00    -0.062 A 
HETATM   24  C   UNL     1       1.695   9.559 -25.445  1.00  0.00     0.048 C 
HETATM   25  C   UNL     1       1.478   8.805 -27.836  1.00  0.00     0.007 A 
HETATM   26  C   UNL     1       1.129   7.850 -28.795  1.00  0.00     0.009 A 
ENDBRANCH  19  20
ENDBRANCH  16  19
ENDBRANCH  14  15
ENDBRANCH  10  14
ENDBRANCH   1   7
BRANCH   3  27
HETATM   27  N   UNL     1     -10.035   0.835 -32.470  1.00  0.00    -0.187 N 
HETATM   28  H   UNL     1     -10.334   0.951 -31.510  1.00  0.00     0.184 HD
BRANCH  27  29
HETATM   29  C   UNL     1     -10.941   1.330 -33.421  1.00  0.00     0.049 A 
HETATM   30  C   UNL     1     -10.638   2.536 -34.072  1.00  0.00     0.030 A 
HETATM   31  C   UNL     1     -11.511   3.088 -35.014  1.00  0.00     0.002 A 
HETATM   32  C   UNL     1     -12.707   2.443 -35.317  1.00  0.00     0.000 A 
HETATM   33  C   UNL     1     -13.031   1.254 -34.669  1.00  0.00     0.002 A 
HETATM   34  C   UNL     1     -12.161   0.712 -33.719  1.00  0.00     0.030 A 
ENDBRANCH  27  29
ENDBRANCH   3  27
BRANCH   5  35
HETATM   35  N   UNL     1      -6.359  -1.022 -34.540  1.00  0.00    -0.187 N 
HETATM   36  H   UNL     1      -6.456  -0.569 -35.438  1.00  0.00     0.184 HD
BRANCH  35  37
HETATM   37  C   UNL     1      -5.906  -2.347 -34.558  1.00  0.00     0.049 A 
HETATM   38  C   UNL     1      -6.718  -3.430 -34.914  1.00  0.00     0.030 A 
HETATM   39  C   UNL     1      -6.234  -4.742 -34.876  1.00  0.00     0.002 A 
HETATM   40  C   UNL     1      -4.931  -4.992 -34.457  1.00  0.00     0.000 A 
HETATM   41  C   UNL     1      -4.113  -3.931 -34.079  1.00  0.00     0.002 A 
HETATM   42  C   UNL     1      -4.599  -2.621 -34.129  1.00  0.00     0.030 A 
ENDBRANCH  35  37
ENDBRANCH   5  35
TORSDOF 9
ENDMDL
MODEL 2
REMARK VINA RESULT:     -10.9      1.782      2.263
REMARK  9 active torsions:
REMARK  status: ('A' for Active; 'I' for Inactive)
REMARK    1  A    between atoms: C_5  and  C_6 
REMARK    2  A    between atoms: C_6  and  N_7 
REMARK       I    between atoms: N_7  and  C_8 
REMARK    3  A    between atoms: C_8  and  C_9 
REMARK    4  A    between atoms: C_9  and  N_10 
REMARK    5  A    between atoms: N_14  and  C_15 
REMARK    6  A    between atoms: C_17  and  N_18 
REMARK    7  A    between atoms: N_18  and  C_19 
REMARK    8  A    between atoms: C_26  and  N_27 
REMARK    9  A    between atoms: N_27  and  C_28 
ROOT
HETATM    1  C   UNL     1      -6.840   1.952 -32.964  1.00  0.00     0.756 A 
HETATM    2  N   UNL     1      -8.095   1.822 -32.576  1.00  0.00     0.131 NA
HETATM    3  C   UNL     1      -8.752   0.755 -33.022  1.00  0.00     0.758 A 
HETATM    4  N   UNL     1      -8.222  -0.150 -33.832  1.00  0.00     0.131 NA
HETATM    5  C   UNL     1      -6.935   0.003 -34.105  1.00  0.00     0.758 A 
HETATM    6  N   UNL     1      -6.211   1.029 -33.672  1.00  0.00     0.131 NA
ENDROOT
BRANCH   1   7
HETATM    7  N   UNL     1      -6.159   3.109 -32.646  1.00  0.00    -0.210 N 
HETATM    8  C   UNL     1      -6.474   4.348 -33.355  1.00  0.00     0.169 C 
HETATM    9  C   UNL     1      -5.277   4.776 -34.234  1.00  0.00     0.256 C 
HETATM   10  N   UNL     1      -4.018   4.856 -33.365  1.00  0.00    -0.060 N 
HETATM   11  H   UNL     1      -4.256   5.471 -32.578  1.00  0.00     0.280 HD
HETATM   12  C   UNL     1      -3.718   3.479 -32.753  1.00  0.00     0.256 C 
HETATM   13  C   UNL     1      -4.912   3.039 -31.880  1.00  0.00     0.169 C 
BRANCH  10  14
HETATM   14  C   UNL     1      -2.830   5.500 -34.064  1.00  0.00     0.337 C 
BRANCH  14  15
HETATM   15  C   UNL     1      -2.377   6.867 -33.541  1.00  0.00     0.243 C 
HETATM   16  N   UNL     1      -2.798   7.141 -32.260  1.00  0.00    -0.355 N 
HETATM   17  H   UNL     1      -3.501   6.570 -31.807  1.00  0.00     0.162 HD
HETATM   18  O   UNL     1      -1.676   7.622 -34.207  1.00  0.00    -0.272 OA
BRANCH  16  19
HETATM   19  C   UNL     1      -2.472   8.389 -31.596  1.00  0.00     0.161 C 
BRANCH  19  20
HETATM   20  C   UNL     1      -1.507   8.178 -30.461  1.00  0.00    -0.041 A 
HETATM   21  C   UNL     1      -0.454   7.258 -30.570  1.00  0.00     0.009 A 
HETATM   22  C   UNL     1       0.462   7.100 -29.527  1.00  0.00     0.007 A 
HETATM   23  C   UNL     1       0.341   7.853 -28.354  1.00  0.00    -0.062 A 
HETATM   24  C   UNL     1       1.368   7.737 -27.266  1.00  0.00     0.048 C 
HETATM   25  C   UNL     1      -0.706   8.773 -28.244  1.00  0.00     0.007 A 
HETATM   26  C   UNL     1      -1.628   8.927 -29.283  1.00  0.00     0.009 A 
ENDBRANCH  19  20
ENDBRANCH  16  19
ENDBRANCH  14  15
ENDBRANCH  10  14
ENDBRANCH   1   7
BRANCH   3  27
HETATM   27  N   UNL     1     -10.093   0.568 -32.689  1.00  0.00    -0.187 N 
HETATM   28  H   UNL     1     -10.211   0.633 -31.685  1.00  0.00     0.184 HD
BRANCH  27  29
HETATM   29  C   UNL     1     -11.261   0.819 -33.426  1.00  0.00     0.049 A 
HETATM   30  C   UNL     1     -11.324   1.982 -34.208  1.00  0.00     0.030 A 
HETATM   31  C   UNL     1     -12.469   2.295 -34.947  1.00  0.00     0.002 A 
HETATM   32  C   UNL     1     -13.573   1.449 -34.911  1.00  0.00     0.000 A 
HETATM   33  C   UNL     1     -13.535   0.299 -34.127  1.00  0.00     0.002 A 
HETATM   34  C   UNL     1     -12.393  -0.004 -33.380  1.00  0.00     0.030 A 
ENDBRANCH  27  29
ENDBRANCH   3  27
BRANCH   5  35
HETATM   35  N   UNL     1      -6.371  -0.957 -34.941  1.00  0.00    -0.187 N 
HETATM   36  H   UNL     1      -6.443  -0.680 -35.910  1.00  0.00     0.184 HD
BRANCH  35  37
HETATM   37  C   UNL     1      -5.880  -2.245 -34.697  1.00  0.00     0.049 A 
HETATM   38  C   UNL     1      -4.580  -2.497 -34.242  1.00  0.00     0.030 A 
HETATM   39  C   UNL     1      -4.118  -3.803 -34.053  1.00  0.00     0.002 A 
HETATM   40  C   UNL     1      -4.947  -4.884 -34.340  1.00  0.00     0.000 A 
HETATM   41  C   UNL     1      -6.237  -4.656 -34.812  1.00  0.00     0.002 A 
HETATM   42  C   UNL     1      -6.696  -3.348 -34.989  1.00  0.00     0.030 A 
ENDBRANCH  35  37
ENDBRANCH   5  35
TORSDOF 9
ENDMDL
MODEL 3
REMARK VINA RESULT:     -10.9      0.426      5.162
REMARK  9 active torsions:
REMARK  status: ('A' for Active; 'I' for Inactive)
REMARK    1  A    between atoms: C_5  and  C_6 
REMARK    2  A    between atoms: C_6  and  N_7 
REMARK       I    between atoms: N_7  and  C_8 
REMARK    3  A    between atoms: C_8  and  C_9 
REMARK    4  A    between atoms: C_9  and  N_10 
REMARK    5  A    between atoms: N_14  and  C_15 
REMARK    6  A    between atoms: C_17  and  N_18 
REMARK    7  A    between atoms: N_18  and  C_19 
REMARK    8  A    between atoms: C_26  and  N_27 
REMARK    9  A    between atoms: N_27  and  C_28 
ROOT
HETATM    1  C   UNL     1      -6.706   1.347 -32.271  1.00  0.00     0.756 A 
HETATM    2  N   UNL     1      -6.141   0.582 -33.187  1.00  0.00     0.131 NA
HETATM    3  C   UNL     1      -6.945  -0.223 -33.874  1.00  0.00     0.758 A 
HETATM    4  N   UNL     1      -8.253  -0.303 -33.673  1.00  0.00     0.131 NA
HETATM    5  C   UNL     1      -8.756   0.557 -32.800  1.00  0.00     0.758 A 
HETATM    6  N   UNL     1      -8.014   1.407 -32.099  1.00  0.00     0.131 NA
ENDROOT
BRANCH   1   7
HETATM    7  N   UNL     1      -5.900   2.095 -31.437  1.00  0.00    -0.210 N 
HETATM    8  C   UNL     1      -6.368   3.396 -30.961  1.00  0.00     0.169 C 
HETATM    9  C   UNL     1      -5.509   4.525 -31.570  1.00  0.00     0.256 C 
HETATM   10  N   UNL     1      -4.031   4.247 -31.276  1.00  0.00    -0.060 N 
HETATM   11  H   UNL     1      -3.965   4.113 -30.260  1.00  0.00     0.280 HD
HETATM   12  C   UNL     1      -3.616   2.910 -31.908  1.00  0.00     0.256 C 
HETATM   13  C   UNL     1      -4.477   1.776 -31.313  1.00  0.00     0.169 C 
BRANCH  10  14
HETATM   14  C   UNL     1      -3.109   5.409 -31.613  1.00  0.00     0.337 C 
BRANCH  14  15
HETATM   15  C   UNL     1      -1.615   5.211 -31.334  1.00  0.00     0.243 C 
HETATM   16  N   UNL     1      -1.234   5.564 -30.060  1.00  0.00    -0.355 N 
HETATM   17  H   UNL     1      -1.854   6.088 -29.455  1.00  0.00     0.162 HD
HETATM   18  O   UNL     1      -0.849   4.748 -32.173  1.00  0.00    -0.272 OA
BRANCH  16  19
HETATM   19  C   UNL     1       0.141   5.452 -29.612  1.00  0.00     0.161 C 
BRANCH  19  20
HETATM   20  C   UNL     1       0.470   6.484 -28.567  1.00  0.00    -0.041 A 
HETATM   21  C   UNL     1       0.279   6.217 -27.204  1.00  0.00     0.009 A 
HETATM   22  C   UNL     1       0.627   7.165 -26.238  1.00  0.00     0.007 A 
HETATM   23  C   UNL     1       1.167   8.399 -26.616  1.00  0.00    -0.062 A 
HETATM   24  C   UNL     1       1.611   9.386 -25.576  1.00  0.00     0.048 C 
HETATM   25  C   UNL     1       1.362   8.667 -27.975  1.00  0.00     0.007 A 
HETATM   26  C   UNL     1       1.007   7.723 -28.942  1.00  0.00     0.009 A 
ENDBRANCH  19  20
ENDBRANCH  16  19
ENDBRANCH  14  15
ENDBRANCH  10  14
ENDBRANCH   1   7
BRANCH   3  27
HETATM   27  N   UNL     1      -6.420  -1.091 -34.831  1.00  0.00    -0.187 N 
HETATM   28  H   UNL     1      -6.055  -0.560 -35.612  1.00  0.00     0.184 HD
BRANCH  27  29
HETATM   29  C   UNL     1      -5.869  -2.375 -34.696  1.00  0.00     0.049 A 
HETATM   30  C   UNL     1      -6.674  -3.485 -34.996  1.00  0.00     0.030 A 
HETATM   31  C   UNL     1      -6.186  -4.788 -34.861  1.00  0.00     0.002 A 
HETATM   32  C   UNL     1      -4.884  -5.002 -34.419  1.00  0.00     0.000 A 
HETATM   33  C   UNL     1      -4.077  -3.913 -34.101  1.00  0.00     0.002 A 
HETATM   34  C   UNL     1      -4.572  -2.612 -34.225  1.00  0.00     0.030 A 
ENDBRANCH  27  29
ENDBRANCH   3  27
BRANCH   5  35
HETATM   35  N   UNL     1     -10.132   0.488 -32.601  1.00  0.00    -0.187 N 
HETATM   36  H   UNL     1     -10.350  -0.007 -31.747  1.00  0.00     0.184 HD
BRANCH  35  37
HETATM   37  C   UNL     1     -11.219   0.836 -33.412  1.00  0.00     0.049 A 
HETATM   38  C   UNL     1     -11.260   2.008 -34.178  1.00  0.00     0.030 A 
HETATM   39  C   UNL     1     -12.385   2.336 -34.941  1.00  0.00     0.002 A 
HETATM   40  C   UNL     1     -13.501   1.505 -34.930  1.00  0.00     0.000 A 
HETATM   41  C   UNL     1     -13.489   0.346 -34.160  1.00  0.00     0.002 A 
HETATM   42  C   UNL     1     -12.357   0.017 -33.408  1.00  0.00     0.030 A 
ENDBRANCH  35  37
ENDBRANCH   5  35
TORSDOF 9
ENDMDL
MODEL 4
REMARK VINA RESULT:     -10.1      3.535     10.140
REMARK  9 active torsions:
REMARK  status: ('A' for Active; 'I' for Inactive)
REMARK    1  A    between atoms: C_5  and  C_6 
REMARK    2  A    between atoms: C_6  and  N_7 
REMARK       I    between atoms: N_7  and  C_8 
REMARK    3  A    between atoms: C_8  and  C_9 
REMARK    4  A    between atoms: C_9  and  N_10 
REMARK    5  A    between atoms: N_14  and  C_15 
REMARK    6  A    between atoms: C_17  and  N_18 
REMARK    7  A    between atoms: N_18  and  C_19 
REMARK    8  A    between atoms: C_26  and  N_27 
REMARK    9  A    between atoms: N_27  and  C_28 
ROOT
HETATM    1  C   UNL     1      -5.483   2.091 -31.575  1.00  0.00     0.756 A 
HETATM    2  N   UNL     1      -5.135   0.819 -31.502  1.00  0.00     0.131 NA
HETATM    3  C   UNL     1      -3.839   0.561 -31.358  1.00  0.00     0.758 A 
HETATM    4  N   UNL     1      -2.903   1.498 -31.304  1.00  0.00     0.131 NA
HETATM    5  C   UNL     1      -3.340   2.750 -31.296  1.00  0.00     0.758 A 
HETATM    6  N   UNL     1      -4.622   3.078 -31.409  1.00  0.00     0.131 NA
ENDROOT
BRANCH   1   7
HETATM    7  N   UNL     1      -6.795   2.408 -31.865  1.00  0.00    -0.210 N 
HETATM    8  C   UNL     1      -7.843   2.088 -30.897  1.00  0.00     0.169 C 
HETATM    9  C   UNL     1      -8.770   0.988 -31.462  1.00  0.00     0.256 C 
HETATM   10  N   UNL     1      -9.296   1.427 -32.831  1.00  0.00    -0.060 N 
HETATM   11  H   UNL     1      -9.713   2.355 -32.690  1.00  0.00     0.280 HD
HETATM   12  C   UNL     1      -8.122   1.634 -33.800  1.00  0.00     0.256 C 
HETATM   13  C   UNL     1      -7.186   2.725 -33.240  1.00  0.00     0.169 C 
BRANCH  10  14
HETATM   14  C   UNL     1     -10.405   0.540 -33.376  1.00  0.00     0.337 C 
BRANCH  14  15
HETATM   15  C   UNL     1     -11.636   1.246 -33.954  1.00  0.00     0.243 C 
HETATM   16  N   UNL     1     -11.335   2.245 -34.853  1.00  0.00    -0.355 N 
HETATM   17  H   UNL     1     -10.389   2.592 -34.951  1.00  0.00     0.162 HD
HETATM   18  O   UNL     1     -12.780   0.918 -33.656  1.00  0.00    -0.272 OA
BRANCH  16  19
HETATM   19  C   UNL     1     -12.368   3.030 -35.500  1.00  0.00     0.161 C 
BRANCH  19  20
HETATM   20  C   UNL     1     -12.013   4.492 -35.535  1.00  0.00    -0.041 A 
HETATM   21  C   UNL     1     -10.687   4.917 -35.375  1.00  0.00     0.009 A 
HETATM   22  C   UNL     1     -10.361   6.273 -35.451  1.00  0.00     0.007 A 
HETATM   23  C   UNL     1     -11.353   7.231 -35.684  1.00  0.00    -0.062 A 
HETATM   24  C   UNL     1     -10.992   8.679 -35.841  1.00  0.00     0.048 C 
HETATM   25  C   UNL     1     -12.677   6.810 -35.848  1.00  0.00     0.007 A 
HETATM   26  C   UNL     1     -13.006   5.455 -35.763  1.00  0.00     0.009 A 
ENDBRANCH  19  20
ENDBRANCH  16  19
ENDBRANCH  14  15
ENDBRANCH  10  14
ENDBRANCH   1   7
BRANCH   3  27
HETATM   27  N   UNL     1      -3.386  -0.757 -31.313  1.00  0.00    -0.187 N 
HETATM   28  H   UNL     1      -3.228  -1.033 -30.352  1.00  0.00     0.184 HD
BRANCH  27  29
HETATM   29  C   UNL     1      -3.602  -1.828 -32.195  1.00  0.00     0.049 A 
HETATM   30  C   UNL     1      -3.078  -3.087 -31.862  1.00  0.00     0.030 A 
HETATM   31  C   UNL     1      -3.244  -4.185 -32.712  1.00  0.00     0.002 A 
HETATM   32  C   UNL     1      -3.933  -4.039 -33.911  1.00  0.00     0.000 A 
HETATM   33  C   UNL     1      -4.445  -2.794 -34.265  1.00  0.00     0.002 A 
HETATM   34  C   UNL     1      -4.267  -1.696 -33.419  1.00  0.00     0.030 A 
ENDBRANCH  27  29
ENDBRANCH   3  27
BRANCH   5  35
HETATM   35  N   UNL     1      -2.360   3.736 -31.220  1.00  0.00    -0.187 N 
HETATM   36  H   UNL     1      -1.968   3.786 -30.291  1.00  0.00     0.184 HD
BRANCH  35  37
HETATM   37  C   UNL     1      -1.950   4.725 -32.122  1.00  0.00     0.049 A 
HETATM   38  C   UNL     1      -2.129   4.622 -33.507  1.00  0.00     0.030 A 
HETATM   39  C   UNL     1      -1.664   5.616 -34.374  1.00  0.00     0.002 A 
HETATM   40  C   UNL     1      -0.987   6.721 -33.868  1.00  0.00     0.000 A 
HETATM   41  C   UNL     1      -0.780   6.833 -32.496  1.00  0.00     0.002 A 
HETATM   42  C   UNL     1      -1.257   5.842 -31.634  1.00  0.00     0.030 A 
ENDBRANCH  35  37
ENDBRANCH   5  35
TORSDOF 9
ENDMDL
MODEL 5
REMARK VINA RESULT:     -10.0      1.858      5.329
REMARK  9 active torsions:
REMARK  status: ('A' for Active; 'I' for Inactive)
REMARK    1  A    between atoms: C_5  and  C_6 
REMARK    2  A    between atoms: C_6  and  N_7 
REMARK       I    between atoms: N_7  and  C_8 
REMARK    3  A    between atoms: C_8  and  C_9 
REMARK    4  A    between atoms: C_9  and  N_10 
REMARK    5  A    between atoms: N_14  and  C_15 
REMARK    6  A    between atoms: C_17  and  N_18 
REMARK    7  A    between atoms: N_18  and  C_19 
REMARK    8  A    between atoms: C_26  and  N_27 
REMARK    9  A    between atoms: N_27  and  C_28 
ROOT
HETATM    1  C   UNL     1      -6.786   2.825 -32.636  1.00  0.00     0.756 A 
HETATM    2  N   UNL     1      -6.122   1.685 -32.585  1.00  0.00     0.131 NA
HETATM    3  C   UNL     1      -6.843   0.578 -32.444  1.00  0.00     0.758 A 
HETATM    4  N   UNL     1      -8.165   0.568 -32.338  1.00  0.00     0.131 NA
HETATM    5  C   UNL     1      -8.763   1.741 -32.486  1.00  0.00     0.758 A 
HETATM    6  N   UNL     1      -8.106   2.883 -32.657  1.00  0.00     0.131 NA
ENDROOT
BRANCH   1   7
HETATM    7  N   UNL     1      -6.079   4.010 -32.641  1.00  0.00    -0.210 N 
HETATM    8  C   UNL     1      -6.163   4.894 -33.803  1.00  0.00     0.169 C 
HETATM    9  C   UNL     1      -4.800   4.947 -34.529  1.00  0.00     0.256 C 
HETATM   10  N   UNL     1      -3.711   5.336 -33.525  1.00  0.00    -0.060 N 
HETATM   11  H   UNL     1      -4.031   6.204 -33.081  1.00  0.00     0.280 HD
HETATM   12  C   UNL     1      -3.636   4.289 -32.404  1.00  0.00     0.256 C 
HETATM   13  C   UNL     1      -4.996   4.222 -31.678  1.00  0.00     0.169 C 
BRANCH  10  14
HETATM   14  C   UNL     1      -2.370   5.657 -34.168  1.00  0.00     0.337 C 
BRANCH  14  15
HETATM   15  C   UNL     1      -1.496   6.700 -33.463  1.00  0.00     0.243 C 
HETATM   16  N   UNL     1      -0.768   6.196 -32.409  1.00  0.00    -0.355 N 
HETATM   17  H   UNL     1      -0.962   5.277 -32.032  1.00  0.00     0.162 HD
HETATM   18  O   UNL     1      -1.438   7.866 -33.838  1.00  0.00    -0.272 OA
BRANCH  16  19
HETATM   19  C   UNL     1       0.112   7.033 -31.616  1.00  0.00     0.161 C 
BRANCH  19  20
HETATM   20  C   UNL     1      -0.351   7.127 -30.187  1.00  0.00    -0.041 A 
HETATM   21  C   UNL     1      -1.713   7.230 -29.876  1.00  0.00     0.009 A 
HETATM   22  C   UNL     1      -2.137   7.274 -28.545  1.00  0.00     0.007 A 
HETATM   23  C   UNL     1      -1.208   7.219 -27.501  1.00  0.00    -0.062 A 
HETATM   24  C   UNL     1      -1.668   7.189 -26.073  1.00  0.00     0.048 C 
HETATM   25  C   UNL     1       0.152   7.112 -27.809  1.00  0.00     0.007 A 
HETATM   26  C   UNL     1       0.578   7.077 -29.139  1.00  0.00     0.009 A 
ENDBRANCH  19  20
ENDBRANCH  16  19
ENDBRANCH  14  15
ENDBRANCH  10  14
ENDBRANCH   1   7
BRANCH   3  27
HETATM   27  N   UNL     1      -6.213  -0.662 -32.340  1.00  0.00    -0.187 N 
HETATM   28  H   UNL     1      -6.290  -1.008 -31.392  1.00  0.00     0.184 HD
BRANCH  27  29
HETATM   29  C   UNL     1      -5.992  -1.658 -33.304  1.00  0.00     0.049 A 
HETATM   30  C   UNL     1      -4.670  -2.019 -33.605  1.00  0.00     0.030 A 
HETATM   31  C   UNL     1      -4.389  -2.990 -34.571  1.00  0.00     0.002 A 
HETATM   32  C   UNL     1      -5.428  -3.613 -35.255  1.00  0.00     0.000 A 
HETATM   33  C   UNL     1      -6.745  -3.256 -34.981  1.00  0.00     0.002 A 
HETATM   34  C   UNL     1      -7.022  -2.275 -34.024  1.00  0.00     0.030 A 
ENDBRANCH  27  29
ENDBRANCH   3  27
BRANCH   5  35
HETATM   35  N   UNL     1     -10.153   1.732 -32.394  1.00  0.00    -0.187 N 
HETATM   36  H   UNL     1     -10.451   1.496 -31.458  1.00  0.00     0.184 HD
BRANCH  35  37
HETATM   37  C   UNL     1     -11.160   1.839 -33.360  1.00  0.00     0.049 A 
HETATM   38  C   UNL     1     -12.119   0.843 -33.582  1.00  0.00     0.030 A 
HETATM   39  C   UNL     1     -13.082   0.974 -34.587  1.00  0.00     0.002 A 
HETATM   40  C   UNL     1     -13.085   2.099 -35.407  1.00  0.00     0.000 A 
HETATM   41  C   UNL     1     -12.127   3.092 -35.217  1.00  0.00     0.002 A 
HETATM   42  C   UNL     1     -11.175   2.960 -34.202  1.00  0.00     0.030 A 
ENDBRANCH  35  37
ENDBRANCH   5  35
TORSDOF 9
ENDMDL
MODEL 6
REMARK VINA RESULT:      -9.8      3.615      9.893
REMARK  9 active torsions:
REMARK  status: ('A' for Active; 'I' for Inactive)
REMARK    1  A    between atoms: C_5  and  C_6 
REMARK    2  A    between atoms: C_6  and  N_7 
REMARK       I    between atoms: N_7  and  C_8 
REMARK    3  A    between atoms: C_8  and  C_9 
REMARK    4  A    between atoms: C_9  and  N_10 
REMARK    5  A    between atoms: N_14  and  C_15 
REMARK    6  A    between atoms: C_17  and  N_18 
REMARK    7  A    between atoms: N_18  and  C_19 
REMARK    8  A    between atoms: C_26  and  N_27 
REMARK    9  A    between atoms: N_27  and  C_28 
ROOT
HETATM    1  C   UNL     1      -6.733   1.503 -32.396  1.00  0.00     0.756 A 
HETATM    2  N   UNL     1      -5.913   2.417 -31.911  1.00  0.00     0.131 NA
HETATM    3  C   UNL     1      -4.611   2.165 -32.008  1.00  0.00     0.758 A 
HETATM    4  N   UNL     1      -4.113   1.058 -32.540  1.00  0.00     0.131 NA
HETATM    5  C   UNL     1      -4.995   0.231 -33.082  1.00  0.00     0.758 A 
HETATM    6  N   UNL     1      -6.307   0.433 -33.045  1.00  0.00     0.131 NA
ENDROOT
BRANCH   1   7
HETATM    7  N   UNL     1      -8.090   1.650 -32.195  1.00  0.00    -0.210 N 
HETATM    8  C   UNL     1      -8.853   0.551 -31.604  1.00  0.00     0.169 C 
HETATM    9  C   UNL     1      -9.830  -0.038 -32.645  1.00  0.00     0.256 C 
HETATM   10  N   UNL     1     -10.696   1.088 -33.217  1.00  0.00    -0.060 N 
HETATM   11  H   UNL     1     -11.115   1.562 -32.408  1.00  0.00     0.280 HD
HETATM   12  C   UNL     1      -9.806   2.133 -33.906  1.00  0.00     0.256 C 
HETATM   13  C   UNL     1      -8.820   2.721 -32.875  1.00  0.00     0.169 C 
BRANCH  10  14
HETATM   14  C   UNL     1     -11.857   0.597 -34.070  1.00  0.00     0.337 C 
BRANCH  14  15
HETATM   15  C   UNL     1     -13.145   1.425 -34.028  1.00  0.00     0.243 C 
HETATM   16  N   UNL     1     -13.770   1.422 -32.801  1.00  0.00    -0.355 N 
HETATM   17  H   UNL     1     -13.496   0.770 -32.076  1.00  0.00     0.162 HD
HETATM   18  O   UNL     1     -13.552   2.053 -35.000  1.00  0.00    -0.272 OA
BRANCH  16  19
HETATM   19  C   UNL     1     -15.006   2.145 -32.569  1.00  0.00     0.161 C 
BRANCH  19  20
HETATM   20  C   UNL     1     -14.766   3.427 -31.818  1.00  0.00    -0.041 A 
HETATM   21  C   UNL     1     -15.677   4.490 -31.896  1.00  0.00     0.009 A 
HETATM   22  C   UNL     1     -15.468   5.660 -31.162  1.00  0.00     0.007 A 
HETATM   23  C   UNL     1     -14.343   5.793 -30.341  1.00  0.00    -0.062 A 
HETATM   24  C   UNL     1     -14.158   7.019 -29.495  1.00  0.00     0.048 C 
HETATM   25  C   UNL     1     -13.435   4.733 -30.259  1.00  0.00     0.007 A 
HETATM   26  C   UNL     1     -13.638   3.565 -30.999  1.00  0.00     0.009 A 
ENDBRANCH  19  20
ENDBRANCH  16  19
ENDBRANCH  14  15
ENDBRANCH  10  14
ENDBRANCH   1   7
BRANCH   3  27
HETATM   27  N   UNL     1      -3.682   3.063 -31.484  1.00  0.00    -0.187 N 
HETATM   28  H   UNL     1      -3.343   2.724 -30.592  1.00  0.00     0.184 HD
BRANCH  27  29
HETATM   29  C   UNL     1      -2.819   3.964 -32.126  1.00  0.00     0.049 A 
HETATM   30  C   UNL     1      -1.851   4.630 -31.358  1.00  0.00     0.030 A 
HETATM   31  C   UNL     1      -0.978   5.554 -31.940  1.00  0.00     0.002 A 
HETATM   32  C   UNL     1      -1.062   5.830 -33.301  1.00  0.00     0.000 A 
HETATM   33  C   UNL     1      -2.027   5.191 -34.076  1.00  0.00     0.002 A 
HETATM   34  C   UNL     1      -2.906   4.277 -33.488  1.00  0.00     0.030 A 
ENDBRANCH  27  29
ENDBRANCH   3  27
BRANCH   5  35
HETATM   35  N   UNL     1      -4.474  -0.925 -33.658  1.00  0.00    -0.187 N 
HETATM   36  H   UNL     1      -3.500  -0.801 -33.897  1.00  0.00     0.184 HD
BRANCH  35  37
HETATM   37  C   UNL     1      -5.072  -2.117 -34.081  1.00  0.00     0.049 A 
HETATM   38  C   UNL     1      -6.423  -2.214 -34.438  1.00  0.00     0.030 A 
HETATM   39  C   UNL     1      -6.988  -3.436 -34.813  1.00  0.00     0.002 A 
HETATM   40  C   UNL     1      -6.213  -4.592 -34.814  1.00  0.00     0.000 A 
HETATM   41  C   UNL     1      -4.873  -4.522 -34.443  1.00  0.00     0.002 A 
HETATM   42  C   UNL     1      -4.311  -3.295 -34.079  1.00  0.00     0.030 A 
ENDBRANCH  35  37
ENDBRANCH   5  35
TORSDOF 9
ENDMDL
MODEL 7
REMARK VINA RESULT:      -9.8      3.537      9.540
REMARK  9 active torsions:
REMARK  status: ('A' for Active; 'I' for Inactive)
REMARK    1  A    between atoms: C_5  and  C_6 
REMARK    2  A    between atoms: C_6  and  N_7 
REMARK       I    between atoms: N_7  and  C_8 
REMARK    3  A    between atoms: C_8  and  C_9 
REMARK    4  A    between atoms: C_9  and  N_10 
REMARK    5  A    between atoms: N_14  and  C_15 
REMARK    6  A    between atoms: C_17  and  N_18 
REMARK    7  A    between atoms: N_18  and  C_19 
REMARK    8  A    between atoms: C_26  and  N_27 
REMARK    9  A    between atoms: N_27  and  C_28 
ROOT
HETATM    1  C   UNL     1      -5.638   2.226 -31.911  1.00  0.00     0.756 A 
HETATM    2  N   UNL     1      -4.744   3.188 -31.772  1.00  0.00     0.131 NA
HETATM    3  C   UNL     1      -3.502   2.814 -31.483  1.00  0.00     0.758 A 
HETATM    4  N   UNL     1      -3.134   1.551 -31.314  1.00  0.00     0.131 NA
HETATM    5  C   UNL     1      -4.067   0.641 -31.555  1.00  0.00     0.758 A 
HETATM    6  N   UNL     1      -5.320   0.944 -31.875  1.00  0.00     0.131 NA
ENDROOT
BRANCH   1   7
HETATM    7  N   UNL     1      -6.966   2.567 -32.072  1.00  0.00    -0.210 N 
HETATM    8  C   UNL     1      -7.967   2.013 -31.160  1.00  0.00     0.169 C 
HETATM    9  C   UNL     1      -8.899   1.044 -31.920  1.00  0.00     0.256 C 
HETATM   10  N   UNL     1      -9.491   1.764 -33.135  1.00  0.00    -0.060 N 
HETATM   11  H   UNL     1      -9.916   2.626 -32.774  1.00  0.00     0.280 HD
HETATM   12  C   UNL     1      -8.363   2.210 -34.078  1.00  0.00     0.256 C 
HETATM   13  C   UNL     1      -7.421   3.172 -33.325  1.00  0.00     0.169 C 
BRANCH  10  14
HETATM   14  C   UNL     1     -10.608   0.992 -33.821  1.00  0.00     0.337 C 
BRANCH  14  15
HETATM   15  C   UNL     1     -11.721   1.819 -34.474  1.00  0.00     0.243 C 
HETATM   16  N   UNL     1     -11.884   3.070 -33.921  1.00  0.00    -0.355 N 
HETATM   17  H   UNL     1     -11.440   3.316 -33.045  1.00  0.00     0.162 HD
HETATM   18  O   UNL     1     -12.376   1.401 -35.423  1.00  0.00    -0.272 OA
BRANCH  16  19
HETATM   19  C   UNL     1     -12.892   3.995 -34.403  1.00  0.00     0.161 C 
BRANCH  19  20
HETATM   20  C   UNL     1     -12.272   5.242 -34.974  1.00  0.00    -0.041 A 
HETATM   21  C   UNL     1     -10.881   5.413 -34.991  1.00  0.00     0.009 A 
HETATM   22  C   UNL     1     -10.312   6.555 -35.561  1.00  0.00     0.007 A 
HETATM   23  C   UNL     1     -11.122   7.548 -36.122  1.00  0.00    -0.062 A 
HETATM   24  C   UNL     1     -10.508   8.737 -36.802  1.00  0.00     0.048 C 
HETATM   25  C   UNL     1     -12.510   7.378 -36.110  1.00  0.00     0.007 A 
HETATM   26  C   UNL     1     -13.080   6.241 -35.532  1.00  0.00     0.009 A 
ENDBRANCH  19  20
ENDBRANCH  16  19
ENDBRANCH  14  15
ENDBRANCH  10  14
ENDBRANCH   1   7
BRANCH   3  27
HETATM   27  N   UNL     1      -2.509   3.771 -31.282  1.00  0.00    -0.187 N 
HETATM   28  H   UNL     1      -1.828   3.426 -30.618  1.00  0.00     0.184 HD
BRANCH  27  29
HETATM   29  C   UNL     1      -2.030   4.783 -32.128  1.00  0.00     0.049 A 
HETATM   30  C   UNL     1      -1.580   5.982 -31.554  1.00  0.00     0.030 A 
HETATM   31  C   UNL     1      -1.111   7.032 -32.349  1.00  0.00     0.002 A 
HETATM   32  C   UNL     1      -1.088   6.900 -33.734  1.00  0.00     0.000 A 
HETATM   33  C   UNL     1      -1.546   5.724 -34.322  1.00  0.00     0.002 A 
HETATM   34  C   UNL     1      -2.026   4.681 -33.525  1.00  0.00     0.030 A 
ENDBRANCH  27  29
ENDBRANCH   3  27
BRANCH   5  35
HETATM   35  N   UNL     1      -3.678  -0.686 -31.397  1.00  0.00    -0.187 N 
HETATM   36  H   UNL     1      -3.121  -0.803 -30.562  1.00  0.00     0.184 HD
BRANCH  35  37
HETATM   37  C   UNL     1      -3.792  -1.805 -32.230  1.00  0.00     0.049 A 
HETATM   38  C   UNL     1      -3.188  -3.037 -31.947  1.00  0.00     0.030 A 
HETATM   39  C   UNL     1      -3.292  -4.116 -32.830  1.00  0.00     0.002 A 
HETATM   40  C   UNL     1      -3.985  -3.971 -34.028  1.00  0.00     0.000 A 
HETATM   41  C   UNL     1      -4.575  -2.749 -34.339  1.00  0.00     0.002 A 
HETATM   42  C   UNL     1      -4.477  -1.678 -33.447  1.00  0.00     0.030 A 
ENDBRANCH  35  37
ENDBRANCH   5  35
TORSDOF 9
ENDMDL
MODEL 8
REMARK VINA RESULT:      -9.7      1.772      2.501
REMARK  9 active torsions:
REMARK  status: ('A' for Active; 'I' for Inactive)
REMARK    1  A    between atoms: C_5  and  C_6 
REMARK    2  A    between atoms: C_6  and  N_7 
REMARK       I    between atoms: N_7  and  C_8 
REMARK    3  A    between atoms: C_8  and  C_9 
REMARK    4  A    between atoms: C_9  and  N_10 
REMARK    5  A    between atoms: N_14  and  C_15 
REMARK    6  A    between atoms: C_17  and  N_18 
REMARK    7  A    between atoms: N_18  and  C_19 
REMARK    8  A    between atoms: C_26  and  N_27 
REMARK    9  A    between atoms: N_27  and  C_28 
ROOT
HETATM    1  C   UNL     1      -7.488   3.684 -33.228  1.00  0.00     0.756 A 
HETATM    2  N   UNL     1      -8.643   3.662 -33.868  1.00  0.00     0.131 NA
HETATM    3  C   UNL     1      -9.191   2.469 -34.074  1.00  0.00     0.758 A 
HETATM    4  N   UNL     1      -8.636   1.328 -33.691  1.00  0.00     0.131 NA
HETATM    5  C   UNL     1      -7.523   1.438 -32.980  1.00  0.00     0.758 A 
HETATM    6  N   UNL     1      -6.936   2.600 -32.714  1.00  0.00     0.131 NA
ENDROOT
BRANCH   1   7
HETATM    7  N   UNL     1      -6.811   4.881 -33.113  1.00  0.00    -0.210 N 
HETATM    8  C   UNL     1      -5.384   4.934 -33.427  1.00  0.00     0.169 C 
HETATM    9  C   UNL     1      -4.568   5.209 -32.145  1.00  0.00     0.256 C 
HETATM   10  N   UNL     1      -5.106   6.473 -31.468  1.00  0.00    -0.060 N 
HETATM   11  H   UNL     1      -5.097   7.206 -32.187  1.00  0.00     0.280 HD
HETATM   12  C   UNL     1      -6.581   6.273 -31.085  1.00  0.00     0.256 C 
HETATM   13  C   UNL     1      -7.403   5.988 -32.359  1.00  0.00     0.169 C 
BRANCH  10  14
HETATM   14  C   UNL     1      -4.231   6.981 -30.332  1.00  0.00     0.337 C 
BRANCH  14  15
HETATM   15  C   UNL     1      -2.723   7.048 -30.597  1.00  0.00     0.243 C 
HETATM   16  N   UNL     1      -1.987   6.146 -29.863  1.00  0.00    -0.355 N 
HETATM   17  H   UNL     1      -2.400   5.642 -29.088  1.00  0.00     0.162 HD
HETATM   18  O   UNL     1      -2.237   7.821 -31.416  1.00  0.00    -0.272 OA
BRANCH  16  19
HETATM   19  C   UNL     1      -0.543   6.065 -29.974  1.00  0.00     0.161 C 
BRANCH  19  20
HETATM   20  C   UNL     1       0.140   6.724 -28.806  1.00  0.00    -0.041 A 
HETATM   21  C   UNL     1       0.923   7.873 -28.983  1.00  0.00     0.009 A 
HETATM   22  C   UNL     1       1.519   8.503 -27.887  1.00  0.00     0.007 A 
HETATM   23  C   UNL     1       1.347   7.995 -26.595  1.00  0.00    -0.062 A 
HETATM   24  C   UNL     1       1.924   8.714 -25.411  1.00  0.00     0.048 C 
HETATM   25  C   UNL     1       0.563   6.851 -26.415  1.00  0.00     0.007 A 
HETATM   26  C   UNL     1      -0.026   6.215 -27.511  1.00  0.00     0.009 A 
ENDBRANCH  19  20
ENDBRANCH  16  19
ENDBRANCH  14  15
ENDBRANCH  10  14
ENDBRANCH   1   7
BRANCH   3  27
HETATM   27  N   UNL     1     -10.390   2.359 -34.778  1.00  0.00    -0.187 N 
HETATM   28  H   UNL     1     -10.215   2.449 -35.771  1.00  0.00     0.184 HD
BRANCH  27  29
HETATM   29  C   UNL     1     -11.578   1.683 -34.459  1.00  0.00     0.049 A 
HETATM   30  C   UNL     1     -12.802   2.298 -34.765  1.00  0.00     0.030 A 
HETATM   31  C   UNL     1     -14.018   1.681 -34.452  1.00  0.00     0.002 A 
HETATM   32  C   UNL     1     -14.027   0.440 -33.823  1.00  0.00     0.000 A 
HETATM   33  C   UNL     1     -12.822  -0.177 -33.498  1.00  0.00     0.002 A 
HETATM   34  C   UNL     1     -11.609   0.448 -33.801  1.00  0.00     0.030 A 
ENDBRANCH  27  29
ENDBRANCH   3  27
BRANCH   5  35
HETATM   35  N   UNL     1      -6.947   0.242 -32.561  1.00  0.00    -0.187 N 
HETATM   36  H   UNL     1      -6.884   0.205 -31.553  1.00  0.00     0.184 HD
BRANCH  35  37
HETATM   37  C   UNL     1      -6.333  -0.802 -33.261  1.00  0.00     0.049 A 
HETATM   38  C   UNL     1      -7.046  -1.751 -34.005  1.00  0.00     0.030 A 
HETATM   39  C   UNL     1      -6.393  -2.804 -34.654  1.00  0.00     0.002 A 
HETATM   40  C   UNL     1      -5.012  -2.938 -34.548  1.00  0.00     0.000 A 
HETATM   41  C   UNL     1      -4.286  -2.017 -33.797  1.00  0.00     0.002 A 
HETATM   42  C   UNL     1      -4.943  -0.961 -33.160  1.00  0.00     0.030 A 
ENDBRANCH  35  37
ENDBRANCH   5  35
TORSDOF 9
ENDMDL
MODEL 9
REMARK VINA RESULT:      -9.7      2.011      3.000
REMARK  9 active torsions:
REMARK  status: ('A' for Active; 'I' for Inactive)
REMARK    1  A    between atoms: C_5  and  C_6 
REMARK    2  A    between atoms: C_6  and  N_7 
REMARK       I    between atoms: N_7  and  C_8 
REMARK    3  A    between atoms: C_8  and  C_9 
REMARK    4  A    between atoms: C_9  and  N_10 
REMARK    5  A    between atoms: N_14  and  C_15 
REMARK    6  A    between atoms: C_17  and  N_18 
REMARK    7  A    between atoms: N_18  and  C_19 
REMARK    8  A    between atoms: C_26  and  N_27 
REMARK    9  A    between atoms: N_27  and  C_28 
ROOT
HETATM    1  C   UNL     1      -6.956   1.401 -31.706  1.00  0.00     0.756 A 
HETATM    2  N   UNL     1      -8.269   1.259 -31.689  1.00  0.00     0.131 NA
HETATM    3  C   UNL     1      -8.789   0.400 -32.560  1.00  0.00     0.758 A 
HETATM    4  N   UNL     1      -8.070  -0.288 -33.435  1.00  0.00     0.131 NA
HETATM    5  C   UNL     1      -6.755  -0.157 -33.331  1.00  0.00     0.758 A 
HETATM    6  N   UNL     1      -6.167   0.662 -32.466  1.00  0.00     0.131 NA
ENDROOT
BRANCH   1   7
HETATM    7  N   UNL     1      -6.380   2.379 -30.922  1.00  0.00    -0.210 N 
HETATM    8  C   UNL     1      -7.058   2.815 -29.702  1.00  0.00     0.169 C 
HETATM    9  C   UNL     1      -7.541   4.275 -29.855  1.00  0.00     0.256 C 
HETATM   10  N   UNL     1      -6.356   5.156 -30.261  1.00  0.00    -0.060 N 
HETATM   11  H   UNL     1      -5.622   4.983 -29.564  1.00  0.00     0.280 HD
HETATM   12  C   UNL     1      -5.784   4.678 -31.604  1.00  0.00     0.256 C 
HETATM   13  C   UNL     1      -5.308   3.217 -31.463  1.00  0.00     0.169 C 
BRANCH  10  14
HETATM   14  C   UNL     1      -6.652   6.648 -30.205  1.00  0.00     0.337 C 
BRANCH  14  15
HETATM   15  C   UNL     1      -5.539   7.593 -30.669  1.00  0.00     0.243 C 
HETATM   16  N   UNL     1      -4.365   7.461 -29.962  1.00  0.00    -0.355 N 
HETATM   17  H   UNL     1      -4.331   6.933 -29.100  1.00  0.00     0.162 HD
HETATM   18  O   UNL     1      -5.688   8.368 -31.609  1.00  0.00    -0.272 OA
BRANCH  16  19
HETATM   19  C   UNL     1      -3.201   8.275 -30.253  1.00  0.00     0.161 C 
BRANCH  19  20
HETATM   20  C   UNL     1      -1.965   7.433 -30.426  1.00  0.00    -0.041 A 
HETATM   21  C   UNL     1      -0.956   7.424 -29.453  1.00  0.00     0.009 A 
HETATM   22  C   UNL     1       0.167   6.606 -29.602  1.00  0.00     0.007 A 
HETATM   23  C   UNL     1       0.305   5.787 -30.727  1.00  0.00    -0.062 A 
HETATM   24  C   UNL     1       1.474   4.853 -30.849  1.00  0.00     0.048 C 
HETATM   25  C   UNL     1      -0.701   5.791 -31.697  1.00  0.00     0.007 A 
HETATM   26  C   UNL     1      -1.821   6.614 -31.554  1.00  0.00     0.009 A 
ENDBRANCH  19  20
ENDBRANCH  16  19
ENDBRANCH  14  15
ENDBRANCH  10  14
ENDBRANCH   1   7
BRANCH   3  27
HETATM   27  N   UNL     1     -10.171   0.224 -32.632  1.00  0.00    -0.187 N 
HETATM   28  H   UNL     1     -10.526  -0.076 -31.732  1.00  0.00     0.184 HD
BRANCH  27  29
HETATM   29  C   UNL     1     -11.128   0.833 -33.458  1.00  0.00     0.049 A 
HETATM   30  C   UNL     1     -12.423   0.292 -33.496  1.00  0.00     0.030 A 
HETATM   31  C   UNL     1     -13.412   0.844 -34.315  1.00  0.00     0.002 A 
HETATM   32  C   UNL     1     -13.120   1.945 -35.115  1.00  0.00     0.000 A 
HETATM   33  C   UNL     1     -11.836   2.484 -35.103  1.00  0.00     0.002 A 
HETATM   34  C   UNL     1     -10.846   1.922 -34.292  1.00  0.00     0.030 A 
ENDBRANCH  27  29
ENDBRANCH   3  27
BRANCH   5  35
HETATM   35  N   UNL     1      -5.996  -0.893 -34.237  1.00  0.00    -0.187 N 
HETATM   36  H   UNL     1      -5.729  -0.327 -35.030  1.00  0.00     0.184 HD
BRANCH  35  37
HETATM   37  C   UNL     1      -5.680  -2.255 -34.311  1.00  0.00     0.049 A 
HETATM   38  C   UNL     1      -4.425  -2.771 -33.965  1.00  0.00     0.030 A 
HETATM   39  C   UNL     1      -4.140  -4.134 -34.096  1.00  0.00     0.002 A 
HETATM   40  C   UNL     1      -5.104  -5.002 -34.600  1.00  0.00     0.000 A 
HETATM   41  C   UNL     1      -6.352  -4.506 -34.969  1.00  0.00     0.002 A 
HETATM   42  C   UNL     1      -6.634  -3.145 -34.825  1.00  0.00     0.030 A 
ENDBRANCH  35  37
ENDBRANCH   5  35
TORSDOF 9
ENDMDL
MODEL 10
REMARK VINA RESULT:      -9.6      3.397     10.001
REMARK  9 active torsions:
REMARK  status: ('A' for Active; 'I' for Inactive)
REMARK    1  A    between atoms: C_5  and  C_6 
REMARK    2  A    between atoms: C_6  and  N_7 
REMARK       I    between atoms: N_7  and  C_8 
REMARK    3  A    between atoms: C_8  and  C_9 
REMARK    4  A    between atoms: C_9  and  N_10 
REMARK    5  A    between atoms: N_14  and  C_15 
REMARK    6  A    between atoms: C_17  and  N_18 
REMARK    7  A    between atoms: N_18  and  C_19 
REMARK    8  A    between atoms: C_26  and  N_27 
REMARK    9  A    between atoms: N_27  and  C_28 
ROOT
HETATM    1  C   UNL     1      -6.253   3.547 -31.079  1.00  0.00     0.756 A 
HETATM    2  N   UNL     1      -6.603   2.274 -31.128  1.00  0.00     0.131 NA
HETATM    3  C   UNL     1      -5.646   1.401 -31.424  1.00  0.00     0.758 A 
HETATM    4  N   UNL     1      -4.392   1.743 -31.684  1.00  0.00     0.131 NA
HETATM    5  C   UNL     1      -4.101   3.027 -31.530  1.00  0.00     0.758 A 
HETATM    6  N   UNL     1      -5.002   3.949 -31.209  1.00  0.00     0.131 NA
ENDROOT
BRANCH   1   7
HETATM    7  N   UNL     1      -7.235   4.503 -30.915  1.00  0.00    -0.210 N 
HETATM    8  C   UNL     1      -8.641   4.119 -31.031  1.00  0.00     0.169 C 
HETATM    9  C   UNL     1      -9.267   4.768 -32.286  1.00  0.00     0.256 C 
HETATM   10  N   UNL     1      -9.034   6.281 -32.237  1.00  0.00    -0.060 N 
HETATM   11  H   UNL     1      -9.393   6.594 -31.327  1.00  0.00     0.280 HD
HETATM   12  C   UNL     1      -7.527   6.578 -32.224  1.00  0.00     0.256 C 
HETATM   13  C   UNL     1      -6.891   5.925 -30.979  1.00  0.00     0.169 C 
BRANCH  10  14
HETATM   14  C   UNL     1      -9.812   7.056 -33.290  1.00  0.00     0.337 C 
BRANCH  14  15
HETATM   15  C   UNL     1     -10.393   6.248 -34.456  1.00  0.00     0.243 C 
HETATM   16  N   UNL     1     -11.757   6.074 -34.389  1.00  0.00    -0.355 N 
HETATM   17  H   UNL     1     -12.271   6.292 -33.545  1.00  0.00     0.162 HD
HETATM   18  O   UNL     1      -9.694   5.829 -35.373  1.00  0.00    -0.272 OA
BRANCH  16  19
HETATM   19  C   UNL     1     -12.485   5.331 -35.400  1.00  0.00     0.161 C 
BRANCH  19  20
HETATM   20  C   UNL     1     -12.726   3.907 -34.974  1.00  0.00    -0.041 A 
HETATM   21  C   UNL     1     -12.313   2.835 -35.777  1.00  0.00     0.009 A 
HETATM   22  C   UNL     1     -12.503   1.516 -35.354  1.00  0.00     0.007 A 
HETATM   23  C   UNL     1     -13.112   1.246 -34.124  1.00  0.00    -0.062 A 
HETATM   24  C   UNL     1     -13.247  -0.168 -33.636  1.00  0.00     0.048 C 
HETATM   25  C   UNL     1     -13.521   2.314 -33.320  1.00  0.00     0.007 A 
HETATM   26  C   UNL     1     -13.340   3.632 -33.745  1.00  0.00     0.009 A 
ENDBRANCH  19  20
ENDBRANCH  16  19
ENDBRANCH  14  15
ENDBRANCH  10  14
ENDBRANCH   1   7
BRANCH   3  27
HETATM   27  N   UNL     1      -5.943   0.043 -31.534  1.00  0.00    -0.187 N 
HETATM   28  H   UNL     1      -6.643  -0.212 -30.847  1.00  0.00     0.184 HD
BRANCH  27  29
HETATM   29  C   UNL     1      -5.874  -0.822 -32.637  1.00  0.00     0.049 A 
HETATM   30  C   UNL     1      -4.670  -1.499 -32.884  1.00  0.00     0.030 A 
HETATM   31  C   UNL     1      -4.535  -2.357 -33.979  1.00  0.00     0.002 A 
HETATM   32  C   UNL     1      -5.604  -2.548 -34.849  1.00  0.00     0.000 A 
HETATM   33  C   UNL     1      -6.801  -1.872 -34.629  1.00  0.00     0.002 A 
HETATM   34  C   UNL     1      -6.928  -1.005 -33.540  1.00  0.00     0.030 A 
ENDBRANCH  27  29
ENDBRANCH   3  27
BRANCH   5  35
HETATM   35  N   UNL     1      -2.780   3.387 -31.784  1.00  0.00    -0.187 N 
HETATM   36  H   UNL     1      -2.139   2.780 -31.293  1.00  0.00     0.184 HD
BRANCH  35  37
HETATM   37  C   UNL     1      -2.215   4.482 -32.448  1.00  0.00     0.049 A 
HETATM   38  C   UNL     1      -2.137   4.576 -33.843  1.00  0.00     0.030 A 
HETATM   39  C   UNL     1      -1.524   5.670 -34.463  1.00  0.00     0.002 A 
HETATM   40  C   UNL     1      -0.956   6.679 -33.692  1.00  0.00     0.000 A 
HETATM   41  C   UNL     1      -1.004   6.595 -32.303  1.00  0.00     0.002 A 
HETATM   42  C   UNL     1      -1.628   5.505 -31.690  1.00  0.00     0.030 A 
ENDBRANCH  35  37
ENDBRANCH   5  35
TORSDOF 9
ENDMDL
