MODEL 1
REMARK VINA RESULT:      -8.7      0.000      0.000
REMARK  4 active torsions:
REMARK  status: ('A' for Active; 'I' for Inactive)
REMARK    1  A    between atoms: O_2  and  C_3 
REMARK    2  A    between atoms: C_5  and  C_6 
REMARK    3  A    between atoms: C_10  and  N_11 
REMARK    4  A    between atoms: C_14  and  C_15 
ROOT
HETATM    1  C   UNL     1      -4.891   0.282 -33.147  1.00  0.00     0.164 C 
HETATM    2  N   UNL     1      -6.055   0.642 -32.341  1.00  0.00    -0.074 N 
HETATM    3  C   UNL     1      -6.223   1.866 -31.745  1.00  0.00     0.736 C 
HETATM    4  N   UNL     1      -7.416   1.924 -31.216  1.00  0.00     0.131 NA
HETATM    5  C   UNL     1      -7.959   0.719 -31.550  1.00  0.00     0.753 C 
HETATM    6  N   UNL     1      -7.197  -0.071 -32.302  1.00  0.00     0.037 NA
HETATM    7  N   UNL     1      -5.255   2.806 -31.784  1.00  0.00    -0.214 N 
HETATM    8  C   UNL     1      -4.224   2.694 -32.809  1.00  0.00     0.135 C 
HETATM    9  C   UNL     1      -3.720   1.244 -32.868  1.00  0.00     0.063 C 
HETATM   10  H   UNL     1      -5.548   3.754 -31.558  1.00  0.00     0.178 HD
ENDROOT
BRANCH   1  11
HETATM   11  C   UNL     1      -4.416  -1.156 -32.973  1.00  0.00    -0.030 A 
HETATM   12  C   UNL     1      -4.857  -2.131 -33.892  1.00  0.00     0.046 A 
HETATM   13  C   UNL     1      -4.397  -3.448 -33.818  1.00  0.00     0.068 A 
HETATM   14  C   UNL     1      -3.502  -3.803 -32.810  1.00  0.00     0.037 A 
HETATM   15  C   UNL     1      -3.051  -2.851 -31.896  1.00  0.00     0.003 A 
HETATM   16  C   UNL     1      -3.496  -1.533 -31.983  1.00  0.00     0.009 A 
BRANCH  13  17
HETATM   17  O   UNL     1      -4.742  -4.468 -34.662  1.00  0.00    -0.356 OA
HETATM   18  C   UNL     1      -6.067  -4.458 -35.178  1.00  0.00     0.210 C 
ENDBRANCH  13  17
ENDBRANCH   1  11
BRANCH   8  19
HETATM   19  C   UNL     1      -3.075   3.644 -32.525  1.00  0.00    -0.035 A 
HETATM   20  C   UNL     1      -2.421   4.339 -33.557  1.00  0.00     0.010 A 
HETATM   21  C   UNL     1      -1.393   5.240 -33.271  1.00  0.00     0.019 A 
HETATM   22  C   UNL     1      -1.016   5.461 -31.948  1.00  0.00     0.011 A 
HETATM   23 BR   UNL     1       0.368   6.688 -31.559  1.00  0.00    -0.051 Br
HETATM   24  C   UNL     1      -1.655   4.788 -30.911  1.00  0.00     0.019 A 
HETATM   25  C   UNL     1      -2.681   3.883 -31.198  1.00  0.00     0.010 A 
ENDBRANCH   8  19
BRANCH   5  26
HETATM   26  N   UNL     1      -9.202   0.451 -31.160  1.00  0.00    -0.229 N 
HETATM   27  H   UNL     1      -9.404  -0.504 -30.904  1.00  0.00     0.174 HD
HETATM   28  H   UNL     1      -9.671   1.155 -30.609  1.00  0.00     0.174 HD
ENDBRANCH   5  26
TORSDOF 4
ENDMDL
MODEL 2
REMARK VINA RESULT:      -8.6      3.887      7.248
REMARK  4 active torsions:
REMARK  status: ('A' for Active; 'I' for Inactive)
REMARK    1  A    between atoms: O_2  and  C_3 
REMARK    2  A    between atoms: C_5  and  C_6 
REMARK    3  A    between atoms: C_10  and  N_11 
REMARK    4  A    between atoms: C_14  and  C_15 
ROOT
HETATM    1  C   UNL     1      -3.812   2.649 -31.406  1.00  0.00     0.164 C 
HETATM    2  N   UNL     1      -5.078   3.153 -30.876  1.00  0.00    -0.074 N 
HETATM    3  C   UNL     1      -6.253   2.445 -30.901  1.00  0.00     0.736 C 
HETATM    4  N   UNL     1      -7.163   3.105 -30.235  1.00  0.00     0.131 NA
HETATM    5  C   UNL     1      -6.483   4.197 -29.785  1.00  0.00     0.753 C 
HETATM    6  N   UNL     1      -5.187   4.236 -30.085  1.00  0.00     0.037 NA
HETATM    7  N   UNL     1      -6.340   1.248 -31.519  1.00  0.00    -0.214 N 
HETATM    8  C   UNL     1      -5.108   0.513 -31.778  1.00  0.00     0.135 C 
HETATM    9  C   UNL     1      -4.058   1.469 -32.365  1.00  0.00     0.063 C 
HETATM   10  H   UNL     1      -7.146   0.679 -31.272  1.00  0.00     0.178 HD
ENDROOT
BRANCH   1  11
HETATM   11  C   UNL     1      -2.951   3.696 -32.101  1.00  0.00    -0.030 A 
HETATM   12  C   UNL     1      -1.867   4.259 -31.396  1.00  0.00     0.046 A 
HETATM   13  C   UNL     1      -1.005   5.171 -32.011  1.00  0.00     0.068 A 
HETATM   14  C   UNL     1      -1.234   5.539 -33.336  1.00  0.00     0.037 A 
HETATM   15  C   UNL     1      -2.298   4.988 -34.050  1.00  0.00     0.003 A 
HETATM   16  C   UNL     1      -3.145   4.064 -33.441  1.00  0.00     0.009 A 
BRANCH  13  17
HETATM   17  O   UNL     1       0.082   5.765 -31.431  1.00  0.00    -0.356 OA
HETATM   18  C   UNL     1       0.467   5.293 -30.146  1.00  0.00     0.210 C 
ENDBRANCH  13  17
ENDBRANCH   1  11
BRANCH   8  19
HETATM   19  C   UNL     1      -5.359  -0.646 -32.726  1.00  0.00    -0.035 A 
HETATM   20  C   UNL     1      -4.331  -1.529 -33.099  1.00  0.00     0.010 A 
HETATM   21  C   UNL     1      -4.591  -2.614 -33.939  1.00  0.00     0.019 A 
HETATM   22  C   UNL     1      -5.886  -2.830 -34.406  1.00  0.00     0.011 A 
HETATM   23 BR   UNL     1      -6.242  -4.304 -35.535  1.00  0.00    -0.051 Br
HETATM   24  C   UNL     1      -6.920  -1.972 -34.042  1.00  0.00     0.019 A 
HETATM   25  C   UNL     1      -6.657  -0.885 -33.205  1.00  0.00     0.010 A 
ENDBRANCH   8  19
BRANCH   5  26
HETATM   26  N   UNL     1      -7.134   5.092 -29.048  1.00  0.00    -0.229 N 
HETATM   27  H   UNL     1      -6.603   5.566 -28.332  1.00  0.00     0.174 HD
HETATM   28  H   UNL     1      -7.828   5.656 -29.517  1.00  0.00     0.174 HD
ENDBRANCH   5  26
TORSDOF 4
ENDMDL
MODEL 3
REMARK VINA RESULT:      -8.4      4.762      7.551
REMARK  4 active torsions:
REMARK  status: ('A' for Active; 'I' for Inactive)
REMARK    1  A    between atoms: O_2  and  C_3 
REMARK    2  A    between atoms: C_5  and  C_6 
REMARK    3  A    between atoms: C_10  and  N_11 
REMARK    4  A    between atoms: C_14  and  C_15 
ROOT
HETATM    1  C   UNL     1      -8.871   2.385 -33.997  1.00  0.00     0.164 C 
HETATM    2  N   UNL     1      -8.629   2.800 -32.617  1.00  0.00    -0.074 N 
HETATM    3  C   UNL     1      -7.685   2.231 -31.801  1.00  0.00     0.736 C 
HETATM    4  N   UNL     1      -7.620   2.907 -30.685  1.00  0.00     0.131 NA
HETATM    5  C   UNL     1      -8.521   3.911 -30.882  1.00  0.00     0.753 C 
HETATM    6  N   UNL     1      -9.110   3.935 -32.075  1.00  0.00     0.037 NA
HETATM    7  N   UNL     1      -6.966   1.159 -32.198  1.00  0.00    -0.214 N 
HETATM    8  C   UNL     1      -6.880   0.877 -33.626  1.00  0.00     0.135 C 
HETATM    9  C   UNL     1      -8.277   0.986 -34.253  1.00  0.00     0.063 C 
HETATM   10  H   UNL     1      -6.124   0.966 -31.661  1.00  0.00     0.178 HD
ENDROOT
BRANCH   1  11
HETATM   11  C   UNL     1     -10.335   2.398 -34.419  1.00  0.00    -0.030 A 
HETATM   12  C   UNL     1     -11.160   1.320 -34.037  1.00  0.00     0.046 A 
HETATM   13  C   UNL     1     -12.524   1.317 -34.340  1.00  0.00     0.068 A 
HETATM   14  C   UNL     1     -13.070   2.391 -35.043  1.00  0.00     0.037 A 
HETATM   15  C   UNL     1     -12.270   3.468 -35.424  1.00  0.00     0.003 A 
HETATM   16  C   UNL     1     -10.913   3.478 -35.105  1.00  0.00     0.009 A 
BRANCH  13  17
HETATM   17  O   UNL     1     -13.419   0.338 -34.007  1.00  0.00    -0.356 OA
HETATM   18  C   UNL     1     -14.796   0.623 -34.216  1.00  0.00     0.210 C 
ENDBRANCH  13  17
ENDBRANCH   1  11
BRANCH   8  19
HETATM   19  C   UNL     1      -6.296  -0.504 -33.869  1.00  0.00    -0.035 A 
HETATM   20  C   UNL     1      -4.979  -0.823 -33.497  1.00  0.00     0.010 A 
HETATM   21  C   UNL     1      -4.474  -2.111 -33.691  1.00  0.00     0.019 A 
HETATM   22  C   UNL     1      -5.287  -3.094 -34.250  1.00  0.00     0.011 A 
HETATM   23 BR   UNL     1      -4.610  -4.841 -34.504  1.00  0.00    -0.051 Br
HETATM   24  C   UNL     1      -6.597  -2.801 -34.619  1.00  0.00     0.019 A 
HETATM   25  C   UNL     1      -7.100  -1.511 -34.428  1.00  0.00     0.010 A 
ENDBRANCH   8  19
BRANCH   5  26
HETATM   26  N   UNL     1      -8.698   4.805 -29.913  1.00  0.00    -0.229 N 
HETATM   27  H   UNL     1      -8.340   5.734 -30.078  1.00  0.00     0.174 HD
HETATM   28  H   UNL     1      -9.569   4.762 -29.403  1.00  0.00     0.174 HD
ENDBRANCH   5  26
TORSDOF 4
ENDMDL
MODEL 4
REMARK VINA RESULT:      -8.4      1.635      2.576
REMARK  4 active torsions:
REMARK  status: ('A' for Active; 'I' for Inactive)
REMARK    1  A    between atoms: O_2  and  C_3 
REMARK    2  A    between atoms: C_5  and  C_6 
REMARK    3  A    between atoms: C_10  and  N_11 
REMARK    4  A    between atoms: C_14  and  C_15 
ROOT
HETATM    1  C   UNL     1      -6.176   2.300 -33.245  1.00  0.00     0.164 C 
HETATM    2  N   UNL     1      -7.078   2.521 -32.117  1.00  0.00    -0.074 N 
HETATM    3  C   UNL     1      -6.850   3.442 -31.126  1.00  0.00     0.736 C 
HETATM    4  N   UNL     1      -7.896   3.496 -30.344  1.00  0.00     0.131 NA
HETATM    5  C   UNL     1      -8.758   2.613 -30.924  1.00  0.00     0.753 C 
HETATM    6  N   UNL     1      -8.336   2.048 -32.052  1.00  0.00     0.037 NA
HETATM    7  N   UNL     1      -5.703   4.152 -31.075  1.00  0.00    -0.214 N 
HETATM    8  C   UNL     1      -4.904   4.262 -32.290  1.00  0.00     0.135 C 
HETATM    9  C   UNL     1      -4.779   2.878 -32.944  1.00  0.00     0.063 C 
HETATM   10  H   UNL     1      -5.721   4.981 -30.485  1.00  0.00     0.178 HD
ENDROOT
BRANCH   1  11
HETATM   11  C   UNL     1      -6.039   0.845 -33.676  1.00  0.00    -0.030 A 
HETATM   12  C   UNL     1      -5.073   0.038 -33.039  1.00  0.00     0.046 A 
HETATM   13  C   UNL     1      -4.954  -1.320 -33.348  1.00  0.00     0.068 A 
HETATM   14  C   UNL     1      -5.794  -1.876 -34.312  1.00  0.00     0.037 A 
HETATM   15  C   UNL     1      -6.759  -1.095 -34.947  1.00  0.00     0.003 A 
HETATM   16  C   UNL     1      -6.889   0.255 -34.624  1.00  0.00     0.009 A 
BRANCH  13  17
HETATM   17  O   UNL     1      -4.069  -2.197 -32.785  1.00  0.00    -0.356 OA
HETATM   18  C   UNL     1      -3.077  -1.650 -31.925  1.00  0.00     0.210 C 
ENDBRANCH  13  17
ENDBRANCH   1  11
BRANCH   8  19
HETATM   19  C   UNL     1      -3.531   4.829 -31.983  1.00  0.00    -0.035 A 
HETATM   20  C   UNL     1      -2.417   4.541 -32.791  1.00  0.00     0.010 A 
HETATM   21  C   UNL     1      -1.169   5.107 -32.516  1.00  0.00     0.019 A 
HETATM   22  C   UNL     1      -1.027   5.973 -31.435  1.00  0.00     0.011 A 
HETATM   23 BR   UNL     1       0.657   6.748 -31.068  1.00  0.00    -0.051 Br
HETATM   24  C   UNL     1      -2.119   6.278 -30.627  1.00  0.00     0.019 A 
HETATM   25  C   UNL     1      -3.366   5.709 -30.901  1.00  0.00     0.010 A 
ENDBRANCH   8  19
BRANCH   5  26
HETATM   26  N   UNL     1      -9.951   2.431 -30.366  1.00  0.00    -0.229 N 
HETATM   27  H   UNL     1      -9.969   2.269 -29.370  1.00  0.00     0.174 HD
HETATM   28  H   UNL     1     -10.716   2.982 -30.729  1.00  0.00     0.174 HD
ENDBRANCH   5  26
TORSDOF 4
ENDMDL
MODEL 5
REMARK VINA RESULT:      -8.3      3.924      7.359
REMARK  4 active torsions:
REMARK  status: ('A' for Active; 'I' for Inactive)
REMARK    1  A    between atoms: O_2  and  C_3 
REMARK    2  A    between atoms: C_5  and  C_6 
REMARK    3  A    between atoms: C_10  and  N_11 
REMARK    4  A    between atoms: C_14  and  C_15 
ROOT
HETATM    1  C   UNL     1      -4.253   3.495 -32.068  1.00  0.00     0.164 C 
HETATM    2  N   UNL     1      -5.466   3.849 -32.801  1.00  0.00    -0.074 N 
HETATM    3  C   UNL     1      -6.318   2.928 -33.358  1.00  0.00     0.736 C 
HETATM    4  N   UNL     1      -7.371   3.547 -33.821  1.00  0.00     0.131 NA
HETATM    5  C   UNL     1      -7.135   4.848 -33.488  1.00  0.00     0.753 C 
HETATM    6  N   UNL     1      -6.021   5.075 -32.797  1.00  0.00     0.037 NA
HETATM    7  N   UNL     1      -6.033   1.609 -33.348  1.00  0.00    -0.214 N 
HETATM    8  C   UNL     1      -5.055   1.121 -32.382  1.00  0.00     0.135 C 
HETATM    9  C   UNL     1      -3.830   2.048 -32.384  1.00  0.00     0.063 C 
HETATM   10  H   UNL     1      -6.815   0.985 -33.534  1.00  0.00     0.178 HD
ENDROOT
BRANCH   1  11
HETATM   11  C   UNL     1      -3.072   4.430 -32.302  1.00  0.00    -0.030 A 
HETATM   12  C   UNL     1      -2.548   5.147 -31.206  1.00  0.00     0.046 A 
HETATM   13  C   UNL     1      -1.424   5.964 -31.353  1.00  0.00     0.068 A 
HETATM   14  C   UNL     1      -0.824   6.080 -32.606  1.00  0.00     0.037 A 
HETATM   15  C   UNL     1      -1.325   5.374 -33.699  1.00  0.00     0.003 A 
HETATM   16  C   UNL     1      -2.435   4.545 -33.547  1.00  0.00     0.009 A 
BRANCH  13  17
HETATM   17  O   UNL     1      -0.823   6.689 -30.361  1.00  0.00    -0.356 OA
HETATM   18  C   UNL     1      -1.663   7.189 -29.328  1.00  0.00     0.210 C 
ENDBRANCH  13  17
ENDBRANCH   1  11
BRANCH   8  19
HETATM   19  C   UNL     1      -4.643  -0.304 -32.703  1.00  0.00    -0.035 A 
HETATM   20  C   UNL     1      -3.746  -1.013 -31.887  1.00  0.00     0.010 A 
HETATM   21  C   UNL     1      -3.411  -2.338 -32.176  1.00  0.00     0.019 A 
HETATM   22  C   UNL     1      -3.980  -2.968 -33.281  1.00  0.00     0.011 A 
HETATM   23 BR   UNL     1      -3.537  -4.765 -33.668  1.00  0.00    -0.051 Br
HETATM   24  C   UNL     1      -4.877  -2.286 -34.098  1.00  0.00     0.019 A 
HETATM   25  C   UNL     1      -5.208  -0.959 -33.809  1.00  0.00     0.010 A 
ENDBRANCH   8  19
BRANCH   5  26
HETATM   26  N   UNL     1      -8.042   5.763 -33.818  1.00  0.00    -0.229 N 
HETATM   27  H   UNL     1      -8.438   6.305 -33.064  1.00  0.00     0.174 HD
HETATM   28  H   UNL     1      -7.892   6.267 -34.680  1.00  0.00     0.174 HD
ENDBRANCH   5  26
TORSDOF 4
ENDMDL
MODEL 6
REMARK VINA RESULT:      -8.2      4.371      6.855
REMARK  4 active torsions:
REMARK  status: ('A' for Active; 'I' for Inactive)
REMARK    1  A    between atoms: O_2  and  C_3 
REMARK    2  A    between atoms: C_5  and  C_6 
REMARK    3  A    between atoms: C_10  and  N_11 
REMARK    4  A    between atoms: C_14  and  C_15 
ROOT
HETATM    1  C   UNL     1      -6.773   1.196 -32.566  1.00  0.00     0.164 C 
HETATM    2  N   UNL     1      -6.375   2.447 -33.207  1.00  0.00    -0.074 N 
HETATM    3  C   UNL     1      -7.262   3.359 -33.721  1.00  0.00     0.736 C 
HETATM    4  N   UNL     1      -6.608   4.425 -34.099  1.00  0.00     0.131 NA
HETATM    5  C   UNL     1      -5.321   4.133 -33.757  1.00  0.00     0.753 C 
HETATM    6  N   UNL     1      -5.136   2.969 -33.140  1.00  0.00     0.037 NA
HETATM    7  N   UNL     1      -8.588   3.108 -33.757  1.00  0.00    -0.214 N 
HETATM    8  C   UNL     1      -9.120   2.080 -32.870  1.00  0.00     0.135 C 
HETATM    9  C   UNL     1      -8.224   0.834 -32.940  1.00  0.00     0.063 C 
HETATM   10  H   UNL     1      -9.188   3.917 -33.901  1.00  0.00     0.178 HD
ENDROOT
BRANCH   1  11
HETATM   11  C   UNL     1      -5.863   0.011 -32.863  1.00  0.00    -0.030 A 
HETATM   12  C   UNL     1      -6.252  -0.909 -33.860  1.00  0.00     0.046 A 
HETATM   13  C   UNL     1      -5.421  -1.974 -34.218  1.00  0.00     0.068 A 
HETATM   14  C   UNL     1      -4.199  -2.135 -33.566  1.00  0.00     0.037 A 
HETATM   15  C   UNL     1      -3.796  -1.233 -32.583  1.00  0.00     0.003 A 
HETATM   16  C   UNL     1      -4.617  -0.160 -32.240  1.00  0.00     0.009 A 
BRANCH  13  17
HETATM   17  O   UNL     1      -5.687  -2.912 -35.177  1.00  0.00    -0.356 OA
HETATM   18  C   UNL     1      -6.686  -3.878 -34.875  1.00  0.00     0.210 C 
ENDBRANCH  13  17
ENDBRANCH   1  11
BRANCH   8  19
HETATM   19  C   UNL     1     -10.547   1.728 -33.247  1.00  0.00    -0.035 A 
HETATM   20  C   UNL     1     -10.992   0.395 -33.285  1.00  0.00     0.010 A 
HETATM   21  C   UNL     1     -12.321   0.094 -33.593  1.00  0.00     0.019 A 
HETATM   22  C   UNL     1     -13.219   1.126 -33.858  1.00  0.00     0.011 A 
HETATM   23 BR   UNL     1     -15.020   0.721 -34.265  1.00  0.00    -0.051 Br
HETATM   24  C   UNL     1     -12.801   2.453 -33.819  1.00  0.00     0.019 A 
HETATM   25  C   UNL     1     -11.470   2.752 -33.514  1.00  0.00     0.010 A 
ENDBRANCH   8  19
BRANCH   5  26
HETATM   26  N   UNL     1      -4.377   5.036 -34.005  1.00  0.00    -0.229 N 
HETATM   27  H   UNL     1      -4.054   5.586 -33.222  1.00  0.00     0.174 HD
HETATM   28  H   UNL     1      -3.667   4.785 -34.679  1.00  0.00     0.174 HD
ENDBRANCH   5  26
TORSDOF 4
ENDMDL
MODEL 7
REMARK VINA RESULT:      -8.0      4.920      7.749
REMARK  4 active torsions:
REMARK  status: ('A' for Active; 'I' for Inactive)
REMARK    1  A    between atoms: O_2  and  C_3 
REMARK    2  A    between atoms: C_5  and  C_6 
REMARK    3  A    between atoms: C_10  and  N_11 
REMARK    4  A    between atoms: C_14  and  C_15 
ROOT
HETATM    1  C   UNL     1      -8.858   2.252 -33.838  1.00  0.00     0.164 C 
HETATM    2  N   UNL     1      -8.533   2.694 -32.484  1.00  0.00    -0.074 N 
HETATM    3  C   UNL     1      -7.527   2.152 -31.724  1.00  0.00     0.736 C 
HETATM    4  N   UNL     1      -7.399   2.848 -30.626  1.00  0.00     0.131 NA
HETATM    5  C   UNL     1      -8.327   3.836 -30.778  1.00  0.00     0.753 C 
HETATM    6  N   UNL     1      -8.993   3.831 -31.930  1.00  0.00     0.037 NA
HETATM    7  N   UNL     1      -6.821   1.083 -32.150  1.00  0.00    -0.214 N 
HETATM    8  C   UNL     1      -6.824   0.778 -33.576  1.00  0.00     0.135 C 
HETATM    9  C   UNL     1      -8.262   0.857 -34.111  1.00  0.00     0.063 C 
HETATM   10  H   UNL     1      -5.942   0.911 -31.667  1.00  0.00     0.178 HD
ENDROOT
BRANCH   1  11
HETATM   11  C   UNL     1     -10.347   2.238 -34.163  1.00  0.00    -0.030 A 
HETATM   12  C   UNL     1     -10.897   3.329 -34.867  1.00  0.00     0.046 A 
HETATM   13  C   UNL     1     -12.241   3.334 -35.250  1.00  0.00     0.068 A 
HETATM   14  C   UNL     1     -13.050   2.249 -34.913  1.00  0.00     0.037 A 
HETATM   15  C   UNL     1     -12.522   1.159 -34.222  1.00  0.00     0.003 A 
HETATM   16  C   UNL     1     -11.176   1.147 -33.858  1.00  0.00     0.009 A 
BRANCH  13  17
HETATM   17  O   UNL     1     -12.874   4.325 -35.946  1.00  0.00    -0.356 OA
HETATM   18  C   UNL     1     -12.657   5.661 -35.509  1.00  0.00     0.210 C 
ENDBRANCH  13  17
ENDBRANCH   1  11
BRANCH   8  19
HETATM   19  C   UNL     1      -6.238  -0.598 -33.834  1.00  0.00    -0.035 A 
HETATM   20  C   UNL     1      -4.929  -0.928 -33.440  1.00  0.00     0.010 A 
HETATM   21  C   UNL     1      -4.423  -2.213 -33.650  1.00  0.00     0.019 A 
HETATM   22  C   UNL     1      -5.224  -3.182 -34.247  1.00  0.00     0.011 A 
HETATM   23 BR   UNL     1      -4.544  -4.924 -34.522  1.00  0.00    -0.051 Br
HETATM   24  C   UNL     1      -6.526  -2.879 -34.638  1.00  0.00     0.019 A 
HETATM   25  C   UNL     1      -7.030  -1.592 -34.431  1.00  0.00     0.010 A 
ENDBRANCH   8  19
BRANCH   5  26
HETATM   26  N   UNL     1      -8.453   4.744 -29.815  1.00  0.00    -0.229 N 
HETATM   27  H   UNL     1      -9.130   5.477 -29.965  1.00  0.00     0.174 HD
HETATM   28  H   UNL     1      -8.373   4.416 -28.863  1.00  0.00     0.174 HD
ENDBRANCH   5  26
TORSDOF 4
ENDMDL
MODEL 8
REMARK VINA RESULT:      -7.9     16.105     18.258
REMARK  4 active torsions:
REMARK  status: ('A' for Active; 'I' for Inactive)
REMARK    1  A    between atoms: O_2  and  C_3 
REMARK    2  A    between atoms: C_5  and  C_6 
REMARK    3  A    between atoms: C_10  and  N_11 
REMARK    4  A    between atoms: C_14  and  C_15 
ROOT
HETATM    1  C   UNL     1      -6.993 -12.909 -40.226  1.00  0.00     0.164 C 
HETATM    2  N   UNL     1      -6.452 -13.339 -38.938  1.00  0.00    -0.074 N 
HETATM    3  C   UNL     1      -5.270 -14.021 -38.796  1.00  0.00     0.736 C 
HETATM    4  N   UNL     1      -4.995 -14.139 -37.524  1.00  0.00     0.131 NA
HETATM    5  C   UNL     1      -6.024 -13.475 -36.925  1.00  0.00     0.753 C 
HETATM    6  N   UNL     1      -6.900 -12.903 -37.747  1.00  0.00     0.037 NA
HETATM    7  N   UNL     1      -4.562 -14.435 -39.869  1.00  0.00    -0.214 N 
HETATM    8  C   UNL     1      -4.817 -13.793 -41.153  1.00  0.00     0.135 C 
HETATM    9  C   UNL     1      -6.333 -13.689 -41.379  1.00  0.00     0.063 C 
HETATM   10  H   UNL     1      -3.594 -14.689 -39.690  1.00  0.00     0.178 HD
ENDROOT
BRANCH   1  11
HETATM   11  C   UNL     1      -8.509 -13.016 -40.346  1.00  0.00    -0.030 A 
HETATM   12  C   UNL     1      -9.085 -14.288 -40.545  1.00  0.00     0.046 A 
HETATM   13  C   UNL     1     -10.472 -14.449 -40.593  1.00  0.00     0.068 A 
HETATM   14  C   UNL     1     -11.294 -13.330 -40.458  1.00  0.00     0.037 A 
HETATM   15  C   UNL     1     -10.742 -12.066 -40.255  1.00  0.00     0.003 A 
HETATM   16  C   UNL     1      -9.358 -11.910 -40.188  1.00  0.00     0.009 A 
BRANCH  13  17
HETATM   17  O   UNL     1     -11.138 -15.631 -40.765  1.00  0.00    -0.356 OA
HETATM   18  C   UNL     1     -11.758 -15.846 -42.026  1.00  0.00     0.210 C 
ENDBRANCH  13  17
ENDBRANCH   1  11
BRANCH   8  19
HETATM   19  C   UNL     1      -4.165 -14.568 -42.283  1.00  0.00    -0.035 A 
HETATM   20  C   UNL     1      -3.106 -15.463 -42.048  1.00  0.00     0.010 A 
HETATM   21  C   UNL     1      -2.547 -16.199 -43.095  1.00  0.00     0.019 A 
HETATM   22  C   UNL     1      -3.048 -16.052 -44.386  1.00  0.00     0.011 A 
HETATM   23 BR   UNL     1      -2.300 -17.055 -45.804  1.00  0.00    -0.051 Br
HETATM   24  C   UNL     1      -4.101 -15.177 -44.640  1.00  0.00     0.019 A 
HETATM   25  C   UNL     1      -4.657 -14.439 -43.591  1.00  0.00     0.010 A 
ENDBRANCH   8  19
BRANCH   5  26
HETATM   26  N   UNL     1      -6.044 -13.399 -35.597  1.00  0.00    -0.229 N 
HETATM   27  H   UNL     1      -6.308 -12.511 -35.195  1.00  0.00     0.174 HD
HETATM   28  H   UNL     1      -6.367 -14.214 -35.096  1.00  0.00     0.174 HD
ENDBRANCH   5  26
TORSDOF 4
ENDMDL
MODEL 9
REMARK VINA RESULT:      -7.8      2.024      2.738
REMARK  4 active torsions:
REMARK  status: ('A' for Active; 'I' for Inactive)
REMARK    1  A    between atoms: O_2  and  C_3 
REMARK    2  A    between atoms: C_5  and  C_6 
REMARK    3  A    between atoms: C_10  and  N_11 
REMARK    4  A    between atoms: C_14  and  C_15 
ROOT
HETATM    1  C   UNL     1      -6.394   0.866 -33.844  1.00  0.00     0.164 C 
HETATM    2  N   UNL     1      -7.730   0.840 -33.252  1.00  0.00    -0.074 N 
HETATM    3  C   UNL     1      -8.227   1.832 -32.445  1.00  0.00     0.736 C 
HETATM    4  N   UNL     1      -9.485   1.585 -32.190  1.00  0.00     0.131 NA
HETATM    5  C   UNL     1      -9.724   0.445 -32.900  1.00  0.00     0.753 C 
HETATM    6  N   UNL     1      -8.706  -0.008 -33.627  1.00  0.00     0.037 NA
HETATM    7  N   UNL     1      -7.462   2.873 -32.056  1.00  0.00    -0.214 N 
HETATM    8  C   UNL     1      -6.263   3.175 -32.829  1.00  0.00     0.135 C 
HETATM    9  C   UNL     1      -5.493   1.875 -33.106  1.00  0.00     0.063 C 
HETATM   10  H   UNL     1      -7.963   3.680 -31.691  1.00  0.00     0.178 HD
ENDROOT
BRANCH   1  11
HETATM   11  C   UNL     1      -5.697  -0.487 -33.902  1.00  0.00    -0.030 A 
HETATM   12  C   UNL     1      -4.653  -0.751 -32.991  1.00  0.00     0.046 A 
HETATM   13  C   UNL     1      -4.028  -2.000 -32.957  1.00  0.00     0.068 A 
HETATM   14  C   UNL     1      -4.435  -2.992 -33.849  1.00  0.00     0.037 A 
HETATM   15  C   UNL     1      -5.469  -2.751 -34.752  1.00  0.00     0.003 A 
HETATM   16  C   UNL     1      -6.104  -1.510 -34.773  1.00  0.00     0.009 A 
BRANCH  13  17
HETATM   17  O   UNL     1      -3.021  -2.371 -32.110  1.00  0.00    -0.356 OA
HETATM   18  C   UNL     1      -2.951  -3.746 -31.753  1.00  0.00     0.210 C 
ENDBRANCH  13  17
ENDBRANCH   1  11
BRANCH   8  19
HETATM   19  C   UNL     1      -5.381   4.167 -32.093  1.00  0.00    -0.035 A 
HETATM   20  C   UNL     1      -3.990   3.984 -31.994  1.00  0.00     0.010 A 
HETATM   21  C   UNL     1      -3.190   4.930 -31.348  1.00  0.00     0.019 A 
HETATM   22  C   UNL     1      -3.774   6.071 -30.803  1.00  0.00     0.011 A 
HETATM   23 BR   UNL     1      -2.692   7.358 -29.938  1.00  0.00    -0.051 Br
HETATM   24  C   UNL     1      -5.148   6.275 -30.897  1.00  0.00     0.019 A 
HETATM   25  C   UNL     1      -5.948   5.326 -31.540  1.00  0.00     0.010 A 
ENDBRANCH   8  19
BRANCH   5  26
HETATM   26  N   UNL     1     -10.944  -0.083 -32.862  1.00  0.00    -0.229 N 
HETATM   27  H   UNL     1     -11.105  -0.809 -32.180  1.00  0.00     0.174 HD
HETATM   28  H   UNL     1     -11.720   0.544 -33.019  1.00  0.00     0.174 HD
ENDBRANCH   5  26
TORSDOF 4
ENDMDL
MODEL 10
REMARK VINA RESULT:      -7.7      4.515      7.513
REMARK  4 active torsions:
REMARK  status: ('A' for Active; 'I' for Inactive)
REMARK    1  A    between atoms: O_2  and  C_3 
REMARK    2  A    between atoms: C_5  and  C_6 
REMARK    3  A    between atoms: C_10  and  N_11 
REMARK    4  A    between atoms: C_14  and  C_15 
ROOT
HETATM    1  C   UNL     1      -6.813   3.180 -33.125  1.00  0.00     0.164 C 
HETATM    2  N   UNL     1      -6.369   3.197 -31.733  1.00  0.00    -0.074 N 
HETATM    3  C   UNL     1      -5.707   2.158 -31.130  1.00  0.00     0.736 C 
HETATM    4  N   UNL     1      -5.328   2.529 -29.936  1.00  0.00     0.131 NA
HETATM    5  C   UNL     1      -5.749   3.824 -29.868  1.00  0.00     0.753 C 
HETATM    6  N   UNL     1      -6.323   4.303 -30.968  1.00  0.00     0.037 NA
HETATM    7  N   UNL     1      -5.503   0.987 -31.770  1.00  0.00    -0.214 N 
HETATM    8  C   UNL     1      -5.596   0.970 -33.225  1.00  0.00     0.135 C 
HETATM    9  C   UNL     1      -6.851   1.738 -33.665  1.00  0.00     0.063 C 
HETATM   10  H   UNL     1      -4.793   0.380 -31.368  1.00  0.00     0.178 HD
ENDROOT
BRANCH   1  11
HETATM   11  C   UNL     1      -8.159   3.849 -33.372  1.00  0.00    -0.030 A 
HETATM   12  C   UNL     1      -9.335   3.157 -33.014  1.00  0.00     0.046 A 
HETATM   13  C   UNL     1     -10.591   3.752 -33.156  1.00  0.00     0.068 A 
HETATM   14  C   UNL     1     -10.679   5.044 -33.674  1.00  0.00     0.037 A 
HETATM   15  C   UNL     1      -9.527   5.745 -34.028  1.00  0.00     0.003 A 
HETATM   16  C   UNL     1      -8.274   5.157 -33.868  1.00  0.00     0.009 A 
BRANCH  13  17
HETATM   17  O   UNL     1     -11.791   3.184 -32.828  1.00  0.00    -0.356 OA
HETATM   18  C   UNL     1     -12.912   3.534 -33.631  1.00  0.00     0.210 C 
ENDBRANCH  13  17
ENDBRANCH   1  11
BRANCH   8  19
HETATM   19  C   UNL     1      -5.635  -0.455 -33.746  1.00  0.00    -0.035 A 
HETATM   20  C   UNL     1      -4.498  -1.280 -33.723  1.00  0.00     0.010 A 
HETATM   21  C   UNL     1      -4.565  -2.602 -34.170  1.00  0.00     0.019 A 
HETATM   22  C   UNL     1      -5.775  -3.113 -34.635  1.00  0.00     0.011 A 
HETATM   23 BR   UNL     1      -5.871  -4.905 -35.230  1.00  0.00    -0.051 Br
HETATM   24  C   UNL     1      -6.915  -2.315 -34.660  1.00  0.00     0.019 A 
HETATM   25  C   UNL     1      -6.845  -0.991 -34.216  1.00  0.00     0.010 A 
ENDBRANCH   8  19
BRANCH   5  26
HETATM   26  N   UNL     1      -5.508   4.513 -28.757  1.00  0.00    -0.229 N 
HETATM   27  H   UNL     1      -4.605   4.958 -28.683  1.00  0.00     0.174 HD
HETATM   28  H   UNL     1      -6.280   5.032 -28.363  1.00  0.00     0.174 HD
ENDBRANCH   5  26
TORSDOF 4
ENDMDL
