MODEL 1
REMARK VINA RESULT:      -8.7      0.000      0.000
REMARK  9 active torsions:
REMARK  status: ('A' for Active; 'I' for Inactive)
REMARK    1  A    between atoms: C_2  and  C_3 
REMARK    2  A    between atoms: C_4  and  N_5 
REMARK    3  A    between atoms: C_6  and  S_7 
REMARK    4  A    between atoms: S_7  and  C_8 
REMARK    5  A    between atoms: C_8  and  C_9 
REMARK       I    between atoms: C_9  and  N_10 
REMARK    6  A    between atoms: N_10  and  C_11 
REMARK    7  A    between atoms: C_12  and  O_13 
REMARK    8  A    between atoms: C_16  and  O_17 
REMARK    9  A    between atoms: C_26  and  N_27 
ROOT
HETATM    1  N   UNL     1      -9.059   1.250 -33.236  1.00  0.00    -0.275 N 
HETATM    2  C   UNL     1      -8.899   2.444 -33.990  1.00  0.00     0.177 A 
HETATM    3  N   UNL     1      -9.822   3.015 -34.725  1.00  0.00    -0.204 NA
HETATM    4  C   UNL     1     -11.029   2.408 -34.653  1.00  0.00     0.162 A 
HETATM    5  C   UNL     1     -11.389   1.273 -33.975  1.00  0.00     0.081 A 
HETATM    6  C   UNL     1     -10.357   0.595 -33.250  1.00  0.00     0.124 A 
HETATM    7  N   UNL     1     -12.188   2.876 -35.201  1.00  0.00    -0.260 N 
HETATM    8  H   UNL     1     -12.327   3.724 -35.740  1.00  0.00     0.191 HD
HETATM    9  N   UNL     1     -13.254   2.089 -34.937  1.00  0.00    -0.177 NA
HETATM   10  C   UNL     1     -12.770   1.113 -34.154  1.00  0.00     0.068 A 
HETATM   11  C   UNL     1     -13.694   0.094 -33.603  1.00  0.00     0.073 C 
ENDROOT
BRANCH   2  12
HETATM   12  S   UNL     1      -7.353   3.311 -33.915  1.00  0.00    -0.082 SA
BRANCH  12  13
HETATM   13  C   UNL     1      -7.580   4.335 -32.443  1.00  0.00     0.185 C 
BRANCH  13  14
HETATM   14  C   UNL     1      -6.246   4.702 -31.810  1.00  0.00     0.232 C 
HETATM   15  N   UNL     1      -5.256   4.961 -32.744  1.00  0.00    -0.324 N 
HETATM   16  H   UNL     1      -5.477   4.719 -33.702  1.00  0.00     0.169 HD
HETATM   17  O   UNL     1      -6.097   4.652 -30.591  1.00  0.00    -0.272 OA
BRANCH  15  18
HETATM   18  C   UNL     1      -3.923   5.344 -32.475  1.00  0.00     0.070 A 
HETATM   19  C   UNL     1      -2.824   4.465 -32.488  1.00  0.00     0.097 A 
HETATM   20  C   UNL     1      -1.532   4.972 -32.272  1.00  0.00     0.077 A 
HETATM   21  C   UNL     1      -1.329   6.333 -32.017  1.00  0.00     0.092 A 
HETATM   22  C   UNL     1      -2.439   7.178 -31.916  1.00  0.00     0.069 A 
HETATM   23 CL   UNL     1      -2.266   8.856 -31.537  1.00  0.00    -0.081 Cl
HETATM   24  C   UNL     1      -3.726   6.688 -32.139  1.00  0.00     0.059 A 
BRANCH  19  25
HETATM   25  O   UNL     1      -3.097   3.125 -32.554  1.00  0.00    -0.354 OA
HETATM   26  C   UNL     1      -3.281   2.425 -31.332  1.00  0.00     0.210 C 
ENDBRANCH  19  25
BRANCH  21  27
HETATM   27  O   UNL     1      -0.093   6.878 -31.782  1.00  0.00    -0.354 OA
HETATM   28  C   UNL     1       0.428   6.688 -30.470  1.00  0.00     0.210 C 
ENDBRANCH  21  27
ENDBRANCH  15  18
ENDBRANCH  13  14
ENDBRANCH  12  13
ENDBRANCH   2  12
BRANCH   1  29
HETATM   29  C   UNL     1      -7.960   0.639 -32.557  1.00  0.00     0.049 A 
HETATM   30  C   UNL     1      -7.089  -0.257 -33.217  1.00  0.00    -0.031 A 
HETATM   31  C   UNL     1      -5.966  -0.742 -32.523  1.00  0.00     0.009 A 
HETATM   32  C   UNL     1      -5.714  -0.362 -31.204  1.00  0.00     0.001 A 
HETATM   33  C   UNL     1      -6.576   0.514 -30.555  1.00  0.00     0.002 A 
HETATM   34  C   UNL     1      -7.688   1.019 -31.229  1.00  0.00     0.031 A 
BRANCH  30  35
HETATM   35  C   UNL     1      -7.324  -0.738 -34.634  1.00  0.00     0.036 C 
HETATM   36  C   UNL     1      -6.557  -2.013 -34.958  1.00  0.00     0.010 C 
ENDBRANCH  30  35
ENDBRANCH   1  29
BRANCH   6  37
HETATM   37  N   UNL     1     -10.580  -0.564 -32.663  1.00  0.00    -0.384 N 
HETATM   38  H   UNL     1     -10.386  -0.716 -31.684  1.00  0.00     0.157 HD
HETATM   39  H   UNL     1     -10.981  -1.327 -33.197  1.00  0.00     0.157 HD
ENDBRANCH   6  37
TORSDOF 9
ENDMDL
MODEL 2
REMARK VINA RESULT:      -8.6      4.416      8.670
REMARK  9 active torsions:
REMARK  status: ('A' for Active; 'I' for Inactive)
REMARK    1  A    between atoms: C_2  and  C_3 
REMARK    2  A    between atoms: C_4  and  N_5 
REMARK    3  A    between atoms: C_6  and  S_7 
REMARK    4  A    between atoms: S_7  and  C_8 
REMARK    5  A    between atoms: C_8  and  C_9 
REMARK       I    between atoms: C_9  and  N_10 
REMARK    6  A    between atoms: N_10  and  C_11 
REMARK    7  A    between atoms: C_12  and  O_13 
REMARK    8  A    between atoms: C_16  and  O_17 
REMARK    9  A    between atoms: C_26  and  N_27 
ROOT
HETATM    1  N   UNL     1      -4.631   0.478 -32.694  1.00  0.00    -0.275 N 
HETATM    2  C   UNL     1      -5.473   0.199 -33.805  1.00  0.00     0.177 A 
HETATM    3  N   UNL     1      -5.552  -0.947 -34.437  1.00  0.00    -0.204 NA
HETATM    4  C   UNL     1      -4.801  -1.927 -33.885  1.00  0.00     0.162 A 
HETATM    5  C   UNL     1      -3.949  -1.867 -32.815  1.00  0.00     0.081 A 
HETATM    6  C   UNL     1      -3.788  -0.592 -32.184  1.00  0.00     0.124 A 
HETATM    7  N   UNL     1      -4.812  -3.240 -34.256  1.00  0.00    -0.260 N 
HETATM    8  H   UNL     1      -5.362  -3.679 -34.987  1.00  0.00     0.191 HD
HETATM    9  N   UNL     1      -3.994  -4.009 -33.505  1.00  0.00    -0.177 NA
HETATM   10  C   UNL     1      -3.481  -3.169 -32.592  1.00  0.00     0.068 A 
HETATM   11  C   UNL     1      -2.583  -3.696 -31.538  1.00  0.00     0.073 C 
ENDROOT
BRANCH   2  12
HETATM   12  S   UNL     1      -6.577   1.460 -34.388  1.00  0.00    -0.082 SA
BRANCH  12  13
HETATM   13  C   UNL     1      -7.980   0.476 -34.966  1.00  0.00     0.185 C 
BRANCH  13  14
HETATM   14  C   UNL     1      -9.193   0.657 -34.066  1.00  0.00     0.232 C 
HETATM   15  N   UNL     1     -10.085   1.605 -34.542  1.00  0.00    -0.324 N 
HETATM   16  H   UNL     1      -9.757   2.173 -35.314  1.00  0.00     0.169 HD
HETATM   17  O   UNL     1      -9.266   0.069 -32.989  1.00  0.00    -0.272 OA
BRANCH  15  18
HETATM   18  C   UNL     1     -11.308   1.985 -33.947  1.00  0.00     0.070 A 
HETATM   19  C   UNL     1     -11.452   3.037 -33.024  1.00  0.00     0.097 A 
HETATM   20  C   UNL     1     -12.732   3.369 -32.549  1.00  0.00     0.077 A 
HETATM   21  C   UNL     1     -13.859   2.648 -32.961  1.00  0.00     0.092 A 
HETATM   22  C   UNL     1     -13.689   1.547 -33.807  1.00  0.00     0.069 A 
HETATM   23 CL   UNL     1     -15.028   0.572 -34.302  1.00  0.00    -0.081 Cl
HETATM   24  C   UNL     1     -12.424   1.215 -34.293  1.00  0.00     0.059 A 
BRANCH  19  25
HETATM   25  O   UNL     1     -10.304   3.582 -32.514  1.00  0.00    -0.354 OA
HETATM   26  C   UNL     1      -9.890   3.164 -31.220  1.00  0.00     0.210 C 
ENDBRANCH  19  25
BRANCH  21  27
HETATM   27  O   UNL     1     -15.127   2.917 -32.517  1.00  0.00    -0.354 OA
HETATM   28  C   UNL     1     -15.316   4.196 -31.919  1.00  0.00     0.210 C 
ENDBRANCH  21  27
ENDBRANCH  15  18
ENDBRANCH  13  14
ENDBRANCH  12  13
ENDBRANCH   2  12
BRANCH   1  29
HETATM   29  C   UNL     1      -4.528   1.792 -32.143  1.00  0.00     0.049 A 
HETATM   30  C   UNL     1      -5.334   2.204 -31.058  1.00  0.00    -0.031 A 
HETATM   31  C   UNL     1      -5.111   3.473 -30.494  1.00  0.00     0.009 A 
HETATM   32  C   UNL     1      -4.122   4.321 -30.995  1.00  0.00     0.001 A 
HETATM   33  C   UNL     1      -3.335   3.916 -32.067  1.00  0.00     0.002 A 
HETATM   34  C   UNL     1      -3.529   2.656 -32.632  1.00  0.00     0.031 A 
BRANCH  30  35
HETATM   35  C   UNL     1      -6.447   1.349 -30.490  1.00  0.00     0.036 C 
HETATM   36  C   UNL     1      -5.971   0.423 -29.379  1.00  0.00     0.010 C 
ENDBRANCH  30  35
ENDBRANCH   1  29
BRANCH   6  37
HETATM   37  N   UNL     1      -2.906  -0.409 -31.221  1.00  0.00    -0.384 N 
HETATM   38  H   UNL     1      -2.115  -1.023 -31.094  1.00  0.00     0.157 HD
HETATM   39  H   UNL     1      -3.003   0.384 -30.597  1.00  0.00     0.157 HD
ENDBRANCH   6  37
TORSDOF 9
ENDMDL
MODEL 3
REMARK VINA RESULT:      -8.5      2.360      3.591
REMARK  9 active torsions:
REMARK  status: ('A' for Active; 'I' for Inactive)
REMARK    1  A    between atoms: C_2  and  C_3 
REMARK    2  A    between atoms: C_4  and  N_5 
REMARK    3  A    between atoms: C_6  and  S_7 
REMARK    4  A    between atoms: S_7  and  C_8 
REMARK    5  A    between atoms: C_8  and  C_9 
REMARK       I    between atoms: C_9  and  N_10 
REMARK    6  A    between atoms: N_10  and  C_11 
REMARK    7  A    between atoms: C_12  and  O_13 
REMARK    8  A    between atoms: C_16  and  O_17 
REMARK    9  A    between atoms: C_26  and  N_27 
ROOT
HETATM    1  N   UNL     1      -7.956   2.672 -33.975  1.00  0.00    -0.275 N 
HETATM    2  C   UNL     1      -7.137   3.829 -33.879  1.00  0.00     0.177 A 
HETATM    3  N   UNL     1      -7.537   5.067 -34.044  1.00  0.00    -0.204 NA
HETATM    4  C   UNL     1      -8.870   5.186 -34.241  1.00  0.00     0.162 A 
HETATM    5  C   UNL     1      -9.822   4.207 -34.345  1.00  0.00     0.081 A 
HETATM    6  C   UNL     1      -9.370   2.851 -34.262  1.00  0.00     0.124 A 
HETATM    7  N   UNL     1      -9.562   6.361 -34.297  1.00  0.00    -0.260 N 
HETATM    8  H   UNL     1      -9.201   7.305 -34.210  1.00  0.00     0.191 HD
HETATM    9  N   UNL     1     -10.891   6.185 -34.461  1.00  0.00    -0.177 NA
HETATM   10  C   UNL     1     -11.060   4.853 -34.461  1.00  0.00     0.068 A 
HETATM   11  C   UNL     1     -12.428   4.291 -34.546  1.00  0.00     0.073 C 
ENDROOT
BRANCH   2  12
HETATM   12  S   UNL     1      -5.428   3.642 -33.439  1.00  0.00    -0.082 SA
BRANCH  12  13
HETATM   13  C   UNL     1      -4.646   4.902 -34.473  1.00  0.00     0.185 C 
BRANCH  13  14
HETATM   14  C   UNL     1      -3.540   5.630 -33.721  1.00  0.00     0.232 C 
HETATM   15  N   UNL     1      -3.354   5.150 -32.434  1.00  0.00    -0.324 N 
HETATM   16  H   UNL     1      -4.063   4.512 -32.093  1.00  0.00     0.169 HD
HETATM   17  O   UNL     1      -2.980   6.602 -34.221  1.00  0.00    -0.272 OA
BRANCH  15  18
HETATM   18  C   UNL     1      -2.399   5.601 -31.497  1.00  0.00     0.070 A 
HETATM   19  C   UNL     1      -2.645   6.581 -30.518  1.00  0.00     0.097 A 
HETATM   20  C   UNL     1      -1.637   6.902 -29.593  1.00  0.00     0.077 A 
HETATM   21  C   UNL     1      -0.384   6.281 -29.654  1.00  0.00     0.092 A 
HETATM   22  C   UNL     1      -0.123   5.377 -30.689  1.00  0.00     0.069 A 
HETATM   23 CL   UNL     1       1.423   4.623 -30.863  1.00  0.00    -0.081 Cl
HETATM   24  C   UNL     1      -1.120   5.042 -31.606  1.00  0.00     0.059 A 
BRANCH  19  25
HETATM   25  O   UNL     1      -3.814   7.288 -30.621  1.00  0.00    -0.354 OA
HETATM   26  C   UNL     1      -3.758   8.577 -31.215  1.00  0.00     0.210 C 
ENDBRANCH  19  25
BRANCH  21  27
HETATM   27  O   UNL     1       0.640   6.568 -28.790  1.00  0.00    -0.354 OA
HETATM   28  C   UNL     1       0.774   7.937 -28.420  1.00  0.00     0.210 C 
ENDBRANCH  21  27
ENDBRANCH  15  18
ENDBRANCH  13  14
ENDBRANCH  12  13
ENDBRANCH   2  12
BRANCH   1  29
HETATM   29  C   UNL     1      -7.406   1.355 -33.894  1.00  0.00     0.049 A 
HETATM   30  C   UNL     1      -7.282   0.681 -32.658  1.00  0.00    -0.031 A 
HETATM   31  C   UNL     1      -6.831  -0.651 -32.658  1.00  0.00     0.009 A 
HETATM   32  C   UNL     1      -6.500  -1.301 -33.848  1.00  0.00     0.001 A 
HETATM   33  C   UNL     1      -6.617  -0.633 -35.061  1.00  0.00     0.002 A 
HETATM   34  C   UNL     1      -7.075   0.684 -35.086  1.00  0.00     0.031 A 
BRANCH  30  35
HETATM   35  C   UNL     1      -7.590   1.338 -31.328  1.00  0.00     0.036 C 
HETATM   36  C   UNL     1      -6.414   1.292 -30.362  1.00  0.00     0.010 C 
ENDBRANCH  30  35
ENDBRANCH   1  29
BRANCH   6  37
HETATM   37  N   UNL     1     -10.193   1.840 -34.463  1.00  0.00    -0.384 N 
HETATM   38  H   UNL     1      -9.866   0.937 -34.774  1.00  0.00     0.157 HD
HETATM   39  H   UNL     1     -11.183   1.957 -34.282  1.00  0.00     0.157 HD
ENDBRANCH   6  37
TORSDOF 9
ENDMDL
MODEL 4
REMARK VINA RESULT:      -8.3      1.933      4.597
REMARK  9 active torsions:
REMARK  status: ('A' for Active; 'I' for Inactive)
REMARK    1  A    between atoms: C_2  and  C_3 
REMARK    2  A    between atoms: C_4  and  N_5 
REMARK    3  A    between atoms: C_6  and  S_7 
REMARK    4  A    between atoms: S_7  and  C_8 
REMARK    5  A    between atoms: C_8  and  C_9 
REMARK       I    between atoms: C_9  and  N_10 
REMARK    6  A    between atoms: N_10  and  C_11 
REMARK    7  A    between atoms: C_12  and  O_13 
REMARK    8  A    between atoms: C_16  and  O_17 
REMARK    9  A    between atoms: C_26  and  N_27 
ROOT
HETATM    1  N   UNL     1      -9.154   1.788 -33.375  1.00  0.00    -0.275 N 
HETATM    2  C   UNL     1      -8.954   2.015 -31.987  1.00  0.00     0.177 A 
HETATM    3  N   UNL     1      -8.143   1.339 -31.209  1.00  0.00    -0.204 NA
HETATM    4  C   UNL     1      -7.407   0.412 -31.864  1.00  0.00     0.162 A 
HETATM    5  C   UNL     1      -7.436   0.058 -33.187  1.00  0.00     0.081 A 
HETATM    6  C   UNL     1      -8.391   0.730 -34.017  1.00  0.00     0.124 A 
HETATM    7  N   UNL     1      -6.393  -0.324 -31.323  1.00  0.00    -0.260 N 
HETATM    8  H   UNL     1      -6.043  -0.302 -30.371  1.00  0.00     0.191 HD
HETATM    9  N   UNL     1      -5.800  -1.145 -32.217  1.00  0.00    -0.177 NA
HETATM   10  C   UNL     1      -6.422  -0.890 -33.378  1.00  0.00     0.068 A 
HETATM   11  C   UNL     1      -5.968  -1.569 -34.614  1.00  0.00     0.073 C 
ENDROOT
BRANCH   2  12
HETATM   12  S   UNL     1      -9.805   3.360 -31.201  1.00  0.00    -0.082 SA
BRANCH  12  13
HETATM   13  C   UNL     1      -8.455   4.183 -30.325  1.00  0.00     0.185 C 
BRANCH  13  14
HETATM   14  C   UNL     1      -7.310   4.528 -31.266  1.00  0.00     0.232 C 
HETATM   15  N   UNL     1      -6.068   4.179 -30.759  1.00  0.00    -0.324 N 
HETATM   16  H   UNL     1      -6.049   3.904 -29.785  1.00  0.00     0.169 HD
HETATM   17  O   UNL     1      -7.521   5.146 -32.307  1.00  0.00    -0.272 OA
BRANCH  15  18
HETATM   18  C   UNL     1      -4.820   4.350 -31.397  1.00  0.00     0.070 A 
HETATM   19  C   UNL     1      -4.011   3.295 -31.860  1.00  0.00     0.097 A 
HETATM   20  C   UNL     1      -2.819   3.586 -32.542  1.00  0.00     0.077 A 
HETATM   21  C   UNL     1      -2.412   4.911 -32.741  1.00  0.00     0.092 A 
HETATM   22  C   UNL     1      -3.178   5.946 -32.195  1.00  0.00     0.069 A 
HETATM   23 CL   UNL     1      -2.700   7.601 -32.344  1.00  0.00    -0.081 Cl
HETATM   24  C   UNL     1      -4.370   5.669 -31.525  1.00  0.00     0.059 A 
BRANCH  19  25
HETATM   25  O   UNL     1      -4.359   2.027 -31.476  1.00  0.00    -0.354 OA
HETATM   26  C   UNL     1      -3.312   1.099 -31.229  1.00  0.00     0.210 C 
ENDBRANCH  19  25
BRANCH  21  27
HETATM   27  O   UNL     1      -1.251   5.253 -33.383  1.00  0.00    -0.354 OA
HETATM   28  C   UNL     1      -1.341   5.387 -34.798  1.00  0.00     0.210 C 
ENDBRANCH  21  27
ENDBRANCH  15  18
ENDBRANCH  13  14
ENDBRANCH  12  13
ENDBRANCH   2  12
BRANCH   1  29
HETATM   29  C   UNL     1     -10.146   2.502 -34.117  1.00  0.00     0.049 A 
HETATM   30  C   UNL     1     -11.479   2.042 -34.200  1.00  0.00    -0.031 A 
HETATM   31  C   UNL     1     -12.430   2.843 -34.856  1.00  0.00     0.009 A 
HETATM   32  C   UNL     1     -12.073   4.065 -35.427  1.00  0.00     0.001 A 
HETATM   33  C   UNL     1     -10.759   4.512 -35.350  1.00  0.00     0.002 A 
HETATM   34  C   UNL     1      -9.802   3.740 -34.691  1.00  0.00     0.031 A 
BRANCH  30  35
HETATM   35  C   UNL     1     -11.927   0.710 -33.634  1.00  0.00     0.036 C 
HETATM   36  C   UNL     1     -13.350   0.348 -34.034  1.00  0.00     0.010 C 
ENDBRANCH  30  35
ENDBRANCH   1  29
BRANCH   6  37
HETATM   37  N   UNL     1      -8.573   0.379 -35.275  1.00  0.00    -0.384 N 
HETATM   38  H   UNL     1      -8.096   0.841 -36.036  1.00  0.00     0.157 HD
HETATM   39  H   UNL     1      -9.191  -0.394 -35.494  1.00  0.00     0.157 HD
ENDBRANCH   6  37
TORSDOF 9
ENDMDL
MODEL 5
REMARK VINA RESULT:      -8.2      3.682      8.663
REMARK  9 active torsions:
REMARK  status: ('A' for Active; 'I' for Inactive)
REMARK    1  A    between atoms: C_2  and  C_3 
REMARK    2  A    between atoms: C_4  and  N_5 
REMARK    3  A    between atoms: C_6  and  S_7 
REMARK    4  A    between atoms: S_7  and  C_8 
REMARK    5  A    between atoms: C_8  and  C_9 
REMARK       I    between atoms: C_9  and  N_10 
REMARK    6  A    between atoms: N_10  and  C_11 
REMARK    7  A    between atoms: C_12  and  O_13 
REMARK    8  A    between atoms: C_16  and  O_17 
REMARK    9  A    between atoms: C_26  and  N_27 
ROOT
HETATM    1  N   UNL     1      -3.760   6.481 -30.821  1.00  0.00    -0.275 N 
HETATM    2  C   UNL     1      -5.172   6.395 -30.948  1.00  0.00     0.177 A 
HETATM    3  N   UNL     1      -6.037   6.495 -29.967  1.00  0.00    -0.204 NA
HETATM    4  C   UNL     1      -5.474   6.783 -28.771  1.00  0.00     0.162 A 
HETATM    5  C   UNL     1      -4.151   6.924 -28.448  1.00  0.00     0.081 A 
HETATM    6  C   UNL     1      -3.200   6.719 -29.500  1.00  0.00     0.124 A 
HETATM    7  N   UNL     1      -6.152   7.079 -27.624  1.00  0.00    -0.260 N 
HETATM    8  H   UNL     1      -7.156   7.124 -27.485  1.00  0.00     0.191 HD
HETATM    9  N   UNL     1      -5.337   7.369 -26.588  1.00  0.00    -0.177 NA
HETATM   10  C   UNL     1      -4.098   7.304 -27.100  1.00  0.00     0.068 A 
HETATM   11  C   UNL     1      -2.936   7.645 -26.247  1.00  0.00     0.073 C 
ENDROOT
BRANCH   2  12
HETATM   12  S   UNL     1      -5.883   6.197 -32.562  1.00  0.00    -0.082 SA
BRANCH  12  13
HETATM   13  C   UNL     1      -6.971   4.776 -32.309  1.00  0.00     0.185 C 
BRANCH  13  14
HETATM   14  C   UNL     1      -6.605   3.625 -33.236  1.00  0.00     0.232 C 
HETATM   15  N   UNL     1      -7.004   2.390 -32.750  1.00  0.00    -0.324 N 
HETATM   16  H   UNL     1      -7.327   2.376 -31.790  1.00  0.00     0.169 HD
HETATM   17  O   UNL     1      -5.933   3.825 -34.245  1.00  0.00    -0.272 OA
BRANCH  15  18
HETATM   18  C   UNL     1      -6.829   1.140 -33.382  1.00  0.00     0.070 A 
HETATM   19  C   UNL     1      -7.629   0.662 -34.438  1.00  0.00     0.097 A 
HETATM   20  C   UNL     1      -7.318  -0.570 -35.036  1.00  0.00     0.077 A 
HETATM   21  C   UNL     1      -6.243  -1.340 -34.577  1.00  0.00     0.092 A 
HETATM   22  C   UNL     1      -5.515  -0.897 -33.467  1.00  0.00     0.069 A 
HETATM   23 CL   UNL     1      -4.218  -1.829 -32.806  1.00  0.00    -0.081 Cl
HETATM   24  C   UNL     1      -5.807   0.331 -32.873  1.00  0.00     0.059 A 
BRANCH  19  25
HETATM   25  O   UNL     1      -8.772   1.361 -34.720  1.00  0.00    -0.354 OA
HETATM   26  C   UNL     1      -9.965   0.979 -34.049  1.00  0.00     0.210 C 
ENDBRANCH  19  25
BRANCH  21  27
HETATM   27  O   UNL     1      -5.907  -2.556 -35.111  1.00  0.00    -0.354 OA
HETATM   28  C   UNL     1      -6.752  -3.645 -34.754  1.00  0.00     0.210 C 
ENDBRANCH  21  27
ENDBRANCH  15  18
ENDBRANCH  13  14
ENDBRANCH  12  13
ENDBRANCH   2  12
BRANCH   1  29
HETATM   29  C   UNL     1      -2.891   6.244 -31.930  1.00  0.00     0.049 A 
HETATM   30  C   UNL     1      -2.532   4.934 -32.321  1.00  0.00    -0.031 A 
HETATM   31  C   UNL     1      -1.760   4.764 -33.484  1.00  0.00     0.009 A 
HETATM   32  C   UNL     1      -1.341   5.861 -34.238  1.00  0.00     0.001 A 
HETATM   33  C   UNL     1      -1.690   7.149 -33.848  1.00  0.00     0.002 A 
HETATM   34  C   UNL     1      -2.467   7.340 -32.706  1.00  0.00     0.031 A 
BRANCH  30  35
HETATM   35  C   UNL     1      -2.923   3.704 -31.530  1.00  0.00     0.036 C 
HETATM   36  C   UNL     1      -3.207   2.498 -32.415  1.00  0.00     0.010 C 
ENDBRANCH  30  35
ENDBRANCH   1  29
BRANCH   6  37
HETATM   37  N   UNL     1      -1.903   6.721 -29.262  1.00  0.00    -0.384 N 
HETATM   38  H   UNL     1      -1.268   6.101 -29.744  1.00  0.00     0.157 HD
HETATM   39  H   UNL     1      -1.518   7.378 -28.593  1.00  0.00     0.157 HD
ENDBRANCH   6  37
TORSDOF 9
ENDMDL
MODEL 6
REMARK VINA RESULT:      -8.1      3.810      7.866
REMARK  9 active torsions:
REMARK  status: ('A' for Active; 'I' for Inactive)
REMARK    1  A    between atoms: C_2  and  C_3 
REMARK    2  A    between atoms: C_4  and  N_5 
REMARK    3  A    between atoms: C_6  and  S_7 
REMARK    4  A    between atoms: S_7  and  C_8 
REMARK    5  A    between atoms: C_8  and  C_9 
REMARK       I    between atoms: C_9  and  N_10 
REMARK    6  A    between atoms: N_10  and  C_11 
REMARK    7  A    between atoms: C_12  and  O_13 
REMARK    8  A    between atoms: C_16  and  O_17 
REMARK    9  A    between atoms: C_26  and  N_27 
ROOT
HETATM    1  N   UNL     1      -5.834   5.797 -31.818  1.00  0.00    -0.275 N 
HETATM    2  C   UNL     1      -6.587   5.283 -32.908  1.00  0.00     0.177 A 
HETATM    3  N   UNL     1      -6.129   5.052 -34.115  1.00  0.00    -0.204 NA
HETATM    4  C   UNL     1      -4.799   5.268 -34.243  1.00  0.00     0.162 A 
HETATM    5  C   UNL     1      -3.904   5.737 -33.319  1.00  0.00     0.081 A 
HETATM    6  C   UNL     1      -4.423   6.082 -32.029  1.00  0.00     0.124 A 
HETATM    7  N   UNL     1      -4.049   4.971 -35.344  1.00  0.00    -0.260 N 
HETATM    8  H   UNL     1      -4.357   4.559 -36.218  1.00  0.00     0.191 HD
HETATM    9  N   UNL     1      -2.738   5.252 -35.181  1.00  0.00    -0.177 NA
HETATM   10  C   UNL     1      -2.639   5.698 -33.920  1.00  0.00     0.068 A 
HETATM   11  C   UNL     1      -1.306   6.034 -33.367  1.00  0.00     0.073 C 
ENDROOT
BRANCH   2  12
HETATM   12  S   UNL     1      -8.286   4.842 -32.651  1.00  0.00    -0.082 SA
BRANCH  12  13
HETATM   13  C   UNL     1      -8.491   3.480 -33.823  1.00  0.00     0.185 C 
BRANCH  13  14
HETATM   14  C   UNL     1      -7.868   2.196 -33.296  1.00  0.00     0.232 C 
HETATM   15  N   UNL     1      -6.731   1.820 -33.993  1.00  0.00    -0.324 N 
HETATM   16  H   UNL     1      -6.548   2.328 -34.850  1.00  0.00     0.169 HD
HETATM   17  O   UNL     1      -8.423   1.549 -32.411  1.00  0.00    -0.272 OA
BRANCH  15  18
HETATM   18  C   UNL     1      -5.920   0.692 -33.736  1.00  0.00     0.070 A 
HETATM   19  C   UNL     1      -4.759   0.711 -32.940  1.00  0.00     0.097 A 
HETATM   20  C   UNL     1      -4.068  -0.488 -32.698  1.00  0.00     0.077 A 
HETATM   21  C   UNL     1      -4.504  -1.692 -33.262  1.00  0.00     0.092 A 
HETATM   22  C   UNL     1      -5.604  -1.680 -34.125  1.00  0.00     0.069 A 
HETATM   23 CL   UNL     1      -6.156  -3.120 -34.908  1.00  0.00    -0.081 Cl
HETATM   24  C   UNL     1      -6.305  -0.498 -34.364  1.00  0.00     0.059 A 
BRANCH  19  25
HETATM   25  O   UNL     1      -4.274   1.938 -32.572  1.00  0.00    -0.354 OA
HETATM   26  C   UNL     1      -4.557   2.393 -31.256  1.00  0.00     0.210 C 
ENDBRANCH  19  25
BRANCH  21  27
HETATM   27  O   UNL     1      -3.859  -2.887 -33.074  1.00  0.00    -0.354 OA
HETATM   28  C   UNL     1      -3.044  -2.975 -31.909  1.00  0.00     0.210 C 
ENDBRANCH  21  27
ENDBRANCH  15  18
ENDBRANCH  13  14
ENDBRANCH  12  13
ENDBRANCH   2  12
BRANCH   1  29
HETATM   29  C   UNL     1      -6.449   6.125 -30.571  1.00  0.00     0.049 A 
HETATM   30  C   UNL     1      -7.066   7.378 -30.358  1.00  0.00    -0.031 A 
HETATM   31  C   UNL     1      -7.744   7.600 -29.146  1.00  0.00     0.009 A 
HETATM   32  C   UNL     1      -7.803   6.614 -28.161  1.00  0.00     0.001 A 
HETATM   33  C   UNL     1      -7.189   5.384 -28.370  1.00  0.00     0.002 A 
HETATM   34  C   UNL     1      -6.523   5.137 -29.571  1.00  0.00     0.031 A 
BRANCH  30  35
HETATM   35  C   UNL     1      -7.010   8.505 -31.369  1.00  0.00     0.036 C 
HETATM   36  C   UNL     1      -5.947   9.542 -31.038  1.00  0.00     0.010 C 
ENDBRANCH  30  35
ENDBRANCH   1  29
BRANCH   6  37
HETATM   37  N   UNL     1      -3.663   6.647 -31.112  1.00  0.00    -0.384 N 
HETATM   38  H   UNL     1      -4.045   7.026 -30.258  1.00  0.00     0.157 HD
HETATM   39  H   UNL     1      -2.660   6.687 -31.249  1.00  0.00     0.157 HD
ENDBRANCH   6  37
TORSDOF 9
ENDMDL
MODEL 7
REMARK VINA RESULT:      -8.0      4.619      8.909
REMARK  9 active torsions:
REMARK  status: ('A' for Active; 'I' for Inactive)
REMARK    1  A    between atoms: C_2  and  C_3 
REMARK    2  A    between atoms: C_4  and  N_5 
REMARK    3  A    between atoms: C_6  and  S_7 
REMARK    4  A    between atoms: S_7  and  C_8 
REMARK    5  A    between atoms: C_8  and  C_9 
REMARK       I    between atoms: C_9  and  N_10 
REMARK    6  A    between atoms: N_10  and  C_11 
REMARK    7  A    between atoms: C_12  and  O_13 
REMARK    8  A    between atoms: C_16  and  O_17 
REMARK    9  A    between atoms: C_26  and  N_27 
ROOT
HETATM    1  N   UNL     1      -4.091   5.627 -31.253  1.00  0.00    -0.275 N 
HETATM    2  C   UNL     1      -4.814   4.514 -30.747  1.00  0.00     0.177 A 
HETATM    3  N   UNL     1      -5.463   4.476 -29.608  1.00  0.00    -0.204 NA
HETATM    4  C   UNL     1      -5.472   5.656 -28.946  1.00  0.00     0.162 A 
HETATM    5  C   UNL     1      -4.861   6.837 -29.273  1.00  0.00     0.081 A 
HETATM    6  C   UNL     1      -4.071   6.851 -30.467  1.00  0.00     0.124 A 
HETATM    7  N   UNL     1      -6.189   5.928 -27.817  1.00  0.00    -0.260 N 
HETATM    8  H   UNL     1      -6.807   5.309 -27.305  1.00  0.00     0.191 HD
HETATM    9  N   UNL     1      -6.044   7.202 -27.393  1.00  0.00    -0.177 NA
HETATM   10  C   UNL     1      -5.246   7.777 -28.307  1.00  0.00     0.068 A 
HETATM   11  C   UNL     1      -4.932   9.220 -28.197  1.00  0.00     0.073 C 
ENDROOT
BRANCH   2  12
HETATM   12  S   UNL     1      -4.931   3.041 -31.730  1.00  0.00    -0.082 SA
BRANCH  12  13
HETATM   13  C   UNL     1      -3.525   2.082 -31.118  1.00  0.00     0.185 C 
BRANCH  13  14
HETATM   14  C   UNL     1      -3.513   0.679 -31.705  1.00  0.00     0.232 C 
HETATM   15  N   UNL     1      -4.661   0.382 -32.423  1.00  0.00    -0.324 N 
HETATM   16  H   UNL     1      -5.422   1.043 -32.334  1.00  0.00     0.169 HD
HETATM   17  O   UNL     1      -2.599  -0.100 -31.445  1.00  0.00    -0.272 OA
BRANCH  15  18
HETATM   18  C   UNL     1      -4.942  -0.825 -33.101  1.00  0.00     0.070 A 
HETATM   19  C   UNL     1      -6.026  -1.012 -33.979  1.00  0.00     0.097 A 
HETATM   20  C   UNL     1      -6.167  -2.237 -34.651  1.00  0.00     0.077 A 
HETATM   21  C   UNL     1      -5.261  -3.281 -34.436  1.00  0.00     0.092 A 
HETATM   22  C   UNL     1      -4.243  -3.114 -33.491  1.00  0.00     0.069 A 
HETATM   23 CL   UNL     1      -3.129  -4.386 -33.127  1.00  0.00    -0.081 Cl
HETATM   24  C   UNL     1      -4.086  -1.898 -32.827  1.00  0.00     0.059 A 
BRANCH  19  25
HETATM   25  O   UNL     1      -6.981  -0.031 -34.009  1.00  0.00    -0.354 OA
HETATM   26  C   UNL     1      -7.259   0.586 -35.258  1.00  0.00     0.210 C 
ENDBRANCH  19  25
BRANCH  21  27
HETATM   27  O   UNL     1      -5.361  -4.503 -35.051  1.00  0.00    -0.354 OA
HETATM   28  C   UNL     1      -6.591  -4.760 -35.721  1.00  0.00     0.210 C 
ENDBRANCH  21  27
ENDBRANCH  15  18
ENDBRANCH  13  14
ENDBRANCH  12  13
ENDBRANCH   2  12
BRANCH   1  29
HETATM   29  C   UNL     1      -3.317   5.537 -32.451  1.00  0.00     0.049 A 
HETATM   30  C   UNL     1      -1.948   5.189 -32.421  1.00  0.00    -0.031 A 
HETATM   31  C   UNL     1      -1.269   5.014 -33.641  1.00  0.00     0.009 A 
HETATM   32  C   UNL     1      -1.922   5.189 -34.861  1.00  0.00     0.001 A 
HETATM   33  C   UNL     1      -3.267   5.537 -34.888  1.00  0.00     0.002 A 
HETATM   34  C   UNL     1      -3.964   5.702 -33.691  1.00  0.00     0.031 A 
BRANCH  30  35
HETATM   35  C   UNL     1      -1.170   5.020 -31.133  1.00  0.00     0.036 C 
HETATM   36  C   UNL     1       0.187   5.708 -31.168  1.00  0.00     0.010 C 
ENDBRANCH  30  35
ENDBRANCH   1  29
BRANCH   6  37
HETATM   37  N   UNL     1      -3.353   7.905 -30.804  1.00  0.00    -0.384 N 
HETATM   38  H   UNL     1      -3.175   8.148 -31.767  1.00  0.00     0.157 HD
HETATM   39  H   UNL     1      -2.984   8.510 -30.079  1.00  0.00     0.157 HD
ENDBRANCH   6  37
TORSDOF 9
ENDMDL
MODEL 8
REMARK VINA RESULT:      -8.0      3.709      8.334
REMARK  9 active torsions:
REMARK  status: ('A' for Active; 'I' for Inactive)
REMARK    1  A    between atoms: C_2  and  C_3 
REMARK    2  A    between atoms: C_4  and  N_5 
REMARK    3  A    between atoms: C_6  and  S_7 
REMARK    4  A    between atoms: S_7  and  C_8 
REMARK    5  A    between atoms: C_8  and  C_9 
REMARK       I    between atoms: C_9  and  N_10 
REMARK    6  A    between atoms: N_10  and  C_11 
REMARK    7  A    between atoms: C_12  and  O_13 
REMARK    8  A    between atoms: C_16  and  O_17 
REMARK    9  A    between atoms: C_26  and  N_27 
ROOT
HETATM    1  N   UNL     1      -4.240   4.847 -31.636  1.00  0.00    -0.275 N 
HETATM    2  C   UNL     1      -4.521   3.537 -31.165  1.00  0.00     0.177 A 
HETATM    3  N   UNL     1      -5.287   3.237 -30.144  1.00  0.00    -0.204 NA
HETATM    4  C   UNL     1      -5.894   4.310 -29.585  1.00  0.00     0.162 A 
HETATM    5  C   UNL     1      -5.772   5.637 -29.902  1.00  0.00     0.081 A 
HETATM    6  C   UNL     1      -4.860   5.972 -30.954  1.00  0.00     0.124 A 
HETATM    7  N   UNL     1      -6.846   4.264 -28.608  1.00  0.00    -0.260 N 
HETATM    8  H   UNL     1      -7.236   3.447 -28.153  1.00  0.00     0.191 HD
HETATM    9  N   UNL     1      -7.311   5.485 -28.267  1.00  0.00    -0.177 NA
HETATM   10  C   UNL     1      -6.671   6.335 -29.085  1.00  0.00     0.068 A 
HETATM   11  C   UNL     1      -6.999   7.779 -29.039  1.00  0.00     0.073 C 
ENDROOT
BRANCH   2  12
HETATM   12  S   UNL     1      -3.850   2.144 -32.037  1.00  0.00    -0.082 SA
BRANCH  12  13
HETATM   13  C   UNL     1      -5.224   0.972 -31.964  1.00  0.00     0.185 C 
BRANCH  13  14
HETATM   14  C   UNL     1      -6.388   1.424 -32.834  1.00  0.00     0.232 C 
HETATM   15  N   UNL     1      -7.529   1.717 -32.104  1.00  0.00    -0.324 N 
HETATM   16  H   UNL     1      -7.513   1.442 -31.129  1.00  0.00     0.169 HD
HETATM   17  O   UNL     1      -6.295   1.409 -34.059  1.00  0.00    -0.272 OA
BRANCH  15  18
HETATM   18  C   UNL     1      -8.762   2.178 -32.616  1.00  0.00     0.070 A 
HETATM   19  C   UNL     1      -9.049   3.523 -32.911  1.00  0.00     0.097 A 
HETATM   20  C   UNL     1     -10.288   3.856 -33.482  1.00  0.00     0.077 A 
HETATM   21  C   UNL     1     -11.249   2.871 -33.733  1.00  0.00     0.092 A 
HETATM   22  C   UNL     1     -10.987   1.552 -33.350  1.00  0.00     0.069 A 
HETATM   23 CL   UNL     1     -12.155   0.296 -33.569  1.00  0.00    -0.081 Cl
HETATM   24  C   UNL     1      -9.755   1.208 -32.792  1.00  0.00     0.059 A 
BRANCH  19  25
HETATM   25  O   UNL     1      -8.153   4.463 -32.474  1.00  0.00    -0.354 OA
HETATM   26  C   UNL     1      -7.414   5.179 -33.454  1.00  0.00     0.210 C 
ENDBRANCH  19  25
BRANCH  21  27
HETATM   27  O   UNL     1     -12.480   3.141 -34.272  1.00  0.00    -0.354 OA
HETATM   28  C   UNL     1     -12.523   3.261 -35.690  1.00  0.00     0.210 C 
ENDBRANCH  21  27
ENDBRANCH  15  18
ENDBRANCH  13  14
ENDBRANCH  12  13
ENDBRANCH   2  12
BRANCH   1  29
HETATM   29  C   UNL     1      -3.300   5.081 -32.686  1.00  0.00     0.049 A 
HETATM   30  C   UNL     1      -1.910   5.142 -32.434  1.00  0.00    -0.031 A 
HETATM   31  C   UNL     1      -1.031   5.270 -33.524  1.00  0.00     0.009 A 
HETATM   32  C   UNL     1      -1.510   5.348 -34.832  1.00  0.00     0.001 A 
HETATM   33  C   UNL     1      -2.877   5.295 -35.077  1.00  0.00     0.002 A 
HETATM   34  C   UNL     1      -3.767   5.154 -34.012  1.00  0.00     0.031 A 
BRANCH  30  35
HETATM   35  C   UNL     1      -1.326   5.099 -31.038  1.00  0.00     0.036 C 
HETATM   36  C   UNL     1       0.145   5.490 -31.002  1.00  0.00     0.010 C 
ENDBRANCH  30  35
ENDBRANCH   1  29
BRANCH   6  37
HETATM   37  N   UNL     1      -4.590   7.227 -31.253  1.00  0.00    -0.384 N 
HETATM   38  H   UNL     1      -4.560   7.557 -32.207  1.00  0.00     0.157 HD
HETATM   39  H   UNL     1      -4.428   7.896 -30.509  1.00  0.00     0.157 HD
ENDBRANCH   6  37
TORSDOF 9
ENDMDL
MODEL 9
REMARK VINA RESULT:      -8.0      3.757      7.836
REMARK  9 active torsions:
REMARK  status: ('A' for Active; 'I' for Inactive)
REMARK    1  A    between atoms: C_2  and  C_3 
REMARK    2  A    between atoms: C_4  and  N_5 
REMARK    3  A    between atoms: C_6  and  S_7 
REMARK    4  A    between atoms: S_7  and  C_8 
REMARK    5  A    between atoms: C_8  and  C_9 
REMARK       I    between atoms: C_9  and  N_10 
REMARK    6  A    between atoms: N_10  and  C_11 
REMARK    7  A    between atoms: C_12  and  O_13 
REMARK    8  A    between atoms: C_16  and  O_17 
REMARK    9  A    between atoms: C_26  and  N_27 
ROOT
HETATM    1  N   UNL     1      -3.985   3.935 -31.790  1.00  0.00    -0.275 N 
HETATM    2  C   UNL     1      -4.871   4.592 -30.895  1.00  0.00     0.177 A 
HETATM    3  N   UNL     1      -5.738   4.004 -30.106  1.00  0.00    -0.204 NA
HETATM    4  C   UNL     1      -5.675   2.653 -30.138  1.00  0.00     0.162 A 
HETATM    5  C   UNL     1      -4.886   1.840 -30.908  1.00  0.00     0.081 A 
HETATM    6  C   UNL     1      -4.008   2.482 -31.840  1.00  0.00     0.124 A 
HETATM    7  N   UNL     1      -6.361   1.806 -29.316  1.00  0.00    -0.260 N 
HETATM    8  H   UNL     1      -7.012   2.043 -28.576  1.00  0.00     0.191 HD
HETATM    9  N   UNL     1      -6.075   0.505 -29.541  1.00  0.00    -0.177 NA
HETATM   10  C   UNL     1      -5.141   0.523 -30.504  1.00  0.00     0.068 A 
HETATM   11  C   UNL     1      -4.532  -0.751 -30.954  1.00  0.00     0.073 C 
ENDROOT
BRANCH   2  12
HETATM   12  S   UNL     1      -4.797   6.359 -30.749  1.00  0.00    -0.082 SA
BRANCH  12  13
HETATM   13  C   UNL     1      -5.893   6.882 -32.088  1.00  0.00     0.185 C 
BRANCH  13  14
HETATM   14  C   UNL     1      -7.172   6.058 -32.113  1.00  0.00     0.232 C 
HETATM   15  N   UNL     1      -7.161   5.070 -33.085  1.00  0.00    -0.324 N 
HETATM   16  H   UNL     1      -6.404   5.118 -33.756  1.00  0.00     0.169 HD
HETATM   17  O   UNL     1      -8.122   6.356 -31.392  1.00  0.00    -0.272 OA
BRANCH  15  18
HETATM   18  C   UNL     1      -8.185   4.133 -33.346  1.00  0.00     0.070 A 
HETATM   19  C   UNL     1      -9.185   4.298 -34.323  1.00  0.00     0.097 A 
HETATM   20  C   UNL     1     -10.114   3.267 -34.541  1.00  0.00     0.077 A 
HETATM   21  C   UNL     1     -10.075   2.094 -33.779  1.00  0.00     0.092 A 
HETATM   22  C   UNL     1      -9.135   1.983 -32.749  1.00  0.00     0.069 A 
HETATM   23 CL   UNL     1      -9.073   0.590 -31.727  1.00  0.00    -0.081 Cl
HETATM   24  C   UNL     1      -8.200   2.995 -32.531  1.00  0.00     0.059 A 
BRANCH  19  25
HETATM   25  O   UNL     1      -9.292   5.533 -34.905  1.00  0.00    -0.354 OA
HETATM   26  C   UNL     1     -10.302   6.407 -34.421  1.00  0.00     0.210 C 
ENDBRANCH  19  25
BRANCH  21  27
HETATM   27  O   UNL     1     -10.966   1.065 -33.937  1.00  0.00    -0.354 OA
HETATM   28  C   UNL     1     -12.336   1.395 -33.732  1.00  0.00     0.210 C 
ENDBRANCH  21  27
ENDBRANCH  15  18
ENDBRANCH  13  14
ENDBRANCH  12  13
ENDBRANCH   2  12
BRANCH   1  29
HETATM   29  C   UNL     1      -3.156   4.666 -32.696  1.00  0.00     0.049 A 
HETATM   30  C   UNL     1      -1.847   5.066 -32.342  1.00  0.00    -0.031 A 
HETATM   31  C   UNL     1      -1.046   5.690 -33.314  1.00  0.00     0.009 A 
HETATM   32  C   UNL     1      -1.527   5.925 -34.603  1.00  0.00     0.001 A 
HETATM   33  C   UNL     1      -2.817   5.538 -34.946  1.00  0.00     0.002 A 
HETATM   34  C   UNL     1      -3.624   4.904 -34.002  1.00  0.00     0.031 A 
BRANCH  30  35
HETATM   35  C   UNL     1      -1.276   4.873 -30.953  1.00  0.00     0.036 C 
HETATM   36  C   UNL     1       0.183   5.296 -30.851  1.00  0.00     0.010 C 
ENDBRANCH  30  35
ENDBRANCH   1  29
BRANCH   6  37
HETATM   37  N   UNL     1      -3.295   1.785 -32.702  1.00  0.00    -0.384 N 
HETATM   38  H   UNL     1      -2.692   1.028 -32.412  1.00  0.00     0.157 HD
HETATM   39  H   UNL     1      -3.364   1.991 -33.692  1.00  0.00     0.157 HD
ENDBRANCH   6  37
TORSDOF 9
ENDMDL
MODEL 10
REMARK VINA RESULT:      -7.9      1.841      1.993
REMARK  9 active torsions:
REMARK  status: ('A' for Active; 'I' for Inactive)
REMARK    1  A    between atoms: C_2  and  C_3 
REMARK    2  A    between atoms: C_4  and  N_5 
REMARK    3  A    between atoms: C_6  and  S_7 
REMARK    4  A    between atoms: S_7  and  C_8 
REMARK    5  A    between atoms: C_8  and  C_9 
REMARK       I    between atoms: C_9  and  N_10 
REMARK    6  A    between atoms: N_10  and  C_11 
REMARK    7  A    between atoms: C_12  and  O_13 
REMARK    8  A    between atoms: C_16  and  O_17 
REMARK    9  A    between atoms: C_26  and  N_27 
ROOT
HETATM    1  N   UNL     1      -8.830   1.302 -33.130  1.00  0.00    -0.275 N 
HETATM    2  C   UNL     1      -8.619   2.533 -33.808  1.00  0.00     0.177 A 
HETATM    3  N   UNL     1      -9.512   3.182 -34.515  1.00  0.00    -0.204 NA
HETATM    4  C   UNL     1     -10.741   2.616 -34.491  1.00  0.00     0.162 A 
HETATM    5  C   UNL     1     -11.150   1.457 -33.887  1.00  0.00     0.081 A 
HETATM    6  C   UNL     1     -10.151   0.698 -33.196  1.00  0.00     0.124 A 
HETATM    7  N   UNL     1     -11.876   3.159 -35.020  1.00  0.00    -0.260 N 
HETATM    8  H   UNL     1     -11.978   4.043 -35.507  1.00  0.00     0.191 HD
HETATM    9  N   UNL     1     -12.972   2.398 -34.814  1.00  0.00    -0.177 NA
HETATM   10  C   UNL     1     -12.533   1.358 -34.088  1.00  0.00     0.068 A 
HETATM   11  C   UNL     1     -13.499   0.343 -33.608  1.00  0.00     0.073 C 
ENDROOT
BRANCH   2  12
HETATM   12  S   UNL     1      -7.043   3.336 -33.666  1.00  0.00    -0.082 SA
BRANCH  12  13
HETATM   13  C   UNL     1      -7.321   4.441 -32.262  1.00  0.00     0.185 C 
BRANCH  13  14
HETATM   14  C   UNL     1      -6.079   4.555 -31.391  1.00  0.00     0.232 C 
HETATM   15  N   UNL     1      -5.652   5.863 -31.226  1.00  0.00    -0.324 N 
HETATM   16  H   UNL     1      -6.095   6.552 -31.822  1.00  0.00     0.169 HD
HETATM   17  O   UNL     1      -5.500   3.548 -30.992  1.00  0.00    -0.272 OA
BRANCH  15  18
HETATM   18  C   UNL     1      -4.546   6.299 -30.462  1.00  0.00     0.070 A 
HETATM   19  C   UNL     1      -3.227   6.381 -30.946  1.00  0.00     0.097 A 
HETATM   20  C   UNL     1      -2.218   6.894 -30.115  1.00  0.00     0.077 A 
HETATM   21  C   UNL     1      -2.503   7.296 -28.805  1.00  0.00     0.092 A 
HETATM   22  C   UNL     1      -3.799   7.122 -28.307  1.00  0.00     0.069 A 
HETATM   23 CL   UNL     1      -4.205   7.535 -26.678  1.00  0.00    -0.081 Cl
HETATM   24  C   UNL     1      -4.812   6.624 -29.127  1.00  0.00     0.059 A 
BRANCH  19  25
HETATM   25  O   UNL     1      -2.970   5.803 -32.161  1.00  0.00    -0.354 OA
HETATM   26  C   UNL     1      -2.295   4.553 -32.169  1.00  0.00     0.210 C 
ENDBRANCH  19  25
BRANCH  21  27
HETATM   27  O   UNL     1      -1.555   7.787 -27.946  1.00  0.00    -0.354 OA
HETATM   28  C   UNL     1      -1.104   9.112 -28.211  1.00  0.00     0.210 C 
ENDBRANCH  21  27
ENDBRANCH  15  18
ENDBRANCH  13  14
ENDBRANCH  12  13
ENDBRANCH   2  12
BRANCH   1  29
HETATM   29  C   UNL     1      -7.762   0.611 -32.480  1.00  0.00     0.049 A 
HETATM   30  C   UNL     1      -6.901  -0.255 -33.191  1.00  0.00    -0.031 A 
HETATM   31  C   UNL     1      -5.806  -0.823 -32.516  1.00  0.00     0.009 A 
HETATM   32  C   UNL     1      -5.571  -0.552 -31.167  1.00  0.00     0.001 A 
HETATM   33  C   UNL     1      -6.423   0.295 -30.468  1.00  0.00     0.002 A 
HETATM   34  C   UNL     1      -7.507   0.881 -31.122  1.00  0.00     0.031 A 
BRANCH  30  35
HETATM   35  C   UNL     1      -7.118  -0.620 -34.645  1.00  0.00     0.036 C 
HETATM   36  C   UNL     1      -6.621  -2.018 -34.983  1.00  0.00     0.010 C 
ENDBRANCH  30  35
ENDBRANCH   1  29
BRANCH   6  37
HETATM   37  N   UNL     1     -10.422  -0.486 -32.682  1.00  0.00    -0.384 N 
HETATM   38  H   UNL     1     -10.155  -1.344 -33.142  1.00  0.00     0.157 HD
HETATM   39  H   UNL     1     -10.893  -0.547 -31.787  1.00  0.00     0.157 HD
ENDBRANCH   6  37
TORSDOF 9
ENDMDL
