MODEL 1
REMARK VINA RESULT:      -9.0      0.000      0.000
REMARK  4 active torsions:
REMARK  status: ('A' for Active; 'I' for Inactive)
REMARK    1  A    between atoms: C_2  and  C_3 
REMARK    2  A    between atoms: C_4  and  C_5 
REMARK       I    between atoms: C_5  and  N_6 
REMARK    3  A    between atoms: N_6  and  C_7 
REMARK    4  A    between atoms: C_14  and  C_15 
REMARK       I    between atoms: C_15  and  N_16 
ROOT
HETATM    1  C   UNL     1      -2.685   3.961 -32.443  1.00  0.00     0.035 A 
HETATM    2  C   UNL     1      -1.835   4.192 -31.353  1.00  0.00     0.046 A 
HETATM    3  C   UNL     1      -0.999   5.330 -31.348  1.00  0.00     0.030 A 
HETATM    4  C   UNL     1      -1.045   6.200 -32.430  1.00  0.00     0.063 A 
HETATM    5  N   UNL     1      -0.139   7.183 -32.143  1.00  0.00    -0.277 N 
HETATM    6  H   UNL     1       0.094   7.988 -32.714  1.00  0.00     0.189 HD
HETATM    7  N   UNL     1       0.496   7.032 -30.970  1.00  0.00    -0.168 NA
HETATM    8  C   UNL     1      -0.025   5.889 -30.465  1.00  0.00     0.156 A 
HETATM    9  C   UNL     1      -1.883   6.008 -33.528  1.00  0.00     0.034 A 
HETATM   10  C   UNL     1      -2.699   4.869 -33.511  1.00  0.00     0.032 A 
ENDROOT
BRANCH   1  11
HETATM   11  N   UNL     1      -3.538   2.839 -32.554  1.00  0.00    -0.324 N 
HETATM   12  C   UNL     1      -4.464   2.396 -31.632  1.00  0.00     0.245 C 
HETATM   13  O   UNL     1      -4.759   2.919 -30.566  1.00  0.00    -0.268 OA
HETATM   14  H   UNL     1      -3.431   2.296 -33.399  1.00  0.00     0.169 HD
BRANCH  12  15
HETATM   15  C   UNL     1      -5.113   1.125 -32.065  1.00  0.00     0.075 C 
HETATM   16  C   UNL     1      -4.591   0.428 -33.086  1.00  0.00     0.017 C 
BRANCH  16  17
HETATM   17  C   UNL     1      -5.154  -0.823 -33.611  1.00  0.00    -0.036 A 
HETATM   18  C   UNL     1      -6.503  -0.945 -33.975  1.00  0.00     0.013 A 
HETATM   19  C   UNL     1      -6.989  -2.140 -34.513  1.00  0.00     0.024 A 
HETATM   20  C   UNL     1      -6.127  -3.218 -34.701  1.00  0.00     0.034 A 
HETATM   21  C   UNL     1      -4.782  -3.109 -34.358  1.00  0.00     0.024 A 
HETATM   22 CL   UNL     1      -6.726  -4.686 -35.368  1.00  0.00    -0.084 Cl
HETATM   23  C   UNL     1      -4.297  -1.912 -33.820  1.00  0.00     0.013 A 
ENDBRANCH  16  17
ENDBRANCH  12  15
ENDBRANCH   1  11
BRANCH   8  24
HETATM   24  C   UNL     1       0.418   5.363 -29.166  1.00  0.00     0.270 C 
HETATM   25  N   UNL     1       1.163   4.218 -29.252  1.00  0.00    -0.365 N 
HETATM   26  H   UNL     1       1.347   3.827 -30.169  1.00  0.00     0.159 HD
HETATM   27  H   UNL     1       1.507   3.784 -28.411  1.00  0.00     0.159 HD
HETATM   28  O   UNL     1       0.165   5.874 -28.081  1.00  0.00    -0.266 OA
ENDBRANCH   8  24
TORSDOF 4
ENDMDL
MODEL 2
REMARK VINA RESULT:      -8.1      6.774      8.726
REMARK  4 active torsions:
REMARK  status: ('A' for Active; 'I' for Inactive)
REMARK    1  A    between atoms: C_2  and  C_3 
REMARK    2  A    between atoms: C_4  and  C_5 
REMARK       I    between atoms: C_5  and  N_6 
REMARK    3  A    between atoms: N_6  and  C_7 
REMARK    4  A    between atoms: C_14  and  C_15 
REMARK       I    between atoms: C_15  and  N_16 
ROOT
HETATM    1  C   UNL     1     -10.572   2.140 -34.178  1.00  0.00     0.035 A 
HETATM    2  C   UNL     1     -10.291   3.469 -34.524  1.00  0.00     0.046 A 
HETATM    3  C   UNL     1     -11.344   4.328 -34.909  1.00  0.00     0.030 A 
HETATM    4  C   UNL     1     -12.641   3.831 -34.929  1.00  0.00     0.063 A 
HETATM    5  N   UNL     1     -13.423   4.874 -35.337  1.00  0.00    -0.277 N 
HETATM    6  H   UNL     1     -14.429   4.873 -35.468  1.00  0.00     0.189 HD
HETATM    7  N   UNL     1     -12.752   6.010 -35.587  1.00  0.00    -0.168 NA
HETATM    8  C   UNL     1     -11.463   5.689 -35.327  1.00  0.00     0.156 A 
HETATM    9  C   UNL     1     -12.960   2.517 -34.583  1.00  0.00     0.034 A 
HETATM   10  C   UNL     1     -11.897   1.685 -34.210  1.00  0.00     0.032 A 
ENDROOT
BRANCH   1  11
HETATM   11  N   UNL     1      -9.586   1.197 -33.806  1.00  0.00    -0.324 N 
HETATM   12  C   UNL     1      -8.978   1.062 -32.575  1.00  0.00     0.245 C 
HETATM   13  O   UNL     1      -9.212   1.699 -31.558  1.00  0.00    -0.268 OA
HETATM   14  H   UNL     1      -9.286   0.573 -34.541  1.00  0.00     0.169 HD
BRANCH  12  15
HETATM   15  C   UNL     1      -7.921   0.009 -32.591  1.00  0.00     0.075 C 
HETATM   16  C   UNL     1      -7.376  -0.365 -33.759  1.00  0.00     0.017 C 
BRANCH  16  17
HETATM   17  C   UNL     1      -6.345  -1.402 -33.899  1.00  0.00    -0.036 A 
HETATM   18  C   UNL     1      -5.112  -1.330 -33.235  1.00  0.00     0.013 A 
HETATM   19  C   UNL     1      -4.176  -2.362 -33.360  1.00  0.00     0.024 A 
HETATM   20  C   UNL     1      -4.472  -3.476 -34.141  1.00  0.00     0.034 A 
HETATM   21  C   UNL     1      -5.696  -3.570 -34.795  1.00  0.00     0.024 A 
HETATM   22 CL   UNL     1      -3.321  -4.746 -34.288  1.00  0.00    -0.084 Cl
HETATM   23  C   UNL     1      -6.633  -2.538 -34.669  1.00  0.00     0.013 A 
ENDBRANCH  16  17
ENDBRANCH  12  15
ENDBRANCH   1  11
BRANCH   8  24
HETATM   24  C   UNL     1     -10.388   6.678 -35.485  1.00  0.00     0.270 C 
HETATM   25  N   UNL     1     -10.112   7.388 -34.349  1.00  0.00    -0.365 N 
HETATM   26  H   UNL     1     -10.648   7.193 -33.512  1.00  0.00     0.159 HD
HETATM   27  H   UNL     1      -9.390   8.092 -34.364  1.00  0.00     0.159 HD
HETATM   28  O   UNL     1      -9.769   6.879 -36.524  1.00  0.00    -0.266 OA
ENDBRANCH   8  24
TORSDOF 4
ENDMDL
MODEL 3
REMARK VINA RESULT:      -8.1      2.400      2.908
REMARK  4 active torsions:
REMARK  status: ('A' for Active; 'I' for Inactive)
REMARK    1  A    between atoms: C_2  and  C_3 
REMARK    2  A    between atoms: C_4  and  C_5 
REMARK       I    between atoms: C_5  and  N_6 
REMARK    3  A    between atoms: N_6  and  C_7 
REMARK    4  A    between atoms: C_14  and  C_15 
REMARK       I    between atoms: C_15  and  N_16 
ROOT
HETATM    1  C   UNL     1      -3.381   4.632 -32.729  1.00  0.00     0.035 A 
HETATM    2  C   UNL     1      -3.939   5.750 -32.092  1.00  0.00     0.046 A 
HETATM    3  C   UNL     1      -3.192   6.946 -31.999  1.00  0.00     0.030 A 
HETATM    4  C   UNL     1      -1.917   6.984 -32.550  1.00  0.00     0.063 A 
HETATM    5  N   UNL     1      -1.454   8.246 -32.303  1.00  0.00    -0.277 N 
HETATM    6  H   UNL     1      -0.552   8.630 -32.562  1.00  0.00     0.189 HD
HETATM    7  N   UNL     1      -2.313   9.036 -31.639  1.00  0.00    -0.168 NA
HETATM    8  C   UNL     1      -3.394   8.246 -31.443  1.00  0.00     0.156 A 
HETATM    9  C   UNL     1      -1.333   5.895 -33.197  1.00  0.00     0.034 A 
HETATM   10  C   UNL     1      -2.092   4.720 -33.272  1.00  0.00     0.032 A 
ENDROOT
BRANCH   1  11
HETATM   11  N   UNL     1      -4.036   3.386 -32.849  1.00  0.00    -0.324 N 
HETATM   12  C   UNL     1      -3.789   2.235 -32.127  1.00  0.00     0.245 C 
HETATM   13  O   UNL     1      -2.991   2.091 -31.212  1.00  0.00    -0.268 OA
HETATM   14  H   UNL     1      -4.749   3.339 -33.564  1.00  0.00     0.169 HD
BRANCH  12  15
HETATM   15  C   UNL     1      -4.624   1.094 -32.601  1.00  0.00     0.075 C 
HETATM   16  C   UNL     1      -4.032   0.021 -33.148  1.00  0.00     0.017 C 
BRANCH  16  17
HETATM   17  C   UNL     1      -4.752  -1.150 -33.666  1.00  0.00    -0.036 A 
HETATM   18  C   UNL     1      -6.110  -1.104 -34.013  1.00  0.00     0.013 A 
HETATM   19  C   UNL     1      -6.746  -2.230 -34.545  1.00  0.00     0.024 A 
HETATM   20  C   UNL     1      -6.026  -3.405 -34.743  1.00  0.00     0.034 A 
HETATM   21  C   UNL     1      -4.674  -3.464 -34.417  1.00  0.00     0.024 A 
HETATM   22 CL   UNL     1      -6.810  -4.787 -35.404  1.00  0.00    -0.084 Cl
HETATM   23  C   UNL     1      -4.038  -2.337 -33.886  1.00  0.00     0.013 A 
ENDBRANCH  16  17
ENDBRANCH  12  15
ENDBRANCH   1  11
BRANCH   8  24
HETATM   24  C   UNL     1      -4.580   8.746 -30.735  1.00  0.00     0.270 C 
HETATM   25  N   UNL     1      -4.751   8.212 -29.486  1.00  0.00    -0.365 N 
HETATM   26  H   UNL     1      -4.076   7.535 -29.152  1.00  0.00     0.159 HD
HETATM   27  H   UNL     1      -5.540   8.495 -28.927  1.00  0.00     0.159 HD
HETATM   28  O   UNL     1      -5.371   9.567 -31.186  1.00  0.00    -0.266 OA
ENDBRANCH   8  24
TORSDOF 4
ENDMDL
MODEL 4
REMARK VINA RESULT:      -8.0      2.466      3.161
REMARK  4 active torsions:
REMARK  status: ('A' for Active; 'I' for Inactive)
REMARK    1  A    between atoms: C_2  and  C_3 
REMARK    2  A    between atoms: C_4  and  C_5 
REMARK       I    between atoms: C_5  and  N_6 
REMARK    3  A    between atoms: N_6  and  C_7 
REMARK    4  A    between atoms: C_14  and  C_15 
REMARK       I    between atoms: C_15  and  N_16 
ROOT
HETATM    1  C   UNL     1      -4.576   4.319 -31.042  1.00  0.00     0.035 A 
HETATM    2  C   UNL     1      -3.618   5.113 -31.688  1.00  0.00     0.046 A 
HETATM    3  C   UNL     1      -3.458   6.463 -31.306  1.00  0.00     0.030 A 
HETATM    4  C   UNL     1      -4.255   6.971 -30.289  1.00  0.00     0.063 A 
HETATM    5  N   UNL     1      -3.879   8.277 -30.150  1.00  0.00    -0.277 N 
HETATM    6  H   UNL     1      -4.253   8.958 -29.499  1.00  0.00     0.189 HD
HETATM    7  N   UNL     1      -2.905   8.669 -30.989  1.00  0.00    -0.168 NA
HETATM    8  C   UNL     1      -2.633   7.558 -31.711  1.00  0.00     0.156 A 
HETATM    9  C   UNL     1      -5.213   6.209 -29.618  1.00  0.00     0.034 A 
HETATM   10  C   UNL     1      -5.355   4.875 -30.019  1.00  0.00     0.032 A 
ENDROOT
BRANCH   1  11
HETATM   11  N   UNL     1      -4.830   2.968 -31.370  1.00  0.00    -0.324 N 
HETATM   12  C   UNL     1      -3.939   1.914 -31.333  1.00  0.00     0.245 C 
HETATM   13  O   UNL     1      -2.774   1.941 -30.962  1.00  0.00    -0.268 OA
HETATM   14  H   UNL     1      -5.768   2.768 -31.687  1.00  0.00     0.169 HD
BRANCH  12  15
HETATM   15  C   UNL     1      -4.553   0.651 -31.836  1.00  0.00     0.075 C 
HETATM   16  C   UNL     1      -4.325   0.261 -33.100  1.00  0.00     0.017 C 
BRANCH  16  17
HETATM   17  C   UNL     1      -4.891  -0.951 -33.709  1.00  0.00    -0.036 A 
HETATM   18  C   UNL     1      -4.155  -2.137 -33.844  1.00  0.00     0.013 A 
HETATM   19  C   UNL     1      -4.746  -3.281 -34.389  1.00  0.00     0.024 A 
HETATM   20  C   UNL     1      -6.079  -3.250 -34.791  1.00  0.00     0.034 A 
HETATM   21  C   UNL     1      -6.827  -2.085 -34.650  1.00  0.00     0.024 A 
HETATM   22 CL   UNL     1      -6.805  -4.661 -35.454  1.00  0.00    -0.084 Cl
HETATM   23  C   UNL     1      -6.236  -0.940 -34.104  1.00  0.00     0.013 A 
ENDBRANCH  16  17
ENDBRANCH  12  15
ENDBRANCH   1  11
BRANCH   8  24
HETATM   24  C   UNL     1      -1.606   7.568 -32.761  1.00  0.00     0.270 C 
HETATM   25  N   UNL     1      -0.422   6.991 -32.390  1.00  0.00    -0.365 N 
HETATM   26  H   UNL     1      -0.339   6.613 -31.454  1.00  0.00     0.159 HD
HETATM   27  H   UNL     1       0.342   6.955 -33.046  1.00  0.00     0.159 HD
HETATM   28  O   UNL     1      -1.756   8.042 -33.882  1.00  0.00    -0.266 OA
ENDBRANCH   8  24
TORSDOF 4
ENDMDL
MODEL 5
REMARK VINA RESULT:      -8.0      5.963     10.250
REMARK  4 active torsions:
REMARK  status: ('A' for Active; 'I' for Inactive)
REMARK    1  A    between atoms: C_2  and  C_3 
REMARK    2  A    between atoms: C_4  and  C_5 
REMARK       I    between atoms: C_5  and  N_6 
REMARK    3  A    between atoms: N_6  and  C_7 
REMARK    4  A    between atoms: C_14  and  C_15 
REMARK       I    between atoms: C_15  and  N_16 
ROOT
HETATM    1  C   UNL     1      -1.489   6.351 -31.750  1.00  0.00     0.035 A 
HETATM    2  C   UNL     1      -2.799   5.860 -31.840  1.00  0.00     0.046 A 
HETATM    3  C   UNL     1      -3.368   5.615 -33.110  1.00  0.00     0.030 A 
HETATM    4  C   UNL     1      -2.606   5.864 -34.244  1.00  0.00     0.063 A 
HETATM    5  N   UNL     1      -3.412   5.542 -35.300  1.00  0.00    -0.277 N 
HETATM    6  H   UNL     1      -3.185   5.601 -36.286  1.00  0.00     0.189 HD
HETATM    7  N   UNL     1      -4.635   5.106 -34.955  1.00  0.00    -0.168 NA
HETATM    8  C   UNL     1      -4.623   5.145 -33.603  1.00  0.00     0.156 A 
HETATM    9  C   UNL     1      -1.297   6.344 -34.194  1.00  0.00     0.034 A 
HETATM   10  C   UNL     1      -0.758   6.583 -32.924  1.00  0.00     0.032 A 
ENDROOT
BRANCH   1  11
HETATM   11  N   UNL     1      -0.842   6.652 -30.530  1.00  0.00    -0.324 N 
HETATM   12  C   UNL     1      -0.033   5.820 -29.782  1.00  0.00     0.245 C 
HETATM   13  O   UNL     1       0.318   4.682 -30.059  1.00  0.00    -0.268 OA
HETATM   14  H   UNL     1      -1.019   7.576 -30.164  1.00  0.00     0.169 HD
BRANCH  12  15
HETATM   15  C   UNL     1       0.395   6.464 -28.507  1.00  0.00     0.075 C 
HETATM   16  C   UNL     1       0.721   7.766 -28.498  1.00  0.00     0.017 C 
BRANCH  16  17
HETATM   17  C   UNL     1       1.175   8.500 -27.309  1.00  0.00    -0.036 A 
HETATM   18  C   UNL     1       0.878   9.855 -27.104  1.00  0.00     0.013 A 
HETATM   19  C   UNL     1       1.291  10.505 -25.937  1.00  0.00     0.024 A 
HETATM   20  C   UNL     1       1.993   9.800 -24.962  1.00  0.00     0.034 A 
HETATM   21  C   UNL     1       2.284   8.451 -25.144  1.00  0.00     0.024 A 
HETATM   22 CL   UNL     1       2.495  10.600 -23.524  1.00  0.00    -0.084 Cl
HETATM   23  C   UNL     1       1.870   7.802 -26.311  1.00  0.00     0.013 A 
ENDBRANCH  16  17
ENDBRANCH  12  15
ENDBRANCH   1  11
BRANCH   8  24
HETATM   24  C   UNL     1      -5.801   4.740 -32.822  1.00  0.00     0.270 C 
HETATM   25  N   UNL     1      -6.477   5.783 -32.250  1.00  0.00    -0.365 N 
HETATM   26  H   UNL     1      -6.131   6.724 -32.396  1.00  0.00     0.159 HD
HETATM   27  H   UNL     1      -7.296   5.600 -31.693  1.00  0.00     0.159 HD
HETATM   28  O   UNL     1      -6.177   3.583 -32.673  1.00  0.00    -0.266 OA
ENDBRANCH   8  24
TORSDOF 4
ENDMDL
MODEL 6
REMARK VINA RESULT:      -7.9      3.047      3.316
REMARK  4 active torsions:
REMARK  status: ('A' for Active; 'I' for Inactive)
REMARK    1  A    between atoms: C_2  and  C_3 
REMARK    2  A    between atoms: C_4  and  C_5 
REMARK       I    between atoms: C_5  and  N_6 
REMARK    3  A    between atoms: N_6  and  C_7 
REMARK    4  A    between atoms: C_14  and  C_15 
REMARK       I    between atoms: C_15  and  N_16 
ROOT
HETATM    1  C   UNL     1      -4.421   4.425 -31.921  1.00  0.00     0.035 A 
HETATM    2  C   UNL     1      -4.885   4.771 -30.644  1.00  0.00     0.046 A 
HETATM    3  C   UNL     1      -4.354   5.907 -29.993  1.00  0.00     0.030 A 
HETATM    4  C   UNL     1      -3.384   6.659 -30.642  1.00  0.00     0.063 A 
HETATM    5  N   UNL     1      -3.070   7.669 -29.777  1.00  0.00    -0.277 N 
HETATM    6  H   UNL     1      -2.393   8.411 -29.919  1.00  0.00     0.189 HD
HETATM    7  N   UNL     1      -3.749   7.643 -28.618  1.00  0.00    -0.168 NA
HETATM    8  C   UNL     1      -4.549   6.558 -28.736  1.00  0.00     0.156 A 
HETATM    9  C   UNL     1      -2.904   6.350 -31.915  1.00  0.00     0.034 A 
HETATM   10  C   UNL     1      -3.442   5.217 -32.537  1.00  0.00     0.032 A 
ENDROOT
BRANCH   1  11
HETATM   11  N   UNL     1      -4.868   3.295 -32.643  1.00  0.00    -0.324 N 
HETATM   12  C   UNL     1      -6.037   3.172 -33.368  1.00  0.00     0.245 C 
HETATM   13  O   UNL     1      -6.881   4.034 -33.565  1.00  0.00    -0.268 OA
HETATM   14  H   UNL     1      -4.267   2.485 -32.595  1.00  0.00     0.169 HD
BRANCH  12  15
HETATM   15  C   UNL     1      -6.205   1.795 -33.917  1.00  0.00     0.075 C 
HETATM   16  C   UNL     1      -5.690   0.748 -33.254  1.00  0.00     0.017 C 
BRANCH  16  17
HETATM   17  C   UNL     1      -5.776  -0.646 -33.708  1.00  0.00    -0.036 A 
HETATM   18  C   UNL     1      -6.987  -1.233 -34.103  1.00  0.00     0.013 A 
HETATM   19  C   UNL     1      -7.019  -2.550 -34.572  1.00  0.00     0.024 A 
HETATM   20  C   UNL     1      -5.838  -3.284 -34.660  1.00  0.00     0.034 A 
HETATM   21  C   UNL     1      -4.626  -2.711 -34.286  1.00  0.00     0.024 A 
HETATM   22 CL   UNL     1      -5.879  -4.902 -35.243  1.00  0.00    -0.084 Cl
HETATM   23  C   UNL     1      -4.595  -1.394 -33.818  1.00  0.00     0.013 A 
ENDBRANCH  16  17
ENDBRANCH  12  15
ENDBRANCH   1  11
BRANCH   8  24
HETATM   24  C   UNL     1      -5.467   6.171 -27.656  1.00  0.00     0.270 C 
HETATM   25  N   UNL     1      -4.937   5.277 -26.766  1.00  0.00    -0.365 N 
HETATM   26  H   UNL     1      -3.987   4.955 -26.910  1.00  0.00     0.159 HD
HETATM   27  H   UNL     1      -5.496   4.952 -25.994  1.00  0.00     0.159 HD
HETATM   28  O   UNL     1      -6.612   6.589 -27.528  1.00  0.00    -0.266 OA
ENDBRANCH   8  24
TORSDOF 4
ENDMDL
MODEL 7
REMARK VINA RESULT:      -7.9      4.697      9.229
REMARK  4 active torsions:
REMARK  status: ('A' for Active; 'I' for Inactive)
REMARK    1  A    between atoms: C_2  and  C_3 
REMARK    2  A    between atoms: C_4  and  C_5 
REMARK       I    between atoms: C_5  and  N_6 
REMARK    3  A    between atoms: N_6  and  C_7 
REMARK    4  A    between atoms: C_14  and  C_15 
REMARK       I    between atoms: C_15  and  N_16 
ROOT
HETATM    1  C   UNL     1      -5.226   0.219 -33.310  1.00  0.00     0.035 A 
HETATM    2  C   UNL     1      -4.587  -1.027 -33.229  1.00  0.00     0.046 A 
HETATM    3  C   UNL     1      -5.153  -2.145 -33.880  1.00  0.00     0.030 A 
HETATM    4  C   UNL     1      -6.334  -1.979 -34.593  1.00  0.00     0.063 A 
HETATM    5  N   UNL     1      -6.630  -3.214 -35.097  1.00  0.00    -0.277 N 
HETATM    6  H   UNL     1      -7.428  -3.468 -35.669  1.00  0.00     0.189 HD
HETATM    7  N   UNL     1      -5.748  -4.174 -34.775  1.00  0.00    -0.168 NA
HETATM    8  C   UNL     1      -4.827  -3.529 -34.022  1.00  0.00     0.156 A 
HETATM    9  C   UNL     1      -6.993  -0.754 -34.702  1.00  0.00     0.034 A 
HETATM   10  C   UNL     1      -6.414   0.338 -34.044  1.00  0.00     0.032 A 
ENDROOT
BRANCH   1  11
HETATM   11  N   UNL     1      -4.754   1.389 -32.672  1.00  0.00    -0.324 N 
HETATM   12  C   UNL     1      -5.031   2.698 -33.011  1.00  0.00     0.245 C 
HETATM   13  O   UNL     1      -5.777   3.093 -33.896  1.00  0.00    -0.268 OA
HETATM   14  H   UNL     1      -4.125   1.235 -31.896  1.00  0.00     0.169 HD
BRANCH  12  15
HETATM   15  C   UNL     1      -4.277   3.663 -32.159  1.00  0.00     0.075 C 
HETATM   16  C   UNL     1      -3.056   4.071 -32.540  1.00  0.00     0.017 C 
BRANCH  16  17
HETATM   17  C   UNL     1      -2.216   5.000 -31.773  1.00  0.00    -0.036 A 
HETATM   18  C   UNL     1      -2.736   5.831 -30.771  1.00  0.00     0.013 A 
HETATM   19  C   UNL     1      -1.894   6.669 -30.033  1.00  0.00     0.024 A 
HETATM   20  C   UNL     1      -0.524   6.672 -30.286  1.00  0.00     0.034 A 
HETATM   21  C   UNL     1       0.011   5.842 -31.267  1.00  0.00     0.024 A 
HETATM   22 CL   UNL     1       0.511   7.699 -29.373  1.00  0.00    -0.084 Cl
HETATM   23  C   UNL     1      -0.832   5.004 -32.004  1.00  0.00     0.013 A 
ENDBRANCH  16  17
ENDBRANCH  12  15
ENDBRANCH   1  11
BRANCH   8  24
HETATM   24  C   UNL     1      -3.672  -4.242 -33.460  1.00  0.00     0.270 C 
HETATM   25  N   UNL     1      -3.248  -5.301 -34.215  1.00  0.00    -0.365 N 
HETATM   26  H   UNL     1      -3.742  -5.513 -35.074  1.00  0.00     0.159 HD
HETATM   27  H   UNL     1      -2.463  -5.851 -33.906  1.00  0.00     0.159 HD
HETATM   28  O   UNL     1      -3.110  -3.947 -32.411  1.00  0.00    -0.266 OA
ENDBRANCH   8  24
TORSDOF 4
ENDMDL
MODEL 8
REMARK VINA RESULT:      -7.8      4.580      9.461
REMARK  4 active torsions:
REMARK  status: ('A' for Active; 'I' for Inactive)
REMARK    1  A    between atoms: C_2  and  C_3 
REMARK    2  A    between atoms: C_4  and  C_5 
REMARK       I    between atoms: C_5  and  N_6 
REMARK    3  A    between atoms: N_6  and  C_7 
REMARK    4  A    between atoms: C_14  and  C_15 
REMARK       I    between atoms: C_15  and  N_16 
ROOT
HETATM    1  C   UNL     1      -4.305   1.418 -32.397  1.00  0.00     0.035 A 
HETATM    2  C   UNL     1      -5.653   1.214 -32.723  1.00  0.00     0.046 A 
HETATM    3  C   UNL     1      -6.059  -0.021 -33.277  1.00  0.00     0.030 A 
HETATM    4  C   UNL     1      -5.105  -1.009 -33.481  1.00  0.00     0.063 A 
HETATM    5  N   UNL     1      -5.785  -2.064 -34.021  1.00  0.00    -0.277 N 
HETATM    6  H   UNL     1      -5.405  -2.961 -34.301  1.00  0.00     0.189 HD
HETATM    7  N   UNL     1      -7.101  -1.852 -34.190  1.00  0.00    -0.168 NA
HETATM    8  C   UNL     1      -7.286  -0.591 -33.733  1.00  0.00     0.156 A 
HETATM    9  C   UNL     1      -3.756  -0.845 -33.162  1.00  0.00     0.034 A 
HETATM   10  C   UNL     1      -3.379   0.389 -32.619  1.00  0.00     0.032 A 
ENDROOT
BRANCH   1  11
HETATM   11  N   UNL     1      -3.797   2.625 -31.864  1.00  0.00    -0.324 N 
HETATM   12  C   UNL     1      -3.757   3.861 -32.478  1.00  0.00     0.245 C 
HETATM   13  O   UNL     1      -4.198   4.157 -33.579  1.00  0.00    -0.268 OA
HETATM   14  H   UNL     1      -3.401   2.556 -30.938  1.00  0.00     0.169 HD
BRANCH  12  15
HETATM   15  C   UNL     1      -3.064   4.876 -31.633  1.00  0.00     0.075 C 
HETATM   16  C   UNL     1      -1.748   4.758 -31.399  1.00  0.00     0.017 C 
BRANCH  16  17
HETATM   17  C   UNL     1      -0.966   5.684 -30.568  1.00  0.00    -0.036 A 
HETATM   18  C   UNL     1      -1.287   7.044 -30.455  1.00  0.00     0.013 A 
HETATM   19  C   UNL     1      -0.544   7.883 -29.618  1.00  0.00     0.024 A 
HETATM   20  C   UNL     1       0.517   7.363 -28.881  1.00  0.00     0.034 A 
HETATM   21  C   UNL     1       0.840   6.012 -28.971  1.00  0.00     0.024 A 
HETATM   22 CL   UNL     1       1.426   8.395 -27.847  1.00  0.00    -0.084 Cl
HETATM   23  C   UNL     1       0.096   5.174 -29.808  1.00  0.00     0.013 A 
ENDBRANCH  16  17
ENDBRANCH  12  15
ENDBRANCH   1  11
BRANCH   8  24
HETATM   24  C   UNL     1      -8.617   0.032 -33.747  1.00  0.00     0.270 C 
HETATM   25  N   UNL     1      -8.858   0.807 -34.849  1.00  0.00    -0.365 N 
HETATM   26  H   UNL     1      -8.131   0.896 -35.549  1.00  0.00     0.159 HD
HETATM   27  H   UNL     1      -9.745   1.277 -34.943  1.00  0.00     0.159 HD
HETATM   28  O   UNL     1      -9.463  -0.104 -32.871  1.00  0.00    -0.266 OA
ENDBRANCH   8  24
TORSDOF 4
ENDMDL
MODEL 9
REMARK VINA RESULT:      -7.8      5.785      8.186
REMARK  4 active torsions:
REMARK  status: ('A' for Active; 'I' for Inactive)
REMARK    1  A    between atoms: C_2  and  C_3 
REMARK    2  A    between atoms: C_4  and  C_5 
REMARK       I    between atoms: C_5  and  N_6 
REMARK    3  A    between atoms: N_6  and  C_7 
REMARK    4  A    between atoms: C_14  and  C_15 
REMARK       I    between atoms: C_15  and  N_16 
ROOT
HETATM    1  C   UNL     1      -6.609   0.359 -32.278  1.00  0.00     0.035 A 
HETATM    2  C   UNL     1      -5.965  -0.803 -32.726  1.00  0.00     0.046 A 
HETATM    3  C   UNL     1      -4.645  -1.076 -32.304  1.00  0.00     0.030 A 
HETATM    4  C   UNL     1      -4.017  -0.183 -31.446  1.00  0.00     0.063 A 
HETATM    5  N   UNL     1      -2.774  -0.705 -31.225  1.00  0.00    -0.277 N 
HETATM    6  H   UNL     1      -2.038  -0.315 -30.646  1.00  0.00     0.189 HD
HETATM    7  N   UNL     1      -2.533  -1.862 -31.864  1.00  0.00    -0.168 NA
HETATM    8  C   UNL     1      -3.681  -2.105 -32.536  1.00  0.00     0.156 A 
HETATM    9  C   UNL     1      -4.629   0.979 -30.973  1.00  0.00     0.034 A 
HETATM   10  C   UNL     1      -5.936   1.229 -31.410  1.00  0.00     0.032 A 
ENDROOT
BRANCH   1  11
HETATM   11  N   UNL     1      -7.917   0.733 -32.663  1.00  0.00    -0.324 N 
HETATM   12  C   UNL     1      -8.360   1.043 -33.933  1.00  0.00     0.245 C 
HETATM   13  O   UNL     1      -7.718   1.002 -34.973  1.00  0.00    -0.268 OA
HETATM   14  H   UNL     1      -8.587   0.801 -31.910  1.00  0.00     0.169 HD
BRANCH  12  15
HETATM   15  C   UNL     1      -9.787   1.479 -33.931  1.00  0.00     0.075 C 
HETATM   16  C   UNL     1     -10.737   0.636 -33.499  1.00  0.00     0.017 C 
BRANCH  16  17
HETATM   17  C   UNL     1     -12.172   0.948 -33.470  1.00  0.00    -0.036 A 
HETATM   18  C   UNL     1     -13.157  -0.026 -33.690  1.00  0.00     0.013 A 
HETATM   19  C   UNL     1     -14.514   0.303 -33.610  1.00  0.00     0.024 A 
HETATM   20  C   UNL     1     -14.894   1.606 -33.297  1.00  0.00     0.034 A 
HETATM   21  C   UNL     1     -13.929   2.582 -33.062  1.00  0.00     0.024 A 
HETATM   22 CL   UNL     1     -16.563   2.008 -33.193  1.00  0.00    -0.084 Cl
HETATM   23  C   UNL     1     -12.572   2.251 -33.142  1.00  0.00     0.013 A 
ENDBRANCH  16  17
ENDBRANCH  12  15
ENDBRANCH   1  11
BRANCH   8  24
HETATM   24  C   UNL     1      -3.828  -3.301 -33.378  1.00  0.00     0.270 C 
HETATM   25  N   UNL     1      -4.349  -3.049 -34.619  1.00  0.00    -0.365 N 
HETATM   26  H   UNL     1      -4.589  -2.095 -34.860  1.00  0.00     0.159 HD
HETATM   27  H   UNL     1      -4.488  -3.810 -35.264  1.00  0.00     0.159 HD
HETATM   28  O   UNL     1      -3.524  -4.438 -33.038  1.00  0.00    -0.266 OA
ENDBRANCH   8  24
TORSDOF 4
ENDMDL
MODEL 10
REMARK VINA RESULT:      -7.8      4.733      9.398
REMARK  4 active torsions:
REMARK  status: ('A' for Active; 'I' for Inactive)
REMARK    1  A    between atoms: C_2  and  C_3 
REMARK    2  A    between atoms: C_4  and  C_5 
REMARK       I    between atoms: C_5  and  N_6 
REMARK    3  A    between atoms: N_6  and  C_7 
REMARK    4  A    between atoms: C_14  and  C_15 
REMARK       I    between atoms: C_15  and  N_16 
ROOT
HETATM    1  C   UNL     1      -3.319   3.372 -31.713  1.00  0.00     0.035 A 
HETATM    2  C   UNL     1      -3.170   1.980 -31.790  1.00  0.00     0.046 A 
HETATM    3  C   UNL     1      -4.204   1.197 -32.351  1.00  0.00     0.030 A 
HETATM    4  C   UNL     1      -5.346   1.833 -32.820  1.00  0.00     0.063 A 
HETATM    5  N   UNL     1      -6.150   0.833 -33.291  1.00  0.00    -0.277 N 
HETATM    6  H   UNL     1      -7.069   0.929 -33.707  1.00  0.00     0.189 HD
HETATM    7  N   UNL     1      -5.633  -0.402 -33.171  1.00  0.00    -0.168 NA
HETATM    8  C   UNL     1      -4.429  -0.193 -32.590  1.00  0.00     0.156 A 
HETATM    9  C   UNL     1      -5.526   3.215 -32.767  1.00  0.00     0.034 A 
HETATM   10  C   UNL     1      -4.489   3.968 -32.203  1.00  0.00     0.032 A 
ENDROOT
BRANCH   1  11
HETATM   11  N   UNL     1      -2.356   4.237 -31.146  1.00  0.00    -0.324 N 
HETATM   12  C   UNL     1      -1.375   4.949 -31.807  1.00  0.00     0.245 C 
HETATM   13  O   UNL     1      -1.186   5.005 -33.014  1.00  0.00    -0.268 OA
HETATM   14  H   UNL     1      -2.385   4.316 -30.139  1.00  0.00     0.169 HD
BRANCH  12  15
HETATM   15  C   UNL     1      -0.489   5.684 -30.859  1.00  0.00     0.075 C 
HETATM   16  C   UNL     1      -0.919   5.943 -29.614  1.00  0.00     0.017 C 
BRANCH  16  17
HETATM   17  C   UNL     1      -0.144   6.675 -28.604  1.00  0.00    -0.036 A 
HETATM   18  C   UNL     1      -0.155   6.320 -27.247  1.00  0.00     0.013 A 
HETATM   19  C   UNL     1       0.633   7.016 -26.324  1.00  0.00     0.024 A 
HETATM   20  C   UNL     1       1.445   8.062 -26.755  1.00  0.00     0.034 A 
HETATM   21  C   UNL     1       1.478   8.417 -28.100  1.00  0.00     0.024 A 
HETATM   22 CL   UNL     1       2.418   8.912 -25.619  1.00  0.00    -0.084 Cl
HETATM   23  C   UNL     1       0.691   7.721 -29.023  1.00  0.00     0.013 A 
ENDBRANCH  16  17
ENDBRANCH  12  15
ENDBRANCH   1  11
BRANCH   8  24
HETATM   24  C   UNL     1      -3.533  -1.315 -32.279  1.00  0.00     0.270 C 
HETATM   25  N   UNL     1      -2.561  -1.016 -31.363  1.00  0.00    -0.365 N 
HETATM   26  H   UNL     1      -2.526  -0.078 -30.981  1.00  0.00     0.159 HD
HETATM   27  H   UNL     1      -1.898  -1.724 -31.091  1.00  0.00     0.159 HD
HETATM   28  O   UNL     1      -3.614  -2.434 -32.773  1.00  0.00    -0.266 OA
ENDBRANCH   8  24
TORSDOF 4
ENDMDL
