MODEL 1
REMARK VINA RESULT:      -9.6      0.000      0.000
REMARK  4 active torsions:
REMARK  status: ('A' for Active; 'I' for Inactive)
REMARK    1  A    between atoms: C_5  and  C_6 
REMARK    2  A    between atoms: C_8  and  O_9 
REMARK    3  A    between atoms: C_15  and  C_16 
REMARK       I    between atoms: C_16  and  N_17 
REMARK    4  A    between atoms: N_17  and  C_18 
ROOT
HETATM    1  C   UNL     1      -6.118   2.729 -30.013  1.00  0.00     0.071 C 
HETATM    2  C   UNL     1      -4.823   2.898 -30.709  1.00  0.00     0.041 A 
HETATM    3  N   UNL     1      -4.166   4.099 -30.794  1.00  0.00    -0.342 N 
HETATM    4  H   UNL     1      -4.472   4.969 -30.384  1.00  0.00     0.167 HD
HETATM    5  C   UNL     1      -3.008   3.924 -31.517  1.00  0.00     0.139 A 
HETATM    6  N   UNL     1      -2.876   2.652 -31.850  1.00  0.00    -0.223 NA
HETATM    7  C   UNL     1      -4.014   2.002 -31.385  1.00  0.00     0.149 A 
ENDROOT
BRANCH   7   8
HETATM    8  C   UNL     1      -4.260   0.572 -31.618  1.00  0.00     0.276 C 
HETATM    9  N   UNL     1      -4.703   0.352 -32.906  1.00  0.00    -0.322 N 
HETATM   10  H   UNL     1      -4.742   1.195 -33.474  1.00  0.00     0.169 HD
HETATM   11  O   UNL     1      -4.074  -0.273 -30.750  1.00  0.00    -0.266 OA
BRANCH   9  12
HETATM   12  C   UNL     1      -5.100  -0.860 -33.497  1.00  0.00     0.035 A 
HETATM   13  C   UNL     1      -4.301  -2.007 -33.516  1.00  0.00     0.039 A 
HETATM   14  C   UNL     1      -4.803  -3.159 -34.103  1.00  0.00    -0.024 A 
HETATM   15  C   UNL     1      -6.061  -3.188 -34.681  1.00  0.00    -0.026 A 
HETATM   16  C   UNL     1      -4.163  -4.490 -34.249  1.00  0.00     0.207 C 
HETATM   17  C   UNL     1      -6.309  -4.536 -35.249  1.00  0.00     0.207 C 
HETATM   18  C   UNL     1      -6.868  -2.065 -34.686  1.00  0.00     0.012 A 
HETATM   19  O   UNL     1      -5.207  -5.345 -34.775  1.00  0.00    -0.382 OA
HETATM   20  C   UNL     1      -6.382  -0.900 -34.082  1.00  0.00     0.030 A 
ENDBRANCH   9  12
ENDBRANCH   7   8
BRANCH   5  21
HETATM   21  C   UNL     1      -2.070   5.004 -31.831  1.00  0.00     0.013 A 
HETATM   22  C   UNL     1      -1.154   5.492 -30.881  1.00  0.00     0.052 A 
HETATM   23  C   UNL     1      -0.273   6.529 -31.206  1.00  0.00     0.069 A 
HETATM   24  C   UNL     1      -0.302   7.077 -32.490  1.00  0.00     0.037 A 
HETATM   25  C   UNL     1      -1.211   6.612 -33.438  1.00  0.00     0.004 A 
HETATM   26  C   UNL     1      -2.093   5.585 -33.107  1.00  0.00     0.015 A 
BRANCH  23  27
HETATM   27  O   UNL     1       0.654   7.087 -30.369  1.00  0.00    -0.356 OA
HETATM   28  C   UNL     1       0.332   7.137 -28.985  1.00  0.00     0.210 C 
ENDBRANCH  23  27
ENDBRANCH   5  21
TORSDOF 4
ENDMDL
MODEL 2
REMARK VINA RESULT:      -9.6      1.141      1.421
REMARK  4 active torsions:
REMARK  status: ('A' for Active; 'I' for Inactive)
REMARK    1  A    between atoms: C_5  and  C_6 
REMARK    2  A    between atoms: C_8  and  O_9 
REMARK    3  A    between atoms: C_15  and  C_16 
REMARK       I    between atoms: C_16  and  N_17 
REMARK    4  A    between atoms: N_17  and  C_18 
ROOT
HETATM    1  C   UNL     1      -6.251   2.574 -30.154  1.00  0.00     0.071 C 
HETATM    2  C   UNL     1      -4.893   2.833 -30.682  1.00  0.00     0.041 A 
HETATM    3  N   UNL     1      -4.296   4.067 -30.645  1.00  0.00    -0.342 N 
HETATM    4  H   UNL     1      -4.695   4.905 -30.247  1.00  0.00     0.167 HD
HETATM    5  C   UNL     1      -3.052   3.978 -31.227  1.00  0.00     0.139 A 
HETATM    6  N   UNL     1      -2.814   2.728 -31.585  1.00  0.00    -0.223 NA
HETATM    7  C   UNL     1      -3.963   2.005 -31.283  1.00  0.00     0.149 A 
ENDROOT
BRANCH   7   8
HETATM    8  C   UNL     1      -4.102   0.575 -31.593  1.00  0.00     0.276 C 
HETATM    9  N   UNL     1      -4.736   0.393 -32.805  1.00  0.00    -0.322 N 
HETATM   10  H   UNL     1      -4.954   1.262 -33.286  1.00  0.00     0.169 HD
HETATM   11  O   UNL     1      -3.688  -0.299 -30.840  1.00  0.00    -0.266 OA
BRANCH   9  12
HETATM   12  C   UNL     1      -5.106  -0.814 -33.423  1.00  0.00     0.035 A 
HETATM   13  C   UNL     1      -4.293  -1.951 -33.444  1.00  0.00     0.039 A 
HETATM   14  C   UNL     1      -4.769  -3.099 -34.060  1.00  0.00    -0.024 A 
HETATM   15  C   UNL     1      -6.015  -3.134 -34.662  1.00  0.00    -0.026 A 
HETATM   16  C   UNL     1      -4.109  -4.420 -34.214  1.00  0.00     0.207 C 
HETATM   17  C   UNL     1      -6.235  -4.475 -35.256  1.00  0.00     0.207 C 
HETATM   18  C   UNL     1      -6.835  -2.021 -34.665  1.00  0.00     0.012 A 
HETATM   19  O   UNL     1      -5.132  -5.278 -34.774  1.00  0.00    -0.382 OA
HETATM   20  C   UNL     1      -6.376  -0.860 -34.034  1.00  0.00     0.030 A 
ENDBRANCH   9  12
ENDBRANCH   7   8
BRANCH   5  21
HETATM   21  C   UNL     1      -2.142   5.115 -31.389  1.00  0.00     0.013 A 
HETATM   22  C   UNL     1      -2.612   6.401 -31.707  1.00  0.00     0.052 A 
HETATM   23  C   UNL     1      -1.721   7.469 -31.861  1.00  0.00     0.069 A 
HETATM   24  C   UNL     1      -0.353   7.251 -31.690  1.00  0.00     0.037 A 
HETATM   25  C   UNL     1       0.129   5.979 -31.387  1.00  0.00     0.004 A 
HETATM   26  C   UNL     1      -0.762   4.917 -31.243  1.00  0.00     0.015 A 
BRANCH  23  27
HETATM   27  O   UNL     1      -2.058   8.758 -32.172  1.00  0.00    -0.356 OA
HETATM   28  C   UNL     1      -2.495   9.589 -31.104  1.00  0.00     0.210 C 
ENDBRANCH  23  27
ENDBRANCH   5  21
TORSDOF 4
ENDMDL
MODEL 3
REMARK VINA RESULT:      -8.3      2.026      9.070
REMARK  4 active torsions:
REMARK  status: ('A' for Active; 'I' for Inactive)
REMARK    1  A    between atoms: C_5  and  C_6 
REMARK    2  A    between atoms: C_8  and  O_9 
REMARK    3  A    between atoms: C_15  and  C_16 
REMARK       I    between atoms: C_16  and  N_17 
REMARK    4  A    between atoms: N_17  and  C_18 
ROOT
HETATM    1  C   UNL     1      -8.627   2.303 -32.409  1.00  0.00     0.071 C 
HETATM    2  C   UNL     1      -7.513   1.497 -32.957  1.00  0.00     0.041 A 
HETATM    3  N   UNL     1      -7.614   0.155 -33.216  1.00  0.00    -0.342 N 
HETATM    4  H   UNL     1      -8.440  -0.412 -33.087  1.00  0.00     0.167 HD
HETATM    5  C   UNL     1      -6.407  -0.298 -33.699  1.00  0.00     0.139 A 
HETATM    6  N   UNL     1      -5.562   0.711 -33.806  1.00  0.00    -0.223 NA
HETATM    7  C   UNL     1      -6.221   1.833 -33.317  1.00  0.00     0.149 A 
ENDROOT
BRANCH   7   8
HETATM    8  C   UNL     1      -5.576   3.150 -33.219  1.00  0.00     0.276 C 
HETATM    9  N   UNL     1      -4.287   3.033 -32.739  1.00  0.00    -0.322 N 
HETATM   10  H   UNL     1      -3.998   2.071 -32.579  1.00  0.00     0.169 HD
HETATM   11  O   UNL     1      -6.151   4.184 -33.539  1.00  0.00    -0.266 OA
BRANCH   9  12
HETATM   12  C   UNL     1      -3.369   4.056 -32.449  1.00  0.00     0.035 A 
HETATM   13  C   UNL     1      -3.434   4.848 -31.299  1.00  0.00     0.039 A 
HETATM   14  C   UNL     1      -2.458   5.814 -31.099  1.00  0.00    -0.024 A 
HETATM   15  C   UNL     1      -1.442   6.016 -32.017  1.00  0.00    -0.026 A 
HETATM   16  C   UNL     1      -2.304   6.770 -29.974  1.00  0.00     0.207 C 
HETATM   17  C   UNL     1      -0.574   7.125 -31.550  1.00  0.00     0.207 C 
HETATM   18  C   UNL     1      -1.360   5.255 -33.168  1.00  0.00     0.012 A 
HETATM   19  O   UNL     1      -1.024   7.406 -30.204  1.00  0.00    -0.382 OA
HETATM   20  C   UNL     1      -2.327   4.265 -33.375  1.00  0.00     0.030 A 
ENDBRANCH   9  12
ENDBRANCH   7   8
BRANCH   5  21
HETATM   21  C   UNL     1      -6.142  -1.695 -34.055  1.00  0.00     0.013 A 
HETATM   22  C   UNL     1      -4.848  -2.242 -33.996  1.00  0.00     0.052 A 
HETATM   23  C   UNL     1      -4.620  -3.577 -34.346  1.00  0.00     0.069 A 
HETATM   24  C   UNL     1      -5.694  -4.372 -34.752  1.00  0.00     0.037 A 
HETATM   25  C   UNL     1      -6.979  -3.841 -34.827  1.00  0.00     0.004 A 
HETATM   26  C   UNL     1      -7.199  -2.507 -34.486  1.00  0.00     0.015 A 
BRANCH  23  27
HETATM   27  O   UNL     1      -3.411  -4.217 -34.332  1.00  0.00    -0.356 OA
HETATM   28  C   UNL     1      -3.099  -4.987 -33.178  1.00  0.00     0.210 C 
ENDBRANCH  23  27
ENDBRANCH   5  21
TORSDOF 4
ENDMDL
MODEL 4
REMARK VINA RESULT:      -8.3      5.486      7.169
REMARK  4 active torsions:
REMARK  status: ('A' for Active; 'I' for Inactive)
REMARK    1  A    between atoms: C_5  and  C_6 
REMARK    2  A    between atoms: C_8  and  O_9 
REMARK    3  A    between atoms: C_15  and  C_16 
REMARK       I    between atoms: C_16  and  N_17 
REMARK    4  A    between atoms: N_17  and  C_18 
ROOT
HETATM    1  C   UNL     1      -5.888   3.972 -32.948  1.00  0.00     0.071 C 
HETATM    2  C   UNL     1      -7.253   3.639 -33.414  1.00  0.00     0.041 A 
HETATM    3  N   UNL     1      -8.137   4.577 -33.880  1.00  0.00    -0.342 N 
HETATM    4  H   UNL     1      -7.954   5.566 -33.976  1.00  0.00     0.167 HD
HETATM    5  C   UNL     1      -9.317   3.951 -34.215  1.00  0.00     0.139 A 
HETATM    6  N   UNL     1      -9.200   2.649 -34.028  1.00  0.00    -0.223 NA
HETATM    7  C   UNL     1      -7.932   2.437 -33.497  1.00  0.00     0.149 A 
ENDROOT
BRANCH   7   8
HETATM    8  C   UNL     1      -7.453   1.106 -33.100  1.00  0.00     0.276 C 
HETATM    9  N   UNL     1      -6.748   0.509 -34.125  1.00  0.00    -0.322 N 
HETATM   10  H   UNL     1      -6.647   1.099 -34.947  1.00  0.00     0.169 HD
HETATM   11  O   UNL     1      -7.675   0.637 -31.989  1.00  0.00    -0.266 OA
BRANCH   9  12
HETATM   12  C   UNL     1      -6.183  -0.777 -34.162  1.00  0.00     0.035 A 
HETATM   13  C   UNL     1      -6.847  -1.897 -34.670  1.00  0.00     0.039 A 
HETATM   14  C   UNL     1      -6.184  -3.116 -34.683  1.00  0.00    -0.024 A 
HETATM   15  C   UNL     1      -4.897  -3.244 -34.190  1.00  0.00    -0.026 A 
HETATM   16  C   UNL     1      -6.662  -4.436 -35.163  1.00  0.00     0.207 C 
HETATM   17  C   UNL     1      -4.465  -4.659 -34.308  1.00  0.00     0.207 C 
HETATM   18  C   UNL     1      -4.221  -2.155 -33.671  1.00  0.00     0.012 A 
HETATM   19  O   UNL     1      -5.498  -5.295 -35.096  1.00  0.00    -0.382 OA
HETATM   20  C   UNL     1      -4.870  -0.916 -33.668  1.00  0.00     0.030 A 
ENDBRANCH   9  12
ENDBRANCH   7   8
BRANCH   5  21
HETATM   21  C   UNL     1     -10.499   4.653 -34.722  1.00  0.00     0.013 A 
HETATM   22  C   UNL     1     -10.411   5.929 -35.305  1.00  0.00     0.052 A 
HETATM   23  C   UNL     1     -11.556   6.580 -35.776  1.00  0.00     0.069 A 
HETATM   24  C   UNL     1     -12.796   5.947 -35.671  1.00  0.00     0.037 A 
HETATM   25  C   UNL     1     -12.901   4.688 -35.085  1.00  0.00     0.004 A 
HETATM   26  C   UNL     1     -11.758   4.048 -34.608  1.00  0.00     0.015 A 
BRANCH  23  27
HETATM   27  O   UNL     1     -11.596   7.818 -36.356  1.00  0.00    -0.356 OA
HETATM   28  C   UNL     1     -10.367   8.347 -36.839  1.00  0.00     0.210 C 
ENDBRANCH  23  27
ENDBRANCH   5  21
TORSDOF 4
ENDMDL
MODEL 5
REMARK VINA RESULT:      -8.1      6.570      8.470
REMARK  4 active torsions:
REMARK  status: ('A' for Active; 'I' for Inactive)
REMARK    1  A    between atoms: C_5  and  C_6 
REMARK    2  A    between atoms: C_8  and  O_9 
REMARK    3  A    between atoms: C_15  and  C_16 
REMARK       I    between atoms: C_16  and  N_17 
REMARK    4  A    between atoms: N_17  and  C_18 
ROOT
HETATM    1  C   UNL     1     -13.083   0.108 -33.805  1.00  0.00     0.071 C 
HETATM    2  C   UNL     1     -12.187   1.270 -33.998  1.00  0.00     0.041 A 
HETATM    3  N   UNL     1     -12.622   2.485 -34.460  1.00  0.00    -0.342 N 
HETATM    4  H   UNL     1     -13.576   2.722 -34.692  1.00  0.00     0.167 HD
HETATM    5  C   UNL     1     -11.548   3.342 -34.544  1.00  0.00     0.139 A 
HETATM    6  N   UNL     1     -10.458   2.737 -34.105  1.00  0.00    -0.223 NA
HETATM    7  C   UNL     1     -10.829   1.433 -33.792  1.00  0.00     0.149 A 
ENDROOT
BRANCH   7   8
HETATM    8  C   UNL     1      -9.866   0.428 -33.322  1.00  0.00     0.276 C 
HETATM    9  N   UNL     1      -8.638   0.600 -33.927  1.00  0.00    -0.322 N 
HETATM   10  H   UNL     1      -8.600   1.404 -34.549  1.00  0.00     0.169 HD
HETATM   11  O   UNL     1     -10.165  -0.427 -32.496  1.00  0.00    -0.266 OA
BRANCH   9  12
HETATM   12  C   UNL     1      -7.480  -0.185 -33.791  1.00  0.00     0.035 A 
HETATM   13  C   UNL     1      -7.204  -1.296 -34.592  1.00  0.00     0.039 A 
HETATM   14  C   UNL     1      -6.017  -1.985 -34.390  1.00  0.00    -0.024 A 
HETATM   15  C   UNL     1      -5.119  -1.605 -33.407  1.00  0.00    -0.026 A 
HETATM   16  C   UNL     1      -5.497  -3.181 -35.098  1.00  0.00     0.207 C 
HETATM   17  C   UNL     1      -3.966  -2.539 -33.409  1.00  0.00     0.207 C 
HETATM   18  C   UNL     1      -5.372  -0.516 -32.594  1.00  0.00     0.012 A 
HETATM   19  O   UNL     1      -4.150  -3.351 -34.592  1.00  0.00    -0.382 OA
HETATM   20  C   UNL     1      -6.557   0.199 -32.797  1.00  0.00     0.030 A 
ENDBRANCH   9  12
ENDBRANCH   7   8
BRANCH   5  21
HETATM   21  C   UNL     1     -11.638   4.721 -35.029  1.00  0.00     0.013 A 
HETATM   22  C   UNL     1     -12.864   5.295 -35.408  1.00  0.00     0.052 A 
HETATM   23  C   UNL     1     -12.922   6.613 -35.874  1.00  0.00     0.069 A 
HETATM   24  C   UNL     1     -11.748   7.365 -35.954  1.00  0.00     0.037 A 
HETATM   25  C   UNL     1     -10.524   6.806 -35.593  1.00  0.00     0.004 A 
HETATM   26  C   UNL     1     -10.470   5.489 -35.139  1.00  0.00     0.015 A 
BRANCH  23  27
HETATM   27  O   UNL     1     -14.051   7.276 -36.273  1.00  0.00    -0.356 OA
HETATM   28  C   UNL     1     -14.398   7.192 -37.650  1.00  0.00     0.210 C 
ENDBRANCH  23  27
ENDBRANCH   5  21
TORSDOF 4
ENDMDL
MODEL 6
REMARK VINA RESULT:      -8.0      3.935      4.866
REMARK  4 active torsions:
REMARK  status: ('A' for Active; 'I' for Inactive)
REMARK    1  A    between atoms: C_5  and  C_6 
REMARK    2  A    between atoms: C_8  and  O_9 
REMARK    3  A    between atoms: C_15  and  C_16 
REMARK       I    between atoms: C_16  and  N_17 
REMARK    4  A    between atoms: N_17  and  C_18 
ROOT
HETATM    1  C   UNL     1      -4.947   0.628 -30.854  1.00  0.00     0.071 C 
HETATM    2  C   UNL     1      -4.650   1.763 -31.756  1.00  0.00     0.041 A 
HETATM    3  N   UNL     1      -3.610   2.633 -31.551  1.00  0.00    -0.342 N 
HETATM    4  H   UNL     1      -2.940   2.585 -30.798  1.00  0.00     0.167 HD
HETATM    5  C   UNL     1      -3.617   3.579 -32.551  1.00  0.00     0.139 A 
HETATM    6  N   UNL     1      -4.586   3.316 -33.410  1.00  0.00    -0.223 NA
HETATM    7  C   UNL     1      -5.263   2.206 -32.914  1.00  0.00     0.149 A 
ENDROOT
BRANCH   7   8
HETATM    8  C   UNL     1      -6.451   1.645 -33.572  1.00  0.00     0.276 C 
HETATM    9  N   UNL     1      -7.606   2.210 -33.071  1.00  0.00    -0.322 N 
HETATM   10  H   UNL     1      -7.436   2.934 -32.377  1.00  0.00     0.169 HD
HETATM   11  O   UNL     1      -6.369   0.791 -34.448  1.00  0.00    -0.266 OA
BRANCH   9  12
HETATM   12  C   UNL     1      -8.938   1.903 -33.394  1.00  0.00     0.035 A 
HETATM   13  C   UNL     1      -9.733   2.699 -34.225  1.00  0.00     0.039 A 
HETATM   14  C   UNL     1     -11.029   2.287 -34.500  1.00  0.00    -0.024 A 
HETATM   15  C   UNL     1     -11.549   1.124 -33.958  1.00  0.00    -0.026 A 
HETATM   16  C   UNL     1     -12.060   2.943 -35.341  1.00  0.00     0.207 C 
HETATM   17  C   UNL     1     -12.955   0.961 -34.404  1.00  0.00     0.207 C 
HETATM   18  C   UNL     1     -10.789   0.325 -33.125  1.00  0.00     0.012 A 
HETATM   19  O   UNL     1     -13.145   1.986 -35.407  1.00  0.00    -0.382 OA
HETATM   20  C   UNL     1      -9.474   0.717 -32.852  1.00  0.00     0.030 A 
ENDBRANCH   9  12
ENDBRANCH   7   8
BRANCH   5  21
HETATM   21  C   UNL     1      -2.662   4.688 -32.634  1.00  0.00     0.013 A 
HETATM   22  C   UNL     1      -1.633   4.852 -31.690  1.00  0.00     0.052 A 
HETATM   23  C   UNL     1      -0.738   5.922 -31.788  1.00  0.00     0.069 A 
HETATM   24  C   UNL     1      -0.868   6.830 -32.841  1.00  0.00     0.037 A 
HETATM   25  C   UNL     1      -1.890   6.687 -33.777  1.00  0.00     0.004 A 
HETATM   26  C   UNL     1      -2.785   5.624 -33.669  1.00  0.00     0.015 A 
BRANCH  23  27
HETATM   27  O   UNL     1       0.296   6.187 -30.932  1.00  0.00    -0.356 OA
HETATM   28  C   UNL     1       0.383   5.392 -29.756  1.00  0.00     0.210 C 
ENDBRANCH  23  27
ENDBRANCH   5  21
TORSDOF 4
ENDMDL
MODEL 7
REMARK VINA RESULT:      -8.0      3.022     10.337
REMARK  4 active torsions:
REMARK  status: ('A' for Active; 'I' for Inactive)
REMARK    1  A    between atoms: C_5  and  C_6 
REMARK    2  A    between atoms: C_8  and  O_9 
REMARK    3  A    between atoms: C_15  and  C_16 
REMARK       I    between atoms: C_16  and  N_17 
REMARK    4  A    between atoms: N_17  and  C_18 
ROOT
HETATM    1  C   UNL     1      -1.566   6.101 -34.093  1.00  0.00     0.071 C 
HETATM    2  C   UNL     1      -1.909   5.077 -33.081  1.00  0.00     0.041 A 
HETATM    3  N   UNL     1      -2.807   4.066 -33.309  1.00  0.00    -0.342 N 
HETATM    4  H   UNL     1      -3.302   3.900 -34.173  1.00  0.00     0.167 HD
HETATM    5  C   UNL     1      -2.914   3.300 -32.171  1.00  0.00     0.139 A 
HETATM    6  N   UNL     1      -2.084   3.751 -31.248  1.00  0.00    -0.223 NA
HETATM    7  C   UNL     1      -1.472   4.879 -31.784  1.00  0.00     0.149 A 
ENDROOT
BRANCH   7   8
HETATM    8  C   UNL     1      -0.516   5.697 -31.024  1.00  0.00     0.276 C 
HETATM    9  N   UNL     1      -1.066   6.116 -29.830  1.00  0.00    -0.322 N 
HETATM   10  H   UNL     1      -2.003   5.757 -29.665  1.00  0.00     0.169 HD
HETATM   11  O   UNL     1       0.610   5.942 -31.442  1.00  0.00    -0.266 OA
BRANCH   9  12
HETATM   12  C   UNL     1      -0.499   6.956 -28.856  1.00  0.00     0.035 A 
HETATM   13  C   UNL     1      -0.926   8.267 -28.626  1.00  0.00     0.039 A 
HETATM   14  C   UNL     1      -0.314   9.001 -27.620  1.00  0.00    -0.024 A 
HETATM   15  C   UNL     1       0.713   8.468 -26.860  1.00  0.00    -0.026 A 
HETATM   16  C   UNL     1      -0.581  10.393 -27.183  1.00  0.00     0.207 C 
HETATM   17  C   UNL     1       1.185   9.488 -25.891  1.00  0.00     0.207 C 
HETATM   18  C   UNL     1       1.162   7.178 -27.073  1.00  0.00     0.012 A 
HETATM   19  O   UNL     1       0.224  10.566 -25.992  1.00  0.00    -0.382 OA
HETATM   20  C   UNL     1       0.543   6.420 -28.073  1.00  0.00     0.030 A 
ENDBRANCH   9  12
ENDBRANCH   7   8
BRANCH   5  21
HETATM   21  C   UNL     1      -3.809   2.147 -32.044  1.00  0.00     0.013 A 
HETATM   22  C   UNL     1      -5.112   2.157 -32.574  1.00  0.00     0.052 A 
HETATM   23  C   UNL     1      -5.948   1.044 -32.433  1.00  0.00     0.069 A 
HETATM   24  C   UNL     1      -5.478  -0.088 -31.766  1.00  0.00     0.037 A 
HETATM   25  C   UNL     1      -4.194  -0.108 -31.225  1.00  0.00     0.004 A 
HETATM   26  C   UNL     1      -3.367   1.006 -31.359  1.00  0.00     0.015 A 
BRANCH  23  27
HETATM   27  O   UNL     1      -7.230   0.938 -32.901  1.00  0.00    -0.356 OA
HETATM   28  C   UNL     1      -8.240   0.615 -31.954  1.00  0.00     0.210 C 
ENDBRANCH  23  27
ENDBRANCH   5  21
TORSDOF 4
ENDMDL
MODEL 8
REMARK VINA RESULT:      -7.9      3.937      8.748
REMARK  4 active torsions:
REMARK  status: ('A' for Active; 'I' for Inactive)
REMARK    1  A    between atoms: C_5  and  C_6 
REMARK    2  A    between atoms: C_8  and  O_9 
REMARK    3  A    between atoms: C_15  and  C_16 
REMARK       I    between atoms: C_16  and  N_17 
REMARK    4  A    between atoms: N_17  and  C_18 
ROOT
HETATM    1  C   UNL     1      -3.511   2.763 -32.301  1.00  0.00     0.071 C 
HETATM    2  C   UNL     1      -4.256   1.514 -32.581  1.00  0.00     0.041 A 
HETATM    3  N   UNL     1      -3.659   0.281 -32.639  1.00  0.00    -0.342 N 
HETATM    4  H   UNL     1      -2.680   0.091 -32.481  1.00  0.00     0.167 HD
HETATM    5  C   UNL     1      -4.616  -0.664 -32.933  1.00  0.00     0.139 A 
HETATM    6  N   UNL     1      -5.803  -0.089 -33.013  1.00  0.00    -0.223 NA
HETATM    7  C   UNL     1      -5.595   1.274 -32.829  1.00  0.00     0.149 A 
ENDROOT
BRANCH   7   8
HETATM    8  C   UNL     1      -6.684   2.258 -32.907  1.00  0.00     0.276 C 
HETATM    9  N   UNL     1      -7.727   1.906 -32.076  1.00  0.00    -0.322 N 
HETATM   10  H   UNL     1      -7.548   1.066 -31.530  1.00  0.00     0.169 HD
HETATM   11  O   UNL     1      -6.620   3.245 -33.631  1.00  0.00    -0.266 OA
BRANCH   9  12
HETATM   12  C   UNL     1      -8.966   2.549 -31.910  1.00  0.00     0.035 A 
HETATM   13  C   UNL     1     -10.022   2.433 -32.818  1.00  0.00     0.039 A 
HETATM   14  C   UNL     1     -11.212   3.091 -32.542  1.00  0.00    -0.024 A 
HETATM   15  C   UNL     1     -11.364   3.865 -31.405  1.00  0.00    -0.026 A 
HETATM   16  C   UNL     1     -12.467   3.126 -33.334  1.00  0.00     0.207 C 
HETATM   17  C   UNL     1     -12.723   4.462 -31.396  1.00  0.00     0.207 C 
HETATM   18  C   UNL     1     -10.332   4.006 -30.496  1.00  0.00     0.012 A 
HETATM   19  O   UNL     1     -13.419   3.812 -32.485  1.00  0.00    -0.382 OA
HETATM   20  C   UNL     1      -9.131   3.335 -30.751  1.00  0.00     0.030 A 
ENDBRANCH   9  12
ENDBRANCH   7   8
BRANCH   5  21
HETATM   21  C   UNL     1      -4.330  -2.091 -33.103  1.00  0.00     0.013 A 
HETATM   22  C   UNL     1      -5.041  -2.886 -34.020  1.00  0.00     0.052 A 
HETATM   23  C   UNL     1      -4.752  -4.247 -34.158  1.00  0.00     0.069 A 
HETATM   24  C   UNL     1      -3.741  -4.817 -33.381  1.00  0.00     0.037 A 
HETATM   25  C   UNL     1      -3.037  -4.044 -32.460  1.00  0.00     0.004 A 
HETATM   26  C   UNL     1      -3.335  -2.690 -32.319  1.00  0.00     0.015 A 
BRANCH  23  27
HETATM   27  O   UNL     1      -5.375  -5.119 -35.009  1.00  0.00    -0.356 OA
HETATM   28  C   UNL     1      -6.596  -4.689 -35.597  1.00  0.00     0.210 C 
ENDBRANCH  23  27
ENDBRANCH   5  21
TORSDOF 4
ENDMDL
MODEL 9
REMARK VINA RESULT:      -7.7      4.524      5.629
REMARK  4 active torsions:
REMARK  status: ('A' for Active; 'I' for Inactive)
REMARK    1  A    between atoms: C_5  and  C_6 
REMARK    2  A    between atoms: C_8  and  O_9 
REMARK    3  A    between atoms: C_15  and  C_16 
REMARK       I    between atoms: C_16  and  N_17 
REMARK    4  A    between atoms: N_17  and  C_18 
ROOT
HETATM    1  C   UNL     1      -5.634  -1.073 -32.903  1.00  0.00     0.071 C 
HETATM    2  C   UNL     1      -5.559   0.393 -32.713  1.00  0.00     0.041 A 
HETATM    3  N   UNL     1      -4.392   1.105 -32.815  1.00  0.00    -0.342 N 
HETATM    4  H   UNL     1      -3.486   0.724 -33.044  1.00  0.00     0.167 HD
HETATM    5  C   UNL     1      -4.657   2.433 -32.567  1.00  0.00     0.139 A 
HETATM    6  N   UNL     1      -5.952   2.601 -32.365  1.00  0.00    -0.223 NA
HETATM    7  C   UNL     1      -6.527   1.336 -32.418  1.00  0.00     0.149 A 
ENDROOT
BRANCH   7   8
HETATM    8  C   UNL     1      -7.959   1.108 -32.180  1.00  0.00     0.276 C 
HETATM    9  N   UNL     1      -8.723   1.682 -33.176  1.00  0.00    -0.322 N 
HETATM   10  H   UNL     1      -8.172   2.117 -33.911  1.00  0.00     0.169 HD
HETATM   11  O   UNL     1      -8.367   0.480 -31.209  1.00  0.00    -0.266 OA
BRANCH   9  12
HETATM   12  C   UNL     1     -10.123   1.736 -33.279  1.00  0.00     0.035 A 
HETATM   13  C   UNL     1     -10.925   0.611 -33.490  1.00  0.00     0.039 A 
HETATM   14  C   UNL     1     -12.301   0.775 -33.550  1.00  0.00    -0.024 A 
HETATM   15  C   UNL     1     -12.887   2.023 -33.423  1.00  0.00    -0.026 A 
HETATM   16  C   UNL     1     -13.357  -0.246 -33.760  1.00  0.00     0.207 C 
HETATM   17  C   UNL     1     -14.359   1.890 -33.557  1.00  0.00     0.207 C 
HETATM   18  C   UNL     1     -12.117   3.154 -33.225  1.00  0.00     0.012 A 
HETATM   19  O   UNL     1     -14.602   0.464 -33.553  1.00  0.00    -0.382 OA
HETATM   20  C   UNL     1     -10.729   3.002 -33.145  1.00  0.00     0.030 A 
ENDBRANCH   9  12
ENDBRANCH   7   8
BRANCH   5  21
HETATM   21  C   UNL     1      -3.635   3.483 -32.561  1.00  0.00     0.013 A 
HETATM   22  C   UNL     1      -2.675   3.578 -31.538  1.00  0.00     0.052 A 
HETATM   23  C   UNL     1      -1.713   4.593 -31.553  1.00  0.00     0.069 A 
HETATM   24  C   UNL     1      -1.706   5.516 -32.601  1.00  0.00     0.037 A 
HETATM   25  C   UNL     1      -2.658   5.442 -33.615  1.00  0.00     0.004 A 
HETATM   26  C   UNL     1      -3.620   4.434 -33.591  1.00  0.00     0.015 A 
BRANCH  23  27
HETATM   27  O   UNL     1      -0.736   4.789 -30.615  1.00  0.00    -0.356 OA
HETATM   28  C   UNL     1       0.504   5.314 -31.072  1.00  0.00     0.210 C 
ENDBRANCH  23  27
ENDBRANCH   5  21
TORSDOF 4
ENDMDL
MODEL 10
REMARK VINA RESULT:      -7.7      4.751      7.484
REMARK  4 active torsions:
REMARK  status: ('A' for Active; 'I' for Inactive)
REMARK    1  A    between atoms: C_5  and  C_6 
REMARK    2  A    between atoms: C_8  and  O_9 
REMARK    3  A    between atoms: C_15  and  C_16 
REMARK       I    between atoms: C_16  and  N_17 
REMARK    4  A    between atoms: N_17  and  C_18 
ROOT
HETATM    1  C   UNL     1      -5.721   3.785 -33.675  1.00  0.00     0.071 C 
HETATM    2  C   UNL     1      -7.138   3.379 -33.538  1.00  0.00     0.041 A 
HETATM    3  N   UNL     1      -8.098   4.181 -32.977  1.00  0.00    -0.342 N 
HETATM    4  H   UNL     1      -7.954   5.117 -32.624  1.00  0.00     0.167 HD
HETATM    5  C   UNL     1      -9.300   3.510 -32.984  1.00  0.00     0.139 A 
HETATM    6  N   UNL     1      -9.154   2.337 -33.573  1.00  0.00    -0.223 NA
HETATM    7  C   UNL     1      -7.806   2.223 -33.897  1.00  0.00     0.149 A 
ENDROOT
BRANCH   7   8
HETATM    8  C   UNL     1      -7.242   1.017 -34.520  1.00  0.00     0.276 C 
HETATM    9  N   UNL     1      -6.832   0.112 -33.562  1.00  0.00    -0.322 N 
HETATM   10  H   UNL     1      -7.028   0.411 -32.610  1.00  0.00     0.169 HD
HETATM   11  O   UNL     1      -7.171   0.884 -35.736  1.00  0.00    -0.266 OA
BRANCH   9  12
HETATM   12  C   UNL     1      -6.194  -1.126 -33.748  1.00  0.00     0.035 A 
HETATM   13  C   UNL     1      -6.790  -2.212 -34.395  1.00  0.00     0.039 A 
HETATM   14  C   UNL     1      -6.057  -3.380 -34.548  1.00  0.00    -0.024 A 
HETATM   15  C   UNL     1      -4.766  -3.494 -34.061  1.00  0.00    -0.026 A 
HETATM   16  C   UNL     1      -6.457  -4.657 -35.189  1.00  0.00     0.207 C 
HETATM   17  C   UNL     1      -4.253  -4.857 -34.345  1.00  0.00     0.207 C 
HETATM   18  C   UNL     1      -4.157  -2.439 -33.408  1.00  0.00     0.012 A 
HETATM   19  O   UNL     1      -5.245  -5.451 -35.215  1.00  0.00    -0.382 OA
HETATM   20  C   UNL     1      -4.876  -1.248 -33.261  1.00  0.00     0.030 A 
ENDBRANCH   9  12
ENDBRANCH   7   8
BRANCH   5  21
HETATM   21  C   UNL     1     -10.544   4.055 -32.432  1.00  0.00     0.013 A 
HETATM   22  C   UNL     1     -11.800   3.515 -32.761  1.00  0.00     0.052 A 
HETATM   23  C   UNL     1     -12.972   4.058 -32.225  1.00  0.00     0.069 A 
HETATM   24  C   UNL     1     -12.889   5.142 -31.349  1.00  0.00     0.037 A 
HETATM   25  C   UNL     1     -11.652   5.695 -31.024  1.00  0.00     0.004 A 
HETATM   26  C   UNL     1     -10.487   5.157 -31.568  1.00  0.00     0.015 A 
BRANCH  23  27
HETATM   27  O   UNL     1     -14.246   3.623 -32.473  1.00  0.00    -0.356 OA
HETATM   28  C   UNL     1     -14.437   2.221 -32.609  1.00  0.00     0.210 C 
ENDBRANCH  23  27
ENDBRANCH   5  21
TORSDOF 4
ENDMDL
