MODEL 1
REMARK VINA RESULT:      -8.7      0.000      0.000
REMARK  8 active torsions:
REMARK  status: ('A' for Active; 'I' for Inactive)
REMARK    1  A    between atoms: C_2  and  C_3 
REMARK    2  A    between atoms: C_4  and  O_5 
REMARK    3  A    between atoms: O_5  and  C_6 
REMARK    4  A    between atoms: C_6  and  C_7 
REMARK    5  A    between atoms: C_15  and  O_16 
REMARK    6  A    between atoms: C_17  and  C_18 
REMARK    7  A    between atoms: C_22  and  N_23 
REMARK    8  A    between atoms: C_24  and  C_25 
ROOT
HETATM    1  C   UNL     1      -6.621   0.846 -32.637  1.00  0.00    -0.024 A 
HETATM    2  C   UNL     1      -5.543   0.424 -31.846  1.00  0.00     0.078 A 
HETATM    3  C   UNL     1      -4.779   1.346 -31.126  1.00  0.00     0.074 A 
HETATM    4  C   UNL     1      -5.132   2.698 -31.135  1.00  0.00     0.081 A 
HETATM    5  C   UNL     1      -6.244   3.138 -31.865  1.00  0.00     0.029 A 
HETATM    6  C   UNL     1      -6.971   2.207 -32.622  1.00  0.00     0.026 A 
ENDROOT
BRANCH   5   7
HETATM    7  C   UNL     1      -6.692   4.528 -31.818  1.00  0.00     0.107 A 
HETATM    8  N   UNL     1      -7.858   4.828 -31.217  1.00  0.00    -0.172 NA
HETATM    9  N   UNL     1      -7.965   6.154 -31.353  1.00  0.00    -0.262 N 
HETATM   10  H   UNL     1      -8.775   6.610 -30.955  1.00  0.00     0.191 HD
HETATM   11  C   UNL     1      -6.946   6.735 -32.056  1.00  0.00     0.131 A 
HETATM   12  C   UNL     1      -6.096   5.696 -32.392  1.00  0.00     0.076 A 
BRANCH  11  13
HETATM   13  N   UNL     1      -6.942   8.066 -32.288  1.00  0.00    -0.384 N 
HETATM   14  H   UNL     1      -6.418   8.727 -31.720  1.00  0.00     0.157 HD
HETATM   15  H   UNL     1      -7.173   8.424 -33.213  1.00  0.00     0.157 HD
ENDBRANCH  11  13
BRANCH  12  16
HETATM   16  C   UNL     1      -4.827   5.786 -33.188  1.00  0.00     0.114 A 
HETATM   17  S   UNL     1      -4.532   4.894 -34.635  1.00  0.00    -0.079 SA
HETATM   18  C   UNL     1      -2.972   5.584 -34.749  1.00  0.00     0.078 A 
HETATM   19  C   UNL     1      -2.763   6.453 -33.698  1.00  0.00     0.038 A 
HETATM   20  C   UNL     1      -1.541   7.252 -33.432  1.00  0.00     0.071 C 
HETATM   21  N   UNL     1      -3.824   6.558 -32.817  1.00  0.00    -0.245 NA
ENDBRANCH  12  16
ENDBRANCH   5   7
BRANCH   4  22
HETATM   22  O   UNL     1      -4.367   3.595 -30.436  1.00  0.00    -0.360 OA
HETATM   23  H   UNL     1      -3.432   3.445 -30.643  1.00  0.00     0.217 HD
ENDBRANCH   4  22
BRANCH   1  24
HETATM   24  C   UNL     1      -7.404  -0.113 -33.498  1.00  0.00     0.037 C 
HETATM   25  C   UNL     1      -7.286   0.214 -34.980  1.00  0.00     0.010 C 
ENDBRANCH   1  24
BRANCH   2  26
HETATM   26  O   UNL     1      -5.211  -0.909 -31.839  1.00  0.00    -0.346 OA
BRANCH  26  27
HETATM   27  C   UNL     1      -4.138  -1.182 -32.751  1.00  0.00     0.214 C 
BRANCH  27  28
HETATM   28  C   UNL     1      -4.276  -2.578 -33.321  1.00  0.00    -0.034 A 
HETATM   29  C   UNL     1      -5.298  -2.890 -34.231  1.00  0.00     0.016 A 
HETATM   30  C   UNL     1      -5.461  -4.193 -34.719  1.00  0.00    -0.061 A 
HETATM   31  C   UNL     1      -6.568  -4.522 -35.676  1.00  0.00     0.048 C 
HETATM   32  C   UNL     1      -4.599  -5.200 -34.271  1.00  0.00     0.007 A 
HETATM   33  C   UNL     1      -3.585  -4.906 -33.360  1.00  0.00     0.001 A 
HETATM   34  C   UNL     1      -3.428  -3.604 -32.884  1.00  0.00     0.009 A 
ENDBRANCH  27  28
ENDBRANCH  26  27
ENDBRANCH   2  26
TORSDOF 8
ENDMDL
MODEL 2
REMARK VINA RESULT:      -8.6      2.913      4.813
REMARK  8 active torsions:
REMARK  status: ('A' for Active; 'I' for Inactive)
REMARK    1  A    between atoms: C_2  and  C_3 
REMARK    2  A    between atoms: C_4  and  O_5 
REMARK    3  A    between atoms: O_5  and  C_6 
REMARK    4  A    between atoms: C_6  and  C_7 
REMARK    5  A    between atoms: C_15  and  O_16 
REMARK    6  A    between atoms: C_17  and  C_18 
REMARK    7  A    between atoms: C_22  and  N_23 
REMARK    8  A    between atoms: C_24  and  C_25 
ROOT
HETATM    1  C   UNL     1      -5.729   2.128 -32.238  1.00  0.00    -0.024 A 
HETATM    2  C   UNL     1      -6.209   0.820 -32.397  1.00  0.00     0.078 A 
HETATM    3  C   UNL     1      -7.511   0.483 -32.016  1.00  0.00     0.074 A 
HETATM    4  C   UNL     1      -8.372   1.474 -31.535  1.00  0.00     0.081 A 
HETATM    5  C   UNL     1      -7.939   2.802 -31.427  1.00  0.00     0.029 A 
HETATM    6  C   UNL     1      -6.613   3.114 -31.767  1.00  0.00     0.026 A 
ENDROOT
BRANCH   5   7
HETATM    7  C   UNL     1      -8.844   3.873 -31.017  1.00  0.00     0.107 A 
HETATM    8  N   UNL     1      -8.704   4.427 -29.798  1.00  0.00    -0.172 NA
HETATM    9  N   UNL     1      -9.670   5.350 -29.746  1.00  0.00    -0.262 N 
HETATM   10  H   UNL     1      -9.746   5.913 -28.909  1.00  0.00     0.191 HD
HETATM   11  C   UNL     1     -10.468   5.398 -30.855  1.00  0.00     0.131 A 
HETATM   12  C   UNL     1      -9.966   4.431 -31.707  1.00  0.00     0.076 A 
BRANCH  11  13
HETATM   13  N   UNL     1     -11.498   6.270 -30.923  1.00  0.00    -0.384 N 
HETATM   14  H   UNL     1     -11.531   7.133 -30.389  1.00  0.00     0.157 HD
HETATM   15  H   UNL     1     -12.107   6.278 -31.740  1.00  0.00     0.157 HD
ENDBRANCH  11  13
BRANCH  12  16
HETATM   16  C   UNL     1     -10.494   4.055 -33.061  1.00  0.00     0.114 A 
HETATM   17  S   UNL     1     -10.243   4.993 -34.487  1.00  0.00    -0.079 SA
HETATM   18  C   UNL     1     -11.163   3.872 -35.393  1.00  0.00     0.078 A 
HETATM   19  C   UNL     1     -11.601   2.851 -34.575  1.00  0.00     0.038 A 
HETATM   20  C   UNL     1     -12.427   1.683 -34.971  1.00  0.00     0.071 C 
HETATM   21  N   UNL     1     -11.216   2.968 -33.251  1.00  0.00    -0.245 NA
ENDBRANCH  12  16
ENDBRANCH   5   7
BRANCH   4  22
HETATM   22  O   UNL     1      -9.641   1.129 -31.152  1.00  0.00    -0.360 OA
HETATM   23  H   UNL     1     -10.077   1.902 -30.762  1.00  0.00     0.217 HD
ENDBRANCH   4  22
BRANCH   1  24
HETATM   24  C   UNL     1      -4.302   2.499 -32.551  1.00  0.00     0.037 C 
HETATM   25  C   UNL     1      -3.428   2.534 -31.305  1.00  0.00     0.010 C 
ENDBRANCH   1  24
BRANCH   2  26
HETATM   26  O   UNL     1      -5.356  -0.142 -32.879  1.00  0.00    -0.346 OA
BRANCH  26  27
HETATM   27  C   UNL     1      -5.726  -0.548 -34.205  1.00  0.00     0.214 C 
BRANCH  27  28
HETATM   28  C   UNL     1      -5.694  -2.056 -34.321  1.00  0.00    -0.034 A 
HETATM   29  C   UNL     1      -4.527  -2.779 -34.030  1.00  0.00     0.016 A 
HETATM   30  C   UNL     1      -4.479  -4.171 -34.187  1.00  0.00    -0.061 A 
HETATM   31  C   UNL     1      -3.221  -4.934 -33.893  1.00  0.00     0.048 C 
HETATM   32  C   UNL     1      -5.611  -4.842 -34.663  1.00  0.00     0.007 A 
HETATM   33  C   UNL     1      -6.774  -4.135 -34.964  1.00  0.00     0.001 A 
HETATM   34  C   UNL     1      -6.814  -2.750 -34.799  1.00  0.00     0.009 A 
ENDBRANCH  27  28
ENDBRANCH  26  27
ENDBRANCH   2  26
TORSDOF 8
ENDMDL
MODEL 3
REMARK VINA RESULT:      -8.6      1.747      2.606
REMARK  8 active torsions:
REMARK  status: ('A' for Active; 'I' for Inactive)
REMARK    1  A    between atoms: C_2  and  C_3 
REMARK    2  A    between atoms: C_4  and  O_5 
REMARK    3  A    between atoms: O_5  and  C_6 
REMARK    4  A    between atoms: C_6  and  C_7 
REMARK    5  A    between atoms: C_15  and  O_16 
REMARK    6  A    between atoms: C_17  and  C_18 
REMARK    7  A    between atoms: C_22  and  N_23 
REMARK    8  A    between atoms: C_24  and  C_25 
ROOT
HETATM    1  C   UNL     1      -5.051   0.773 -31.309  1.00  0.00    -0.024 A 
HETATM    2  C   UNL     1      -6.290   0.574 -31.933  1.00  0.00     0.078 A 
HETATM    3  C   UNL     1      -7.223   1.612 -32.021  1.00  0.00     0.074 A 
HETATM    4  C   UNL     1      -6.894   2.883 -31.543  1.00  0.00     0.081 A 
HETATM    5  C   UNL     1      -5.638   3.126 -30.973  1.00  0.00     0.029 A 
HETATM    6  C   UNL     1      -4.731   2.061 -30.848  1.00  0.00     0.026 A 
ENDROOT
BRANCH   5   7
HETATM    7  C   UNL     1      -5.232   4.464 -30.551  1.00  0.00     0.107 A 
HETATM    8  N   UNL     1      -5.577   4.906 -29.327  1.00  0.00    -0.172 NA
HETATM    9  N   UNL     1      -5.062   6.139 -29.267  1.00  0.00    -0.262 N 
HETATM   10  H   UNL     1      -5.188   6.667 -28.414  1.00  0.00     0.191 HD
HETATM   11  C   UNL     1      -4.433   6.546 -30.411  1.00  0.00     0.131 A 
HETATM   12  C   UNL     1      -4.537   5.479 -31.285  1.00  0.00     0.076 A 
BRANCH  11  13
HETATM   13  N   UNL     1      -3.888   7.780 -30.494  1.00  0.00    -0.384 N 
HETATM   14  H   UNL     1      -4.350   8.615 -30.145  1.00  0.00     0.157 HD
HETATM   15  H   UNL     1      -2.880   7.888 -30.591  1.00  0.00     0.157 HD
ENDBRANCH  11  13
BRANCH  12  16
HETATM   16  C   UNL     1      -4.029   5.410 -32.695  1.00  0.00     0.114 A 
HETATM   17  S   UNL     1      -5.035   5.141 -34.070  1.00  0.00    -0.079 SA
HETATM   18  C   UNL     1      -3.664   5.191 -35.090  1.00  0.00     0.078 A 
HETATM   19  C   UNL     1      -2.527   5.415 -34.342  1.00  0.00     0.038 A 
HETATM   20  C   UNL     1      -1.135   5.527 -34.846  1.00  0.00     0.071 C 
HETATM   21  N   UNL     1      -2.747   5.536 -32.981  1.00  0.00    -0.245 NA
ENDBRANCH  12  16
ENDBRANCH   5   7
BRANCH   4  22
HETATM   22  O   UNL     1      -7.821   3.889 -31.622  1.00  0.00    -0.360 OA
HETATM   23  H   UNL     1      -8.558   3.690 -31.025  1.00  0.00     0.217 HD
ENDBRANCH   4  22
BRANCH   1  24
HETATM   24  C   UNL     1      -4.064  -0.351 -31.116  1.00  0.00     0.037 C 
HETATM   25  C   UNL     1      -2.908  -0.280 -32.104  1.00  0.00     0.010 C 
ENDBRANCH   1  24
BRANCH   2  26
HETATM   26  O   UNL     1      -6.599  -0.678 -32.406  1.00  0.00    -0.346 OA
BRANCH  26  27
HETATM   27  C   UNL     1      -6.252  -0.809 -33.792  1.00  0.00     0.214 C 
BRANCH  27  28
HETATM   28  C   UNL     1      -5.997  -2.261 -34.134  1.00  0.00    -0.034 A 
HETATM   29  C   UNL     1      -4.769  -2.870 -33.831  1.00  0.00     0.016 A 
HETATM   30  C   UNL     1      -4.510  -4.199 -34.194  1.00  0.00    -0.061 A 
HETATM   31  C   UNL     1      -3.188  -4.837 -33.885  1.00  0.00     0.048 C 
HETATM   32  C   UNL     1      -5.490  -4.918 -34.888  1.00  0.00     0.007 A 
HETATM   33  C   UNL     1      -6.711  -4.323 -35.203  1.00  0.00     0.001 A 
HETATM   34  C   UNL     1      -6.960  -3.001 -34.833  1.00  0.00     0.009 A 
ENDBRANCH  27  28
ENDBRANCH  26  27
ENDBRANCH   2  26
TORSDOF 8
ENDMDL
MODEL 4
REMARK VINA RESULT:      -8.5      1.882      2.685
REMARK  8 active torsions:
REMARK  status: ('A' for Active; 'I' for Inactive)
REMARK    1  A    between atoms: C_2  and  C_3 
REMARK    2  A    between atoms: C_4  and  O_5 
REMARK    3  A    between atoms: O_5  and  C_6 
REMARK    4  A    between atoms: C_6  and  C_7 
REMARK    5  A    between atoms: C_15  and  O_16 
REMARK    6  A    between atoms: C_17  and  C_18 
REMARK    7  A    between atoms: C_22  and  N_23 
REMARK    8  A    between atoms: C_24  and  C_25 
ROOT
HETATM    1  C   UNL     1      -6.645   1.748 -31.632  1.00  0.00    -0.024 A 
HETATM    2  C   UNL     1      -6.593   1.488 -33.008  1.00  0.00     0.078 A 
HETATM    3  C   UNL     1      -6.465   2.530 -33.930  1.00  0.00     0.074 A 
HETATM    4  C   UNL     1      -6.316   3.843 -33.477  1.00  0.00     0.081 A 
HETATM    5  C   UNL     1      -6.299   4.126 -32.105  1.00  0.00     0.029 A 
HETATM    6  C   UNL     1      -6.478   3.073 -31.193  1.00  0.00     0.026 A 
ENDROOT
BRANCH   5   7
HETATM    7  C   UNL     1      -6.052   5.474 -31.601  1.00  0.00     0.107 A 
HETATM    8  N   UNL     1      -7.076   6.194 -31.106  1.00  0.00    -0.172 NA
HETATM    9  N   UNL     1      -6.516   7.353 -30.744  1.00  0.00    -0.262 N 
HETATM   10  H   UNL     1      -7.108   8.057 -30.324  1.00  0.00     0.191 HD
HETATM   11  C   UNL     1      -5.181   7.448 -31.021  1.00  0.00     0.131 A 
HETATM   12  C   UNL     1      -4.841   6.238 -31.599  1.00  0.00     0.076 A 
BRANCH  11  13
HETATM   13  N   UNL     1      -4.496   8.576 -30.729  1.00  0.00    -0.384 N 
HETATM   14  H   UNL     1      -3.520   8.713 -30.977  1.00  0.00     0.157 HD
HETATM   15  H   UNL     1      -4.995   9.448 -30.563  1.00  0.00     0.157 HD
ENDBRANCH  11  13
BRANCH  12  16
HETATM   16  C   UNL     1      -3.492   5.826 -32.111  1.00  0.00     0.114 A 
HETATM   17  S   UNL     1      -2.129   5.522 -31.099  1.00  0.00    -0.079 SA
HETATM   18  C   UNL     1      -1.172   5.191 -32.476  1.00  0.00     0.078 A 
HETATM   19  C   UNL     1      -1.932   5.319 -33.620  1.00  0.00     0.038 A 
HETATM   20  C   UNL     1      -1.479   5.118 -35.019  1.00  0.00     0.071 C 
HETATM   21  N   UNL     1      -3.249   5.682 -33.399  1.00  0.00    -0.245 NA
ENDBRANCH  12  16
ENDBRANCH   5   7
BRANCH   4  22
HETATM   22  O   UNL     1      -6.205   4.859 -34.390  1.00  0.00    -0.360 OA
HETATM   23  H   UNL     1      -5.744   5.607 -33.980  1.00  0.00     0.217 HD
ENDBRANCH   4  22
BRANCH   1  24
HETATM   24  C   UNL     1      -6.877   0.655 -30.619  1.00  0.00     0.037 C 
HETATM   25  C   UNL     1      -5.753   0.567 -29.597  1.00  0.00     0.010 C 
ENDBRANCH   1  24
BRANCH   2  26
HETATM   26  O   UNL     1      -6.731   0.192 -33.441  1.00  0.00    -0.346 OA
BRANCH  26  27
HETATM   27  C   UNL     1      -5.504  -0.306 -33.993  1.00  0.00     0.214 C 
BRANCH  27  28
HETATM   28  C   UNL     1      -5.583  -1.805 -34.183  1.00  0.00    -0.034 A 
HETATM   29  C   UNL     1      -4.477  -2.627 -33.919  1.00  0.00     0.016 A 
HETATM   30  C   UNL     1      -4.530  -4.009 -34.145  1.00  0.00    -0.061 A 
HETATM   31  C   UNL     1      -3.337  -4.877 -33.879  1.00  0.00     0.048 C 
HETATM   32  C   UNL     1      -5.704  -4.569 -34.662  1.00  0.00     0.007 A 
HETATM   33  C   UNL     1      -6.808  -3.763 -34.938  1.00  0.00     0.001 A 
HETATM   34  C   UNL     1      -6.746  -2.389 -34.704  1.00  0.00     0.009 A 
ENDBRANCH  27  28
ENDBRANCH  26  27
ENDBRANCH   2  26
TORSDOF 8
ENDMDL
MODEL 5
REMARK VINA RESULT:      -8.5      1.955      3.890
REMARK  8 active torsions:
REMARK  status: ('A' for Active; 'I' for Inactive)
REMARK    1  A    between atoms: C_2  and  C_3 
REMARK    2  A    between atoms: C_4  and  O_5 
REMARK    3  A    between atoms: O_5  and  C_6 
REMARK    4  A    between atoms: C_6  and  C_7 
REMARK    5  A    between atoms: C_15  and  O_16 
REMARK    6  A    between atoms: C_17  and  C_18 
REMARK    7  A    between atoms: C_22  and  N_23 
REMARK    8  A    between atoms: C_24  and  C_25 
ROOT
HETATM    1  C   UNL     1      -4.447   1.118 -32.107  1.00  0.00    -0.024 A 
HETATM    2  C   UNL     1      -5.555   1.018 -32.960  1.00  0.00     0.078 A 
HETATM    3  C   UNL     1      -5.990   2.120 -33.701  1.00  0.00     0.074 A 
HETATM    4  C   UNL     1      -5.273   3.318 -33.649  1.00  0.00     0.081 A 
HETATM    5  C   UNL     1      -4.124   3.427 -32.855  1.00  0.00     0.029 A 
HETATM    6  C   UNL     1      -3.729   2.326 -32.079  1.00  0.00     0.026 A 
ENDROOT
BRANCH   5   7
HETATM    7  C   UNL     1      -3.302   4.635 -32.853  1.00  0.00     0.107 A 
HETATM    8  N   UNL     1      -2.052   4.586 -33.350  1.00  0.00    -0.172 NA
HETATM    9  N   UNL     1      -1.590   5.831 -33.196  1.00  0.00    -0.262 N 
HETATM   10  H   UNL     1      -0.655   6.036 -33.519  1.00  0.00     0.191 HD
HETATM   11  C   UNL     1      -2.461   6.686 -32.579  1.00  0.00     0.131 A 
HETATM   12  C   UNL     1      -3.593   5.932 -32.324  1.00  0.00     0.076 A 
BRANCH  11  13
HETATM   13  N   UNL     1      -2.112   7.969 -32.338  1.00  0.00    -0.384 N 
HETATM   14  H   UNL     1      -2.790   8.705 -32.161  1.00  0.00     0.157 HD
HETATM   15  H   UNL     1      -1.179   8.188 -31.991  1.00  0.00     0.157 HD
ENDBRANCH  11  13
BRANCH  12  16
HETATM   16  C   UNL     1      -4.848   6.387 -31.639  1.00  0.00     0.114 A 
HETATM   17  S   UNL     1      -5.012   6.536 -29.928  1.00  0.00    -0.079 SA
HETATM   18  C   UNL     1      -6.638   7.029 -30.121  1.00  0.00     0.078 A 
HETATM   19  C   UNL     1      -6.965   7.062 -31.461  1.00  0.00     0.038 A 
HETATM   20  C   UNL     1      -8.275   7.437 -32.050  1.00  0.00     0.071 C 
HETATM   21  N   UNL     1      -5.939   6.693 -32.313  1.00  0.00    -0.245 NA
ENDBRANCH  12  16
ENDBRANCH   5   7
BRANCH   4  22
HETATM   22  O   UNL     1      -5.716   4.396 -34.370  1.00  0.00    -0.360 OA
HETATM   23  H   UNL     1      -4.970   4.787 -34.849  1.00  0.00     0.217 HD
ENDBRANCH   4  22
BRANCH   1  24
HETATM   24  C   UNL     1      -4.012  -0.025 -31.224  1.00  0.00     0.037 C 
HETATM   25  C   UNL     1      -2.738  -0.690 -31.726  1.00  0.00     0.010 C 
ENDBRANCH   1  24
BRANCH   2  26
HETATM   26  O   UNL     1      -6.247  -0.167 -33.009  1.00  0.00    -0.346 OA
BRANCH  26  27
HETATM   27  C   UNL     1      -6.347  -0.655 -34.354  1.00  0.00     0.214 C 
BRANCH  27  28
HETATM   28  C   UNL     1      -6.041  -2.137 -34.400  1.00  0.00    -0.034 A 
HETATM   29  C   UNL     1      -4.813  -2.636 -33.939  1.00  0.00     0.016 A 
HETATM   30  C   UNL     1      -4.506  -4.001 -34.030  1.00  0.00    -0.061 A 
HETATM   31  C   UNL     1      -3.184  -4.523 -33.553  1.00  0.00     0.048 C 
HETATM   32  C   UNL     1      -5.437  -4.871 -34.609  1.00  0.00     0.007 A 
HETATM   33  C   UNL     1      -6.657  -4.386 -35.079  1.00  0.00     0.001 A 
HETATM   34  C   UNL     1      -6.955  -3.027 -34.980  1.00  0.00     0.009 A 
ENDBRANCH  27  28
ENDBRANCH  26  27
ENDBRANCH   2  26
TORSDOF 8
ENDMDL
MODEL 6
REMARK VINA RESULT:      -8.4      2.479      3.859
REMARK  8 active torsions:
REMARK  status: ('A' for Active; 'I' for Inactive)
REMARK    1  A    between atoms: C_2  and  C_3 
REMARK    2  A    between atoms: C_4  and  O_5 
REMARK    3  A    between atoms: O_5  and  C_6 
REMARK    4  A    between atoms: C_6  and  C_7 
REMARK    5  A    between atoms: C_15  and  O_16 
REMARK    6  A    between atoms: C_17  and  C_18 
REMARK    7  A    between atoms: C_22  and  N_23 
REMARK    8  A    between atoms: C_24  and  C_25 
ROOT
HETATM    1  C   UNL     1      -4.735   1.842 -31.839  1.00  0.00    -0.024 A 
HETATM    2  C   UNL     1      -5.881   1.687 -32.631  1.00  0.00     0.078 A 
HETATM    3  C   UNL     1      -6.297   2.703 -33.496  1.00  0.00     0.074 A 
HETATM    4  C   UNL     1      -5.526   3.862 -33.627  1.00  0.00     0.081 A 
HETATM    5  C   UNL     1      -4.342   4.016 -32.896  1.00  0.00     0.029 A 
HETATM    6  C   UNL     1      -3.964   3.007 -31.995  1.00  0.00     0.026 A 
ENDROOT
BRANCH   5   7
HETATM    7  C   UNL     1      -3.469   5.172 -33.082  1.00  0.00     0.107 A 
HETATM    8  N   UNL     1      -2.723   5.266 -34.198  1.00  0.00    -0.172 NA
HETATM    9  N   UNL     1      -2.056   6.415 -34.050  1.00  0.00    -0.262 N 
HETATM   10  H   UNL     1      -1.432   6.703 -34.792  1.00  0.00     0.191 HD
HETATM   11  C   UNL     1      -2.292   7.059 -32.868  1.00  0.00     0.131 A 
HETATM   12  C   UNL     1      -3.205   6.265 -32.196  1.00  0.00     0.076 A 
BRANCH  11  13
HETATM   13  N   UNL     1      -1.664   8.220 -32.579  1.00  0.00    -0.384 N 
HETATM   14  H   UNL     1      -0.920   8.292 -31.890  1.00  0.00     0.157 HD
HETATM   15  H   UNL     1      -1.661   8.982 -33.255  1.00  0.00     0.157 HD
ENDBRANCH  11  13
BRANCH  12  16
HETATM   16  C   UNL     1      -3.785   6.507 -30.834  1.00  0.00     0.114 A 
HETATM   17  S   UNL     1      -5.473   6.453 -30.481  1.00  0.00    -0.079 SA
HETATM   18  C   UNL     1      -5.151   6.854 -28.851  1.00  0.00     0.078 A 
HETATM   19  C   UNL     1      -3.793   6.998 -28.660  1.00  0.00     0.038 A 
HETATM   20  C   UNL     1      -3.102   7.343 -27.391  1.00  0.00     0.071 C 
HETATM   21  N   UNL     1      -3.027   6.800 -29.795  1.00  0.00    -0.245 NA
ENDBRANCH  12  16
ENDBRANCH   5   7
BRANCH   4  22
HETATM   22  O   UNL     1      -5.951   4.857 -34.467  1.00  0.00    -0.360 OA
HETATM   23  H   UNL     1      -5.213   5.134 -35.032  1.00  0.00     0.217 HD
ENDBRANCH   4  22
BRANCH   1  24
HETATM   24  C   UNL     1      -4.314   0.804 -30.829  1.00  0.00     0.037 C 
HETATM   25  C   UNL     1      -2.963   0.189 -31.163  1.00  0.00     0.010 C 
ENDBRANCH   1  24
BRANCH   2  26
HETATM   26  O   UNL     1      -6.625   0.540 -32.500  1.00  0.00    -0.346 OA
BRANCH  26  27
HETATM   27  C   UNL     1      -6.987   0.006 -33.781  1.00  0.00     0.214 C 
BRANCH  27  28
HETATM   28  C   UNL     1      -6.193  -1.250 -34.069  1.00  0.00    -0.034 A 
HETATM   29  C   UNL     1      -6.800  -2.370 -34.657  1.00  0.00     0.016 A 
HETATM   30  C   UNL     1      -6.080  -3.553 -34.877  1.00  0.00    -0.061 A 
HETATM   31  C   UNL     1      -6.741  -4.752 -35.488  1.00  0.00     0.048 C 
HETATM   32  C   UNL     1      -4.739  -3.617 -34.481  1.00  0.00     0.007 A 
HETATM   33  C   UNL     1      -4.126  -2.515 -33.887  1.00  0.00     0.001 A 
HETATM   34  C   UNL     1      -4.850  -1.340 -33.678  1.00  0.00     0.009 A 
ENDBRANCH  27  28
ENDBRANCH  26  27
ENDBRANCH   2  26
TORSDOF 8
ENDMDL
MODEL 7
REMARK VINA RESULT:      -8.3      3.248      8.149
REMARK  8 active torsions:
REMARK  status: ('A' for Active; 'I' for Inactive)
REMARK    1  A    between atoms: C_2  and  C_3 
REMARK    2  A    between atoms: C_4  and  O_5 
REMARK    3  A    between atoms: O_5  and  C_6 
REMARK    4  A    between atoms: C_6  and  C_7 
REMARK    5  A    between atoms: C_15  and  O_16 
REMARK    6  A    between atoms: C_17  and  C_18 
REMARK    7  A    between atoms: C_22  and  N_23 
REMARK    8  A    between atoms: C_24  and  C_25 
ROOT
HETATM    1  C   UNL     1      -3.609   7.010 -32.035  1.00  0.00    -0.024 A 
HETATM    2  C   UNL     1      -2.667   7.090 -33.071  1.00  0.00     0.078 A 
HETATM    3  C   UNL     1      -2.800   6.307 -34.221  1.00  0.00     0.074 A 
HETATM    4  C   UNL     1      -3.919   5.485 -34.376  1.00  0.00     0.081 A 
HETATM    5  C   UNL     1      -4.908   5.434 -33.386  1.00  0.00     0.029 A 
HETATM    6  C   UNL     1      -4.735   6.190 -32.215  1.00  0.00     0.026 A 
ENDROOT
BRANCH   5   7
HETATM    7  C   UNL     1      -6.132   4.657 -33.561  1.00  0.00     0.107 A 
HETATM    8  N   UNL     1      -7.255   5.274 -33.975  1.00  0.00    -0.172 NA
HETATM    9  N   UNL     1      -8.165   4.296 -34.026  1.00  0.00    -0.262 N 
HETATM   10  H   UNL     1      -9.100   4.531 -34.333  1.00  0.00     0.191 HD
HETATM   11  C   UNL     1      -7.707   3.073 -33.622  1.00  0.00     0.131 A 
HETATM   12  C   UNL     1      -6.378   3.273 -33.293  1.00  0.00     0.076 A 
BRANCH  11  13
HETATM   13  N   UNL     1      -8.530   2.002 -33.602  1.00  0.00    -0.384 N 
HETATM   14  H   UNL     1      -9.542   2.079 -33.667  1.00  0.00     0.157 HD
HETATM   15  H   UNL     1      -8.179   1.082 -33.860  1.00  0.00     0.157 HD
ENDBRANCH  11  13
BRANCH  12  16
HETATM   16  C   UNL     1      -5.412   2.251 -32.769  1.00  0.00     0.114 A 
HETATM   17  S   UNL     1      -4.299   2.547 -31.484  1.00  0.00    -0.079 SA
HETATM   18  C   UNL     1      -3.688   0.958 -31.640  1.00  0.00     0.078 A 
HETATM   19  C   UNL     1      -4.360   0.290 -32.643  1.00  0.00     0.038 A 
HETATM   20  C   UNL     1      -4.132  -1.106 -33.092  1.00  0.00     0.071 C 
HETATM   21  N   UNL     1      -5.336   1.037 -33.278  1.00  0.00    -0.245 NA
ENDBRANCH  12  16
ENDBRANCH   5   7
BRANCH   4  22
HETATM   22  O   UNL     1      -4.031   4.711 -35.501  1.00  0.00    -0.360 OA
HETATM   23  H   UNL     1      -3.580   3.866 -35.354  1.00  0.00     0.217 HD
ENDBRANCH   4  22
BRANCH   1  24
HETATM   24  C   UNL     1      -3.442   7.771 -30.743  1.00  0.00     0.037 C 
HETATM   25  C   UNL     1      -3.302   6.846 -29.543  1.00  0.00     0.010 C 
ENDBRANCH   1  24
BRANCH   2  26
HETATM   26  O   UNL     1      -1.576   7.908 -32.910  1.00  0.00    -0.346 OA
BRANCH  26  27
HETATM   27  C   UNL     1      -0.357   7.151 -32.888  1.00  0.00     0.214 C 
BRANCH  27  28
HETATM   28  C   UNL     1      -0.055   6.684 -31.481  1.00  0.00    -0.034 A 
HETATM   29  C   UNL     1       0.241   7.602 -30.462  1.00  0.00     0.016 A 
HETATM   30  C   UNL     1       0.574   7.170 -29.171  1.00  0.00    -0.061 A 
HETATM   31  C   UNL     1       0.908   8.157 -28.093  1.00  0.00     0.048 C 
HETATM   32  C   UNL     1       0.630   5.797 -28.906  1.00  0.00     0.007 A 
HETATM   33  C   UNL     1       0.347   4.873 -29.912  1.00  0.00     0.001 A 
HETATM   34  C   UNL     1       0.012   5.314 -31.193  1.00  0.00     0.009 A 
ENDBRANCH  27  28
ENDBRANCH  26  27
ENDBRANCH   2  26
TORSDOF 8
ENDMDL
MODEL 8
REMARK VINA RESULT:      -8.2      3.950      5.830
REMARK  8 active torsions:
REMARK  status: ('A' for Active; 'I' for Inactive)
REMARK    1  A    between atoms: C_2  and  C_3 
REMARK    2  A    between atoms: C_4  and  O_5 
REMARK    3  A    between atoms: O_5  and  C_6 
REMARK    4  A    between atoms: C_6  and  C_7 
REMARK    5  A    between atoms: C_15  and  O_16 
REMARK    6  A    between atoms: C_17  and  C_18 
REMARK    7  A    between atoms: C_22  and  N_23 
REMARK    8  A    between atoms: C_24  and  C_25 
ROOT
HETATM    1  C   UNL     1      -7.157   2.193 -32.271  1.00  0.00    -0.024 A 
HETATM    2  C   UNL     1      -7.463   0.987 -32.918  1.00  0.00     0.078 A 
HETATM    3  C   UNL     1      -8.513   0.915 -33.838  1.00  0.00     0.074 A 
HETATM    4  C   UNL     1      -9.224   2.070 -34.173  1.00  0.00     0.081 A 
HETATM    5  C   UNL     1      -8.897   3.301 -33.590  1.00  0.00     0.029 A 
HETATM    6  C   UNL     1      -7.872   3.348 -32.631  1.00  0.00     0.026 A 
ENDROOT
BRANCH   5   7
HETATM    7  C   UNL     1      -9.559   4.541 -33.989  1.00  0.00     0.107 A 
HETATM    8  N   UNL     1      -8.844   5.511 -34.588  1.00  0.00    -0.172 NA
HETATM    9  N   UNL     1      -9.735   6.483 -34.812  1.00  0.00    -0.262 N 
HETATM   10  H   UNL     1      -9.416   7.323 -35.276  1.00  0.00     0.191 HD
HETATM   11  C   UNL     1     -10.993   6.217 -34.347  1.00  0.00     0.131 A 
HETATM   12  C   UNL     1     -10.914   4.955 -33.785  1.00  0.00     0.076 A 
BRANCH  11  13
HETATM   13  N   UNL     1     -11.983   7.125 -34.486  1.00  0.00    -0.384 N 
HETATM   14  H   UNL     1     -12.010   7.807 -35.239  1.00  0.00     0.157 HD
HETATM   15  H   UNL     1     -12.895   6.955 -34.064  1.00  0.00     0.157 HD
ENDBRANCH  11  13
BRANCH  12  16
HETATM   16  C   UNL     1     -12.018   4.194 -33.110  1.00  0.00     0.114 A 
HETATM   17  S   UNL     1     -12.559   4.506 -31.502  1.00  0.00    -0.079 SA
HETATM   18  C   UNL     1     -13.693   3.233 -31.631  1.00  0.00     0.078 A 
HETATM   19  C   UNL     1     -13.606   2.649 -32.878  1.00  0.00     0.038 A 
HETATM   20  C   UNL     1     -14.415   1.513 -33.388  1.00  0.00     0.071 C 
HETATM   21  N   UNL     1     -12.650   3.203 -33.709  1.00  0.00    -0.245 NA
ENDBRANCH  12  16
ENDBRANCH   5   7
BRANCH   4  22
HETATM   22  O   UNL     1     -10.260   1.985 -35.066  1.00  0.00    -0.360 OA
HETATM   23  H   UNL     1     -11.046   2.401 -34.682  1.00  0.00     0.217 HD
ENDBRANCH   4  22
BRANCH   1  24
HETATM   24  C   UNL     1      -6.093   2.280 -31.206  1.00  0.00     0.037 C 
HETATM   25  C   UNL     1      -4.768   2.790 -31.754  1.00  0.00     0.010 C 
ENDBRANCH   1  24
BRANCH   2  26
HETATM   26  O   UNL     1      -6.752  -0.139 -32.587  1.00  0.00    -0.346 OA
BRANCH  26  27
HETATM   27  C   UNL     1      -5.725  -0.408 -33.553  1.00  0.00     0.214 C 
BRANCH  27  28
HETATM   28  C   UNL     1      -5.719  -1.876 -33.919  1.00  0.00    -0.034 A 
HETATM   29  C   UNL     1      -4.572  -2.663 -33.735  1.00  0.00     0.016 A 
HETATM   30  C   UNL     1      -4.546  -4.009 -34.123  1.00  0.00    -0.061 A 
HETATM   31  C   UNL     1      -3.310  -4.838 -33.941  1.00  0.00     0.048 C 
HETATM   32  C   UNL     1      -5.682  -4.567 -34.722  1.00  0.00     0.007 A 
HETATM   33  C   UNL     1      -6.826  -3.794 -34.919  1.00  0.00     0.001 A 
HETATM   34  C   UNL     1      -6.842  -2.455 -34.525  1.00  0.00     0.009 A 
ENDBRANCH  27  28
ENDBRANCH  26  27
ENDBRANCH   2  26
TORSDOF 8
ENDMDL
MODEL 9
REMARK VINA RESULT:      -8.0      3.038      4.514
REMARK  8 active torsions:
REMARK  status: ('A' for Active; 'I' for Inactive)
REMARK    1  A    between atoms: C_2  and  C_3 
REMARK    2  A    between atoms: C_4  and  O_5 
REMARK    3  A    between atoms: O_5  and  C_6 
REMARK    4  A    between atoms: C_6  and  C_7 
REMARK    5  A    between atoms: C_15  and  O_16 
REMARK    6  A    between atoms: C_17  and  C_18 
REMARK    7  A    between atoms: C_22  and  N_23 
REMARK    8  A    between atoms: C_24  and  C_25 
ROOT
HETATM    1  C   UNL     1      -7.330   0.541 -32.250  1.00  0.00    -0.024 A 
HETATM    2  C   UNL     1      -6.984   0.521 -33.608  1.00  0.00     0.078 A 
HETATM    3  C   UNL     1      -7.804   1.126 -34.565  1.00  0.00     0.074 A 
HETATM    4  C   UNL     1      -8.947   1.820 -34.161  1.00  0.00     0.081 A 
HETATM    5  C   UNL     1      -9.282   1.911 -32.804  1.00  0.00     0.029 A 
HETATM    6  C   UNL     1      -8.475   1.257 -31.860  1.00  0.00     0.026 A 
ENDROOT
BRANCH   5   7
HETATM    7  C   UNL     1     -10.418   2.707 -32.345  1.00  0.00     0.107 A 
HETATM    8  N   UNL     1     -11.666   2.341 -32.689  1.00  0.00    -0.172 NA
HETATM    9  N   UNL     1     -12.447   3.264 -32.120  1.00  0.00    -0.262 N 
HETATM   10  H   UNL     1     -13.448   3.179 -32.236  1.00  0.00     0.191 HD
HETATM   11  C   UNL     1     -11.769   4.248 -31.455  1.00  0.00     0.131 A 
HETATM   12  C   UNL     1     -10.431   3.926 -31.593  1.00  0.00     0.076 A 
BRANCH  11  13
HETATM   13  N   UNL     1     -12.436   5.258 -30.854  1.00  0.00    -0.384 N 
HETATM   14  H   UNL     1     -12.333   6.232 -31.127  1.00  0.00     0.157 HD
HETATM   15  H   UNL     1     -13.302   5.071 -30.352  1.00  0.00     0.157 HD
ENDBRANCH  11  13
BRANCH  12  16
HETATM   16  C   UNL     1      -9.255   4.695 -31.066  1.00  0.00     0.114 A 
HETATM   17  S   UNL     1      -7.871   5.106 -32.010  1.00  0.00    -0.079 SA
HETATM   18  C   UNL     1      -7.160   5.860 -30.650  1.00  0.00     0.078 A 
HETATM   19  C   UNL     1      -8.006   5.768 -29.564  1.00  0.00     0.038 A 
HETATM   20  C   UNL     1      -7.764   6.294 -28.197  1.00  0.00     0.071 C 
HETATM   21  N   UNL     1      -9.193   5.102 -29.813  1.00  0.00    -0.245 NA
ENDBRANCH  12  16
ENDBRANCH   5   7
BRANCH   4  22
HETATM   22  O   UNL     1      -9.751   2.397 -35.109  1.00  0.00    -0.360 OA
HETATM   23  H   UNL     1     -10.537   2.766 -34.678  1.00  0.00     0.217 HD
ENDBRANCH   4  22
BRANCH   1  24
HETATM   24  C   UNL     1      -6.516  -0.182 -31.207  1.00  0.00     0.037 C 
HETATM   25  C   UNL     1      -5.966   0.762 -30.147  1.00  0.00     0.010 C 
ENDBRANCH   1  24
BRANCH   2  26
HETATM   26  O   UNL     1      -5.853  -0.157 -33.992  1.00  0.00    -0.346 OA
BRANCH  26  27
HETATM   27  C   UNL     1      -6.179  -1.284 -34.818  1.00  0.00     0.214 C 
BRANCH  27  28
HETATM   28  C   UNL     1      -5.441  -2.516 -34.339  1.00  0.00    -0.034 A 
HETATM   29  C   UNL     1      -4.479  -2.432 -33.320  1.00  0.00     0.016 A 
HETATM   30  C   UNL     1      -3.756  -3.561 -32.911  1.00  0.00    -0.061 A 
HETATM   31  C   UNL     1      -2.717  -3.459 -31.835  1.00  0.00     0.048 C 
HETATM   32  C   UNL     1      -3.987  -4.785 -33.550  1.00  0.00     0.007 A 
HETATM   33  C   UNL     1      -4.933  -4.880 -34.570  1.00  0.00     0.001 A 
HETATM   34  C   UNL     1      -5.651  -3.752 -34.966  1.00  0.00     0.009 A 
ENDBRANCH  27  28
ENDBRANCH  26  27
ENDBRANCH   2  26
TORSDOF 8
ENDMDL
MODEL 10
REMARK VINA RESULT:      -7.8      4.180      7.352
REMARK  8 active torsions:
REMARK  status: ('A' for Active; 'I' for Inactive)
REMARK    1  A    between atoms: C_2  and  C_3 
REMARK    2  A    between atoms: C_4  and  O_5 
REMARK    3  A    between atoms: O_5  and  C_6 
REMARK    4  A    between atoms: C_6  and  C_7 
REMARK    5  A    between atoms: C_15  and  O_16 
REMARK    6  A    between atoms: C_17  and  C_18 
REMARK    7  A    between atoms: C_22  and  N_23 
REMARK    8  A    between atoms: C_24  and  C_25 
ROOT
HETATM    1  C   UNL     1      -4.440   3.510 -32.529  1.00  0.00    -0.024 A 
HETATM    2  C   UNL     1      -4.295   4.474 -33.537  1.00  0.00     0.078 A 
HETATM    3  C   UNL     1      -5.415   5.059 -34.136  1.00  0.00     0.074 A 
HETATM    4  C   UNL     1      -6.695   4.733 -33.679  1.00  0.00     0.081 A 
HETATM    5  C   UNL     1      -6.867   3.822 -32.630  1.00  0.00     0.029 A 
HETATM    6  C   UNL     1      -5.734   3.206 -32.073  1.00  0.00     0.026 A 
ENDROOT
BRANCH   5   7
HETATM    7  C   UNL     1      -8.185   3.534 -32.071  1.00  0.00     0.107 A 
HETATM    8  N   UNL     1      -9.024   2.718 -32.737  1.00  0.00    -0.172 NA
HETATM    9  N   UNL     1     -10.116   2.673 -31.968  1.00  0.00    -0.262 N 
HETATM   10  H   UNL     1     -10.889   2.095 -32.271  1.00  0.00     0.191 HD
HETATM   11  C   UNL     1     -10.054   3.456 -30.849  1.00  0.00     0.131 A 
HETATM   12  C   UNL     1      -8.806   4.051 -30.889  1.00  0.00     0.076 A 
BRANCH  11  13
HETATM   13  N   UNL     1     -11.100   3.522 -29.997  1.00  0.00    -0.384 N 
HETATM   14  H   UNL     1     -12.064   3.389 -30.290  1.00  0.00     0.157 HD
HETATM   15  H   UNL     1     -10.958   3.368 -29.000  1.00  0.00     0.157 HD
ENDBRANCH  11  13
BRANCH  12  16
HETATM   16  C   UNL     1      -8.236   5.027 -29.902  1.00  0.00     0.114 A 
HETATM   17  S   UNL     1      -8.887   6.598 -29.613  1.00  0.00    -0.079 SA
HETATM   18  C   UNL     1      -7.652   6.908 -28.473  1.00  0.00     0.078 A 
HETATM   19  C   UNL     1      -6.823   5.810 -28.367  1.00  0.00     0.038 A 
HETATM   20  C   UNL     1      -5.633   5.673 -27.489  1.00  0.00     0.071 C 
HETATM   21  N   UNL     1      -7.164   4.748 -29.185  1.00  0.00    -0.245 NA
ENDBRANCH  12  16
ENDBRANCH   5   7
BRANCH   4  22
HETATM   22  O   UNL     1      -7.786   5.303 -34.283  1.00  0.00    -0.360 OA
HETATM   23  H   UNL     1      -7.866   4.958 -35.185  1.00  0.00     0.217 HD
ENDBRANCH   4  22
BRANCH   1  24
HETATM   24  C   UNL     1      -3.255   2.793 -31.932  1.00  0.00     0.037 C 
HETATM   25  C   UNL     1      -3.629   1.427 -31.374  1.00  0.00     0.010 C 
ENDBRANCH   1  24
BRANCH   2  26
HETATM   26  O   UNL     1      -3.031   4.791 -33.971  1.00  0.00    -0.346 OA
BRANCH  26  27
HETATM   27  C   UNL     1      -2.805   6.207 -33.921  1.00  0.00     0.214 C 
BRANCH  27  28
HETATM   28  C   UNL     1      -1.927   6.557 -32.740  1.00  0.00    -0.034 A 
HETATM   29  C   UNL     1      -0.904   5.693 -32.318  1.00  0.00     0.016 A 
HETATM   30  C   UNL     1      -0.123   5.989 -31.192  1.00  0.00    -0.061 A 
HETATM   31  C   UNL     1       0.955   5.051 -30.737  1.00  0.00     0.048 C 
HETATM   32  C   UNL     1      -0.388   7.158 -30.469  1.00  0.00     0.007 A 
HETATM   33  C   UNL     1      -1.407   8.021 -30.871  1.00  0.00     0.001 A 
HETATM   34  C   UNL     1      -2.175   7.719 -31.997  1.00  0.00     0.009 A 
ENDBRANCH  27  28
ENDBRANCH  26  27
ENDBRANCH   2  26
TORSDOF 8
ENDMDL
