MODEL 1
REMARK VINA RESULT:      -9.4      0.000      0.000
REMARK  6 active torsions:
REMARK  status: ('A' for Active; 'I' for Inactive)
REMARK    1  A    between atoms: C_5  and  N_6 
REMARK       I    between atoms: N_6  and  C_7 
REMARK    2  A    between atoms: C_7  and  C_8 
REMARK    3  A    between atoms: C_8  and  N_9 
REMARK    4  A    between atoms: C_8  and  C_17 
REMARK       I    between atoms: N_9  and  C_10 
REMARK    5  A    between atoms: C_10  and  C_11 
REMARK    6  A    between atoms: C_17  and  C_18 
ROOT
HETATM    1  C   UNL     1      -5.309   1.039 -32.508  1.00  0.00     0.181 C 
ENDROOT
BRANCH   1   2
HETATM    2  C   UNL     1      -6.823   1.340 -32.328  1.00  0.00     0.245 C 
HETATM    3  N   UNL     1      -7.588   0.960 -33.425  1.00  0.00    -0.325 N 
HETATM    4  H   UNL     1      -7.103   0.555 -34.214  1.00  0.00     0.169 HD
HETATM    5  O   UNL     1      -7.271   1.786 -31.273  1.00  0.00    -0.271 OA
BRANCH   3   6
HETATM    6  C   UNL     1      -8.992   1.015 -33.559  1.00  0.00     0.034 A 
HETATM    7  C   UNL     1      -9.682   2.039 -34.208  1.00  0.00     0.030 A 
HETATM    8  C   UNL     1     -11.081   2.027 -34.269  1.00  0.00     0.009 A 
HETATM    9  C   UNL     1     -11.814   0.991 -33.684  1.00  0.00    -0.062 A 
HETATM   10  C   UNL     1     -13.312   0.969 -33.751  1.00  0.00     0.048 C 
HETATM   11  C   UNL     1     -11.124  -0.046 -33.050  1.00  0.00     0.009 A 
HETATM   12  C   UNL     1      -9.727  -0.033 -32.988  1.00  0.00     0.030 A 
ENDBRANCH   3   6
ENDBRANCH   1   2
BRANCH   1  13
HETATM   13  N   UNL     1      -4.537   2.280 -32.544  1.00  0.00    -0.342 N 
HETATM   14  C   UNL     1      -3.365   2.489 -31.851  1.00  0.00     0.276 C 
HETATM   15  O   UNL     1      -2.910   1.689 -31.040  1.00  0.00    -0.265 OA
HETATM   16  H   UNL     1      -4.721   2.939 -33.290  1.00  0.00     0.163 HD
BRANCH  14  17
HETATM   17  C   UNL     1      -2.732   3.754 -32.162  1.00  0.00     0.142 A 
HETATM   18  O   UNL     1      -1.638   4.160 -31.436  1.00  0.00    -0.317 OA
HETATM   19  C   UNL     1      -1.247   5.360 -31.935  1.00  0.00     0.143 A 
HETATM   20  C   UNL     1      -2.064   5.740 -32.973  1.00  0.00     0.027 A 
HETATM   21  C   UNL     1      -3.022   4.709 -33.119  1.00  0.00     0.045 A 
ENDBRANCH  14  17
ENDBRANCH   1  13
BRANCH   1  22
HETATM   22  C   UNL     1      -5.025   0.060 -33.663  1.00  0.00     0.075 C 
BRANCH  22  23
HETATM   23  C   UNL     1      -4.352  -1.205 -33.215  1.00  0.00    -0.028 A 
HETATM   24  C   UNL     1      -4.566  -2.531 -33.717  1.00  0.00    -0.002 A 
HETATM   25  C   UNL     1      -3.748  -3.391 -32.984  1.00  0.00     0.042 A 
HETATM   26  C   UNL     1      -5.390  -3.083 -34.721  1.00  0.00     0.014 A 
HETATM   27  C   UNL     1      -3.718  -4.775 -33.196  1.00  0.00     0.030 A 
HETATM   28  N   UNL     1      -3.049  -2.619 -32.086  1.00  0.00    -0.365 N 
HETATM   29  C   UNL     1      -4.549  -5.297 -34.190  1.00  0.00     0.002 A 
HETATM   30  C   UNL     1      -5.374  -4.465 -34.944  1.00  0.00     0.001 A 
HETATM   31  H   UNL     1      -2.377  -2.978 -31.421  1.00  0.00     0.165 HD
HETATM   32  C   UNL     1      -3.400  -1.305 -32.219  1.00  0.00     0.096 A 
ENDBRANCH  22  23
ENDBRANCH   1  22
TORSDOF 6
ENDMDL
MODEL 2
REMARK VINA RESULT:      -9.2      1.564      1.968
REMARK  6 active torsions:
REMARK  status: ('A' for Active; 'I' for Inactive)
REMARK    1  A    between atoms: C_5  and  N_6 
REMARK       I    between atoms: N_6  and  C_7 
REMARK    2  A    between atoms: C_7  and  C_8 
REMARK    3  A    between atoms: C_8  and  N_9 
REMARK    4  A    between atoms: C_8  and  C_17 
REMARK       I    between atoms: N_9  and  C_10 
REMARK    5  A    between atoms: C_10  and  C_11 
REMARK    6  A    between atoms: C_17  and  C_18 
ROOT
HETATM    1  C   UNL     1      -7.171   1.048 -32.712  1.00  0.00     0.181 C 
ENDROOT
BRANCH   1   2
HETATM    2  C   UNL     1      -8.697   1.324 -32.624  1.00  0.00     0.245 C 
HETATM    3  N   UNL     1      -9.397   0.878 -33.739  1.00  0.00    -0.325 N 
HETATM    4  H   UNL     1      -8.863   0.448 -34.483  1.00  0.00     0.169 HD
HETATM    5  O   UNL     1      -9.207   1.807 -31.615  1.00  0.00    -0.271 OA
BRANCH   3   6
HETATM    6  C   UNL     1     -10.793   0.896 -33.946  1.00  0.00     0.034 A 
HETATM    7  C   UNL     1     -11.468   1.872 -34.680  1.00  0.00     0.030 A 
HETATM    8  C   UNL     1     -12.861   1.827 -34.811  1.00  0.00     0.009 A 
HETATM    9  C   UNL     1     -13.603   0.805 -34.213  1.00  0.00    -0.062 A 
HETATM   10  C   UNL     1     -15.095   0.748 -34.354  1.00  0.00     0.048 C 
HETATM   11  C   UNL     1     -12.927  -0.184 -33.494  1.00  0.00     0.009 A 
HETATM   12  C   UNL     1     -11.536  -0.138 -33.362  1.00  0.00     0.030 A 
ENDBRANCH   3   6
ENDBRANCH   1   2
BRANCH   1  13
HETATM   13  N   UNL     1      -6.408   2.232 -32.319  1.00  0.00    -0.342 N 
HETATM   14  C   UNL     1      -5.618   2.312 -31.194  1.00  0.00     0.276 C 
HETATM   15  O   UNL     1      -5.563   1.428 -30.345  1.00  0.00    -0.265 OA
HETATM   16  H   UNL     1      -6.248   2.952 -33.012  1.00  0.00     0.163 HD
BRANCH  14  17
HETATM   17  C   UNL     1      -4.869   3.549 -31.105  1.00  0.00     0.142 A 
HETATM   18  O   UNL     1      -3.581   3.596 -31.581  1.00  0.00    -0.317 OA
HETATM   19  C   UNL     1      -3.124   4.859 -31.379  1.00  0.00     0.143 A 
HETATM   20  C   UNL     1      -4.092   5.633 -30.785  1.00  0.00     0.027 A 
HETATM   21  C   UNL     1      -5.216   4.791 -30.605  1.00  0.00     0.045 A 
ENDBRANCH  14  17
ENDBRANCH   1  13
BRANCH   1  22
HETATM   22  C   UNL     1      -6.751   0.419 -34.054  1.00  0.00     0.075 C 
BRANCH  22  23
HETATM   23  C   UNL     1      -5.692  -0.635 -33.908  1.00  0.00    -0.028 A 
HETATM   24  C   UNL     1      -5.790  -2.023 -34.257  1.00  0.00    -0.002 A 
HETATM   25  C   UNL     1      -4.577  -2.624 -33.917  1.00  0.00     0.042 A 
HETATM   26  C   UNL     1      -6.803  -2.829 -34.819  1.00  0.00     0.014 A 
HETATM   27  C   UNL     1      -4.329  -3.990 -34.103  1.00  0.00     0.030 A 
HETATM   28  N   UNL     1      -3.767  -1.641 -33.403  1.00  0.00    -0.365 N 
HETATM   29  C   UNL     1      -5.352  -4.766 -34.653  1.00  0.00     0.002 A 
HETATM   30  C   UNL     1      -6.572  -4.196 -35.009  1.00  0.00     0.001 A 
HETATM   31  H   UNL     1      -2.823  -1.789 -33.072  1.00  0.00     0.165 HD
HETATM   32  C   UNL     1      -4.423  -0.442 -33.396  1.00  0.00     0.096 A 
ENDBRANCH  22  23
ENDBRANCH   1  22
TORSDOF 6
ENDMDL
MODEL 3
REMARK VINA RESULT:      -9.2      1.954      6.273
REMARK  6 active torsions:
REMARK  status: ('A' for Active; 'I' for Inactive)
REMARK    1  A    between atoms: C_5  and  N_6 
REMARK       I    between atoms: N_6  and  C_7 
REMARK    2  A    between atoms: C_7  and  C_8 
REMARK    3  A    between atoms: C_8  and  N_9 
REMARK    4  A    between atoms: C_8  and  C_17 
REMARK       I    between atoms: N_9  and  C_10 
REMARK    5  A    between atoms: C_10  and  C_11 
REMARK    6  A    between atoms: C_17  and  C_18 
ROOT
HETATM    1  C   UNL     1      -6.885   2.556 -33.623  1.00  0.00     0.181 C 
ENDROOT
BRANCH   1   2
HETATM    2  C   UNL     1      -6.710   1.219 -34.395  1.00  0.00     0.245 C 
HETATM    3  N   UNL     1      -6.219   0.191 -33.599  1.00  0.00    -0.325 N 
HETATM    4  H   UNL     1      -6.013   0.407 -32.633  1.00  0.00     0.169 HD
HETATM    5  O   UNL     1      -7.067   1.100 -35.566  1.00  0.00    -0.271 OA
BRANCH   3   6
HETATM    6  C   UNL     1      -6.023  -1.160 -33.958  1.00  0.00     0.034 A 
HETATM    7  C   UNL     1      -7.040  -2.023 -34.365  1.00  0.00     0.030 A 
HETATM    8  C   UNL     1      -6.759  -3.359 -34.677  1.00  0.00     0.009 A 
HETATM    9  C   UNL     1      -5.455  -3.854 -34.588  1.00  0.00    -0.062 A 
HETATM   10  C   UNL     1      -5.146  -5.282 -34.926  1.00  0.00     0.048 C 
HETATM   11  C   UNL     1      -4.431  -2.987 -34.199  1.00  0.00     0.009 A 
HETATM   12  C   UNL     1      -4.713  -1.654 -33.887  1.00  0.00     0.030 A 
ENDBRANCH   3   6
ENDBRANCH   1   2
BRANCH   1  13
HETATM   13  N   UNL     1      -5.589   3.073 -33.185  1.00  0.00    -0.342 N 
HETATM   14  C   UNL     1      -4.984   4.198 -33.700  1.00  0.00     0.276 C 
HETATM   15  O   UNL     1      -5.425   4.820 -34.662  1.00  0.00    -0.265 OA
HETATM   16  H   UNL     1      -5.214   2.746 -32.304  1.00  0.00     0.163 HD
BRANCH  14  17
HETATM   17  C   UNL     1      -3.768   4.567 -33.004  1.00  0.00     0.142 A 
HETATM   18  O   UNL     1      -3.834   5.433 -31.940  1.00  0.00    -0.317 OA
HETATM   19  C   UNL     1      -2.568   5.598 -31.478  1.00  0.00     0.143 A 
HETATM   20  C   UNL     1      -1.683   4.853 -32.220  1.00  0.00     0.027 A 
HETATM   21  C   UNL     1      -2.453   4.190 -33.204  1.00  0.00     0.045 A 
ENDBRANCH  14  17
ENDBRANCH   1  13
BRANCH   1  22
HETATM   22  C   UNL     1      -7.960   2.478 -32.522  1.00  0.00     0.075 C 
BRANCH  22  23
HETATM   23  C   UNL     1      -9.230   1.822 -32.982  1.00  0.00    -0.028 A 
HETATM   24  C   UNL     1     -10.183   2.332 -33.924  1.00  0.00    -0.002 A 
HETATM   25  C   UNL     1     -11.218   1.400 -34.016  1.00  0.00     0.042 A 
HETATM   26  C   UNL     1     -10.270   3.508 -34.699  1.00  0.00     0.014 A 
HETATM   27  C   UNL     1     -12.337   1.586 -34.837  1.00  0.00     0.030 A 
HETATM   28  N   UNL     1     -10.898   0.355 -33.181  1.00  0.00    -0.365 N 
HETATM   29  C   UNL     1     -12.402   2.763 -35.587  1.00  0.00     0.002 A 
HETATM   30  C   UNL     1     -11.383   3.711 -35.523  1.00  0.00     0.001 A 
HETATM   31  H   UNL     1     -11.470  -0.468 -33.046  1.00  0.00     0.165 HD
HETATM   32  C   UNL     1      -9.706   0.595 -32.558  1.00  0.00     0.096 A 
ENDBRANCH  22  23
ENDBRANCH   1  22
TORSDOF 6
ENDMDL
MODEL 4
REMARK VINA RESULT:      -9.2      2.320      7.813
REMARK  6 active torsions:
REMARK  status: ('A' for Active; 'I' for Inactive)
REMARK    1  A    between atoms: C_5  and  N_6 
REMARK       I    between atoms: N_6  and  C_7 
REMARK    2  A    between atoms: C_7  and  C_8 
REMARK    3  A    between atoms: C_8  and  N_9 
REMARK    4  A    between atoms: C_8  and  C_17 
REMARK       I    between atoms: N_9  and  C_10 
REMARK    5  A    between atoms: C_10  and  C_11 
REMARK    6  A    between atoms: C_17  and  C_18 
ROOT
HETATM    1  C   UNL     1      -7.921   2.071 -33.348  1.00  0.00     0.181 C 
ENDROOT
BRANCH   1   2
HETATM    2  C   UNL     1      -7.015   1.005 -34.024  1.00  0.00     0.245 C 
HETATM    3  N   UNL     1      -6.661  -0.031 -33.168  1.00  0.00    -0.325 N 
HETATM    4  H   UNL     1      -7.000   0.014 -32.217  1.00  0.00     0.169 HD
HETATM    5  O   UNL     1      -6.736   1.062 -35.221  1.00  0.00    -0.271 OA
BRANCH   3   6
HETATM    6  C   UNL     1      -5.923  -1.194 -33.479  1.00  0.00     0.034 A 
HETATM    7  C   UNL     1      -6.348  -2.183 -34.365  1.00  0.00     0.030 A 
HETATM    8  C   UNL     1      -5.563  -3.320 -34.594  1.00  0.00     0.009 A 
HETATM    9  C   UNL     1      -4.338  -3.486 -33.941  1.00  0.00    -0.062 A 
HETATM   10  C   UNL     1      -3.490  -4.698 -34.185  1.00  0.00     0.048 C 
HETATM   11  C   UNL     1      -3.901  -2.486 -33.067  1.00  0.00     0.009 A 
HETATM   12  C   UNL     1      -4.687  -1.353 -32.838  1.00  0.00     0.030 A 
ENDBRANCH   3   6
ENDBRANCH   1   2
BRANCH   1  13
HETATM   13  N   UNL     1      -9.307   1.925 -33.789  1.00  0.00    -0.342 N 
HETATM   14  C   UNL     1     -10.167   0.946 -33.345  1.00  0.00     0.276 C 
HETATM   15  O   UNL     1      -9.819   0.024 -32.614  1.00  0.00    -0.265 OA
HETATM   16  H   UNL     1      -9.747   2.708 -34.256  1.00  0.00     0.163 HD
BRANCH  14  17
HETATM   17  C   UNL     1     -11.520   1.102 -33.838  1.00  0.00     0.142 A 
HETATM   18  O   UNL     1     -12.479   0.183 -33.487  1.00  0.00    -0.317 OA
HETATM   19  C   UNL     1     -13.640   0.569 -34.075  1.00  0.00     0.143 A 
HETATM   20  C   UNL     1     -13.454   1.723 -34.798  1.00  0.00     0.027 A 
HETATM   21  C   UNL     1     -12.090   2.067 -34.649  1.00  0.00     0.045 A 
ENDBRANCH  14  17
ENDBRANCH   1  13
BRANCH   1  22
HETATM   22  C   UNL     1      -7.350   3.499 -33.455  1.00  0.00     0.075 C 
BRANCH  22  23
HETATM   23  C   UNL     1      -5.962   3.624 -32.896  1.00  0.00    -0.028 A 
HETATM   24  C   UNL     1      -4.817   4.210 -33.530  1.00  0.00    -0.002 A 
HETATM   25  C   UNL     1      -3.740   4.075 -32.653  1.00  0.00     0.042 A 
HETATM   26  C   UNL     1      -4.591   4.833 -34.776  1.00  0.00     0.014 A 
HETATM   27  C   UNL     1      -2.450   4.523 -32.960  1.00  0.00     0.030 A 
HETATM   28  N   UNL     1      -4.214   3.452 -31.522  1.00  0.00    -0.365 N 
HETATM   29  C   UNL     1      -2.252   5.128 -34.204  1.00  0.00     0.002 A 
HETATM   30  C   UNL     1      -3.306   5.284 -35.101  1.00  0.00     0.001 A 
HETATM   31  H   UNL     1      -3.651   3.224 -30.714  1.00  0.00     0.165 HD
HETATM   32  C   UNL     1      -5.547   3.180 -31.655  1.00  0.00     0.096 A 
ENDBRANCH  22  23
ENDBRANCH   1  22
TORSDOF 6
ENDMDL
MODEL 5
REMARK VINA RESULT:      -9.0      1.932      5.911
REMARK  6 active torsions:
REMARK  status: ('A' for Active; 'I' for Inactive)
REMARK    1  A    between atoms: C_5  and  N_6 
REMARK       I    between atoms: N_6  and  C_7 
REMARK    2  A    between atoms: C_7  and  C_8 
REMARK    3  A    between atoms: C_8  and  N_9 
REMARK    4  A    between atoms: C_8  and  C_17 
REMARK       I    between atoms: N_9  and  C_10 
REMARK    5  A    between atoms: C_10  and  C_11 
REMARK    6  A    between atoms: C_17  and  C_18 
ROOT
HETATM    1  C   UNL     1      -5.759   3.064 -33.195  1.00  0.00     0.181 C 
ENDROOT
BRANCH   1   2
HETATM    2  C   UNL     1      -5.474   1.558 -32.942  1.00  0.00     0.245 C 
HETATM    3  N   UNL     1      -5.889   0.742 -33.989  1.00  0.00    -0.325 N 
HETATM    4  H   UNL     1      -6.335   1.188 -34.778  1.00  0.00     0.169 HD
HETATM    5  O   UNL     1      -4.861   1.176 -31.947  1.00  0.00    -0.271 OA
BRANCH   3   6
HETATM    6  C   UNL     1      -5.709  -0.652 -34.120  1.00  0.00     0.034 A 
HETATM    7  C   UNL     1      -4.501  -1.314 -33.901  1.00  0.00     0.030 A 
HETATM    8  C   UNL     1      -4.406  -2.700 -34.081  1.00  0.00     0.009 A 
HETATM    9  C   UNL     1      -5.517  -3.447 -34.483  1.00  0.00    -0.062 A 
HETATM   10  C   UNL     1      -5.424  -4.931 -34.672  1.00  0.00     0.048 C 
HETATM   11  C   UNL     1      -6.733  -2.788 -34.684  1.00  0.00     0.009 A 
HETATM   12  C   UNL     1      -6.827  -1.404 -34.505  1.00  0.00     0.030 A 
ENDBRANCH   3   6
ENDBRANCH   1   2
BRANCH   1  13
HETATM   13  N   UNL     1      -4.530   3.848 -33.083  1.00  0.00    -0.342 N 
HETATM   14  C   UNL     1      -4.178   4.872 -33.935  1.00  0.00     0.276 C 
HETATM   15  O   UNL     1      -4.813   5.156 -34.945  1.00  0.00    -0.265 OA
HETATM   16  H   UNL     1      -4.017   3.815 -32.211  1.00  0.00     0.163 HD
BRANCH  14  17
HETATM   17  C   UNL     1      -2.976   5.571 -33.528  1.00  0.00     0.142 A 
HETATM   18  O   UNL     1      -2.646   6.759 -34.133  1.00  0.00    -0.317 OA
HETATM   19  C   UNL     1      -1.493   7.193 -33.563  1.00  0.00     0.143 A 
HETATM   20  C   UNL     1      -1.070   6.311 -32.598  1.00  0.00     0.027 A 
HETATM   21  C   UNL     1      -2.022   5.265 -32.575  1.00  0.00     0.045 A 
ENDBRANCH  14  17
ENDBRANCH   1  13
BRANCH   1  22
HETATM   22  C   UNL     1      -6.948   3.597 -32.372  1.00  0.00     0.075 C 
BRANCH  22  23
HETATM   23  C   UNL     1      -8.265   3.462 -33.080  1.00  0.00    -0.028 A 
HETATM   24  C   UNL     1      -9.135   2.322 -33.092  1.00  0.00    -0.002 A 
HETATM   25  C   UNL     1     -10.225   2.638 -33.904  1.00  0.00     0.042 A 
HETATM   26  C   UNL     1      -9.092   1.043 -32.497  1.00  0.00     0.014 A 
HETATM   27  C   UNL     1     -11.268   1.740 -34.159  1.00  0.00     0.030 A 
HETATM   28  N   UNL     1     -10.038   3.924 -34.352  1.00  0.00    -0.365 N 
HETATM   29  C   UNL     1     -11.197   0.477 -33.564  1.00  0.00     0.002 A 
HETATM   30  C   UNL     1     -10.126   0.131 -32.743  1.00  0.00     0.001 A 
HETATM   31  H   UNL     1     -10.674   4.419 -34.963  1.00  0.00     0.165 HD
HETATM   32  C   UNL     1      -8.867   4.431 -33.861  1.00  0.00     0.096 A 
ENDBRANCH  22  23
ENDBRANCH   1  22
TORSDOF 6
ENDMDL
MODEL 6
REMARK VINA RESULT:      -8.8      1.688      6.713
REMARK  6 active torsions:
REMARK  status: ('A' for Active; 'I' for Inactive)
REMARK    1  A    between atoms: C_5  and  N_6 
REMARK       I    between atoms: N_6  and  C_7 
REMARK    2  A    between atoms: C_7  and  C_8 
REMARK    3  A    between atoms: C_8  and  N_9 
REMARK    4  A    between atoms: C_8  and  C_17 
REMARK       I    between atoms: N_9  and  C_10 
REMARK    5  A    between atoms: C_10  and  C_11 
REMARK    6  A    between atoms: C_17  and  C_18 
ROOT
HETATM    1  C   UNL     1      -6.952   1.529 -32.707  1.00  0.00     0.181 C 
ENDROOT
BRANCH   1   2
HETATM    2  C   UNL     1      -6.082   2.769 -32.362  1.00  0.00     0.245 C 
HETATM    3  N   UNL     1      -4.886   2.809 -33.070  1.00  0.00    -0.325 N 
HETATM    4  H   UNL     1      -4.694   2.046 -33.705  1.00  0.00     0.169 HD
HETATM    5  O   UNL     1      -6.486   3.649 -31.605  1.00  0.00    -0.271 OA
BRANCH   3   6
HETATM    6  C   UNL     1      -3.910   3.829 -33.059  1.00  0.00     0.034 A 
HETATM    7  C   UNL     1      -2.770   3.819 -32.255  1.00  0.00     0.030 A 
HETATM    8  C   UNL     1      -1.867   4.889 -32.288  1.00  0.00     0.009 A 
HETATM    9  C   UNL     1      -2.087   5.986 -33.125  1.00  0.00    -0.062 A 
HETATM   10  C   UNL     1      -1.121   7.132 -33.169  1.00  0.00     0.048 C 
HETATM   11  C   UNL     1      -3.219   5.989 -33.945  1.00  0.00     0.009 A 
HETATM   12  C   UNL     1      -4.121   4.921 -33.910  1.00  0.00     0.030 A 
ENDBRANCH   3   6
ENDBRANCH   1   2
BRANCH   1  13
HETATM   13  N   UNL     1      -8.363   1.899 -32.805  1.00  0.00    -0.342 N 
HETATM   14  C   UNL     1      -9.241   1.383 -33.732  1.00  0.00     0.276 C 
HETATM   15  O   UNL     1      -8.898   0.640 -34.646  1.00  0.00    -0.265 OA
HETATM   16  H   UNL     1      -8.792   2.370 -32.018  1.00  0.00     0.163 HD
BRANCH  14  17
HETATM   17  C   UNL     1     -10.609   1.817 -33.531  1.00  0.00     0.142 A 
HETATM   18  O   UNL     1     -10.854   3.029 -32.932  1.00  0.00    -0.317 OA
HETATM   19  C   UNL     1     -12.201   3.185 -32.877  1.00  0.00     0.143 A 
HETATM   20  C   UNL     1     -12.835   2.099 -33.431  1.00  0.00     0.027 A 
HETATM   21  C   UNL     1     -11.813   1.216 -33.852  1.00  0.00     0.045 A 
ENDBRANCH  14  17
ENDBRANCH   1  13
BRANCH   1  22
HETATM   22  C   UNL     1      -6.657   0.318 -31.800  1.00  0.00     0.075 C 
BRANCH  22  23
HETATM   23  C   UNL     1      -5.612  -0.602 -32.362  1.00  0.00    -0.028 A 
HETATM   24  C   UNL     1      -5.795  -1.631 -33.344  1.00  0.00    -0.002 A 
HETATM   25  C   UNL     1      -4.558  -2.248 -33.535  1.00  0.00     0.042 A 
HETATM   26  C   UNL     1      -6.901  -2.106 -34.080  1.00  0.00     0.014 A 
HETATM   27  C   UNL     1      -4.373  -3.320 -34.417  1.00  0.00     0.030 A 
HETATM   28  N   UNL     1      -3.655  -1.608 -32.720  1.00  0.00    -0.365 N 
HETATM   29  C   UNL     1      -5.486  -3.776 -35.127  1.00  0.00     0.002 A 
HETATM   30  C   UNL     1      -6.734  -3.178 -34.964  1.00  0.00     0.001 A 
HETATM   31  H   UNL     1      -2.674  -1.845 -32.651  1.00  0.00     0.165 HD
HETATM   32  C   UNL     1      -4.275  -0.615 -32.014  1.00  0.00     0.096 A 
ENDBRANCH  22  23
ENDBRANCH   1  22
TORSDOF 6
ENDMDL
MODEL 7
REMARK VINA RESULT:      -8.7      1.741      5.286
REMARK  6 active torsions:
REMARK  status: ('A' for Active; 'I' for Inactive)
REMARK    1  A    between atoms: C_5  and  N_6 
REMARK       I    between atoms: N_6  and  C_7 
REMARK    2  A    between atoms: C_7  and  C_8 
REMARK    3  A    between atoms: C_8  and  N_9 
REMARK    4  A    between atoms: C_8  and  C_17 
REMARK       I    between atoms: N_9  and  C_10 
REMARK    5  A    between atoms: C_10  and  C_11 
REMARK    6  A    between atoms: C_17  and  C_18 
ROOT
HETATM    1  C   UNL     1      -4.425   3.108 -32.556  1.00  0.00     0.181 C 
ENDROOT
BRANCH   1   2
HETATM    2  C   UNL     1      -4.336   1.557 -32.526  1.00  0.00     0.245 C 
HETATM    3  N   UNL     1      -5.131   0.948 -33.490  1.00  0.00    -0.325 N 
HETATM    4  H   UNL     1      -5.685   1.548 -34.085  1.00  0.00     0.169 HD
HETATM    5  O   UNL     1      -3.561   0.971 -31.773  1.00  0.00    -0.271 OA
BRANCH   3   6
HETATM    6  C   UNL     1      -5.222  -0.429 -33.790  1.00  0.00     0.034 A 
HETATM    7  C   UNL     1      -4.167  -1.333 -33.666  1.00  0.00     0.030 A 
HETATM    8  C   UNL     1      -4.338  -2.679 -34.013  1.00  0.00     0.009 A 
HETATM    9  C   UNL     1      -5.567  -3.144 -34.488  1.00  0.00    -0.062 A 
HETATM   10  C   UNL     1      -5.759  -4.585 -34.856  1.00  0.00     0.048 C 
HETATM   11  C   UNL     1      -6.631  -2.244 -34.594  1.00  0.00     0.009 A 
HETATM   12  C   UNL     1      -6.459  -0.900 -34.250  1.00  0.00     0.030 A 
ENDBRANCH   3   6
ENDBRANCH   1   2
BRANCH   1  13
HETATM   13  N   UNL     1      -3.215   3.705 -31.993  1.00  0.00    -0.342 N 
HETATM   14  C   UNL     1      -2.267   4.382 -32.727  1.00  0.00     0.276 C 
HETATM   15  O   UNL     1      -2.287   4.455 -33.952  1.00  0.00    -0.265 OA
HETATM   16  H   UNL     1      -3.172   3.850 -30.992  1.00  0.00     0.163 HD
BRANCH  14  17
HETATM   17  C   UNL     1      -1.233   4.987 -31.911  1.00  0.00     0.142 A 
HETATM   18  O   UNL     1      -0.725   4.295 -30.839  1.00  0.00    -0.317 OA
HETATM   19  C   UNL     1       0.219   5.082 -30.264  1.00  0.00     0.143 A 
HETATM   20  C   UNL     1       0.336   6.271 -30.944  1.00  0.00     0.027 A 
HETATM   21  C   UNL     1      -0.599   6.213 -32.004  1.00  0.00     0.045 A 
ENDBRANCH  14  17
ENDBRANCH   1  13
BRANCH   1  22
HETATM   22  C   UNL     1      -5.748   3.645 -31.975  1.00  0.00     0.075 C 
BRANCH  22  23
HETATM   23  C   UNL     1      -6.753   2.564 -31.696  1.00  0.00    -0.028 A 
HETATM   24  C   UNL     1      -7.831   2.138 -32.541  1.00  0.00    -0.002 A 
HETATM   25  C   UNL     1      -8.521   1.134 -31.862  1.00  0.00     0.042 A 
HETATM   26  C   UNL     1      -8.293   2.523 -33.818  1.00  0.00     0.014 A 
HETATM   27  C   UNL     1      -9.653   0.500 -32.389  1.00  0.00     0.030 A 
HETATM   28  N   UNL     1      -7.878   0.941 -30.662  1.00  0.00    -0.365 N 
HETATM   29  C   UNL     1     -10.094   0.905 -33.651  1.00  0.00     0.002 A 
HETATM   30  C   UNL     1      -9.425   1.901 -34.359  1.00  0.00     0.001 A 
HETATM   31  H   UNL     1      -8.161   0.269 -29.960  1.00  0.00     0.165 HD
HETATM   32  C   UNL     1      -6.813   1.791 -30.553  1.00  0.00     0.096 A 
ENDBRANCH  22  23
ENDBRANCH   1  22
TORSDOF 6
ENDMDL
MODEL 8
REMARK VINA RESULT:      -8.6      1.870      2.123
REMARK  6 active torsions:
REMARK  status: ('A' for Active; 'I' for Inactive)
REMARK    1  A    between atoms: C_5  and  N_6 
REMARK       I    between atoms: N_6  and  C_7 
REMARK    2  A    between atoms: C_7  and  C_8 
REMARK    3  A    between atoms: C_8  and  N_9 
REMARK    4  A    between atoms: C_8  and  C_17 
REMARK       I    between atoms: N_9  and  C_10 
REMARK    5  A    between atoms: C_10  and  C_11 
REMARK    6  A    between atoms: C_17  and  C_18 
ROOT
HETATM    1  C   UNL     1      -5.132   1.329 -32.163  1.00  0.00     0.181 C 
ENDROOT
BRANCH   1   2
HETATM    2  C   UNL     1      -6.536   1.572 -31.543  1.00  0.00     0.245 C 
HETATM    3  N   UNL     1      -7.163   2.708 -32.043  1.00  0.00    -0.325 N 
HETATM    4  H   UNL     1      -6.658   3.257 -32.724  1.00  0.00     0.169 HD
HETATM    5  O   UNL     1      -7.043   0.770 -30.761  1.00  0.00    -0.271 OA
BRANCH   3   6
HETATM    6  C   UNL     1      -8.466   3.170 -31.759  1.00  0.00     0.034 A 
HETATM    7  C   UNL     1      -8.810   3.909 -30.627  1.00  0.00     0.030 A 
HETATM    8  C   UNL     1     -10.136   4.304 -30.410  1.00  0.00     0.009 A 
HETATM    9  C   UNL     1     -11.140   3.967 -31.321  1.00  0.00    -0.062 A 
HETATM   10  C   UNL     1     -12.561   4.391 -31.097  1.00  0.00     0.048 C 
HETATM   11  C   UNL     1     -10.795   3.243 -32.465  1.00  0.00     0.009 A 
HETATM   12  C   UNL     1      -9.471   2.848 -32.680  1.00  0.00     0.030 A 
ENDBRANCH   3   6
ENDBRANCH   1   2
BRANCH   1  13
HETATM   13  N   UNL     1      -4.519   2.594 -32.565  1.00  0.00    -0.342 N 
HETATM   14  C   UNL     1      -3.310   3.056 -32.096  1.00  0.00     0.276 C 
HETATM   15  O   UNL     1      -2.676   2.503 -31.203  1.00  0.00    -0.265 OA
HETATM   16  H   UNL     1      -4.862   3.049 -33.402  1.00  0.00     0.163 HD
BRANCH  14  17
HETATM   17  C   UNL     1      -2.867   4.272 -32.749  1.00  0.00     0.142 A 
HETATM   18  O   UNL     1      -3.796   5.124 -33.294  1.00  0.00    -0.317 OA
HETATM   19  C   UNL     1      -3.116   6.170 -33.829  1.00  0.00     0.143 A 
HETATM   20  C   UNL     1      -1.764   6.015 -33.638  1.00  0.00     0.027 A 
HETATM   21  C   UNL     1      -1.601   4.792 -32.945  1.00  0.00     0.045 A 
ENDBRANCH  14  17
ENDBRANCH   1  13
BRANCH   1  22
HETATM   22  C   UNL     1      -5.137   0.234 -33.248  1.00  0.00     0.075 C 
BRANCH  22  23
HETATM   23  C   UNL     1      -4.350  -0.985 -32.861  1.00  0.00    -0.028 A 
HETATM   24  C   UNL     1      -4.455  -2.303 -33.417  1.00  0.00    -0.002 A 
HETATM   25  C   UNL     1      -3.555  -3.118 -32.730  1.00  0.00     0.042 A 
HETATM   26  C   UNL     1      -5.243  -2.883 -34.434  1.00  0.00     0.014 A 
HETATM   27  C   UNL     1      -3.408  -4.484 -33.001  1.00  0.00     0.030 A 
HETATM   28  N   UNL     1      -2.913  -2.326 -31.808  1.00  0.00    -0.365 N 
HETATM   29  C   UNL     1      -4.205  -5.035 -34.007  1.00  0.00     0.002 A 
HETATM   30  C   UNL     1      -5.110  -4.248 -34.716  1.00  0.00     0.001 A 
HETATM   31  H   UNL     1      -2.203  -2.652 -31.165  1.00  0.00     0.165 HD
HETATM   32  C   UNL     1      -3.378  -1.043 -31.880  1.00  0.00     0.096 A 
ENDBRANCH  22  23
ENDBRANCH   1  22
TORSDOF 6
ENDMDL
MODEL 9
REMARK VINA RESULT:      -8.6      1.850      7.826
REMARK  6 active torsions:
REMARK  status: ('A' for Active; 'I' for Inactive)
REMARK    1  A    between atoms: C_5  and  N_6 
REMARK       I    between atoms: N_6  and  C_7 
REMARK    2  A    between atoms: C_7  and  C_8 
REMARK    3  A    between atoms: C_8  and  N_9 
REMARK    4  A    between atoms: C_8  and  C_17 
REMARK       I    between atoms: N_9  and  C_10 
REMARK    5  A    between atoms: C_10  and  C_11 
REMARK    6  A    between atoms: C_17  and  C_18 
ROOT
HETATM    1  C   UNL     1      -6.879   1.790 -32.385  1.00  0.00     0.181 C 
ENDROOT
BRANCH   1   2
HETATM    2  C   UNL     1      -5.705   2.707 -31.942  1.00  0.00     0.245 C 
HETATM    3  N   UNL     1      -5.042   3.297 -33.012  1.00  0.00    -0.325 N 
HETATM    4  H   UNL     1      -5.362   3.069 -33.943  1.00  0.00     0.169 HD
HETATM    5  O   UNL     1      -5.476   2.933 -30.756  1.00  0.00    -0.271 OA
BRANCH   3   6
HETATM    6  C   UNL     1      -3.993   4.241 -32.963  1.00  0.00     0.034 A 
HETATM    7  C   UNL     1      -2.637   3.912 -32.971  1.00  0.00     0.030 A 
HETATM    8  C   UNL     1      -1.661   4.913 -32.891  1.00  0.00     0.009 A 
HETATM    9  C   UNL     1      -2.024   6.260 -32.802  1.00  0.00    -0.062 A 
HETATM   10  C   UNL     1      -0.984   7.337 -32.721  1.00  0.00     0.048 C 
HETATM   11  C   UNL     1      -3.381   6.593 -32.813  1.00  0.00     0.009 A 
HETATM   12  C   UNL     1      -4.355   5.592 -32.892  1.00  0.00     0.030 A 
ENDBRANCH   3   6
ENDBRANCH   1   2
BRANCH   1  13
HETATM   13  N   UNL     1      -6.380   0.639 -33.136  1.00  0.00    -0.342 N 
HETATM   14  C   UNL     1      -6.000  -0.556 -32.567  1.00  0.00     0.276 C 
HETATM   15  O   UNL     1      -5.936  -0.737 -31.355  1.00  0.00    -0.265 OA
HETATM   16  H   UNL     1      -6.540   0.612 -34.135  1.00  0.00     0.163 HD
BRANCH  14  17
HETATM   17  C   UNL     1      -5.668  -1.576 -33.542  1.00  0.00     0.142 A 
HETATM   18  O   UNL     1      -4.409  -2.127 -33.542  1.00  0.00    -0.317 OA
HETATM   19  C   UNL     1      -4.374  -3.047 -34.540  1.00  0.00     0.143 A 
HETATM   20  C   UNL     1      -5.587  -3.106 -35.185  1.00  0.00     0.027 A 
HETATM   21  C   UNL     1      -6.420  -2.158 -34.545  1.00  0.00     0.045 A 
ENDBRANCH  14  17
ENDBRANCH   1  13
BRANCH   1  22
HETATM   22  C   UNL     1      -8.023   2.566 -33.066  1.00  0.00     0.075 C 
BRANCH  22  23
HETATM   23  C   UNL     1      -9.292   1.772 -33.178  1.00  0.00    -0.028 A 
HETATM   24  C   UNL     1     -10.452   2.088 -33.960  1.00  0.00    -0.002 A 
HETATM   25  C   UNL     1     -11.394   1.085 -33.731  1.00  0.00     0.042 A 
HETATM   26  C   UNL     1     -10.794   3.143 -34.833  1.00  0.00     0.014 A 
HETATM   27  C   UNL     1     -12.663   1.087 -34.324  1.00  0.00     0.030 A 
HETATM   28  N   UNL     1     -10.826   0.184 -32.863  1.00  0.00    -0.365 N 
HETATM   29  C   UNL     1     -12.979   2.146 -35.177  1.00  0.00     0.002 A 
HETATM   30  C   UNL     1     -12.059   3.161 -35.432  1.00  0.00     0.001 A 
HETATM   31  H   UNL     1     -11.283  -0.650 -32.519  1.00  0.00     0.165 HD
HETATM   32  C   UNL     1      -9.562   0.583 -32.527  1.00  0.00     0.096 A 
ENDBRANCH  22  23
ENDBRANCH   1  22
TORSDOF 6
ENDMDL
MODEL 10
REMARK VINA RESULT:      -8.6      2.158      5.674
REMARK  6 active torsions:
REMARK  status: ('A' for Active; 'I' for Inactive)
REMARK    1  A    between atoms: C_5  and  N_6 
REMARK       I    between atoms: N_6  and  C_7 
REMARK    2  A    between atoms: C_7  and  C_8 
REMARK    3  A    between atoms: C_8  and  N_9 
REMARK    4  A    between atoms: C_8  and  C_17 
REMARK       I    between atoms: N_9  and  C_10 
REMARK    5  A    between atoms: C_10  and  C_11 
REMARK    6  A    between atoms: C_17  and  C_18 
ROOT
HETATM    1  C   UNL     1      -7.266   2.424 -32.607  1.00  0.00     0.181 C 
ENDROOT
BRANCH   1   2
HETATM    2  C   UNL     1      -8.766   2.145 -32.314  1.00  0.00     0.245 C 
HETATM    3  N   UNL     1      -9.586   2.362 -33.416  1.00  0.00    -0.325 N 
HETATM    4  H   UNL     1      -9.147   2.685 -34.267  1.00  0.00     0.169 HD
HETATM    5  O   UNL     1      -9.138   1.694 -31.232  1.00  0.00    -0.271 OA
BRANCH   3   6
HETATM    6  C   UNL     1     -10.974   2.127 -33.518  1.00  0.00     0.034 A 
HETATM    7  C   UNL     1     -11.944   3.129 -33.512  1.00  0.00     0.030 A 
HETATM    8  C   UNL     1     -13.304   2.803 -33.589  1.00  0.00     0.009 A 
HETATM    9  C   UNL     1     -13.717   1.471 -33.675  1.00  0.00    -0.062 A 
HETATM   10  C   UNL     1     -15.171   1.116 -33.764  1.00  0.00     0.048 C 
HETATM   11  C   UNL     1     -12.745   0.467 -33.701  1.00  0.00     0.009 A 
HETATM   12  C   UNL     1     -11.388   0.792 -33.622  1.00  0.00     0.030 A 
ENDBRANCH   3   6
ENDBRANCH   1   2
BRANCH   1  13
HETATM   13  N   UNL     1      -6.532   1.171 -32.781  1.00  0.00    -0.342 N 
HETATM   14  C   UNL     1      -6.618   0.367 -33.896  1.00  0.00     0.276 C 
HETATM   15  O   UNL     1      -7.409   0.566 -34.812  1.00  0.00    -0.265 OA
HETATM   16  H   UNL     1      -5.741   0.990 -32.176  1.00  0.00     0.163 HD
BRANCH  14  17
HETATM   17  C   UNL     1      -5.692  -0.748 -33.872  1.00  0.00     0.142 A 
HETATM   18  O   UNL     1      -4.595  -0.699 -33.046  1.00  0.00    -0.317 OA
HETATM   19  C   UNL     1      -3.912  -1.859 -33.218  1.00  0.00     0.143 A 
HETATM   20  C   UNL     1      -4.546  -2.662 -34.135  1.00  0.00     0.027 A 
HETATM   21  C   UNL     1      -5.691  -1.948 -34.560  1.00  0.00     0.045 A 
ENDBRANCH  14  17
ENDBRANCH   1  13
BRANCH   1  22
HETATM   22  C   UNL     1      -6.634   3.416 -31.612  1.00  0.00     0.075 C 
BRANCH  22  23
HETATM   23  C   UNL     1      -5.148   3.555 -31.778  1.00  0.00    -0.028 A 
HETATM   24  C   UNL     1      -4.446   4.147 -32.880  1.00  0.00    -0.002 A 
HETATM   25  C   UNL     1      -3.081   4.025 -32.618  1.00  0.00     0.042 A 
HETATM   26  C   UNL     1      -4.845   4.766 -34.084  1.00  0.00     0.014 A 
HETATM   27  C   UNL     1      -2.095   4.481 -33.501  1.00  0.00     0.030 A 
HETATM   28  N   UNL     1      -2.956   3.404 -31.398  1.00  0.00    -0.365 N 
HETATM   29  C   UNL     1      -2.516   5.082 -34.690  1.00  0.00     0.002 A 
HETATM   30  C   UNL     1      -3.871   5.226 -34.979  1.00  0.00     0.001 A 
HETATM   31  H   UNL     1      -2.075   3.183 -30.953  1.00  0.00     0.165 HD
HETATM   32  C   UNL     1      -4.190   3.120 -30.882  1.00  0.00     0.096 A 
ENDBRANCH  22  23
ENDBRANCH   1  22
TORSDOF 6
ENDMDL
