MODEL 1
REMARK VINA RESULT:      -9.4      0.000      0.000
REMARK  6 active torsions:
REMARK  status: ('A' for Active; 'I' for Inactive)
REMARK    1  A    between atoms: O_2  and  C_3 
REMARK    2  A    between atoms: C_6  and  C_7 
REMARK    3  A    between atoms: C_12  and  C_13 
REMARK       I    between atoms: C_13  and  N_14 
REMARK    4  A    between atoms: N_14  and  C_15 
REMARK    5  A    between atoms: C_17  and  O_18 
REMARK    6  A    between atoms: C_24  and  C_25 
ROOT
HETATM    1  C   UNL     1      -2.861   5.396 -31.834  1.00  0.00     0.118 C 
HETATM    2  N   UNL     1      -2.563   4.054 -32.338  1.00  0.00    -0.366 N 
HETATM    3  C   UNL     1      -3.485   3.072 -32.379  1.00  0.00     0.123 C 
HETATM    4  N   UNL     1      -4.806   3.336 -32.150  1.00  0.00    -0.240 N 
HETATM    5  N   UNL     1      -5.571   2.238 -32.027  1.00  0.00    -0.165 NA
HETATM    6  C   UNL     1      -4.723   1.234 -32.353  1.00  0.00     0.148 C 
HETATM    7  C   UNL     1      -3.412   1.725 -32.611  1.00  0.00     0.089 C 
HETATM    8  C   UNL     1      -5.314   4.669 -31.897  1.00  0.00     0.221 C 
HETATM    9  C   UNL     1      -4.242   5.465 -31.145  1.00  0.00     0.066 C 
HETATM   10  H   UNL     1      -1.579   3.867 -32.530  1.00  0.00     0.161 HD
ENDROOT
BRANCH   6  11
HETATM   11  C   UNL     1      -5.155  -0.177 -32.356  1.00  0.00     0.276 C 
HETATM   12  N   UNL     1      -4.842  -0.800 -33.548  1.00  0.00    -0.322 N 
HETATM   13  H   UNL     1      -4.379  -0.184 -34.213  1.00  0.00     0.169 HD
HETATM   14  O   UNL     1      -5.755  -0.669 -31.407  1.00  0.00    -0.266 OA
BRANCH  12  15
HETATM   15  C   UNL     1      -5.139  -2.109 -33.956  1.00  0.00     0.037 A 
HETATM   16  C   UNL     1      -4.242  -3.175 -33.859  1.00  0.00     0.066 A 
HETATM   17  C   UNL     1      -4.628  -4.444 -34.288  1.00  0.00     0.067 A 
HETATM   18  C   UNL     1      -5.897  -4.674 -34.803  1.00  0.00     0.036 A 
HETATM   19  C   UNL     1      -6.796  -3.617 -34.904  1.00  0.00     0.005 A 
HETATM   20  C   UNL     1      -6.416  -2.339 -34.488  1.00  0.00     0.029 A 
BRANCH  17  21
HETATM   21  O   UNL     1      -3.770  -5.505 -34.219  1.00  0.00    -0.361 OA
HETATM   22  H   UNL     1      -3.561  -5.789 -35.125  1.00  0.00     0.217 HD
ENDBRANCH  17  21
ENDBRANCH  12  15
ENDBRANCH   6  11
BRANCH   8  23
HETATM   23  C   UNL     1      -5.727   5.324 -33.194  1.00  0.00     0.409 C 
HETATM   24  F   UNL     1      -7.016   5.069 -33.509  1.00  0.00    -0.169 F 
HETATM   25  F   UNL     1      -5.619   6.674 -33.077  1.00  0.00    -0.169 F 
HETATM   26  F   UNL     1      -4.966   4.968 -34.249  1.00  0.00    -0.169 F 
ENDBRANCH   8  23
BRANCH   1  27
HETATM   27  C   UNL     1      -1.785   5.819 -30.846  1.00  0.00    -0.035 A 
HETATM   28  C   UNL     1      -2.019   6.867 -29.946  1.00  0.00     0.012 A 
HETATM   29  C   UNL     1      -1.062   7.196 -28.981  1.00  0.00     0.037 A 
HETATM   30  C   UNL     1       0.133   6.479 -28.887  1.00  0.00     0.068 A 
HETATM   31  C   UNL     1       0.390   5.458 -29.799  1.00  0.00     0.037 A 
HETATM   32  C   UNL     1      -0.562   5.130 -30.768  1.00  0.00     0.012 A 
BRANCH  30  33
HETATM   33  O   UNL     1       0.969   6.871 -27.878  1.00  0.00    -0.356 OA
HETATM   34  C   UNL     1       1.275   8.260 -27.826  1.00  0.00     0.210 C 
ENDBRANCH  30  33
ENDBRANCH   1  27
TORSDOF 6
ENDMDL
MODEL 2
REMARK VINA RESULT:      -9.1      5.372     10.207
REMARK  6 active torsions:
REMARK  status: ('A' for Active; 'I' for Inactive)
REMARK    1  A    between atoms: O_2  and  C_3 
REMARK    2  A    between atoms: C_6  and  C_7 
REMARK    3  A    between atoms: C_12  and  C_13 
REMARK       I    between atoms: C_13  and  N_14 
REMARK    4  A    between atoms: N_14  and  C_15 
REMARK    5  A    between atoms: C_17  and  O_18 
REMARK    6  A    between atoms: C_24  and  C_25 
ROOT
HETATM    1  C   UNL     1     -10.255   0.860 -34.245  1.00  0.00     0.118 C 
HETATM    2  N   UNL     1      -9.619   2.162 -34.447  1.00  0.00    -0.366 N 
HETATM    3  C   UNL     1      -8.441   2.491 -33.881  1.00  0.00     0.123 C 
HETATM    4  N   UNL     1      -7.672   1.550 -33.257  1.00  0.00    -0.240 N 
HETATM    5  N   UNL     1      -6.632   2.056 -32.572  1.00  0.00    -0.165 NA
HETATM    6  C   UNL     1      -6.652   3.368 -32.910  1.00  0.00     0.148 C 
HETATM    7  C   UNL     1      -7.756   3.670 -33.756  1.00  0.00     0.089 C 
HETATM    8  C   UNL     1      -8.032   0.147 -33.198  1.00  0.00     0.221 C 
HETATM    9  C   UNL     1      -9.558   0.038 -33.138  1.00  0.00     0.066 C 
HETATM   10  H   UNL     1     -10.187   2.856 -34.933  1.00  0.00     0.161 HD
ENDROOT
BRANCH   6  11
HETATM   11  C   UNL     1      -5.660   4.321 -32.377  1.00  0.00     0.276 C 
HETATM   12  N   UNL     1      -4.498   4.314 -33.125  1.00  0.00    -0.322 N 
HETATM   13  H   UNL     1      -4.524   3.655 -33.900  1.00  0.00     0.169 HD
HETATM   14  O   UNL     1      -5.876   4.978 -31.365  1.00  0.00    -0.266 OA
BRANCH  12  15
HETATM   15  C   UNL     1      -3.311   5.029 -32.904  1.00  0.00     0.037 A 
HETATM   16  C   UNL     1      -3.081   6.318 -33.390  1.00  0.00     0.066 A 
HETATM   17  C   UNL     1      -1.869   6.952 -33.118  1.00  0.00     0.067 A 
HETATM   18  C   UNL     1      -0.885   6.328 -32.361  1.00  0.00     0.036 A 
HETATM   19  C   UNL     1      -1.107   5.044 -31.874  1.00  0.00     0.005 A 
HETATM   20  C   UNL     1      -2.313   4.395 -32.151  1.00  0.00     0.029 A 
BRANCH  17  21
HETATM   21  O   UNL     1      -1.607   8.207 -33.588  1.00  0.00    -0.361 OA
HETATM   22  H   UNL     1      -0.691   8.435 -33.355  1.00  0.00     0.217 HD
ENDBRANCH  17  21
ENDBRANCH  12  15
ENDBRANCH   6  11
BRANCH   8  23
HETATM   23  C   UNL     1      -7.437  -0.593 -34.373  1.00  0.00     0.409 C 
HETATM   24  F   UNL     1      -6.136  -0.284 -34.570  1.00  0.00    -0.169 F 
HETATM   25  F   UNL     1      -7.484  -1.930 -34.140  1.00  0.00    -0.169 F 
HETATM   26  F   UNL     1      -8.091  -0.383 -35.535  1.00  0.00    -0.169 F 
ENDBRANCH   8  23
BRANCH   1  27
HETATM   27  C   UNL     1     -11.717   1.059 -33.877  1.00  0.00    -0.035 A 
HETATM   28  C   UNL     1     -12.242   2.347 -33.718  1.00  0.00     0.012 A 
HETATM   29  C   UNL     1     -13.606   2.528 -33.467  1.00  0.00     0.037 A 
HETATM   30  C   UNL     1     -14.469   1.434 -33.387  1.00  0.00     0.068 A 
HETATM   31  C   UNL     1     -13.951   0.146 -33.509  1.00  0.00     0.037 A 
HETATM   32  C   UNL     1     -12.588  -0.039 -33.755  1.00  0.00     0.012 A 
BRANCH  30  33
HETATM   33  O   UNL     1     -15.784   1.743 -33.177  1.00  0.00    -0.356 OA
HETATM   34  C   UNL     1     -16.079   2.421 -31.960  1.00  0.00     0.210 C 
ENDBRANCH  30  33
ENDBRANCH   1  27
TORSDOF 6
ENDMDL
MODEL 3
REMARK VINA RESULT:      -9.1      1.728      2.161
REMARK  6 active torsions:
REMARK  status: ('A' for Active; 'I' for Inactive)
REMARK    1  A    between atoms: O_2  and  C_3 
REMARK    2  A    between atoms: C_6  and  C_7 
REMARK    3  A    between atoms: C_12  and  C_13 
REMARK       I    between atoms: C_13  and  N_14 
REMARK    4  A    between atoms: N_14  and  C_15 
REMARK    5  A    between atoms: C_17  and  O_18 
REMARK    6  A    between atoms: C_24  and  C_25 
ROOT
HETATM    1  C   UNL     1      -2.704   5.804 -31.468  1.00  0.00     0.118 C 
HETATM    2  N   UNL     1      -2.475   4.380 -31.218  1.00  0.00    -0.366 N 
HETATM    3  C   UNL     1      -3.237   3.414 -31.767  1.00  0.00     0.123 C 
HETATM    4  N   UNL     1      -4.135   3.701 -32.756  1.00  0.00    -0.240 N 
HETATM    5  N   UNL     1      -4.958   2.685 -33.063  1.00  0.00    -0.165 NA
HETATM    6  C   UNL     1      -4.452   1.653 -32.346  1.00  0.00     0.148 C 
HETATM    7  C   UNL     1      -3.351   2.068 -31.545  1.00  0.00     0.089 C 
HETATM    8  C   UNL     1      -4.300   5.029 -33.312  1.00  0.00     0.221 C 
HETATM    9  C   UNL     1      -4.036   6.057 -32.207  1.00  0.00     0.066 C 
HETATM   10  H   UNL     1      -1.787   4.168 -30.495  1.00  0.00     0.161 HD
ENDROOT
BRANCH   6  11
HETATM   11  C   UNL     1      -5.058   0.308 -32.387  1.00  0.00     0.276 C 
HETATM   12  N   UNL     1      -4.620  -0.410 -33.483  1.00  0.00    -0.322 N 
HETATM   13  H   UNL     1      -3.970   0.108 -34.069  1.00  0.00     0.169 HD
HETATM   14  O   UNL     1      -5.877  -0.055 -31.551  1.00  0.00    -0.266 OA
BRANCH  12  15
HETATM   15  C   UNL     1      -5.009  -1.693 -33.900  1.00  0.00     0.037 A 
HETATM   16  C   UNL     1      -4.182  -2.816 -33.828  1.00  0.00     0.066 A 
HETATM   17  C   UNL     1      -4.657  -4.052 -34.265  1.00  0.00     0.067 A 
HETATM   18  C   UNL     1      -5.946  -4.192 -34.764  1.00  0.00     0.036 A 
HETATM   19  C   UNL     1      -6.776  -3.077 -34.839  1.00  0.00     0.005 A 
HETATM   20  C   UNL     1      -6.306  -1.831 -34.415  1.00  0.00     0.029 A 
BRANCH  17  21
HETATM   21  O   UNL     1      -3.870  -5.167 -34.220  1.00  0.00    -0.361 OA
HETATM   22  H   UNL     1      -3.209  -5.104 -34.930  1.00  0.00     0.217 HD
ENDBRANCH  17  21
ENDBRANCH  12  15
ENDBRANCH   6  11
BRANCH   8  23
HETATM   23  C   UNL     1      -3.394   5.210 -34.508  1.00  0.00     0.409 C 
HETATM   24  F   UNL     1      -4.039   5.000 -35.677  1.00  0.00    -0.169 F 
HETATM   25  F   UNL     1      -2.937   6.489 -34.544  1.00  0.00    -0.169 F 
HETATM   26  F   UNL     1      -2.305   4.414 -34.489  1.00  0.00    -0.169 F 
ENDBRANCH   8  23
BRANCH   1  27
HETATM   27  C   UNL     1      -2.711   6.559 -30.148  1.00  0.00    -0.035 A 
HETATM   28  C   UNL     1      -3.897   6.707 -29.419  1.00  0.00     0.012 A 
HETATM   29  C   UNL     1      -3.884   7.324 -28.165  1.00  0.00     0.037 A 
HETATM   30  C   UNL     1      -2.689   7.788 -27.610  1.00  0.00     0.068 A 
HETATM   31  C   UNL     1      -1.508   7.677 -28.342  1.00  0.00     0.037 A 
HETATM   32  C   UNL     1      -1.520   7.065 -29.598  1.00  0.00     0.012 A 
BRANCH  30  33
HETATM   33  O   UNL     1      -2.801   8.337 -26.363  1.00  0.00    -0.356 OA
HETATM   34  C   UNL     1      -4.052   8.152 -25.709  1.00  0.00     0.210 C 
ENDBRANCH  30  33
ENDBRANCH   1  27
TORSDOF 6
ENDMDL
MODEL 4
REMARK VINA RESULT:      -9.0      1.879      9.411
REMARK  6 active torsions:
REMARK  status: ('A' for Active; 'I' for Inactive)
REMARK    1  A    between atoms: O_2  and  C_3 
REMARK    2  A    between atoms: C_6  and  C_7 
REMARK    3  A    between atoms: C_12  and  C_13 
REMARK       I    between atoms: C_13  and  N_14 
REMARK    4  A    between atoms: N_14  and  C_15 
REMARK    5  A    between atoms: C_17  and  O_18 
REMARK    6  A    between atoms: C_24  and  C_25 
ROOT
HETATM    1  C   UNL     1      -6.342   0.769 -33.269  1.00  0.00     0.118 C 
HETATM    2  N   UNL     1      -5.380   1.152 -32.234  1.00  0.00    -0.366 N 
HETATM    3  C   UNL     1      -4.727   2.331 -32.249  1.00  0.00     0.123 C 
HETATM    4  N   UNL     1      -5.084   3.323 -33.117  1.00  0.00    -0.240 N 
HETATM    5  N   UNL     1      -4.225   4.355 -33.156  1.00  0.00    -0.165 NA
HETATM    6  C   UNL     1      -3.365   4.077 -32.147  1.00  0.00     0.148 C 
HETATM    7  C   UNL     1      -3.670   2.828 -31.535  1.00  0.00     0.089 C 
HETATM    8  C   UNL     1      -6.199   3.206 -34.036  1.00  0.00     0.221 C 
HETATM    9  C   UNL     1      -6.323   1.742 -34.469  1.00  0.00     0.066 C 
HETATM   10  H   UNL     1      -5.132   0.416 -31.573  1.00  0.00     0.161 HD
ENDROOT
BRANCH   6  11
HETATM   11  C   UNL     1      -2.237   4.969 -31.820  1.00  0.00     0.276 C 
HETATM   12  N   UNL     1      -2.344   5.473 -30.539  1.00  0.00    -0.322 N 
HETATM   13  H   UNL     1      -3.176   5.152 -30.050  1.00  0.00     0.169 HD
HETATM   14  O   UNL     1      -1.364   5.230 -32.641  1.00  0.00    -0.266 OA
BRANCH  12  15
HETATM   15  C   UNL     1      -1.508   6.394 -29.888  1.00  0.00     0.037 A 
HETATM   16  C   UNL     1      -1.902   7.689 -29.544  1.00  0.00     0.066 A 
HETATM   17  C   UNL     1      -1.002   8.534 -28.895  1.00  0.00     0.067 A 
HETATM   18  C   UNL     1       0.281   8.108 -28.573  1.00  0.00     0.036 A 
HETATM   19  C   UNL     1       0.679   6.819 -28.913  1.00  0.00     0.005 A 
HETATM   20  C   UNL     1      -0.210   5.968 -29.574  1.00  0.00     0.029 A 
BRANCH  17  21
HETATM   21  O   UNL     1      -1.350   9.810 -28.556  1.00  0.00    -0.361 OA
HETATM   22  H   UNL     1      -0.540  10.298 -28.330  1.00  0.00     0.217 HD
ENDBRANCH  17  21
ENDBRANCH  12  15
ENDBRANCH   6  11
BRANCH   8  23
HETATM   23  C   UNL     1      -7.460   3.736 -33.396  1.00  0.00     0.409 C 
HETATM   24  F   UNL     1      -7.689   5.031 -33.708  1.00  0.00    -0.169 F 
HETATM   25  F   UNL     1      -8.531   3.035 -33.850  1.00  0.00    -0.169 F 
HETATM   26  F   UNL     1      -7.474   3.628 -32.051  1.00  0.00    -0.169 F 
ENDBRANCH   8  23
BRANCH   1  27
HETATM   27  C   UNL     1      -6.033  -0.637 -33.757  1.00  0.00    -0.035 A 
HETATM   28  C   UNL     1      -4.744  -1.168 -33.627  1.00  0.00     0.012 A 
HETATM   29  C   UNL     1      -4.485  -2.492 -33.996  1.00  0.00     0.037 A 
HETATM   30  C   UNL     1      -5.506  -3.310 -34.484  1.00  0.00     0.068 A 
HETATM   31  C   UNL     1      -6.784  -2.781 -34.651  1.00  0.00     0.037 A 
HETATM   32  C   UNL     1      -7.045  -1.457 -34.287  1.00  0.00     0.012 A 
BRANCH  30  33
HETATM   33  O   UNL     1      -5.135  -4.594 -34.773  1.00  0.00    -0.356 OA
HETATM   34  C   UNL     1      -4.130  -5.157 -33.935  1.00  0.00     0.210 C 
ENDBRANCH  30  33
ENDBRANCH   1  27
TORSDOF 6
ENDMDL
MODEL 5
REMARK VINA RESULT:      -9.0      2.336      9.271
REMARK  6 active torsions:
REMARK  status: ('A' for Active; 'I' for Inactive)
REMARK    1  A    between atoms: O_2  and  C_3 
REMARK    2  A    between atoms: C_6  and  C_7 
REMARK    3  A    between atoms: C_12  and  C_13 
REMARK       I    between atoms: C_13  and  N_14 
REMARK    4  A    between atoms: N_14  and  C_15 
REMARK    5  A    between atoms: C_17  and  O_18 
REMARK    6  A    between atoms: C_24  and  C_25 
ROOT
HETATM    1  C   UNL     1      -6.949  -0.079 -33.586  1.00  0.00     0.118 C 
HETATM    2  N   UNL     1      -6.035   0.572 -32.647  1.00  0.00    -0.366 N 
HETATM    3  C   UNL     1      -5.624   1.846 -32.797  1.00  0.00     0.123 C 
HETATM    4  N   UNL     1      -6.205   2.670 -33.720  1.00  0.00    -0.240 N 
HETATM    5  N   UNL     1      -5.563   3.838 -33.894  1.00  0.00    -0.165 NA
HETATM    6  C   UNL     1      -4.623   3.820 -32.919  1.00  0.00     0.148 C 
HETATM    7  C   UNL     1      -4.653   2.597 -32.191  1.00  0.00     0.089 C 
HETATM    8  C   UNL     1      -7.315   2.261 -34.557  1.00  0.00     0.221 C 
HETATM    9  C   UNL     1      -7.172   0.766 -34.860  1.00  0.00     0.066 C 
HETATM   10  H   UNL     1      -5.620  -0.041 -31.944  1.00  0.00     0.161 HD
ENDROOT
BRANCH   6  11
HETATM   11  C   UNL     1      -3.675   4.935 -32.735  1.00  0.00     0.276 C 
HETATM   12  N   UNL     1      -2.805   4.693 -31.690  1.00  0.00    -0.322 N 
HETATM   13  H   UNL     1      -2.970   3.802 -31.229  1.00  0.00     0.169 HD
HETATM   14  O   UNL     1      -3.730   5.947 -33.425  1.00  0.00    -0.266 OA
BRANCH  12  15
HETATM   15  C   UNL     1      -1.807   5.532 -31.170  1.00  0.00     0.037 A 
HETATM   16  C   UNL     1      -2.069   6.628 -30.345  1.00  0.00     0.066 A 
HETATM   17  C   UNL     1      -1.011   7.405 -29.873  1.00  0.00     0.067 A 
HETATM   18  C   UNL     1       0.305   7.103 -30.199  1.00  0.00     0.036 A 
HETATM   19  C   UNL     1       0.573   6.012 -31.021  1.00  0.00     0.005 A 
HETATM   20  C   UNL     1      -0.480   5.234 -31.509  1.00  0.00     0.029 A 
BRANCH  17  21
HETATM   21  O   UNL     1      -1.233   8.491 -29.075  1.00  0.00    -0.361 OA
HETATM   22  H   UNL     1      -2.069   8.904 -29.347  1.00  0.00     0.217 HD
ENDBRANCH  17  21
ENDBRANCH  12  15
ENDBRANCH   6  11
BRANCH   8  23
HETATM   23  C   UNL     1      -8.625   2.599 -33.886  1.00  0.00     0.409 C 
HETATM   24  F   UNL     1      -8.513   2.661 -32.541  1.00  0.00    -0.169 F 
HETATM   25  F   UNL     1      -9.042   3.826 -34.294  1.00  0.00    -0.169 F 
HETATM   26  F   UNL     1      -9.623   1.739 -34.178  1.00  0.00    -0.169 F 
ENDBRANCH   8  23
BRANCH   1  27
HETATM   27  C   UNL     1      -6.396  -1.440 -33.977  1.00  0.00    -0.035 A 
HETATM   28  C   UNL     1      -5.039  -1.734 -33.798  1.00  0.00     0.012 A 
HETATM   29  C   UNL     1      -4.550  -3.014 -34.076  1.00  0.00     0.037 A 
HETATM   30  C   UNL     1      -5.407  -4.025 -34.519  1.00  0.00     0.068 A 
HETATM   31  C   UNL     1      -6.752  -3.734 -34.733  1.00  0.00     0.037 A 
HETATM   32  C   UNL     1      -7.242  -2.453 -34.461  1.00  0.00     0.012 A 
BRANCH  30  33
HETATM   33  O   UNL     1      -4.817  -5.242 -34.717  1.00  0.00    -0.356 OA
HETATM   34  C   UNL     1      -3.717  -5.549 -33.867  1.00  0.00     0.210 C 
ENDBRANCH  30  33
ENDBRANCH   1  27
TORSDOF 6
ENDMDL
MODEL 6
REMARK VINA RESULT:      -8.5      4.496      9.572
REMARK  6 active torsions:
REMARK  status: ('A' for Active; 'I' for Inactive)
REMARK    1  A    between atoms: O_2  and  C_3 
REMARK    2  A    between atoms: C_6  and  C_7 
REMARK    3  A    between atoms: C_12  and  C_13 
REMARK       I    between atoms: C_13  and  N_14 
REMARK    4  A    between atoms: N_14  and  C_15 
REMARK    5  A    between atoms: C_17  and  O_18 
REMARK    6  A    between atoms: C_24  and  C_25 
ROOT
HETATM    1  C   UNL     1      -8.870   0.994 -34.115  1.00  0.00     0.118 C 
HETATM    2  N   UNL     1      -7.912   2.099 -34.155  1.00  0.00    -0.366 N 
HETATM    3  C   UNL     1      -6.714   2.045 -33.541  1.00  0.00     0.123 C 
HETATM    4  N   UNL     1      -6.239   0.873 -33.024  1.00  0.00    -0.240 N 
HETATM    5  N   UNL     1      -5.134   1.012 -32.272  1.00  0.00    -0.165 NA
HETATM    6  C   UNL     1      -4.801   2.312 -32.453  1.00  0.00     0.148 C 
HETATM    7  C   UNL     1      -5.755   2.983 -33.271  1.00  0.00     0.089 C 
HETATM    8  C   UNL     1      -6.950  -0.385 -33.135  1.00  0.00     0.221 C 
HETATM    9  C   UNL     1      -8.455  -0.099 -33.106  1.00  0.00     0.066 C 
HETATM   10  H   UNL     1      -8.262   2.967 -34.563  1.00  0.00     0.161 HD
ENDROOT
BRANCH   6  11
HETATM   11  C   UNL     1      -3.621   2.909 -31.801  1.00  0.00     0.276 C 
HETATM   12  N   UNL     1      -3.546   4.268 -32.035  1.00  0.00    -0.322 N 
HETATM   13  H   UNL     1      -4.304   4.618 -32.615  1.00  0.00     0.169 HD
HETATM   14  O   UNL     1      -2.814   2.226 -31.179  1.00  0.00    -0.266 OA
BRANCH  12  15
HETATM   15  C   UNL     1      -2.546   5.171 -31.639  1.00  0.00     0.037 A 
HETATM   16  C   UNL     1      -2.726   6.142 -30.652  1.00  0.00     0.066 A 
HETATM   17  C   UNL     1      -1.672   6.995 -30.323  1.00  0.00     0.067 A 
HETATM   18  C   UNL     1      -0.439   6.890 -30.952  1.00  0.00     0.036 A 
HETATM   19  C   UNL     1      -0.252   5.924 -31.936  1.00  0.00     0.005 A 
HETATM   20  C   UNL     1      -1.305   5.072 -32.282  1.00  0.00     0.029 A 
BRANCH  17  21
HETATM   21  O   UNL     1      -1.818   7.964 -29.372  1.00  0.00    -0.361 OA
HETATM   22  H   UNL     1      -2.508   8.582 -29.669  1.00  0.00     0.217 HD
ENDBRANCH  17  21
ENDBRANCH  12  15
ENDBRANCH   6  11
BRANCH   8  23
HETATM   23  C   UNL     1      -6.518  -1.120 -34.382  1.00  0.00     0.409 C 
HETATM   24  F   UNL     1      -5.220  -1.492 -34.334  1.00  0.00    -0.169 F 
HETATM   25  F   UNL     1      -7.242  -2.262 -34.512  1.00  0.00    -0.169 F 
HETATM   26  F   UNL     1      -6.704  -0.417 -35.519  1.00  0.00    -0.169 F 
ENDBRANCH   8  23
BRANCH   1  27
HETATM   27  C   UNL     1     -10.246   1.524 -33.744  1.00  0.00    -0.035 A 
HETATM   28  C   UNL     1     -10.417   2.865 -33.379  1.00  0.00     0.012 A 
HETATM   29  C   UNL     1     -11.695   3.371 -33.124  1.00  0.00     0.037 A 
HETATM   30  C   UNL     1     -12.822   2.555 -33.242  1.00  0.00     0.068 A 
HETATM   31  C   UNL     1     -12.661   1.210 -33.570  1.00  0.00     0.037 A 
HETATM   32  C   UNL     1     -11.384   0.701 -33.821  1.00  0.00     0.012 A 
BRANCH  30  33
HETATM   33  O   UNL     1     -14.018   3.176 -33.005  1.00  0.00    -0.356 OA
HETATM   34  C   UNL     1     -13.954   4.574 -32.743  1.00  0.00     0.210 C 
ENDBRANCH  30  33
ENDBRANCH   1  27
TORSDOF 6
ENDMDL
MODEL 7
REMARK VINA RESULT:      -8.5      6.036      9.487
REMARK  6 active torsions:
REMARK  status: ('A' for Active; 'I' for Inactive)
REMARK    1  A    between atoms: O_2  and  C_3 
REMARK    2  A    between atoms: C_6  and  C_7 
REMARK    3  A    between atoms: C_12  and  C_13 
REMARK       I    between atoms: C_13  and  N_14 
REMARK    4  A    between atoms: N_14  and  C_15 
REMARK    5  A    between atoms: C_17  and  O_18 
REMARK    6  A    between atoms: C_24  and  C_25 
ROOT
HETATM    1  C   UNL     1      -6.326   1.159 -32.922  1.00  0.00     0.118 C 
HETATM    2  N   UNL     1      -7.273   1.693 -33.901  1.00  0.00    -0.366 N 
HETATM    3  C   UNL     1      -8.493   2.151 -33.558  1.00  0.00     0.123 C 
HETATM    4  N   UNL     1      -8.832   2.339 -32.248  1.00  0.00    -0.240 N 
HETATM    5  N   UNL     1     -10.134   2.606 -32.051  1.00  0.00    -0.165 NA
HETATM    6  C   UNL     1     -10.612   2.752 -33.310  1.00  0.00     0.148 C 
HETATM    7  C   UNL     1      -9.600   2.505 -34.281  1.00  0.00     0.089 C 
HETATM    8  C   UNL     1      -7.911   2.111 -31.153  1.00  0.00     0.221 C 
HETATM    9  C   UNL     1      -6.975   0.959 -31.534  1.00  0.00     0.066 C 
HETATM   10  H   UNL     1      -7.007   1.572 -34.879  1.00  0.00     0.161 HD
ENDROOT
BRANCH   6  11
HETATM   11  C   UNL     1     -12.030   3.065 -33.570  1.00  0.00     0.276 C 
HETATM   12  N   UNL     1     -12.767   3.084 -32.402  1.00  0.00    -0.322 N 
HETATM   13  H   UNL     1     -12.213   2.875 -31.575  1.00  0.00     0.169 HD
HETATM   14  O   UNL     1     -12.454   3.232 -34.708  1.00  0.00    -0.266 OA
BRANCH  12  15
HETATM   15  C   UNL     1     -14.147   3.281 -32.241  1.00  0.00     0.037 A 
HETATM   16  C   UNL     1     -14.729   4.525 -31.991  1.00  0.00     0.066 A 
HETATM   17  C   UNL     1     -16.113   4.625 -31.848  1.00  0.00     0.067 A 
HETATM   18  C   UNL     1     -16.929   3.507 -31.960  1.00  0.00     0.036 A 
HETATM   19  C   UNL     1     -16.357   2.263 -32.210  1.00  0.00     0.005 A 
HETATM   20  C   UNL     1     -14.970   2.151 -32.343  1.00  0.00     0.029 A 
BRANCH  17  21
HETATM   21  O   UNL     1     -16.712   5.824 -31.590  1.00  0.00    -0.361 OA
HETATM   22  H   UNL     1     -16.259   6.236 -30.835  1.00  0.00     0.217 HD
ENDBRANCH  17  21
ENDBRANCH  12  15
ENDBRANCH   6  11
BRANCH   8  23
HETATM   23  C   UNL     1      -7.168   3.384 -30.822  1.00  0.00     0.409 C 
HETATM   24  F   UNL     1      -7.131   4.242 -31.865  1.00  0.00    -0.169 F 
HETATM   25  F   UNL     1      -7.805   4.032 -29.811  1.00  0.00    -0.169 F 
HETATM   26  F   UNL     1      -5.900   3.181 -30.408  1.00  0.00    -0.169 F 
ENDBRANCH   8  23
BRANCH   1  27
HETATM   27  C   UNL     1      -5.777  -0.171 -33.415  1.00  0.00    -0.035 A 
HETATM   28  C   UNL     1      -4.503  -0.602 -33.026  1.00  0.00     0.012 A 
HETATM   29  C   UNL     1      -4.037  -1.863 -33.409  1.00  0.00     0.037 A 
HETATM   30  C   UNL     1      -4.836  -2.719 -34.170  1.00  0.00     0.068 A 
HETATM   31  C   UNL     1      -6.091  -2.286 -34.592  1.00  0.00     0.037 A 
HETATM   32  C   UNL     1      -6.558  -1.024 -34.214  1.00  0.00     0.012 A 
BRANCH  30  33
HETATM   33  O   UNL     1      -4.283  -3.939 -34.447  1.00  0.00    -0.356 OA
HETATM   34  C   UNL     1      -5.199  -5.018 -34.603  1.00  0.00     0.210 C 
ENDBRANCH  30  33
ENDBRANCH   1  27
TORSDOF 6
ENDMDL
MODEL 8
REMARK VINA RESULT:      -8.3     17.118     19.400
REMARK  6 active torsions:
REMARK  status: ('A' for Active; 'I' for Inactive)
REMARK    1  A    between atoms: O_2  and  C_3 
REMARK    2  A    between atoms: C_6  and  C_7 
REMARK    3  A    between atoms: C_12  and  C_13 
REMARK       I    between atoms: C_13  and  N_14 
REMARK    4  A    between atoms: N_14  and  C_15 
REMARK    5  A    between atoms: C_17  and  O_18 
REMARK    6  A    between atoms: C_24  and  C_25 
ROOT
HETATM    1  C   UNL     1      -6.965 -12.895 -38.393  1.00  0.00     0.118 C 
HETATM    2  N   UNL     1      -7.187 -13.099 -36.961  1.00  0.00    -0.366 N 
HETATM    3  C   UNL     1      -6.356 -13.833 -36.194  1.00  0.00     0.123 C 
HETATM    4  N   UNL     1      -5.146 -14.253 -36.668  1.00  0.00    -0.240 N 
HETATM    5  N   UNL     1      -4.520 -15.135 -35.871  1.00  0.00    -0.165 NA
HETATM    6  C   UNL     1      -5.298 -15.154 -34.763  1.00  0.00     0.148 C 
HETATM    7  C   UNL     1      -6.444 -14.322 -34.919  1.00  0.00     0.089 C 
HETATM    8  C   UNL     1      -4.651 -13.909 -37.986  1.00  0.00     0.221 C 
HETATM    9  C   UNL     1      -5.843 -13.804 -38.943  1.00  0.00     0.066 C 
HETATM   10  H   UNL     1      -8.082 -12.764 -36.605  1.00  0.00     0.161 HD
ENDROOT
BRANCH   6  11
HETATM   11  C   UNL     1      -4.974 -16.003 -33.601  1.00  0.00     0.276 C 
HETATM   12  N   UNL     1      -5.905 -15.857 -32.591  1.00  0.00    -0.322 N 
HETATM   13  H   UNL     1      -6.641 -15.192 -32.817  1.00  0.00     0.169 HD
HETATM   14  O   UNL     1      -3.964 -16.697 -33.573  1.00  0.00    -0.266 OA
BRANCH  12  15
HETATM   15  C   UNL     1      -5.912 -16.443 -31.316  1.00  0.00     0.037 A 
HETATM   16  C   UNL     1      -5.196 -15.940 -30.228  1.00  0.00     0.066 A 
HETATM   17  C   UNL     1      -5.267 -16.590 -28.995  1.00  0.00     0.067 A 
HETATM   18  C   UNL     1      -6.046 -17.727 -28.826  1.00  0.00     0.036 A 
HETATM   19  C   UNL     1      -6.762 -18.234 -29.906  1.00  0.00     0.005 A 
HETATM   20  C   UNL     1      -6.689 -17.597 -31.148  1.00  0.00     0.029 A 
BRANCH  17  21
HETATM   21  O   UNL     1      -4.569 -16.132 -27.914  1.00  0.00    -0.361 OA
HETATM   22  H   UNL     1      -4.924 -16.562 -27.117  1.00  0.00     0.217 HD
ENDBRANCH  17  21
ENDBRANCH  12  15
ENDBRANCH   6  11
BRANCH   8  23
HETATM   23  C   UNL     1      -3.837 -12.638 -37.923  1.00  0.00     0.409 C 
HETATM   24  F   UNL     1      -3.924 -12.033 -36.717  1.00  0.00    -0.169 F 
HETATM   25  F   UNL     1      -2.524 -12.928 -38.115  1.00  0.00    -0.169 F 
HETATM   26  F   UNL     1      -4.171 -11.731 -38.864  1.00  0.00    -0.169 F 
ENDBRANCH   8  23
BRANCH   1  27
HETATM   27  C   UNL     1      -8.252 -13.172 -39.153  1.00  0.00    -0.035 A 
HETATM   28  C   UNL     1      -8.687 -14.487 -39.361  1.00  0.00     0.012 A 
HETATM   29  C   UNL     1      -9.915 -14.735 -39.983  1.00  0.00     0.037 A 
HETATM   30  C   UNL     1     -10.735 -13.681 -40.391  1.00  0.00     0.068 A 
HETATM   31  C   UNL     1     -10.296 -12.369 -40.220  1.00  0.00     0.037 A 
HETATM   32  C   UNL     1      -9.067 -12.119 -39.604  1.00  0.00     0.012 A 
BRANCH  30  33
HETATM   33  O   UNL     1     -11.926 -14.053 -40.950  1.00  0.00    -0.356 OA
HETATM   34  C   UNL     1     -11.904 -15.242 -41.732  1.00  0.00     0.210 C 
ENDBRANCH  30  33
ENDBRANCH   1  27
TORSDOF 6
ENDMDL
MODEL 9
REMARK VINA RESULT:      -8.3      6.878      8.764
REMARK  6 active torsions:
REMARK  status: ('A' for Active; 'I' for Inactive)
REMARK    1  A    between atoms: O_2  and  C_3 
REMARK    2  A    between atoms: C_6  and  C_7 
REMARK    3  A    between atoms: C_12  and  C_13 
REMARK       I    between atoms: C_13  and  N_14 
REMARK    4  A    between atoms: N_14  and  C_15 
REMARK    5  A    between atoms: C_17  and  O_18 
REMARK    6  A    between atoms: C_24  and  C_25 
ROOT
HETATM    1  C   UNL     1     -12.518   3.701 -35.073  1.00  0.00     0.118 C 
HETATM    2  N   UNL     1     -11.298   3.028 -35.520  1.00  0.00    -0.366 N 
HETATM    3  C   UNL     1     -10.678   2.085 -34.784  1.00  0.00     0.123 C 
HETATM    4  N   UNL     1     -11.271   1.554 -33.674  1.00  0.00    -0.240 N 
HETATM    5  N   UNL     1     -10.459   0.779 -32.935  1.00  0.00    -0.165 NA
HETATM    6  C   UNL     1      -9.344   0.686 -33.699  1.00  0.00     0.148 C 
HETATM    7  C   UNL     1      -9.459   1.469 -34.882  1.00  0.00     0.089 C 
HETATM    8  C   UNL     1     -12.603   1.920 -33.238  1.00  0.00     0.221 C 
HETATM    9  C   UNL     1     -12.847   3.389 -33.597  1.00  0.00     0.066 C 
HETATM   10  H   UNL     1     -10.869   3.412 -36.362  1.00  0.00     0.161 HD
ENDROOT
BRANCH   6  11
HETATM   11  C   UNL     1      -8.169  -0.093 -33.265  1.00  0.00     0.276 C 
HETATM   12  N   UNL     1      -7.638  -0.830 -34.306  1.00  0.00    -0.322 N 
HETATM   13  H   UNL     1      -8.147  -0.716 -35.179  1.00  0.00     0.169 HD
HETATM   14  O   UNL     1      -7.784  -0.085 -32.101  1.00  0.00    -0.266 OA
BRANCH  12  15
HETATM   15  C   UNL     1      -6.566  -1.736 -34.279  1.00  0.00     0.037 A 
HETATM   16  C   UNL     1      -6.674  -3.077 -34.653  1.00  0.00     0.066 A 
HETATM   17  C   UNL     1      -5.551  -3.902 -34.596  1.00  0.00     0.067 A 
HETATM   18  C   UNL     1      -4.319  -3.412 -34.183  1.00  0.00     0.036 A 
HETATM   19  C   UNL     1      -4.204  -2.077 -33.810  1.00  0.00     0.005 A 
HETATM   20  C   UNL     1      -5.325  -1.244 -33.851  1.00  0.00     0.029 A 
BRANCH  17  21
HETATM   21  O   UNL     1      -5.625  -5.221 -34.942  1.00  0.00    -0.361 OA
HETATM   22  H   UNL     1      -5.285  -5.751 -34.201  1.00  0.00     0.217 HD
ENDBRANCH  17  21
ENDBRANCH  12  15
ENDBRANCH   6  11
BRANCH   8  23
HETATM   23  C   UNL     1     -13.625   0.991 -33.850  1.00  0.00     0.409 C 
HETATM   24  F   UNL     1     -13.692  -0.195 -33.204  1.00  0.00    -0.169 F 
HETATM   25  F   UNL     1     -14.861   1.549 -33.759  1.00  0.00    -0.169 F 
HETATM   26  F   UNL     1     -13.415   0.737 -35.158  1.00  0.00    -0.169 F 
ENDBRANCH   8  23
BRANCH   1  27
HETATM   27  C   UNL     1     -12.364   5.204 -35.246  1.00  0.00    -0.035 A 
HETATM   28  C   UNL     1     -11.108   5.810 -35.119  1.00  0.00     0.012 A 
HETATM   29  C   UNL     1     -10.955   7.177 -35.366  1.00  0.00     0.037 A 
HETATM   30  C   UNL     1     -12.044   7.959 -35.758  1.00  0.00     0.068 A 
HETATM   31  C   UNL     1     -13.305   7.374 -35.853  1.00  0.00     0.037 A 
HETATM   32  C   UNL     1     -13.462   6.008 -35.603  1.00  0.00     0.012 A 
BRANCH  30  33
HETATM   33  O   UNL     1     -11.759   9.273 -36.007  1.00  0.00    -0.356 OA
HETATM   34  C   UNL     1     -10.495   9.736 -35.542  1.00  0.00     0.210 C 
ENDBRANCH  30  33
ENDBRANCH   1  27
TORSDOF 6
ENDMDL
MODEL 10
REMARK VINA RESULT:      -8.2      5.701      7.017
REMARK  6 active torsions:
REMARK  status: ('A' for Active; 'I' for Inactive)
REMARK    1  A    between atoms: O_2  and  C_3 
REMARK    2  A    between atoms: C_6  and  C_7 
REMARK    3  A    between atoms: C_12  and  C_13 
REMARK       I    between atoms: C_13  and  N_14 
REMARK    4  A    between atoms: N_14  and  C_15 
REMARK    5  A    between atoms: C_17  and  O_18 
REMARK    6  A    between atoms: C_24  and  C_25 
ROOT
HETATM    1  C   UNL     1      -5.233   2.436 -32.013  1.00  0.00     0.118 C 
HETATM    2  N   UNL     1      -6.573   2.912 -31.667  1.00  0.00    -0.366 N 
HETATM    3  C   UNL     1      -7.678   2.519 -32.331  1.00  0.00     0.123 C 
HETATM    4  N   UNL     1      -7.633   1.490 -33.228  1.00  0.00    -0.240 N 
HETATM    5  N   UNL     1      -8.754   1.344 -33.953  1.00  0.00    -0.165 NA
HETATM    6  C   UNL     1      -9.610   2.221 -33.376  1.00  0.00     0.148 C 
HETATM    7  C   UNL     1      -8.976   2.954 -32.332  1.00  0.00     0.089 C 
HETATM    8  C   UNL     1      -6.430   0.727 -33.495  1.00  0.00     0.221 C 
HETATM    9  C   UNL     1      -5.220   1.655 -33.346  1.00  0.00     0.066 C 
HETATM   10  H   UNL     1      -6.606   3.665 -30.980  1.00  0.00     0.161 HD
ENDROOT
BRANCH   6  11
HETATM   11  C   UNL     1     -10.992   2.391 -33.862  1.00  0.00     0.276 C 
HETATM   12  N   UNL     1     -11.910   1.874 -32.968  1.00  0.00    -0.322 N 
HETATM   13  H   UNL     1     -11.480   1.463 -32.143  1.00  0.00     0.169 HD
HETATM   14  O   UNL     1     -11.234   2.895 -34.953  1.00  0.00    -0.266 OA
BRANCH  12  15
HETATM   15  C   UNL     1     -13.305   1.790 -33.097  1.00  0.00     0.037 A 
HETATM   16  C   UNL     1     -13.949   1.023 -34.070  1.00  0.00     0.066 A 
HETATM   17  C   UNL     1     -15.343   0.998 -34.120  1.00  0.00     0.067 A 
HETATM   18  C   UNL     1     -16.107   1.718 -33.211  1.00  0.00     0.036 A 
HETATM   19  C   UNL     1     -15.473   2.485 -32.239  1.00  0.00     0.005 A 
HETATM   20  C   UNL     1     -14.077   2.526 -32.187  1.00  0.00     0.029 A 
BRANCH  17  21
HETATM   21  O   UNL     1     -16.004   0.269 -35.067  1.00  0.00    -0.361 OA
HETATM   22  H   UNL     1     -16.578  -0.371 -34.613  1.00  0.00     0.217 HD
ENDBRANCH  17  21
ENDBRANCH  12  15
ENDBRANCH   6  11
BRANCH   8  23
HETATM   23  C   UNL     1      -6.362  -0.475 -32.582  1.00  0.00     0.409 C 
HETATM   24  F   UNL     1      -5.117  -0.686 -32.102  1.00  0.00    -0.169 F 
HETATM   25  F   UNL     1      -7.162  -0.273 -31.503  1.00  0.00    -0.169 F 
HETATM   26  F   UNL     1      -6.781  -1.620 -33.160  1.00  0.00    -0.169 F 
ENDBRANCH   8  23
BRANCH   1  27
HETATM   27  C   UNL     1      -4.282   3.617 -32.114  1.00  0.00    -0.035 A 
HETATM   28  C   UNL     1      -4.722   4.843 -32.629  1.00  0.00     0.012 A 
HETATM   29  C   UNL     1      -3.870   5.952 -32.639  1.00  0.00     0.037 A 
HETATM   30  C   UNL     1      -2.576   5.863 -32.123  1.00  0.00     0.068 A 
HETATM   31  C   UNL     1      -2.116   4.639 -31.640  1.00  0.00     0.037 A 
HETATM   32  C   UNL     1      -2.963   3.528 -31.633  1.00  0.00     0.012 A 
BRANCH  30  33
HETATM   33  O   UNL     1      -1.855   7.024 -32.153  1.00  0.00    -0.356 OA
HETATM   34  C   UNL     1      -0.457   6.886 -32.384  1.00  0.00     0.210 C 
ENDBRANCH  30  33
ENDBRANCH   1  27
TORSDOF 6
ENDMDL
