MODEL 1
REMARK VINA RESULT:      -8.4      0.000      0.000
REMARK  5 active torsions:
REMARK  status: ('A' for Active; 'I' for Inactive)
REMARK    1  A    between atoms: C_5  and  C_6 
REMARK    2  A    between atoms: C_6  and  C_7 
REMARK       I    between atoms: C_7  and  N_8 
REMARK    3  A    between atoms: N_8  and  C_9 
REMARK    4  A    between atoms: C_12  and  O_13 
REMARK    5  A    between atoms: O_13  and  C_14 
ROOT
HETATM    1  C   UNL     1      -6.263  -0.012 -33.181  1.00  0.00     0.076 A 
HETATM    2  C   UNL     1      -7.428  -0.652 -33.604  1.00  0.00     0.039 A 
HETATM    3  C   UNL     1      -7.354  -1.923 -34.176  1.00  0.00     0.025 A 
HETATM    4  C   UNL     1      -6.111  -2.547 -34.340  1.00  0.00     0.044 A 
HETATM    5  C   UNL     1      -6.035  -3.853 -34.930  1.00  0.00     0.099 C 
HETATM    6  N   UNL     1      -5.976  -4.910 -35.405  1.00  0.00    -0.191 NA
HETATM    7  C   UNL     1      -4.943  -1.890 -33.935  1.00  0.00     0.025 A 
HETATM    8  C   UNL     1      -5.017  -0.616 -33.365  1.00  0.00     0.039 A 
ENDROOT
BRANCH   1   9
HETATM    9  O   UNL     1      -6.385   1.261 -32.682  1.00  0.00    -0.311 OA
BRANCH   9  10
HETATM   10  C   UNL     1      -5.244   2.001 -32.471  1.00  0.00     0.076 A 
HETATM   11  C   UNL     1      -5.110   3.138 -33.268  1.00  0.00     0.039 A 
HETATM   12  C   UNL     1      -4.021   4.001 -33.103  1.00  0.00     0.032 A 
HETATM   13  C   UNL     1      -3.053   3.740 -32.134  1.00  0.00     0.034 A 
HETATM   14  C   UNL     1      -3.192   2.597 -31.334  1.00  0.00     0.032 A 
HETATM   15  C   UNL     1      -4.287   1.737 -31.492  1.00  0.00     0.039 A 
BRANCH  13  16
HETATM   16  N   UNL     1      -1.938   4.570 -31.885  1.00  0.00    -0.327 N 
HETATM   17  C   UNL     1      -1.890   5.702 -31.087  1.00  0.00     0.227 C 
HETATM   18  O   UNL     1      -2.833   6.190 -30.467  1.00  0.00    -0.273 OA
HETATM   19  H   UNL     1      -1.076   4.291 -32.339  1.00  0.00     0.169 HD
BRANCH  17  20
HETATM   20  C   UNL     1      -0.490   6.316 -31.000  1.00  0.00     0.159 C 
BRANCH  20  21
HETATM   21  C   UNL     1      -0.072   6.584 -29.587  1.00  0.00     0.017 A 
HETATM   22  N   UNL     1      -0.482   5.794 -28.535  1.00  0.00    -0.369 N 
HETATM   23  C   UNL     1       0.066   6.256 -27.369  1.00  0.00     0.088 A 
HETATM   24  H   UNL     1      -1.118   5.005 -28.621  1.00  0.00     0.165 HD
HETATM   25  C   UNL     1       0.848   7.347 -27.670  1.00  0.00     0.019 A 
HETATM   26  C   UNL     1       0.764   7.554 -29.067  1.00  0.00     0.027 A 
ENDBRANCH  20  21
ENDBRANCH  17  20
ENDBRANCH  13  16
ENDBRANCH   9  10
ENDBRANCH   1   9
TORSDOF 5
ENDMDL
MODEL 2
REMARK VINA RESULT:      -8.2      1.199      1.486
REMARK  5 active torsions:
REMARK  status: ('A' for Active; 'I' for Inactive)
REMARK    1  A    between atoms: C_5  and  C_6 
REMARK    2  A    between atoms: C_6  and  C_7 
REMARK       I    between atoms: C_7  and  N_8 
REMARK    3  A    between atoms: N_8  and  C_9 
REMARK    4  A    between atoms: C_12  and  O_13 
REMARK    5  A    between atoms: O_13  and  C_14 
ROOT
HETATM    1  C   UNL     1      -6.828   0.944 -33.284  1.00  0.00     0.076 A 
HETATM    2  C   UNL     1      -6.048   0.046 -32.556  1.00  0.00     0.039 A 
HETATM    3  C   UNL     1      -5.799  -1.230 -33.065  1.00  0.00     0.025 A 
HETATM    4  C   UNL     1      -6.346  -1.612 -34.296  1.00  0.00     0.044 A 
HETATM    5  C   UNL     1      -6.093  -2.924 -34.819  1.00  0.00     0.099 C 
HETATM    6  N   UNL     1      -5.886  -3.984 -35.241  1.00  0.00    -0.191 NA
HETATM    7  C   UNL     1      -7.147  -0.713 -35.012  1.00  0.00     0.025 A 
HETATM    8  C   UNL     1      -7.398   0.563 -34.500  1.00  0.00     0.039 A 
ENDROOT
BRANCH   1   9
HETATM    9  O   UNL     1      -7.091   2.163 -32.710  1.00  0.00    -0.311 OA
BRANCH   9  10
HETATM   10  C   UNL     1      -6.033   2.975 -32.365  1.00  0.00     0.076 A 
HETATM   11  C   UNL     1      -5.281   3.465 -33.432  1.00  0.00     0.039 A 
HETATM   12  C   UNL     1      -4.218   4.347 -33.209  1.00  0.00     0.032 A 
HETATM   13  C   UNL     1      -3.896   4.754 -31.915  1.00  0.00     0.034 A 
HETATM   14  C   UNL     1      -4.656   4.259 -30.846  1.00  0.00     0.032 A 
HETATM   15  C   UNL     1      -5.727   3.384 -31.068  1.00  0.00     0.039 A 
BRANCH  13  16
HETATM   16  N   UNL     1      -2.857   5.657 -31.604  1.00  0.00    -0.327 N 
HETATM   17  C   UNL     1      -1.530   5.358 -31.337  1.00  0.00     0.227 C 
HETATM   18  O   UNL     1      -1.035   4.231 -31.307  1.00  0.00    -0.273 OA
HETATM   19  H   UNL     1      -3.118   6.636 -31.588  1.00  0.00     0.169 HD
BRANCH  17  20
HETATM   20  C   UNL     1      -0.669   6.601 -31.103  1.00  0.00     0.159 C 
BRANCH  20  21
HETATM   21  C   UNL     1      -0.202   6.712 -29.684  1.00  0.00     0.017 A 
HETATM   22  N   UNL     1      -0.421   5.717 -28.756  1.00  0.00    -0.369 N 
HETATM   23  C   UNL     1       0.130   6.075 -27.556  1.00  0.00     0.088 A 
HETATM   24  H   UNL     1      -0.938   4.861 -28.941  1.00  0.00     0.165 HD
HETATM   25  C   UNL     1       0.723   7.307 -27.710  1.00  0.00     0.019 A 
HETATM   26  C   UNL     1       0.516   7.709 -29.051  1.00  0.00     0.027 A 
ENDBRANCH  20  21
ENDBRANCH  17  20
ENDBRANCH  13  16
ENDBRANCH   9  10
ENDBRANCH   1   9
TORSDOF 5
ENDMDL
MODEL 3
REMARK VINA RESULT:      -7.9      1.716      2.069
REMARK  5 active torsions:
REMARK  status: ('A' for Active; 'I' for Inactive)
REMARK    1  A    between atoms: C_5  and  C_6 
REMARK    2  A    between atoms: C_6  and  C_7 
REMARK       I    between atoms: C_7  and  N_8 
REMARK    3  A    between atoms: N_8  and  C_9 
REMARK    4  A    between atoms: C_12  and  O_13 
REMARK    5  A    between atoms: O_13  and  C_14 
ROOT
HETATM    1  C   UNL     1      -6.521   0.041 -33.262  1.00  0.00     0.076 A 
HETATM    2  C   UNL     1      -7.584  -0.714 -33.756  1.00  0.00     0.039 A 
HETATM    3  C   UNL     1      -7.351  -1.992 -34.267  1.00  0.00     0.025 A 
HETATM    4  C   UNL     1      -6.049  -2.508 -34.299  1.00  0.00     0.044 A 
HETATM    5  C   UNL     1      -5.809  -3.819 -34.826  1.00  0.00     0.099 C 
HETATM    6  N   UNL     1      -5.616  -4.882 -35.251  1.00  0.00    -0.191 NA
HETATM    7  C   UNL     1      -4.983  -1.735 -33.823  1.00  0.00     0.025 A 
HETATM    8  C   UNL     1      -5.217  -0.454 -33.314  1.00  0.00     0.039 A 
ENDROOT
BRANCH   1   9
HETATM    9  O   UNL     1      -6.797   1.314 -32.828  1.00  0.00    -0.311 OA
BRANCH   9  10
HETATM   10  C   UNL     1      -5.797   2.259 -32.872  1.00  0.00     0.076 A 
HETATM   11  C   UNL     1      -5.939   3.238 -33.855  1.00  0.00     0.039 A 
HETATM   12  C   UNL     1      -5.016   4.285 -33.958  1.00  0.00     0.032 A 
HETATM   13  C   UNL     1      -3.941   4.369 -33.075  1.00  0.00     0.034 A 
HETATM   14  C   UNL     1      -3.802   3.383 -32.088  1.00  0.00     0.032 A 
HETATM   15  C   UNL     1      -4.731   2.340 -31.977  1.00  0.00     0.039 A 
BRANCH  13  16
HETATM   16  N   UNL     1      -2.979   5.403 -33.095  1.00  0.00    -0.327 N 
HETATM   17  C   UNL     1      -1.987   5.614 -34.039  1.00  0.00     0.227 C 
HETATM   18  O   UNL     1      -1.763   4.911 -35.023  1.00  0.00    -0.273 OA
HETATM   19  H   UNL     1      -3.037   6.067 -32.333  1.00  0.00     0.169 HD
BRANCH  17  20
HETATM   20  C   UNL     1      -1.163   6.877 -33.772  1.00  0.00     0.159 C 
BRANCH  20  21
HETATM   21  C   UNL     1      -0.868   7.067 -32.316  1.00  0.00     0.017 A 
HETATM   22  N   UNL     1      -1.600   7.921 -31.520  1.00  0.00    -0.369 N 
HETATM   23  C   UNL     1      -1.125   7.878 -30.237  1.00  0.00     0.088 A 
HETATM   24  H   UNL     1      -2.360   8.508 -31.854  1.00  0.00     0.165 HD
HETATM   25  C   UNL     1      -0.085   6.980 -30.198  1.00  0.00     0.019 A 
HETATM   26  C   UNL     1       0.078   6.466 -31.506  1.00  0.00     0.027 A 
ENDBRANCH  20  21
ENDBRANCH  17  20
ENDBRANCH  13  16
ENDBRANCH   9  10
ENDBRANCH   1   9
TORSDOF 5
ENDMDL
MODEL 4
REMARK VINA RESULT:      -7.8      1.585      1.996
REMARK  5 active torsions:
REMARK  status: ('A' for Active; 'I' for Inactive)
REMARK    1  A    between atoms: C_5  and  C_6 
REMARK    2  A    between atoms: C_6  and  C_7 
REMARK       I    between atoms: C_7  and  N_8 
REMARK    3  A    between atoms: N_8  and  C_9 
REMARK    4  A    between atoms: C_12  and  O_13 
REMARK    5  A    between atoms: O_13  and  C_14 
ROOT
HETATM    1  C   UNL     1      -7.016   1.041 -33.362  1.00  0.00     0.076 A 
HETATM    2  C   UNL     1      -7.306   0.698 -34.683  1.00  0.00     0.039 A 
HETATM    3  C   UNL     1      -6.966  -0.568 -35.163  1.00  0.00     0.025 A 
HETATM    4  C   UNL     1      -6.320  -1.486 -34.325  1.00  0.00     0.044 A 
HETATM    5  C   UNL     1      -5.969  -2.786 -34.818  1.00  0.00     0.099 C 
HETATM    6  N   UNL     1      -5.687  -3.838 -35.218  1.00  0.00    -0.191 NA
HETATM    7  C   UNL     1      -6.011  -1.127 -33.006  1.00  0.00     0.025 A 
HETATM    8  C   UNL     1      -6.350   0.142 -32.527  1.00  0.00     0.039 A 
ENDROOT
BRANCH   1   9
HETATM    9  O   UNL     1      -7.317   2.318 -32.960  1.00  0.00    -0.311 OA
BRANCH   9  10
HETATM   10  C   UNL     1      -6.310   3.103 -32.443  1.00  0.00     0.076 A 
HETATM   11  C   UNL     1      -6.477   3.496 -31.115  1.00  0.00     0.039 A 
HETATM   12  C   UNL     1      -5.491   4.246 -30.464  1.00  0.00     0.032 A 
HETATM   13  C   UNL     1      -4.322   4.608 -31.132  1.00  0.00     0.034 A 
HETATM   14  C   UNL     1      -4.159   4.211 -32.466  1.00  0.00     0.032 A 
HETATM   15  C   UNL     1      -5.140   3.451 -33.117  1.00  0.00     0.039 A 
BRANCH  13  16
HETATM   16  N   UNL     1      -3.270   5.342 -30.543  1.00  0.00    -0.327 N 
HETATM   17  C   UNL     1      -3.043   6.707 -30.627  1.00  0.00     0.227 C 
HETATM   18  O   UNL     1      -3.723   7.516 -31.256  1.00  0.00    -0.273 OA
HETATM   19  H   UNL     1      -2.616   4.801 -29.990  1.00  0.00     0.169 HD
BRANCH  17  20
HETATM   20  C   UNL     1      -1.835   7.166 -29.805  1.00  0.00     0.159 C 
BRANCH  20  21
HETATM   21  C   UNL     1      -0.639   6.288 -30.011  1.00  0.00     0.017 A 
HETATM   22  N   UNL     1      -0.147   5.468 -29.020  1.00  0.00    -0.369 N 
HETATM   23  C   UNL     1       0.931   4.769 -29.491  1.00  0.00     0.088 A 
HETATM   24  H   UNL     1      -0.522   5.417 -28.076  1.00  0.00     0.165 HD
HETATM   25  C   UNL     1       1.132   5.129 -30.803  1.00  0.00     0.019 A 
HETATM   26  C   UNL     1       0.143   6.086 -31.133  1.00  0.00     0.027 A 
ENDBRANCH  20  21
ENDBRANCH  17  20
ENDBRANCH  13  16
ENDBRANCH   9  10
ENDBRANCH   1   9
TORSDOF 5
ENDMDL
MODEL 5
REMARK VINA RESULT:      -7.6      1.871      9.768
REMARK  5 active torsions:
REMARK  status: ('A' for Active; 'I' for Inactive)
REMARK    1  A    between atoms: C_5  and  C_6 
REMARK    2  A    between atoms: C_6  and  C_7 
REMARK       I    between atoms: C_7  and  N_8 
REMARK    3  A    between atoms: N_8  and  C_9 
REMARK    4  A    between atoms: C_12  and  O_13 
REMARK    5  A    between atoms: O_13  and  C_14 
ROOT
HETATM    1  C   UNL     1      -1.480   7.023 -31.127  1.00  0.00     0.076 A 
HETATM    2  C   UNL     1      -1.979   7.719 -30.026  1.00  0.00     0.039 A 
HETATM    3  C   UNL     1      -1.115   8.116 -29.004  1.00  0.00     0.025 A 
HETATM    4  C   UNL     1       0.248   7.802 -29.077  1.00  0.00     0.044 A 
HETATM    5  C   UNL     1       1.136   8.207 -28.027  1.00  0.00     0.099 C 
HETATM    6  N   UNL     1       1.854   8.538 -27.177  1.00  0.00    -0.191 NA
HETATM    7  C   UNL     1       0.739   7.083 -30.175  1.00  0.00     0.025 A 
HETATM    8  C   UNL     1      -0.128   6.683 -31.196  1.00  0.00     0.039 A 
ENDROOT
BRANCH   1   9
HETATM    9  O   UNL     1      -2.383   6.603 -32.072  1.00  0.00    -0.311 OA
BRANCH   9  10
HETATM   10  C   UNL     1      -2.920   5.341 -31.959  1.00  0.00     0.076 A 
HETATM   11  C   UNL     1      -4.151   5.269 -31.308  1.00  0.00     0.039 A 
HETATM   12  C   UNL     1      -4.823   4.047 -31.186  1.00  0.00     0.032 A 
HETATM   13  C   UNL     1      -4.273   2.881 -31.718  1.00  0.00     0.034 A 
HETATM   14  C   UNL     1      -3.036   2.959 -32.373  1.00  0.00     0.032 A 
HETATM   15  C   UNL     1      -2.367   4.183 -32.505  1.00  0.00     0.039 A 
BRANCH  13  16
HETATM   16  N   UNL     1      -4.894   1.615 -31.660  1.00  0.00    -0.327 N 
HETATM   17  C   UNL     1      -5.819   1.088 -32.546  1.00  0.00     0.227 C 
HETATM   18  O   UNL     1      -6.275   1.655 -33.538  1.00  0.00    -0.273 OA
HETATM   19  H   UNL     1      -4.617   1.028 -30.882  1.00  0.00     0.169 HD
BRANCH  17  20
HETATM   20  C   UNL     1      -6.232  -0.346 -32.202  1.00  0.00     0.159 C 
BRANCH  20  21
HETATM   21  C   UNL     1      -5.843  -1.322 -33.269  1.00  0.00     0.017 A 
HETATM   22  N   UNL     1      -4.552  -1.780 -33.415  1.00  0.00    -0.369 N 
HETATM   23  C   UNL     1      -4.493  -2.673 -34.450  1.00  0.00     0.088 A 
HETATM   24  H   UNL     1      -3.765  -1.473 -32.849  1.00  0.00     0.165 HD
HETATM   25  C   UNL     1      -5.758  -2.806 -34.971  1.00  0.00     0.019 A 
HETATM   26  C   UNL     1      -6.611  -1.956 -34.227  1.00  0.00     0.027 A 
ENDBRANCH  20  21
ENDBRANCH  17  20
ENDBRANCH  13  16
ENDBRANCH   9  10
ENDBRANCH   1   9
TORSDOF 5
ENDMDL
MODEL 6
REMARK VINA RESULT:      -7.5      4.855     10.085
REMARK  5 active torsions:
REMARK  status: ('A' for Active; 'I' for Inactive)
REMARK    1  A    between atoms: C_5  and  C_6 
REMARK    2  A    between atoms: C_6  and  C_7 
REMARK       I    between atoms: C_7  and  N_8 
REMARK    3  A    between atoms: N_8  and  C_9 
REMARK    4  A    between atoms: C_12  and  O_13 
REMARK    5  A    between atoms: O_13  and  C_14 
ROOT
HETATM    1  C   UNL     1      -4.653   2.048 -32.250  1.00  0.00     0.076 A 
HETATM    2  C   UNL     1      -5.238   2.926 -33.162  1.00  0.00     0.039 A 
HETATM    3  C   UNL     1      -4.663   4.177 -33.389  1.00  0.00     0.025 A 
HETATM    4  C   UNL     1      -3.510   4.556 -32.690  1.00  0.00     0.044 A 
HETATM    5  C   UNL     1      -2.920   5.843 -32.922  1.00  0.00     0.099 C 
HETATM    6  N   UNL     1      -2.443   6.884 -33.112  1.00  0.00    -0.191 NA
HETATM    7  C   UNL     1      -2.941   3.679 -31.759  1.00  0.00     0.025 A 
HETATM    8  C   UNL     1      -3.519   2.427 -31.530  1.00  0.00     0.039 A 
ENDROOT
BRANCH   1   9
HETATM    9  O   UNL     1      -5.293   0.855 -32.020  1.00  0.00    -0.311 OA
BRANCH   9  10
HETATM   10  C   UNL     1      -6.652   0.784 -32.225  1.00  0.00     0.076 A 
HETATM   11  C   UNL     1      -7.054   0.028 -33.326  1.00  0.00     0.039 A 
HETATM   12  C   UNL     1      -8.412  -0.166 -33.601  1.00  0.00     0.032 A 
HETATM   13  C   UNL     1      -9.387   0.391 -32.774  1.00  0.00     0.034 A 
HETATM   14  C   UNL     1      -8.979   1.149 -31.669  1.00  0.00     0.032 A 
HETATM   15  C   UNL     1      -7.619   1.336 -31.386  1.00  0.00     0.039 A 
BRANCH  13  16
HETATM   16  N   UNL     1     -10.776   0.225 -32.966  1.00  0.00    -0.327 N 
HETATM   17  C   UNL     1     -11.615   0.988 -33.762  1.00  0.00     0.227 C 
HETATM   18  O   UNL     1     -11.285   1.967 -34.432  1.00  0.00    -0.273 OA
HETATM   19  H   UNL     1     -11.197  -0.550 -32.467  1.00  0.00     0.169 HD
BRANCH  17  20
HETATM   20  C   UNL     1     -13.058   0.477 -33.778  1.00  0.00     0.159 C 
BRANCH  20  21
HETATM   21  C   UNL     1     -14.002   1.414 -33.089  1.00  0.00     0.017 A 
HETATM   22  N   UNL     1     -13.563   2.457 -32.303  1.00  0.00    -0.369 N 
HETATM   23  C   UNL     1     -14.636   3.156 -31.822  1.00  0.00     0.088 A 
HETATM   24  H   UNL     1     -12.586   2.652 -32.099  1.00  0.00     0.165 HD
HETATM   25  C   UNL     1     -15.780   2.569 -32.310  1.00  0.00     0.019 A 
HETATM   26  C   UNL     1     -15.383   1.472 -33.110  1.00  0.00     0.027 A 
ENDBRANCH  20  21
ENDBRANCH  17  20
ENDBRANCH  13  16
ENDBRANCH   9  10
ENDBRANCH   1   9
TORSDOF 5
ENDMDL
MODEL 7
REMARK VINA RESULT:      -7.5      6.532      9.115
REMARK  5 active torsions:
REMARK  status: ('A' for Active; 'I' for Inactive)
REMARK    1  A    between atoms: C_5  and  C_6 
REMARK    2  A    between atoms: C_6  and  C_7 
REMARK       I    between atoms: C_7  and  N_8 
REMARK    3  A    between atoms: N_8  and  C_9 
REMARK    4  A    between atoms: C_12  and  O_13 
REMARK    5  A    between atoms: O_13  and  C_14 
ROOT
HETATM    1  C   UNL     1      -6.004  -0.469 -34.036  1.00  0.00     0.076 A 
HETATM    2  C   UNL     1      -4.845  -0.898 -33.390  1.00  0.00     0.039 A 
HETATM    3  C   UNL     1      -4.435  -2.227 -33.509  1.00  0.00     0.025 A 
HETATM    4  C   UNL     1      -5.195  -3.131 -34.263  1.00  0.00     0.044 A 
HETATM    5  C   UNL     1      -4.775  -4.497 -34.384  1.00  0.00     0.099 C 
HETATM    6  N   UNL     1      -4.433  -5.601 -34.483  1.00  0.00    -0.191 NA
HETATM    7  C   UNL     1      -6.370  -2.698 -34.891  1.00  0.00     0.025 A 
HETATM    8  C   UNL     1      -6.782  -1.368 -34.768  1.00  0.00     0.039 A 
ENDROOT
BRANCH   1   9
HETATM    9  O   UNL     1      -6.395   0.832 -33.836  1.00  0.00    -0.311 OA
BRANCH   9  10
HETATM   10  C   UNL     1      -7.736   1.103 -33.677  1.00  0.00     0.076 A 
HETATM   11  C   UNL     1      -8.363   0.433 -32.628  1.00  0.00     0.039 A 
HETATM   12  C   UNL     1      -9.710   0.673 -32.332  1.00  0.00     0.032 A 
HETATM   13  C   UNL     1     -10.445   1.591 -33.081  1.00  0.00     0.034 A 
HETATM   14  C   UNL     1      -9.810   2.263 -34.134  1.00  0.00     0.032 A 
HETATM   15  C   UNL     1      -8.459   2.032 -34.425  1.00  0.00     0.039 A 
BRANCH  13  16
HETATM   16  N   UNL     1     -11.799   1.909 -32.835  1.00  0.00    -0.327 N 
HETATM   17  C   UNL     1     -12.909   1.474 -33.540  1.00  0.00     0.227 C 
HETATM   18  O   UNL     1     -12.897   0.739 -34.528  1.00  0.00    -0.273 OA
HETATM   19  H   UNL     1     -11.968   2.519 -32.044  1.00  0.00     0.169 HD
BRANCH  17  20
HETATM   20  C   UNL     1     -14.230   1.972 -32.949  1.00  0.00     0.159 C 
BRANCH  20  21
HETATM   21  C   UNL     1     -14.162   3.411 -32.536  1.00  0.00     0.017 A 
HETATM   22  N   UNL     1     -14.007   4.433 -33.447  1.00  0.00    -0.369 N 
HETATM   23  C   UNL     1     -14.000   5.636 -32.794  1.00  0.00     0.088 A 
HETATM   24  H   UNL     1     -13.891   4.298 -34.448  1.00  0.00     0.165 HD
HETATM   25  C   UNL     1     -14.165   5.392 -31.451  1.00  0.00     0.019 A 
HETATM   26  C   UNL     1     -14.268   3.991 -31.286  1.00  0.00     0.027 A 
ENDBRANCH  20  21
ENDBRANCH  17  20
ENDBRANCH  13  16
ENDBRANCH   9  10
ENDBRANCH   1   9
TORSDOF 5
ENDMDL
MODEL 8
REMARK VINA RESULT:      -7.4      3.252      4.126
REMARK  5 active torsions:
REMARK  status: ('A' for Active; 'I' for Inactive)
REMARK    1  A    between atoms: C_5  and  C_6 
REMARK    2  A    between atoms: C_6  and  C_7 
REMARK       I    between atoms: C_7  and  N_8 
REMARK    3  A    between atoms: N_8  and  C_9 
REMARK    4  A    between atoms: C_12  and  O_13 
REMARK    5  A    between atoms: O_13  and  C_14 
ROOT
HETATM    1  C   UNL     1      -9.011   1.078 -32.008  1.00  0.00     0.076 A 
HETATM    2  C   UNL     1      -9.741   0.036 -32.581  1.00  0.00     0.039 A 
HETATM    3  C   UNL     1     -10.797   0.322 -33.448  1.00  0.00     0.025 A 
HETATM    4  C   UNL     1     -11.132   1.652 -33.729  1.00  0.00     0.044 A 
HETATM    5  C   UNL     1     -12.218   1.947 -34.619  1.00  0.00     0.099 C 
HETATM    6  N   UNL     1     -13.096   2.183 -35.340  1.00  0.00    -0.191 NA
HETATM    7  C   UNL     1     -10.409   2.694 -33.133  1.00  0.00     0.025 A 
HETATM    8  C   UNL     1      -9.354   2.406 -32.263  1.00  0.00     0.039 A 
ENDROOT
BRANCH   1   9
HETATM    9  O   UNL     1      -8.023   0.742 -31.116  1.00  0.00    -0.311 OA
BRANCH   9  10
HETATM   10  C   UNL     1      -6.783   1.325 -31.251  1.00  0.00     0.076 A 
HETATM   11  C   UNL     1      -6.092   1.000 -32.418  1.00  0.00     0.039 A 
HETATM   12  C   UNL     1      -4.847   1.577 -32.694  1.00  0.00     0.032 A 
HETATM   13  C   UNL     1      -4.280   2.492 -31.808  1.00  0.00     0.034 A 
HETATM   14  C   UNL     1      -4.979   2.816 -30.637  1.00  0.00     0.032 A 
HETATM   15  C   UNL     1      -6.230   2.247 -30.364  1.00  0.00     0.039 A 
BRANCH  13  16
HETATM   16  N   UNL     1      -3.043   3.138 -32.021  1.00  0.00    -0.327 N 
HETATM   17  C   UNL     1      -2.830   4.469 -32.343  1.00  0.00     0.227 C 
HETATM   18  O   UNL     1      -3.703   5.319 -32.520  1.00  0.00    -0.273 OA
HETATM   19  H   UNL     1      -2.221   2.555 -31.913  1.00  0.00     0.169 HD
BRANCH  17  20
HETATM   20  C   UNL     1      -1.347   4.835 -32.436  1.00  0.00     0.159 C 
BRANCH  20  21
HETATM   21  C   UNL     1      -0.841   5.487 -31.186  1.00  0.00     0.017 A 
HETATM   22  N   UNL     1      -1.687   6.049 -30.255  1.00  0.00    -0.369 N 
HETATM   23  C   UNL     1      -0.956   6.549 -29.211  1.00  0.00     0.088 A 
HETATM   24  H   UNL     1      -2.697   6.101 -30.352  1.00  0.00     0.165 HD
HETATM   25  C   UNL     1       0.372   6.297 -29.462  1.00  0.00     0.019 A 
HETATM   26  C   UNL     1       0.447   5.627 -30.705  1.00  0.00     0.027 A 
ENDBRANCH  20  21
ENDBRANCH  17  20
ENDBRANCH  13  16
ENDBRANCH   9  10
ENDBRANCH   1   9
TORSDOF 5
ENDMDL
MODEL 9
REMARK VINA RESULT:      -7.3      3.282      4.052
REMARK  5 active torsions:
REMARK  status: ('A' for Active; 'I' for Inactive)
REMARK    1  A    between atoms: C_5  and  C_6 
REMARK    2  A    between atoms: C_6  and  C_7 
REMARK       I    between atoms: C_7  and  N_8 
REMARK    3  A    between atoms: N_8  and  C_9 
REMARK    4  A    between atoms: C_12  and  O_13 
REMARK    5  A    between atoms: O_13  and  C_14 
ROOT
HETATM    1  C   UNL     1      -8.935   1.655 -32.080  1.00  0.00     0.076 A 
HETATM    2  C   UNL     1      -9.135   0.546 -32.903  1.00  0.00     0.039 A 
HETATM    3  C   UNL     1     -10.207   0.529 -33.797  1.00  0.00     0.025 A 
HETATM    4  C   UNL     1     -11.089   1.615 -33.855  1.00  0.00     0.044 A 
HETATM    5  C   UNL     1     -12.192   1.596 -34.772  1.00  0.00     0.099 C 
HETATM    6  N   UNL     1     -13.082   1.580 -35.516  1.00  0.00    -0.191 NA
HETATM    7  C   UNL     1     -10.896   2.714 -33.010  1.00  0.00     0.025 A 
HETATM    8  C   UNL     1      -9.824   2.730 -32.113  1.00  0.00     0.039 A 
ENDROOT
BRANCH   1   9
HETATM    9  O   UNL     1      -7.903   1.594 -31.177  1.00  0.00    -0.311 OA
BRANCH   9  10
HETATM   10  C   UNL     1      -6.880   2.511 -31.279  1.00  0.00     0.076 A 
HETATM   11  C   UNL     1      -6.491   3.112 -30.083  1.00  0.00     0.039 A 
HETATM   12  C   UNL     1      -5.423   4.015 -30.052  1.00  0.00     0.032 A 
HETATM   13  C   UNL     1      -4.727   4.325 -31.220  1.00  0.00     0.034 A 
HETATM   14  C   UNL     1      -5.120   3.718 -32.420  1.00  0.00     0.032 A 
HETATM   15  C   UNL     1      -6.183   2.806 -32.450  1.00  0.00     0.039 A 
BRANCH  13  16
HETATM   16  N   UNL     1      -3.624   5.206 -31.273  1.00  0.00    -0.327 N 
HETATM   17  C   UNL     1      -2.290   4.878 -31.457  1.00  0.00     0.227 C 
HETATM   18  O   UNL     1      -1.836   3.742 -31.587  1.00  0.00    -0.273 OA
HETATM   19  H   UNL     1      -3.846   6.190 -31.175  1.00  0.00     0.169 HD
BRANCH  17  20
HETATM   20  C   UNL     1      -1.375   6.103 -31.524  1.00  0.00     0.159 C 
BRANCH  20  21
HETATM   21  C   UNL     1      -0.633   6.331 -30.244  1.00  0.00     0.017 A 
HETATM   22  N   UNL     1      -0.112   5.295 -29.499  1.00  0.00    -0.369 N 
HETATM   23  C   UNL     1       0.529   5.795 -28.398  1.00  0.00     0.088 A 
HETATM   24  H   UNL     1      -0.217   4.311 -29.730  1.00  0.00     0.165 HD
HETATM   25  C   UNL     1       0.434   7.166 -28.435  1.00  0.00     0.019 A 
HETATM   26  C   UNL     1      -0.296   7.506 -29.598  1.00  0.00     0.027 A 
ENDBRANCH  20  21
ENDBRANCH  17  20
ENDBRANCH  13  16
ENDBRANCH   9  10
ENDBRANCH   1   9
TORSDOF 5
ENDMDL
MODEL 10
REMARK VINA RESULT:      -7.1      2.742      3.172
REMARK  5 active torsions:
REMARK  status: ('A' for Active; 'I' for Inactive)
REMARK    1  A    between atoms: C_5  and  C_6 
REMARK    2  A    between atoms: C_6  and  C_7 
REMARK       I    between atoms: C_7  and  N_8 
REMARK    3  A    between atoms: N_8  and  C_9 
REMARK    4  A    between atoms: C_12  and  O_13 
REMARK    5  A    between atoms: O_13  and  C_14 
ROOT
HETATM    1  C   UNL     1      -7.369   1.196 -33.449  1.00  0.00     0.076 A 
HETATM    2  C   UNL     1      -7.021   0.219 -32.516  1.00  0.00     0.039 A 
HETATM    3  C   UNL     1      -6.575  -1.030 -32.950  1.00  0.00     0.025 A 
HETATM    4  C   UNL     1      -6.491  -1.307 -34.320  1.00  0.00     0.044 A 
HETATM    5  C   UNL     1      -6.034  -2.591 -34.767  1.00  0.00     0.099 C 
HETATM    6  N   UNL     1      -5.662  -3.630 -35.126  1.00  0.00    -0.191 NA
HETATM    7  C   UNL     1      -6.863  -0.330 -35.252  1.00  0.00     0.025 A 
HETATM    8  C   UNL     1      -7.313   0.919 -34.816  1.00  0.00     0.039 A 
ENDROOT
BRANCH   1   9
HETATM    9  O   UNL     1      -7.860   2.384 -32.969  1.00  0.00    -0.311 OA
BRANCH   9  10
HETATM   10  C   UNL     1      -7.318   2.906 -31.816  1.00  0.00     0.076 A 
HETATM   11  C   UNL     1      -6.003   3.358 -31.922  1.00  0.00     0.039 A 
HETATM   12  C   UNL     1      -5.366   3.962 -30.832  1.00  0.00     0.032 A 
HETATM   13  C   UNL     1      -6.039   4.127 -29.622  1.00  0.00     0.034 A 
HETATM   14  C   UNL     1      -7.361   3.672 -29.521  1.00  0.00     0.032 A 
HETATM   15  C   UNL     1      -8.003   3.076 -30.614  1.00  0.00     0.039 A 
BRANCH  13  16
HETATM   16  N   UNL     1      -5.480   4.746 -28.483  1.00  0.00    -0.327 N 
HETATM   17  C   UNL     1      -5.274   6.101 -28.276  1.00  0.00     0.227 C 
HETATM   18  O   UNL     1      -5.531   7.002 -29.072  1.00  0.00    -0.273 OA
HETATM   19  H   UNL     1      -5.211   4.121 -27.734  1.00  0.00     0.169 HD
BRANCH  17  20
HETATM   20  C   UNL     1      -4.702   6.415 -26.891  1.00  0.00     0.159 C 
BRANCH  20  21
HETATM   21  C   UNL     1      -3.223   6.654 -26.926  1.00  0.00     0.017 A 
HETATM   22  N   UNL     1      -2.544   6.900 -28.099  1.00  0.00    -0.369 N 
HETATM   23  C   UNL     1      -1.217   7.102 -27.831  1.00  0.00     0.088 A 
HETATM   24  H   UNL     1      -2.972   6.904 -29.022  1.00  0.00     0.165 HD
HETATM   25  C   UNL     1      -1.037   6.998 -26.472  1.00  0.00     0.019 A 
HETATM   26  C   UNL     1      -2.300   6.717 -25.899  1.00  0.00     0.027 A 
ENDBRANCH  20  21
ENDBRANCH  17  20
ENDBRANCH  13  16
ENDBRANCH   9  10
ENDBRANCH   1   9
TORSDOF 5
ENDMDL
