MODEL 1
REMARK VINA RESULT:      -9.1      0.000      0.000
REMARK  9 active torsions:
REMARK  status: ('A' for Active; 'I' for Inactive)
REMARK    1  A    between atoms: C_2  and  C_3 
REMARK    2  A    between atoms: C_3  and  C_4 
REMARK    3  A    between atoms: C_4  and  O_5 
REMARK    4  A    between atoms: O_5  and  C_6 
REMARK    5  A    between atoms: C_8  and  C_9 
REMARK       I    between atoms: C_9  and  N_10 
REMARK    6  A    between atoms: N_10  and  C_11 
REMARK    7  A    between atoms: N_12  and  C_13 
REMARK    8  A    between atoms: C_15  and  C_16 
REMARK    9  A    between atoms: C_25  and  O_26 
ROOT
HETATM    1  C   UNL     1      -6.113   4.444 -30.547  1.00  0.00     0.179 C 
HETATM    2  N   UNL     1      -7.303   3.906 -30.893  1.00  0.00    -0.333 N 
HETATM    3  S   UNL     1      -5.854   4.828 -28.935  1.00  0.00    -0.040 SA
HETATM    4  H   UNL     1      -8.017   4.051 -30.186  1.00  0.00     0.168 HD
ENDROOT
BRANCH   2   5
HETATM    5  C   UNL     1      -7.688   3.054 -31.949  1.00  0.00     0.035 A 
HETATM    6  C   UNL     1      -7.095   1.820 -32.214  1.00  0.00     0.048 A 
HETATM    7  C   UNL     1      -7.485   1.040 -33.317  1.00  0.00     0.053 A 
HETATM    8  C   UNL     1      -8.566   1.482 -34.101  1.00  0.00     0.086 A 
HETATM    9  C   UNL     1      -9.225   2.684 -33.812  1.00  0.00    -0.026 A 
HETATM   10  C   UNL     1     -10.417   3.131 -34.609  1.00  0.00     0.051 C 
HETATM   11  C   UNL     1      -8.776   3.459 -32.733  1.00  0.00     0.039 A 
BRANCH   7  12
HETATM   12  C   UNL     1      -6.760  -0.180 -33.659  1.00  0.00     0.183 A 
HETATM   13  O   UNL     1      -7.491  -1.227 -34.161  1.00  0.00    -0.289 OA
HETATM   14  C   UNL     1      -6.578  -2.230 -34.296  1.00  0.00     0.106 A 
HETATM   15  C   UNL     1      -5.348  -1.743 -33.884  1.00  0.00     0.093 A 
HETATM   16  C   UNL     1      -6.807  -3.523 -34.751  1.00  0.00     0.040 A 
HETATM   17  N   UNL     1      -5.469  -0.431 -33.498  1.00  0.00    -0.221 NA
HETATM   18  C   UNL     1      -4.239  -2.598 -33.908  1.00  0.00     0.034 A 
HETATM   19  C   UNL     1      -4.428  -3.915 -34.356  1.00  0.00     0.002 A 
HETATM   20  C   UNL     1      -5.689  -4.364 -34.771  1.00  0.00     0.003 A 
ENDBRANCH   7  12
BRANCH   8  21
HETATM   21  O   UNL     1      -9.025   0.759 -35.176  1.00  0.00    -0.359 OA
HETATM   22  H   UNL     1      -8.271   0.571 -35.772  1.00  0.00     0.218 HD
ENDBRANCH   8  21
ENDBRANCH   2   5
BRANCH   1  23
HETATM   23  N   UNL     1      -5.106   4.696 -31.426  1.00  0.00    -0.299 N 
HETATM   24  C   UNL     1      -3.937   3.984 -31.681  1.00  0.00     0.257 C 
HETATM   25  O   UNL     1      -3.741   2.821 -31.353  1.00  0.00    -0.267 OA
HETATM   26  H   UNL     1      -5.386   5.330 -32.163  1.00  0.00     0.171 HD
BRANCH  24  27
HETATM   27  C   UNL     1      -2.918   4.720 -32.489  1.00  0.00     0.035 A 
HETATM   28  C   UNL     1      -1.883   5.392 -31.829  1.00  0.00     0.053 A 
HETATM   29  C   UNL     1      -0.931   6.120 -32.550  1.00  0.00     0.069 A 
HETATM   30  C   UNL     1      -1.016   6.172 -33.943  1.00  0.00     0.037 A 
HETATM   31  C   UNL     1      -2.054   5.517 -34.609  1.00  0.00     0.004 A 
HETATM   32  C   UNL     1      -3.008   4.800 -33.886  1.00  0.00     0.017 A 
BRANCH  29  33
HETATM   33  O   UNL     1       0.026   6.733 -31.787  1.00  0.00    -0.351 OA
BRANCH  33  34
HETATM   34  C   UNL     1       0.178   6.273 -30.444  1.00  0.00     0.175 C 
BRANCH  34  35
HETATM   35  C   UNL     1       0.361   7.474 -29.516  1.00  0.00     0.026 C 
BRANCH  35  36
HETATM   36  C   UNL     1       0.815   7.062 -28.115  1.00  0.00    -0.002 C 
HETATM   37  C   UNL     1       1.455   8.228 -27.377  1.00  0.00     0.005 C 
ENDBRANCH  35  36
ENDBRANCH  34  35
ENDBRANCH  33  34
ENDBRANCH  29  33
ENDBRANCH  24  27
ENDBRANCH   1  23
TORSDOF 9
ENDMDL
MODEL 2
REMARK VINA RESULT:      -8.8      2.902      7.138
REMARK  9 active torsions:
REMARK  status: ('A' for Active; 'I' for Inactive)
REMARK    1  A    between atoms: C_2  and  C_3 
REMARK    2  A    between atoms: C_3  and  C_4 
REMARK    3  A    between atoms: C_4  and  O_5 
REMARK    4  A    between atoms: O_5  and  C_6 
REMARK    5  A    between atoms: C_8  and  C_9 
REMARK       I    between atoms: C_9  and  N_10 
REMARK    6  A    between atoms: N_10  and  C_11 
REMARK    7  A    between atoms: N_12  and  C_13 
REMARK    8  A    between atoms: C_15  and  C_16 
REMARK    9  A    between atoms: C_25  and  O_26 
ROOT
HETATM    1  C   UNL     1      -9.629   0.853 -32.613  1.00  0.00     0.179 C 
HETATM    2  N   UNL     1      -9.765   1.970 -31.865  1.00  0.00    -0.333 N 
HETATM    3  S   UNL     1     -11.013   0.142 -33.239  1.00  0.00    -0.040 SA
HETATM    4  H   UNL     1     -10.714   2.100 -31.529  1.00  0.00     0.168 HD
ENDROOT
BRANCH   2   5
HETATM    5  C   UNL     1      -8.898   3.053 -31.611  1.00  0.00     0.035 A 
HETATM    6  C   UNL     1      -7.736   3.313 -32.337  1.00  0.00     0.048 A 
HETATM    7  C   UNL     1      -6.882   4.377 -32.000  1.00  0.00     0.053 A 
HETATM    8  C   UNL     1      -7.274   5.249 -30.968  1.00  0.00     0.086 A 
HETATM    9  C   UNL     1      -8.473   5.051 -30.271  1.00  0.00    -0.026 A 
HETATM   10  C   UNL     1      -8.925   6.013 -29.209  1.00  0.00     0.051 C 
HETATM   11  C   UNL     1      -9.275   3.950 -30.603  1.00  0.00     0.039 A 
BRANCH   7  12
HETATM   12  C   UNL     1      -5.603   4.548 -32.681  1.00  0.00     0.183 A 
HETATM   13  O   UNL     1      -4.466   4.473 -31.915  1.00  0.00    -0.289 OA
HETATM   14  C   UNL     1      -3.461   4.755 -32.790  1.00  0.00     0.106 A 
HETATM   15  C   UNL     1      -4.029   4.975 -34.035  1.00  0.00     0.093 A 
HETATM   16  C   UNL     1      -2.101   4.830 -32.515  1.00  0.00     0.040 A 
HETATM   17  N   UNL     1      -5.392   4.822 -33.960  1.00  0.00    -0.221 NA
HETATM   18  C   UNL     1      -3.197   5.306 -35.110  1.00  0.00     0.034 A 
HETATM   19  C   UNL     1      -1.816   5.397 -34.874  1.00  0.00     0.002 A 
HETATM   20  C   UNL     1      -1.281   5.160 -33.601  1.00  0.00     0.003 A 
ENDBRANCH   7  12
BRANCH   8  21
HETATM   21  O   UNL     1      -6.508   6.329 -30.602  1.00  0.00    -0.359 OA
HETATM   22  H   UNL     1      -6.572   7.011 -31.303  1.00  0.00     0.218 HD
ENDBRANCH   8  21
ENDBRANCH   2   5
BRANCH   1  23
HETATM   23  N   UNL     1      -8.435   0.264 -32.893  1.00  0.00    -0.299 N 
HETATM   24  C   UNL     1      -7.840  -0.021 -34.119  1.00  0.00     0.257 C 
HETATM   25  O   UNL     1      -8.166   0.477 -35.189  1.00  0.00    -0.267 OA
HETATM   26  H   UNL     1      -7.797   0.291 -32.108  1.00  0.00     0.171 HD
BRANCH  24  27
HETATM   27  C   UNL     1      -6.670  -0.949 -34.048  1.00  0.00     0.035 A 
HETATM   28  C   UNL     1      -5.500  -0.520 -33.410  1.00  0.00     0.053 A 
HETATM   29  C   UNL     1      -4.374  -1.348 -33.354  1.00  0.00     0.069 A 
HETATM   30  C   UNL     1      -4.423  -2.615 -33.938  1.00  0.00     0.037 A 
HETATM   31  C   UNL     1      -5.581  -3.045 -34.590  1.00  0.00     0.004 A 
HETATM   32  C   UNL     1      -6.699  -2.213 -34.654  1.00  0.00     0.017 A 
BRANCH  29  33
HETATM   33  O   UNL     1      -3.295  -0.811 -32.705  1.00  0.00    -0.351 OA
BRANCH  33  34
HETATM   34  C   UNL     1      -3.485  -0.415 -31.347  1.00  0.00     0.175 C 
BRANCH  34  35
HETATM   35  C   UNL     1      -3.527   1.110 -31.265  1.00  0.00     0.026 C 
BRANCH  35  36
HETATM   36  C   UNL     1      -4.765   1.619 -30.526  1.00  0.00    -0.002 C 
HETATM   37  C   UNL     1      -5.631   0.467 -30.041  1.00  0.00     0.005 C 
ENDBRANCH  35  36
ENDBRANCH  34  35
ENDBRANCH  33  34
ENDBRANCH  29  33
ENDBRANCH  24  27
ENDBRANCH   1  23
TORSDOF 9
ENDMDL
MODEL 3
REMARK VINA RESULT:      -8.8      3.147      8.314
REMARK  9 active torsions:
REMARK  status: ('A' for Active; 'I' for Inactive)
REMARK    1  A    between atoms: C_2  and  C_3 
REMARK    2  A    between atoms: C_3  and  C_4 
REMARK    3  A    between atoms: C_4  and  O_5 
REMARK    4  A    between atoms: O_5  and  C_6 
REMARK    5  A    between atoms: C_8  and  C_9 
REMARK       I    between atoms: C_9  and  N_10 
REMARK    6  A    between atoms: N_10  and  C_11 
REMARK    7  A    between atoms: N_12  and  C_13 
REMARK    8  A    between atoms: C_15  and  C_16 
REMARK    9  A    between atoms: C_25  and  O_26 
ROOT
HETATM    1  C   UNL     1     -10.549   1.929 -33.673  1.00  0.00     0.179 C 
HETATM    2  N   UNL     1     -10.610   3.080 -32.968  1.00  0.00    -0.333 N 
HETATM    3  S   UNL     1     -11.855   1.521 -34.642  1.00  0.00    -0.040 SA
HETATM    4  H   UNL     1     -11.557   3.435 -32.883  1.00  0.00     0.168 HD
ENDROOT
BRANCH   2   5
HETATM    5  C   UNL     1      -9.612   3.951 -32.484  1.00  0.00     0.035 A 
HETATM    6  C   UNL     1      -8.341   4.073 -33.045  1.00  0.00     0.048 A 
HETATM    7  C   UNL     1      -7.369   4.918 -32.483  1.00  0.00     0.053 A 
HETATM    8  C   UNL     1      -7.734   5.726 -31.392  1.00  0.00     0.086 A 
HETATM    9  C   UNL     1      -9.026   5.675 -30.855  1.00  0.00    -0.026 A 
HETATM   10  C   UNL     1      -9.440   6.578 -29.728  1.00  0.00     0.051 C 
HETATM   11  C   UNL     1      -9.955   4.784 -31.411  1.00  0.00     0.039 A 
BRANCH   7  12
HETATM   12  C   UNL     1      -6.003   4.927 -33.000  1.00  0.00     0.183 A 
HETATM   13  O   UNL     1      -4.986   4.769 -32.092  1.00  0.00    -0.289 OA
HETATM   14  C   UNL     1      -3.855   4.908 -32.839  1.00  0.00     0.106 A 
HETATM   15  C   UNL     1      -4.237   5.130 -34.153  1.00  0.00     0.093 A 
HETATM   16  C   UNL     1      -2.539   4.854 -32.395  1.00  0.00     0.040 A 
HETATM   17  N   UNL     1      -5.607   5.121 -34.249  1.00  0.00    -0.221 NA
HETATM   18  C   UNL     1      -3.246   5.326 -35.122  1.00  0.00     0.034 A 
HETATM   19  C   UNL     1      -1.904   5.286 -34.714  1.00  0.00     0.002 A 
HETATM   20  C   UNL     1      -1.560   5.051 -33.376  1.00  0.00     0.003 A 
ENDBRANCH   7  12
BRANCH   8  21
HETATM   21  O   UNL     1      -6.848   6.600 -30.809  1.00  0.00    -0.359 OA
HETATM   22  H   UNL     1      -5.954   6.198 -30.825  1.00  0.00     0.218 HD
ENDBRANCH   8  21
ENDBRANCH   2   5
BRANCH   1  23
HETATM   23  N   UNL     1      -9.490   1.075 -33.647  1.00  0.00    -0.299 N 
HETATM   24  C   UNL     1      -8.858   0.460 -32.570  1.00  0.00     0.257 C 
HETATM   25  O   UNL     1      -9.334   0.352 -31.448  1.00  0.00    -0.267 OA
HETATM   26  H   UNL     1      -9.329   0.633 -34.543  1.00  0.00     0.171 HD
BRANCH  24  27
HETATM   27  C   UNL     1      -7.539  -0.165 -32.891  1.00  0.00     0.035 A 
HETATM   28  C   UNL     1      -7.474  -1.138 -33.896  1.00  0.00     0.053 A 
HETATM   29  C   UNL     1      -6.264  -1.770 -34.201  1.00  0.00     0.069 A 
HETATM   30  C   UNL     1      -5.111  -1.422 -33.495  1.00  0.00     0.037 A 
HETATM   31  C   UNL     1      -5.169  -0.464 -32.480  1.00  0.00     0.004 A 
HETATM   32  C   UNL     1      -6.379   0.157 -32.171  1.00  0.00     0.017 A 
BRANCH  29  33
HETATM   33  O   UNL     1      -6.336  -2.703 -35.200  1.00  0.00    -0.351 OA
BRANCH  33  34
HETATM   34  C   UNL     1      -6.729  -4.023 -34.829  1.00  0.00     0.175 C 
BRANCH  34  35
HETATM   35  C   UNL     1      -5.595  -4.997 -35.149  1.00  0.00     0.026 C 
BRANCH  35  36
HETATM   36  C   UNL     1      -4.724  -5.297 -33.928  1.00  0.00    -0.002 C 
HETATM   37  C   UNL     1      -3.378  -4.597 -34.024  1.00  0.00     0.005 C 
ENDBRANCH  35  36
ENDBRANCH  34  35
ENDBRANCH  33  34
ENDBRANCH  29  33
ENDBRANCH  24  27
ENDBRANCH   1  23
TORSDOF 9
ENDMDL
MODEL 4
REMARK VINA RESULT:      -8.6      3.274      7.448
REMARK  9 active torsions:
REMARK  status: ('A' for Active; 'I' for Inactive)
REMARK    1  A    between atoms: C_2  and  C_3 
REMARK    2  A    between atoms: C_3  and  C_4 
REMARK    3  A    between atoms: C_4  and  O_5 
REMARK    4  A    between atoms: O_5  and  C_6 
REMARK    5  A    between atoms: C_8  and  C_9 
REMARK       I    between atoms: C_9  and  N_10 
REMARK    6  A    between atoms: N_10  and  C_11 
REMARK    7  A    between atoms: N_12  and  C_13 
REMARK    8  A    between atoms: C_15  and  C_16 
REMARK    9  A    between atoms: C_25  and  O_26 
ROOT
HETATM    1  C   UNL     1     -10.372   3.544 -34.537  1.00  0.00     0.179 C 
HETATM    2  N   UNL     1     -10.271   4.568 -33.661  1.00  0.00    -0.333 N 
HETATM    3  S   UNL     1     -11.509   3.659 -35.764  1.00  0.00    -0.040 SA
HETATM    4  H   UNL     1     -11.086   5.174 -33.673  1.00  0.00     0.168 HD
ENDROOT
BRANCH   2   5
HETATM    5  C   UNL     1      -9.200   5.042 -32.874  1.00  0.00     0.035 A 
HETATM    6  C   UNL     1      -7.897   5.205 -33.343  1.00  0.00     0.048 A 
HETATM    7  C   UNL     1      -6.860   5.628 -32.494  1.00  0.00     0.053 A 
HETATM    8  C   UNL     1      -7.180   5.987 -31.173  1.00  0.00     0.086 A 
HETATM    9  C   UNL     1      -8.495   5.900 -30.698  1.00  0.00    -0.026 A 
HETATM   10  C   UNL     1      -8.853   6.338 -29.306  1.00  0.00     0.051 C 
HETATM   11  C   UNL     1      -9.495   5.427 -31.560  1.00  0.00     0.039 A 
BRANCH   7  12
HETATM   12  C   UNL     1      -5.479   5.659 -32.966  1.00  0.00     0.183 A 
HETATM   13  O   UNL     1      -4.628   6.553 -32.367  1.00  0.00    -0.289 OA
HETATM   14  C   UNL     1      -3.464   6.416 -33.063  1.00  0.00     0.106 A 
HETATM   15  C   UNL     1      -3.660   5.446 -34.033  1.00  0.00     0.093 A 
HETATM   16  C   UNL     1      -2.279   7.115 -32.868  1.00  0.00     0.040 A 
HETATM   17  N   UNL     1      -4.940   4.955 -33.951  1.00  0.00    -0.221 NA
HETATM   18  C   UNL     1      -2.607   5.134 -34.900  1.00  0.00     0.034 A 
HETATM   19  C   UNL     1      -1.393   5.821 -34.742  1.00  0.00     0.002 A 
HETATM   20  C   UNL     1      -1.235   6.791 -33.742  1.00  0.00     0.003 A 
ENDBRANCH   7  12
BRANCH   8  21
HETATM   21  O   UNL     1      -6.225   6.439 -30.293  1.00  0.00    -0.359 OA
HETATM   22  H   UNL     1      -6.633   6.527 -29.406  1.00  0.00     0.218 HD
ENDBRANCH   8  21
ENDBRANCH   2   5
BRANCH   1  23
HETATM   23  N   UNL     1      -9.608   2.421 -34.487  1.00  0.00    -0.299 N 
HETATM   24  C   UNL     1      -9.297   1.593 -33.411  1.00  0.00     0.257 C 
HETATM   25  O   UNL     1      -9.904   1.568 -32.349  1.00  0.00    -0.267 OA
HETATM   26  H   UNL     1      -9.480   1.999 -35.397  1.00  0.00     0.171 HD
BRANCH  24  27
HETATM   27  C   UNL     1      -8.182   0.630 -33.663  1.00  0.00     0.035 A 
HETATM   28  C   UNL     1      -7.338   0.274 -32.603  1.00  0.00     0.053 A 
HETATM   29  C   UNL     1      -6.264  -0.598 -32.808  1.00  0.00     0.069 A 
HETATM   30  C   UNL     1      -6.035  -1.118 -34.084  1.00  0.00     0.037 A 
HETATM   31  C   UNL     1      -6.862  -0.756 -35.150  1.00  0.00     0.004 A 
HETATM   32  C   UNL     1      -7.927   0.121 -34.944  1.00  0.00     0.017 A 
BRANCH  29  33
HETATM   33  O   UNL     1      -5.516  -0.863 -31.693  1.00  0.00    -0.351 OA
BRANCH  33  34
HETATM   34  C   UNL     1      -5.125   0.252 -30.893  1.00  0.00     0.175 C 
BRANCH  34  35
HETATM   35  C   UNL     1      -3.716   0.692 -31.292  1.00  0.00     0.026 C 
BRANCH  35  36
HETATM   36  C   UNL     1      -3.724   1.955 -32.154  1.00  0.00    -0.002 C 
HETATM   37  C   UNL     1      -2.957   3.085 -31.486  1.00  0.00     0.005 C 
ENDBRANCH  35  36
ENDBRANCH  34  35
ENDBRANCH  33  34
ENDBRANCH  29  33
ENDBRANCH  24  27
ENDBRANCH   1  23
TORSDOF 9
ENDMDL
MODEL 5
REMARK VINA RESULT:      -8.5      2.254      9.271
REMARK  9 active torsions:
REMARK  status: ('A' for Active; 'I' for Inactive)
REMARK    1  A    between atoms: C_2  and  C_3 
REMARK    2  A    between atoms: C_3  and  C_4 
REMARK    3  A    between atoms: C_4  and  O_5 
REMARK    4  A    between atoms: O_5  and  C_6 
REMARK    5  A    between atoms: C_8  and  C_9 
REMARK       I    between atoms: C_9  and  N_10 
REMARK    6  A    between atoms: N_10  and  C_11 
REMARK    7  A    between atoms: N_12  and  C_13 
REMARK    8  A    between atoms: C_15  and  C_16 
REMARK    9  A    between atoms: C_25  and  O_26 
ROOT
HETATM    1  C   UNL     1      -8.232   3.923 -31.030  1.00  0.00     0.179 C 
HETATM    2  N   UNL     1      -7.242   4.764 -30.658  1.00  0.00    -0.333 N 
HETATM    3  S   UNL     1      -9.800   4.285 -30.558  1.00  0.00    -0.040 SA
HETATM    4  H   UNL     1      -7.515   5.375 -29.895  1.00  0.00     0.168 HD
ENDROOT
BRANCH   2   5
HETATM    5  C   UNL     1      -5.986   5.063 -31.229  1.00  0.00     0.035 A 
HETATM    6  C   UNL     1      -4.870   5.465 -30.496  1.00  0.00     0.048 A 
HETATM    7  C   UNL     1      -3.661   5.803 -31.127  1.00  0.00     0.053 A 
HETATM    8  C   UNL     1      -3.561   5.631 -32.519  1.00  0.00     0.086 A 
HETATM    9  C   UNL     1      -4.646   5.160 -33.269  1.00  0.00    -0.026 A 
HETATM   10  C   UNL     1      -4.527   4.918 -34.747  1.00  0.00     0.051 C 
HETATM   11  C   UNL     1      -5.852   4.879 -32.610  1.00  0.00     0.039 A 
BRANCH   7  12
HETATM   12  C   UNL     1      -2.549   6.355 -30.358  1.00  0.00     0.183 A 
HETATM   13  O   UNL     1      -2.852   7.277 -29.387  1.00  0.00    -0.289 OA
HETATM   14  C   UNL     1      -1.635   7.668 -28.915  1.00  0.00     0.106 A 
HETATM   15  C   UNL     1      -0.663   6.963 -29.607  1.00  0.00     0.093 A 
HETATM   16  C   UNL     1      -1.378   8.610 -27.926  1.00  0.00     0.040 A 
HETATM   17  N   UNL     1      -1.255   6.115 -30.510  1.00  0.00    -0.221 NA
HETATM   18  C   UNL     1       0.684   7.203 -29.315  1.00  0.00     0.034 A 
HETATM   19  C   UNL     1       0.989   8.151 -28.326  1.00  0.00     0.002 A 
HETATM   20  C   UNL     1      -0.026   8.838 -27.645  1.00  0.00     0.003 A 
ENDBRANCH   7  12
BRANCH   8  21
HETATM   21  O   UNL     1      -2.402   5.911 -33.203  1.00  0.00    -0.359 OA
HETATM   22  H   UNL     1      -2.324   5.287 -33.955  1.00  0.00     0.218 HD
ENDBRANCH   8  21
ENDBRANCH   2   5
BRANCH   1  23
HETATM   23  N   UNL     1      -8.038   2.796 -31.766  1.00  0.00    -0.299 N 
HETATM   24  C   UNL     1      -7.214   1.699 -31.530  1.00  0.00     0.257 C 
HETATM   25  O   UNL     1      -6.719   1.416 -30.446  1.00  0.00    -0.267 OA
HETATM   26  H   UNL     1      -8.791   2.628 -32.421  1.00  0.00     0.171 HD
BRANCH  24  27
HETATM   27  C   UNL     1      -7.024   0.793 -32.703  1.00  0.00     0.035 A 
HETATM   28  C   UNL     1      -5.926  -0.075 -32.721  1.00  0.00     0.053 A 
HETATM   29  C   UNL     1      -5.696  -0.913 -33.817  1.00  0.00     0.069 A 
HETATM   30  C   UNL     1      -6.576  -0.882 -34.901  1.00  0.00     0.037 A 
HETATM   31  C   UNL     1      -7.666  -0.009 -34.898  1.00  0.00     0.004 A 
HETATM   32  C   UNL     1      -7.886   0.833 -33.808  1.00  0.00     0.017 A 
BRANCH  29  33
HETATM   33  O   UNL     1      -4.588  -1.710 -33.712  1.00  0.00    -0.351 OA
BRANCH  33  34
HETATM   34  C   UNL     1      -4.405  -2.703 -34.721  1.00  0.00     0.175 C 
BRANCH  34  35
HETATM   35  C   UNL     1      -4.102  -4.047 -34.059  1.00  0.00     0.026 C 
BRANCH  35  36
HETATM   36  C   UNL     1      -5.091  -5.136 -34.476  1.00  0.00    -0.002 C 
HETATM   37  C   UNL     1      -6.265  -4.551 -35.245  1.00  0.00     0.005 C 
ENDBRANCH  35  36
ENDBRANCH  34  35
ENDBRANCH  33  34
ENDBRANCH  29  33
ENDBRANCH  24  27
ENDBRANCH   1  23
TORSDOF 9
ENDMDL
MODEL 6
REMARK VINA RESULT:      -8.5      2.832      4.099
REMARK  9 active torsions:
REMARK  status: ('A' for Active; 'I' for Inactive)
REMARK    1  A    between atoms: C_2  and  C_3 
REMARK    2  A    between atoms: C_3  and  C_4 
REMARK    3  A    between atoms: C_4  and  O_5 
REMARK    4  A    between atoms: O_5  and  C_6 
REMARK    5  A    between atoms: C_8  and  C_9 
REMARK       I    between atoms: C_9  and  N_10 
REMARK    6  A    between atoms: N_10  and  C_11 
REMARK    7  A    between atoms: N_12  and  C_13 
REMARK    8  A    between atoms: C_15  and  C_16 
REMARK    9  A    between atoms: C_25  and  O_26 
ROOT
HETATM    1  C   UNL     1      -2.347   4.927 -31.994  1.00  0.00     0.179 C 
HETATM    2  N   UNL     1      -2.587   3.672 -32.433  1.00  0.00    -0.333 N 
HETATM    3  S   UNL     1      -1.484   5.964 -32.989  1.00  0.00    -0.040 SA
HETATM    4  H   UNL     1      -1.978   3.403 -33.200  1.00  0.00     0.168 HD
ENDROOT
BRANCH   2   5
HETATM    5  C   UNL     1      -3.613   2.746 -32.149  1.00  0.00     0.035 A 
HETATM    6  C   UNL     1      -3.661   1.449 -32.659  1.00  0.00     0.048 A 
HETATM    7  C   UNL     1      -4.740   0.592 -32.384  1.00  0.00     0.053 A 
HETATM    8  C   UNL     1      -5.734   1.032 -31.492  1.00  0.00     0.086 A 
HETATM    9  C   UNL     1      -5.672   2.304 -30.909  1.00  0.00    -0.026 A 
HETATM   10  C   UNL     1      -6.699   2.756 -29.911  1.00  0.00     0.051 C 
HETATM   11  C   UNL     1      -4.605   3.150 -31.246  1.00  0.00     0.039 A 
BRANCH   7  12
HETATM   12  C   UNL     1      -4.842  -0.709 -33.039  1.00  0.00     0.183 A 
HETATM   13  O   UNL     1      -6.043  -1.029 -33.621  1.00  0.00    -0.289 OA
HETATM   14  C   UNL     1      -5.865  -2.307 -34.060  1.00  0.00     0.106 A 
HETATM   15  C   UNL     1      -4.574  -2.692 -33.736  1.00  0.00     0.093 A 
HETATM   16  C   UNL     1      -6.794  -3.112 -34.708  1.00  0.00     0.040 A 
HETATM   17  N   UNL     1      -3.923  -1.661 -33.104  1.00  0.00    -0.221 NA
HETATM   18  C   UNL     1      -4.150  -3.984 -34.068  1.00  0.00     0.034 A 
HETATM   19  C   UNL     1      -5.059  -4.832 -34.719  1.00  0.00     0.002 A 
HETATM   20  C   UNL     1      -6.355  -4.400 -35.034  1.00  0.00     0.003 A 
ENDBRANCH   7  12
BRANCH   8  21
HETATM   21  O   UNL     1      -6.803   0.238 -31.150  1.00  0.00    -0.359 OA
HETATM   22  H   UNL     1      -7.566   0.815 -30.934  1.00  0.00     0.218 HD
ENDBRANCH   8  21
ENDBRANCH   2   5
BRANCH   1  23
HETATM   23  N   UNL     1      -2.762   5.405 -30.791  1.00  0.00    -0.299 N 
HETATM   24  C   UNL     1      -3.641   6.443 -30.491  1.00  0.00     0.257 C 
HETATM   25  O   UNL     1      -4.436   6.937 -31.280  1.00  0.00    -0.267 OA
HETATM   26  H   UNL     1      -2.618   4.742 -30.040  1.00  0.00     0.171 HD
BRANCH  24  27
HETATM   27  C   UNL     1      -3.622   6.889 -29.065  1.00  0.00     0.035 A 
HETATM   28  C   UNL     1      -2.391   7.149 -28.450  1.00  0.00     0.053 A 
HETATM   29  C   UNL     1      -2.331   7.534 -27.107  1.00  0.00     0.069 A 
HETATM   30  C   UNL     1      -3.514   7.663 -26.376  1.00  0.00     0.037 A 
HETATM   31  C   UNL     1      -4.745   7.391 -26.977  1.00  0.00     0.004 A 
HETATM   32  C   UNL     1      -4.801   6.996 -28.313  1.00  0.00     0.017 A 
BRANCH  29  33
HETATM   33  O   UNL     1      -1.069   7.756 -26.625  1.00  0.00    -0.351 OA
BRANCH  33  34
HETATM   34  C   UNL     1      -0.151   6.665 -26.686  1.00  0.00     0.175 C 
BRANCH  34  35
HETATM   35  C   UNL     1       1.092   7.093 -27.465  1.00  0.00     0.026 C 
BRANCH  35  36
HETATM   36  C   UNL     1       1.534   8.516 -27.120  1.00  0.00    -0.002 C 
HETATM   37  C   UNL     1       2.256   8.560 -25.782  1.00  0.00     0.005 C 
ENDBRANCH  35  36
ENDBRANCH  34  35
ENDBRANCH  33  34
ENDBRANCH  29  33
ENDBRANCH  24  27
ENDBRANCH   1  23
TORSDOF 9
ENDMDL
MODEL 7
REMARK VINA RESULT:      -8.4      2.867      5.229
REMARK  9 active torsions:
REMARK  status: ('A' for Active; 'I' for Inactive)
REMARK    1  A    between atoms: C_2  and  C_3 
REMARK    2  A    between atoms: C_3  and  C_4 
REMARK    3  A    between atoms: C_4  and  O_5 
REMARK    4  A    between atoms: O_5  and  C_6 
REMARK    5  A    between atoms: C_8  and  C_9 
REMARK       I    between atoms: C_9  and  N_10 
REMARK    6  A    between atoms: N_10  and  C_11 
REMARK    7  A    between atoms: N_12  and  C_13 
REMARK    8  A    between atoms: C_15  and  C_16 
REMARK    9  A    between atoms: C_25  and  O_26 
ROOT
HETATM    1  C   UNL     1      -2.376   4.987 -31.696  1.00  0.00     0.179 C 
HETATM    2  N   UNL     1      -2.591   3.728 -31.256  1.00  0.00    -0.333 N 
HETATM    3  S   UNL     1      -0.817   5.419 -32.137  1.00  0.00    -0.040 SA
HETATM    4  H   UNL     1      -1.734   3.261 -30.975  1.00  0.00     0.168 HD
ENDROOT
BRANCH   2   5
HETATM    5  C   UNL     1      -3.732   2.898 -31.274  1.00  0.00     0.035 A 
HETATM    6  C   UNL     1      -3.783   1.652 -31.898  1.00  0.00     0.048 A 
HETATM    7  C   UNL     1      -4.967   0.895 -31.929  1.00  0.00     0.053 A 
HETATM    8  C   UNL     1      -6.086   1.374 -31.225  1.00  0.00     0.086 A 
HETATM    9  C   UNL     1      -6.038   2.589 -30.529  1.00  0.00    -0.026 A 
HETATM   10  C   UNL     1      -7.211   3.076 -29.727  1.00  0.00     0.051 C 
HETATM   11  C   UNL     1      -4.854   3.340 -30.562  1.00  0.00     0.039 A 
BRANCH   7  12
HETATM   12  C   UNL     1      -5.040  -0.339 -32.705  1.00  0.00     0.183 A 
HETATM   13  O   UNL     1      -6.242  -0.642 -33.295  1.00  0.00    -0.289 OA
HETATM   14  C   UNL     1      -6.033  -1.864 -33.859  1.00  0.00     0.106 A 
HETATM   15  C   UNL     1      -4.724  -2.235 -33.596  1.00  0.00     0.093 A 
HETATM   16  C   UNL     1      -6.948  -2.634 -34.566  1.00  0.00     0.040 A 
HETATM   17  N   UNL     1      -4.093  -1.249 -32.878  1.00  0.00    -0.221 NA
HETATM   18  C   UNL     1      -4.266  -3.474 -34.059  1.00  0.00     0.034 A 
HETATM   19  C   UNL     1      -5.160  -4.286 -34.774  1.00  0.00     0.002 A 
HETATM   20  C   UNL     1      -6.475  -3.869 -35.023  1.00  0.00     0.003 A 
ENDBRANCH   7  12
BRANCH   8  21
HETATM   21  O   UNL     1      -7.269   0.675 -31.183  1.00  0.00    -0.359 OA
HETATM   22  H   UNL     1      -7.960   1.200 -31.640  1.00  0.00     0.218 HD
ENDBRANCH   8  21
ENDBRANCH   2   5
BRANCH   1  23
HETATM   23  N   UNL     1      -3.348   5.933 -31.804  1.00  0.00    -0.299 N 
HETATM   24  C   UNL     1      -3.633   7.026 -30.990  1.00  0.00     0.257 C 
HETATM   25  O   UNL     1      -2.862   7.506 -30.168  1.00  0.00    -0.267 OA
HETATM   26  H   UNL     1      -3.730   5.990 -32.739  1.00  0.00     0.171 HD
BRANCH  24  27
HETATM   27  C   UNL     1      -4.960   7.666 -31.240  1.00  0.00     0.035 A 
HETATM   28  C   UNL     1      -5.968   6.920 -31.863  1.00  0.00     0.053 A 
HETATM   29  C   UNL     1      -7.211   7.496 -32.145  1.00  0.00     0.069 A 
HETATM   30  C   UNL     1      -7.445   8.828 -31.798  1.00  0.00     0.037 A 
HETATM   31  C   UNL     1      -6.440   9.584 -31.191  1.00  0.00     0.004 A 
HETATM   32  C   UNL     1      -5.198   9.010 -30.920  1.00  0.00     0.017 A 
BRANCH  29  33
HETATM   33  O   UNL     1      -8.107   6.662 -32.757  1.00  0.00    -0.351 OA
BRANCH  33  34
HETATM   34  C   UNL     1      -7.970   5.264 -32.506  1.00  0.00     0.175 C 
BRANCH  34  35
HETATM   35  C   UNL     1      -7.988   4.507 -33.834  1.00  0.00     0.026 C 
BRANCH  35  36
HETATM   36  C   UNL     1      -6.804   3.549 -33.973  1.00  0.00    -0.002 C 
HETATM   37  C   UNL     1      -5.512   4.303 -34.248  1.00  0.00     0.005 C 
ENDBRANCH  35  36
ENDBRANCH  34  35
ENDBRANCH  33  34
ENDBRANCH  29  33
ENDBRANCH  24  27
ENDBRANCH   1  23
TORSDOF 9
ENDMDL
MODEL 8
REMARK VINA RESULT:      -8.3      3.198      4.774
REMARK  9 active torsions:
REMARK  status: ('A' for Active; 'I' for Inactive)
REMARK    1  A    between atoms: C_2  and  C_3 
REMARK    2  A    between atoms: C_3  and  C_4 
REMARK    3  A    between atoms: C_4  and  O_5 
REMARK    4  A    between atoms: O_5  and  C_6 
REMARK    5  A    between atoms: C_8  and  C_9 
REMARK       I    between atoms: C_9  and  N_10 
REMARK    6  A    between atoms: N_10  and  C_11 
REMARK    7  A    between atoms: N_12  and  C_13 
REMARK    8  A    between atoms: C_15  and  C_16 
REMARK    9  A    between atoms: C_25  and  O_26 
ROOT
HETATM    1  C   UNL     1      -3.985   1.488 -31.141  1.00  0.00     0.179 C 
HETATM    2  N   UNL     1      -5.178   1.424 -30.510  1.00  0.00    -0.333 N 
HETATM    3  S   UNL     1      -3.199   0.051 -31.502  1.00  0.00    -0.040 SA
HETATM    4  H   UNL     1      -5.339   0.523 -30.071  1.00  0.00     0.168 HD
ENDROOT
BRANCH   2   5
HETATM    5  C   UNL     1      -6.289   2.293 -30.490  1.00  0.00     0.035 A 
HETATM    6  C   UNL     1      -7.416   2.141 -31.297  1.00  0.00     0.048 A 
HETATM    7  C   UNL     1      -8.468   3.072 -31.272  1.00  0.00     0.053 A 
HETATM    8  C   UNL     1      -8.413   4.119 -30.334  1.00  0.00     0.086 A 
HETATM    9  C   UNL     1      -7.326   4.251 -29.461  1.00  0.00    -0.026 A 
HETATM   10  C   UNL     1      -7.290   5.332 -28.417  1.00  0.00     0.051 C 
HETATM   11  C   UNL     1      -6.271   3.331 -29.549  1.00  0.00     0.039 A 
BRANCH   7  12
HETATM   12  C   UNL     1      -9.571   2.974 -32.222  1.00  0.00     0.183 A 
HETATM   13  O   UNL     1     -10.120   1.732 -32.424  1.00  0.00    -0.289 OA
HETATM   14  C   UNL     1     -11.042   1.936 -33.406  1.00  0.00     0.106 A 
HETATM   15  C   UNL     1     -11.017   3.280 -33.741  1.00  0.00     0.093 A 
HETATM   16  C   UNL     1     -11.868   0.987 -33.996  1.00  0.00     0.040 A 
HETATM   17  N   UNL     1     -10.091   3.937 -32.968  1.00  0.00    -0.221 NA
HETATM   18  C   UNL     1     -11.869   3.743 -34.750  1.00  0.00     0.034 A 
HETATM   19  C   UNL     1     -12.717   2.816 -35.377  1.00  0.00     0.002 A 
HETATM   20  C   UNL     1     -12.716   1.465 -35.002  1.00  0.00     0.003 A 
ENDBRANCH   7  12
BRANCH   8  21
HETATM   21  O   UNL     1      -9.419   5.050 -30.227  1.00  0.00    -0.359 OA
HETATM   22  H   UNL     1      -9.138   5.868 -30.687  1.00  0.00     0.218 HD
ENDBRANCH   8  21
ENDBRANCH   2   5
BRANCH   1  23
HETATM   23  N   UNL     1      -3.377   2.649 -31.506  1.00  0.00    -0.299 N 
HETATM   24  C   UNL     1      -3.639   3.503 -32.574  1.00  0.00     0.257 C 
HETATM   25  O   UNL     1      -4.673   3.509 -33.229  1.00  0.00    -0.267 OA
HETATM   26  H   UNL     1      -2.856   3.067 -30.746  1.00  0.00     0.171 HD
BRANCH  24  27
HETATM   27  C   UNL     1      -2.574   4.518 -32.841  1.00  0.00     0.035 A 
HETATM   28  C   UNL     1      -1.913   5.111 -31.758  1.00  0.00     0.053 A 
HETATM   29  C   UNL     1      -0.936   6.089 -31.967  1.00  0.00     0.069 A 
HETATM   30  C   UNL     1      -0.617   6.474 -33.271  1.00  0.00     0.037 A 
HETATM   31  C   UNL     1      -1.282   5.899 -34.357  1.00  0.00     0.004 A 
HETATM   32  C   UNL     1      -2.264   4.930 -34.144  1.00  0.00     0.017 A 
BRANCH  29  33
HETATM   33  O   UNL     1      -0.369   6.591 -30.827  1.00  0.00    -0.351 OA
BRANCH  33  34
HETATM   34  C   UNL     1      -0.173   5.681 -29.745  1.00  0.00     0.175 C 
BRANCH  34  35
HETATM   35  C   UNL     1       0.672   6.356 -28.664  1.00  0.00     0.026 C 
BRANCH  35  36
HETATM   36  C   UNL     1       0.682   7.879 -28.801  1.00  0.00    -0.002 C 
HETATM   37  C   UNL     1       1.531   8.525 -27.717  1.00  0.00     0.005 C 
ENDBRANCH  35  36
ENDBRANCH  34  35
ENDBRANCH  33  34
ENDBRANCH  29  33
ENDBRANCH  24  27
ENDBRANCH   1  23
TORSDOF 9
ENDMDL
MODEL 9
REMARK VINA RESULT:      -8.3      3.100      4.884
REMARK  9 active torsions:
REMARK  status: ('A' for Active; 'I' for Inactive)
REMARK    1  A    between atoms: C_2  and  C_3 
REMARK    2  A    between atoms: C_3  and  C_4 
REMARK    3  A    between atoms: C_4  and  O_5 
REMARK    4  A    between atoms: O_5  and  C_6 
REMARK    5  A    between atoms: C_8  and  C_9 
REMARK       I    between atoms: C_9  and  N_10 
REMARK    6  A    between atoms: N_10  and  C_11 
REMARK    7  A    between atoms: N_12  and  C_13 
REMARK    8  A    between atoms: C_15  and  C_16 
REMARK    9  A    between atoms: C_25  and  O_26 
ROOT
HETATM    1  C   UNL     1      -2.029   5.818 -32.419  1.00  0.00     0.179 C 
HETATM    2  N   UNL     1      -2.585   4.689 -32.910  1.00  0.00    -0.333 N 
HETATM    3  S   UNL     1      -1.793   7.107 -33.465  1.00  0.00    -0.040 SA
HETATM    4  H   UNL     1      -2.543   4.642 -33.924  1.00  0.00     0.168 HD
ENDROOT
BRANCH   2   5
HETATM    5  C   UNL     1      -3.347   3.665 -32.308  1.00  0.00     0.035 A 
HETATM    6  C   UNL     1      -3.122   2.303 -32.505  1.00  0.00     0.048 A 
HETATM    7  C   UNL     1      -3.951   1.330 -31.920  1.00  0.00     0.053 A 
HETATM    8  C   UNL     1      -4.962   1.754 -31.040  1.00  0.00     0.086 A 
HETATM    9  C   UNL     1      -5.162   3.114 -30.769  1.00  0.00    -0.026 A 
HETATM   10  C   UNL     1      -6.202   3.569 -29.784  1.00  0.00     0.051 C 
HETATM   11  C   UNL     1      -4.346   4.058 -31.409  1.00  0.00     0.039 A 
BRANCH   7  12
HETATM   12  C   UNL     1      -3.787  -0.082 -32.250  1.00  0.00     0.183 A 
HETATM   13  O   UNL     1      -4.331  -0.520 -33.431  1.00  0.00    -0.289 OA
HETATM   14  C   UNL     1      -4.102  -1.863 -33.421  1.00  0.00     0.106 A 
HETATM   15  C   UNL     1      -3.426  -2.170 -32.251  1.00  0.00     0.093 A 
HETATM   16  C   UNL     1      -4.475  -2.789 -34.387  1.00  0.00     0.040 A 
HETATM   17  N   UNL     1      -3.212  -1.027 -31.521  1.00  0.00    -0.221 NA
HETATM   18  C   UNL     1      -3.089  -3.504 -31.993  1.00  0.00     0.034 A 
HETATM   19  C   UNL     1      -3.453  -4.473 -32.941  1.00  0.00     0.002 A 
HETATM   20  C   UNL     1      -4.130  -4.119 -34.116  1.00  0.00     0.003 A 
ENDBRANCH   7  12
BRANCH   8  21
HETATM   21  O   UNL     1      -5.793   0.861 -30.406  1.00  0.00    -0.359 OA
HETATM   22  H   UNL     1      -6.093   0.195 -31.059  1.00  0.00     0.218 HD
ENDBRANCH   8  21
ENDBRANCH   2   5
BRANCH   1  23
HETATM   23  N   UNL     1      -1.646   5.977 -31.124  1.00  0.00    -0.299 N 
HETATM   24  C   UNL     1      -2.148   6.821 -30.136  1.00  0.00     0.257 C 
HETATM   25  O   UNL     1      -3.236   7.380 -30.179  1.00  0.00    -0.267 OA
HETATM   26  H   UNL     1      -1.114   5.189 -30.778  1.00  0.00     0.171 HD
BRANCH  24  27
HETATM   27  C   UNL     1      -1.283   6.950 -28.924  1.00  0.00     0.035 A 
HETATM   28  C   UNL     1      -1.841   7.450 -27.740  1.00  0.00     0.053 A 
HETATM   29  C   UNL     1      -1.056   7.617 -26.596  1.00  0.00     0.069 A 
HETATM   30  C   UNL     1       0.298   7.278 -26.636  1.00  0.00     0.037 A 
HETATM   31  C   UNL     1       0.867   6.793 -27.817  1.00  0.00     0.004 A 
HETATM   32  C   UNL     1       0.083   6.638 -28.960  1.00  0.00     0.017 A 
BRANCH  29  33
HETATM   33  O   UNL     1      -1.720   8.115 -25.508  1.00  0.00    -0.351 OA
BRANCH  33  34
HETATM   34  C   UNL     1      -2.470   9.314 -25.698  1.00  0.00     0.175 C 
BRANCH  34  35
HETATM   35  C   UNL     1      -2.243  10.247 -24.509  1.00  0.00     0.026 C 
BRANCH  35  36
HETATM   36  C   UNL     1      -1.611   9.526 -23.317  1.00  0.00    -0.002 C 
HETATM   37  C   UNL     1      -0.264  10.133 -22.955  1.00  0.00     0.005 C 
ENDBRANCH  35  36
ENDBRANCH  34  35
ENDBRANCH  33  34
ENDBRANCH  29  33
ENDBRANCH  24  27
ENDBRANCH   1  23
TORSDOF 9
ENDMDL
MODEL 10
REMARK VINA RESULT:      -8.2      3.279     10.173
REMARK  9 active torsions:
REMARK  status: ('A' for Active; 'I' for Inactive)
REMARK    1  A    between atoms: C_2  and  C_3 
REMARK    2  A    between atoms: C_3  and  C_4 
REMARK    3  A    between atoms: C_4  and  O_5 
REMARK    4  A    between atoms: O_5  and  C_6 
REMARK    5  A    between atoms: C_8  and  C_9 
REMARK       I    between atoms: C_9  and  N_10 
REMARK    6  A    between atoms: N_10  and  C_11 
REMARK    7  A    between atoms: N_12  and  C_13 
REMARK    8  A    between atoms: C_15  and  C_16 
REMARK    9  A    between atoms: C_25  and  O_26 
ROOT
HETATM    1  C   UNL     1      -3.339   5.239 -33.486  1.00  0.00     0.179 C 
HETATM    2  N   UNL     1      -2.628   6.207 -32.867  1.00  0.00    -0.333 N 
HETATM    3  S   UNL     1      -3.575   5.363 -35.142  1.00  0.00    -0.040 SA
HETATM    4  H   UNL     1      -2.551   7.051 -33.424  1.00  0.00     0.168 HD
ENDROOT
BRANCH   2   5
HETATM    5  C   UNL     1      -1.847   6.206 -31.692  1.00  0.00     0.035 A 
HETATM    6  C   UNL     1      -2.224   6.828 -30.502  1.00  0.00     0.048 A 
HETATM    7  C   UNL     1      -1.376   6.841 -29.381  1.00  0.00     0.053 A 
HETATM    8  C   UNL     1      -0.170   6.122 -29.445  1.00  0.00     0.086 A 
HETATM    9  C   UNL     1       0.198   5.428 -30.605  1.00  0.00    -0.026 A 
HETATM   10  C   UNL     1       1.456   4.609 -30.659  1.00  0.00     0.051 C 
HETATM   11  C   UNL     1      -0.651   5.478 -31.721  1.00  0.00     0.039 A 
BRANCH   7  12
HETATM   12  C   UNL     1      -1.726   7.615 -28.193  1.00  0.00     0.183 A 
HETATM   13  O   UNL     1      -1.860   6.930 -27.012  1.00  0.00    -0.289 OA
HETATM   14  C   UNL     1      -2.269   7.880 -26.125  1.00  0.00     0.106 A 
HETATM   15  C   UNL     1      -2.351   9.087 -26.802  1.00  0.00     0.093 A 
HETATM   16  C   UNL     1      -2.570   7.704 -24.780  1.00  0.00     0.040 A 
HETATM   17  N   UNL     1      -1.984   8.912 -28.114  1.00  0.00    -0.221 NA
HETATM   18  C   UNL     1      -2.773  10.226 -26.107  1.00  0.00     0.034 A 
HETATM   19  C   UNL     1      -3.092  10.091 -24.747  1.00  0.00     0.002 A 
HETATM   20  C   UNL     1      -2.988   8.852 -24.098  1.00  0.00     0.003 A 
ENDBRANCH   7  12
BRANCH   8  21
HETATM   21  O   UNL     1       0.696   6.061 -28.379  1.00  0.00    -0.359 OA
HETATM   22  H   UNL     1       1.076   5.159 -28.334  1.00  0.00     0.218 HD
ENDBRANCH   8  21
ENDBRANCH   2   5
BRANCH   1  23
HETATM   23  N   UNL     1      -3.879   4.165 -32.850  1.00  0.00    -0.299 N 
HETATM   24  C   UNL     1      -4.631   4.098 -31.679  1.00  0.00     0.257 C 
HETATM   25  O   UNL     1      -5.196   5.049 -31.155  1.00  0.00    -0.267 OA
HETATM   26  H   UNL     1      -3.966   3.360 -33.456  1.00  0.00     0.171 HD
BRANCH  24  27
HETATM   27  C   UNL     1      -4.790   2.724 -31.114  1.00  0.00     0.035 A 
HETATM   28  C   UNL     1      -3.909   1.714 -31.520  1.00  0.00     0.053 A 
HETATM   29  C   UNL     1      -4.048   0.409 -31.039  1.00  0.00     0.069 A 
HETATM   30  C   UNL     1      -5.077   0.113 -30.142  1.00  0.00     0.037 A 
HETATM   31  C   UNL     1      -5.971   1.110 -29.744  1.00  0.00     0.004 A 
HETATM   32  C   UNL     1      -5.835   2.409 -30.233  1.00  0.00     0.017 A 
BRANCH  29  33
HETATM   33  O   UNL     1      -3.125  -0.483 -31.515  1.00  0.00    -0.351 OA
BRANCH  33  34
HETATM   34  C   UNL     1      -3.624  -1.700 -32.069  1.00  0.00     0.175 C 
BRANCH  34  35
HETATM   35  C   UNL     1      -4.057  -1.456 -33.515  1.00  0.00     0.026 C 
BRANCH  35  36
HETATM   36  C   UNL     1      -5.577  -1.496 -33.681  1.00  0.00    -0.002 C 
HETATM   37  C   UNL     1      -6.131  -0.123 -34.029  1.00  0.00     0.005 C 
ENDBRANCH  35  36
ENDBRANCH  34  35
ENDBRANCH  33  34
ENDBRANCH  29  33
ENDBRANCH  24  27
ENDBRANCH   1  23
TORSDOF 9
ENDMDL
