MODEL 1
REMARK VINA RESULT:      -8.2      0.000      0.000
REMARK  5 active torsions:
REMARK  status: ('A' for Active; 'I' for Inactive)
REMARK    1  A    between atoms: C_11  and  N_12 
REMARK       I    between atoms: N_12  and  C_13 
REMARK       I    between atoms: C_13  and  N_14 
REMARK    2  A    between atoms: N_14  and  C_15 
REMARK    3  A    between atoms: C_15  and  C_16 
REMARK    4  A    between atoms: C_16  and  N_17 
REMARK    5  A    between atoms: C_16  and  C_21 
ROOT
HETATM    1  N   UNL     1      -5.578   2.310 -31.436  1.00  0.00    -0.309 N 
HETATM    2  C   UNL     1      -5.196   3.600 -31.606  1.00  0.00     0.320 C 
HETATM    3  N   UNL     1      -3.907   3.860 -31.927  1.00  0.00    -0.341 N 
HETATM    4  O   UNL     1      -6.011   4.510 -31.451  1.00  0.00    -0.247 OA
HETATM    5  H   UNL     1      -6.516   2.249 -31.051  1.00  0.00     0.170 HD
HETATM    6  H   UNL     1      -3.267   3.179 -31.534  1.00  0.00     0.164 HD
ENDROOT
BRANCH   1   7
HETATM    7  C   UNL     1      -4.957   1.072 -31.697  1.00  0.00     0.038 A 
HETATM    8  C   UNL     1      -3.800   0.607 -31.080  1.00  0.00     0.032 A 
HETATM    9  C   UNL     1      -3.299  -0.663 -31.395  1.00  0.00     0.036 A 
HETATM   10  C   UNL     1      -3.910  -1.472 -32.342  1.00  0.00     0.086 A 
HETATM   11  N   UNL     1      -3.407  -2.690 -32.604  1.00  0.00    -0.250 NA
HETATM   12  C   UNL     1      -5.046  -0.984 -33.017  1.00  0.00     0.088 A 
HETATM   13  C   UNL     1      -4.033  -3.428 -33.558  1.00  0.00     0.055 A 
HETATM   14  C   UNL     1      -3.466  -4.790 -33.828  1.00  0.00     0.072 C 
HETATM   15  C   UNL     1      -5.140  -2.934 -34.248  1.00  0.00     0.055 A 
HETATM   16  N   UNL     1      -5.657  -1.710 -33.970  1.00  0.00    -0.250 NA
HETATM   17  C   UNL     1      -5.820  -3.718 -35.328  1.00  0.00     0.072 C 
HETATM   18  C   UNL     1      -5.546   0.270 -32.685  1.00  0.00     0.063 A 
ENDBRANCH   1   7
BRANCH   3  19
HETATM   19  C   UNL     1      -3.336   5.197 -32.104  1.00  0.00     0.163 C 
BRANCH  19  20
HETATM   20  C   UNL     1      -1.786   5.298 -32.323  1.00  0.00     0.244 C 
BRANCH  20  21
HETATM   21  N   UNL     1      -1.437   5.852 -33.709  1.00  0.00    -0.068 N 
HETATM   22  H   UNL     1      -0.396   5.854 -33.706  1.00  0.00     0.279 HD
HETATM   23  C   UNL     1      -1.845   5.040 -34.894  1.00  0.00     0.270 C 
HETATM   24  C   UNL     1      -1.813   7.296 -33.876  1.00  0.00     0.270 C 
ENDBRANCH  20  21
BRANCH  20  25
HETATM   25  C   UNL     1      -1.115   6.053 -31.198  1.00  0.00     0.015 A 
HETATM   26  S   UNL     1      -2.091   6.860 -30.031  1.00  0.00    -0.104 SA
HETATM   27  C   UNL     1      -0.729   7.426 -29.176  1.00  0.00     0.050 A 
HETATM   28  C   UNL     1       0.450   7.028 -29.763  1.00  0.00     0.008 A 
HETATM   29  C   UNL     1       0.230   6.240 -30.931  1.00  0.00     0.017 A 
ENDBRANCH  20  25
ENDBRANCH  19  20
ENDBRANCH   3  19
TORSDOF 5
ENDMDL
MODEL 2
REMARK VINA RESULT:      -8.1      2.263      3.439
REMARK  5 active torsions:
REMARK  status: ('A' for Active; 'I' for Inactive)
REMARK    1  A    between atoms: C_11  and  N_12 
REMARK       I    between atoms: N_12  and  C_13 
REMARK       I    between atoms: C_13  and  N_14 
REMARK    2  A    between atoms: N_14  and  C_15 
REMARK    3  A    between atoms: C_15  and  C_16 
REMARK    4  A    between atoms: C_16  and  N_17 
REMARK    5  A    between atoms: C_16  and  C_21 
ROOT
HETATM    1  N   UNL     1      -7.641   1.723 -33.418  1.00  0.00    -0.309 N 
HETATM    2  C   UNL     1      -7.251   3.008 -33.604  1.00  0.00     0.320 C 
HETATM    3  N   UNL     1      -5.990   3.249 -34.036  1.00  0.00    -0.341 N 
HETATM    4  O   UNL     1      -8.030   3.931 -33.366  1.00  0.00    -0.247 OA
HETATM    5  H   UNL     1      -8.542   1.673 -32.951  1.00  0.00     0.170 HD
HETATM    6  H   UNL     1      -5.331   2.551 -33.711  1.00  0.00     0.164 HD
ENDROOT
BRANCH   1   7
HETATM    7  C   UNL     1      -7.070   0.477 -33.749  1.00  0.00     0.038 A 
HETATM    8  C   UNL     1      -7.473  -0.336 -34.803  1.00  0.00     0.032 A 
HETATM    9  C   UNL     1      -6.800  -1.538 -35.059  1.00  0.00     0.036 A 
HETATM   10  C   UNL     1      -5.750  -1.967 -34.261  1.00  0.00     0.086 A 
HETATM   11  N   UNL     1      -5.120  -3.119 -34.549  1.00  0.00    -0.250 NA
HETATM   12  C   UNL     1      -5.376  -1.181 -33.154  1.00  0.00     0.088 A 
HETATM   13  C   UNL     1      -4.115  -3.501 -33.719  1.00  0.00     0.055 A 
HETATM   14  C   UNL     1      -3.415  -4.781 -34.063  1.00  0.00     0.072 C 
HETATM   15  C   UNL     1      -3.763  -2.738 -32.606  1.00  0.00     0.055 A 
HETATM   16  N   UNL     1      -4.389  -1.566 -32.326  1.00  0.00    -0.250 NA
HETATM   17  C   UNL     1      -2.682  -3.162 -31.659  1.00  0.00     0.072 C 
HETATM   18  C   UNL     1      -6.038   0.019 -32.919  1.00  0.00     0.063 A 
ENDBRANCH   1   7
BRANCH   3  19
HETATM   19  C   UNL     1      -5.412   4.578 -34.246  1.00  0.00     0.163 C 
BRANCH  19  20
HETATM   20  C   UNL     1      -4.605   5.211 -33.059  1.00  0.00     0.244 C 
BRANCH  20  21
HETATM   21  N   UNL     1      -4.582   4.296 -31.829  1.00  0.00    -0.068 N 
HETATM   22  H   UNL     1      -5.336   3.608 -32.034  1.00  0.00     0.279 HD
HETATM   23  C   UNL     1      -3.343   3.495 -31.595  1.00  0.00     0.270 C 
HETATM   24  C   UNL     1      -5.036   4.986 -30.576  1.00  0.00     0.270 C 
ENDBRANCH  20  21
BRANCH  20  25
HETATM   25  C   UNL     1      -3.226   5.649 -33.497  1.00  0.00     0.015 A 
HETATM   26  S   UNL     1      -2.482   6.987 -32.710  1.00  0.00    -0.104 SA
HETATM   27  C   UNL     1      -1.083   6.873 -33.678  1.00  0.00     0.050 A 
HETATM   28  C   UNL     1      -1.173   5.851 -34.595  1.00  0.00     0.008 A 
HETATM   29  C   UNL     1      -2.409   5.146 -34.495  1.00  0.00     0.017 A 
ENDBRANCH  20  25
ENDBRANCH  19  20
ENDBRANCH   3  19
TORSDOF 5
ENDMDL
MODEL 3
REMARK VINA RESULT:      -7.9      3.843      6.061
REMARK  5 active torsions:
REMARK  status: ('A' for Active; 'I' for Inactive)
REMARK    1  A    between atoms: C_11  and  N_12 
REMARK       I    between atoms: N_12  and  C_13 
REMARK       I    between atoms: C_13  and  N_14 
REMARK    2  A    between atoms: N_14  and  C_15 
REMARK    3  A    between atoms: C_15  and  C_16 
REMARK    4  A    between atoms: C_16  and  N_17 
REMARK    5  A    between atoms: C_16  and  C_21 
ROOT
HETATM    1  N   UNL     1      -4.836   2.691 -32.114  1.00  0.00    -0.309 N 
HETATM    2  C   UNL     1      -5.833   3.305 -31.431  1.00  0.00     0.320 C 
HETATM    3  N   UNL     1      -6.742   2.543 -30.779  1.00  0.00    -0.341 N 
HETATM    4  O   UNL     1      -5.910   4.534 -31.426  1.00  0.00    -0.247 OA
HETATM    5  H   UNL     1      -4.314   3.351 -32.683  1.00  0.00     0.170 HD
HETATM    6  H   UNL     1      -6.904   1.656 -31.242  1.00  0.00     0.164 HD
ENDROOT
BRANCH   1   7
HETATM    7  C   UNL     1      -4.381   1.358 -32.178  1.00  0.00     0.038 A 
HETATM    8  C   UNL     1      -3.325   0.833 -31.438  1.00  0.00     0.032 A 
HETATM    9  C   UNL     1      -2.991  -0.521 -31.557  1.00  0.00     0.036 A 
HETATM   10  C   UNL     1      -3.666  -1.363 -32.428  1.00  0.00     0.086 A 
HETATM   11  N   UNL     1      -3.324  -2.661 -32.502  1.00  0.00    -0.250 NA
HETATM   12  C   UNL     1      -4.695  -0.827 -33.227  1.00  0.00     0.088 A 
HETATM   13  C   UNL     1      -4.003  -3.432 -33.390  1.00  0.00     0.055 A 
HETATM   14  C   UNL     1      -3.618  -4.880 -33.449  1.00  0.00     0.072 C 
HETATM   15  C   UNL     1      -5.002  -2.896 -34.203  1.00  0.00     0.055 A 
HETATM   16  N   UNL     1      -5.359  -1.588 -34.115  1.00  0.00    -0.250 NA
HETATM   17  C   UNL     1      -5.738  -3.723 -35.213  1.00  0.00     0.072 C 
HETATM   18  C   UNL     1      -5.032   0.515 -33.088  1.00  0.00     0.063 A 
ENDBRANCH   1   7
BRANCH   3  19
HETATM   19  C   UNL     1      -7.893   3.057 -30.033  1.00  0.00     0.163 C 
BRANCH  19  20
HETATM   20  C   UNL     1      -9.313   2.853 -30.667  1.00  0.00     0.244 C 
BRANCH  20  21
HETATM   21  N   UNL     1      -9.998   4.188 -30.982  1.00  0.00    -0.068 N 
HETATM   22  H   UNL     1      -9.859   4.286 -32.010  1.00  0.00     0.279 HD
HETATM   23  C   UNL     1     -11.472   4.272 -30.754  1.00  0.00     0.270 C 
HETATM   24  C   UNL     1      -9.281   5.368 -30.395  1.00  0.00     0.270 C 
ENDBRANCH  20  21
BRANCH  20  25
HETATM   25  C   UNL     1      -9.261   1.919 -31.855  1.00  0.00     0.015 A 
HETATM   26  S   UNL     1      -9.257   2.583 -33.443  1.00  0.00    -0.104 SA
HETATM   27  C   UNL     1      -9.196   1.040 -34.167  1.00  0.00     0.050 A 
HETATM   28  C   UNL     1      -9.191   0.032 -33.231  1.00  0.00     0.008 A 
HETATM   29  C   UNL     1      -9.233   0.536 -31.897  1.00  0.00     0.017 A 
ENDBRANCH  20  25
ENDBRANCH  19  20
ENDBRANCH   3  19
TORSDOF 5
ENDMDL
MODEL 4
REMARK VINA RESULT:      -7.8      1.188      2.041
REMARK  5 active torsions:
REMARK  status: ('A' for Active; 'I' for Inactive)
REMARK    1  A    between atoms: C_11  and  N_12 
REMARK       I    between atoms: N_12  and  C_13 
REMARK       I    between atoms: C_13  and  N_14 
REMARK    2  A    between atoms: N_14  and  C_15 
REMARK    3  A    between atoms: C_15  and  C_16 
REMARK    4  A    between atoms: C_16  and  N_17 
REMARK    5  A    between atoms: C_16  and  C_21 
ROOT
HETATM    1  N   UNL     1      -5.780   1.887 -30.687  1.00  0.00    -0.309 N 
HETATM    2  C   UNL     1      -5.258   3.131 -30.828  1.00  0.00     0.320 C 
HETATM    3  N   UNL     1      -4.793   3.507 -32.042  1.00  0.00    -0.341 N 
HETATM    4  O   UNL     1      -5.197   3.888 -29.859  1.00  0.00    -0.247 OA
HETATM    5  H   UNL     1      -5.952   1.666 -29.710  1.00  0.00     0.170 HD
HETATM    6  H   UNL     1      -4.419   2.727 -32.571  1.00  0.00     0.164 HD
ENDROOT
BRANCH   1   7
HETATM    7  C   UNL     1      -6.140   0.876 -31.600  1.00  0.00     0.038 A 
HETATM    8  C   UNL     1      -7.372   0.771 -32.239  1.00  0.00     0.032 A 
HETATM    9  C   UNL     1      -7.598  -0.259 -33.160  1.00  0.00     0.036 A 
HETATM   10  C   UNL     1      -6.631  -1.214 -33.437  1.00  0.00     0.086 A 
HETATM   11  N   UNL     1      -6.882  -2.178 -34.339  1.00  0.00    -0.250 NA
HETATM   12  C   UNL     1      -5.403  -1.152 -32.748  1.00  0.00     0.088 A 
HETATM   13  C   UNL     1      -5.907  -3.099 -34.551  1.00  0.00     0.055 A 
HETATM   14  C   UNL     1      -6.199  -4.159 -35.570  1.00  0.00     0.072 C 
HETATM   15  C   UNL     1      -4.702  -3.056 -33.849  1.00  0.00     0.055 A 
HETATM   16  N   UNL     1      -4.443  -2.072 -32.950  1.00  0.00    -0.250 NA
HETATM   17  C   UNL     1      -3.630  -4.084 -34.043  1.00  0.00     0.072 C 
HETATM   18  C   UNL     1      -5.181  -0.115 -31.849  1.00  0.00     0.063 A 
ENDBRANCH   1   7
BRANCH   3  19
HETATM   19  C   UNL     1      -4.167   4.797 -32.342  1.00  0.00     0.163 C 
BRANCH  19  20
HETATM   20  C   UNL     1      -2.681   4.780 -32.844  1.00  0.00     0.244 C 
BRANCH  20  21
HETATM   21  N   UNL     1      -2.530   5.454 -34.212  1.00  0.00    -0.068 N 
HETATM   22  H   UNL     1      -1.687   4.989 -34.611  1.00  0.00     0.279 HD
HETATM   23  C   UNL     1      -3.626   5.243 -35.204  1.00  0.00     0.270 C 
HETATM   24  C   UNL     1      -2.146   6.901 -34.115  1.00  0.00     0.270 C 
ENDBRANCH  20  21
BRANCH  20  25
HETATM   25  C   UNL     1      -1.738   5.338 -31.801  1.00  0.00     0.015 A 
HETATM   26  S   UNL     1      -2.372   6.318 -30.536  1.00  0.00    -0.104 SA
HETATM   27  C   UNL     1      -0.832   6.542 -29.839  1.00  0.00     0.050 A 
HETATM   28  C   UNL     1       0.155   5.900 -30.552  1.00  0.00     0.008 A 
HETATM   29  C   UNL     1      -0.365   5.209 -31.686  1.00  0.00     0.017 A 
ENDBRANCH  20  25
ENDBRANCH  19  20
ENDBRANCH   3  19
TORSDOF 5
ENDMDL
MODEL 5
REMARK VINA RESULT:      -7.6      2.817      8.760
REMARK  5 active torsions:
REMARK  status: ('A' for Active; 'I' for Inactive)
REMARK    1  A    between atoms: C_11  and  N_12 
REMARK       I    between atoms: N_12  and  C_13 
REMARK       I    between atoms: C_13  and  N_14 
REMARK    2  A    between atoms: N_14  and  C_15 
REMARK    3  A    between atoms: C_15  and  C_16 
REMARK    4  A    between atoms: C_16  and  N_17 
REMARK    5  A    between atoms: C_16  and  C_21 
ROOT
HETATM    1  N   UNL     1      -4.148   5.375 -33.630  1.00  0.00    -0.309 N 
HETATM    2  C   UNL     1      -5.134   4.457 -33.789  1.00  0.00     0.320 C 
HETATM    3  N   UNL     1      -5.044   3.284 -33.121  1.00  0.00    -0.341 N 
HETATM    4  O   UNL     1      -6.079   4.691 -34.544  1.00  0.00    -0.247 OA
HETATM    5  H   UNL     1      -4.244   6.140 -34.291  1.00  0.00     0.170 HD
HETATM    6  H   UNL     1      -4.084   2.991 -32.982  1.00  0.00     0.164 HD
ENDROOT
BRANCH   1   7
HETATM    7  C   UNL     1      -3.058   5.484 -32.743  1.00  0.00     0.038 A 
HETATM    8  C   UNL     1      -1.784   4.973 -32.969  1.00  0.00     0.032 A 
HETATM    9  C   UNL     1      -0.768   5.182 -32.027  1.00  0.00     0.036 A 
HETATM   10  C   UNL     1      -1.003   5.863 -30.842  1.00  0.00     0.086 A 
HETATM   11  N   UNL     1       0.002   6.055 -29.971  1.00  0.00    -0.250 NA
HETATM   12  C   UNL     1      -2.306   6.330 -30.576  1.00  0.00     0.088 A 
HETATM   13  C   UNL     1      -0.292   6.707 -28.817  1.00  0.00     0.055 A 
HETATM   14  C   UNL     1       0.845   6.925 -27.864  1.00  0.00     0.072 C 
HETATM   15  C   UNL     1      -1.587   7.144 -28.540  1.00  0.00     0.055 A 
HETATM   16  N   UNL     1      -2.599   6.965 -29.428  1.00  0.00    -0.250 NA
HETATM   17  C   UNL     1      -1.939   7.833 -27.257  1.00  0.00     0.072 C 
HETATM   18  C   UNL     1      -3.303   6.134 -31.525  1.00  0.00     0.063 A 
ENDBRANCH   1   7
BRANCH   3  19
HETATM   19  C   UNL     1      -6.006   2.183 -33.220  1.00  0.00     0.163 C 
BRANCH  19  20
HETATM   20  C   UNL     1      -5.717   0.894 -32.374  1.00  0.00     0.244 C 
BRANCH  20  21
HETATM   21  N   UNL     1      -6.582   0.832 -31.109  1.00  0.00    -0.068 N 
HETATM   22  H   UNL     1      -7.087  -0.072 -31.214  1.00  0.00     0.279 HD
HETATM   23  C   UNL     1      -5.872   0.759 -29.797  1.00  0.00     0.270 C 
HETATM   24  C   UNL     1      -7.669   1.867 -31.090  1.00  0.00     0.270 C 
ENDBRANCH  20  21
BRANCH  20  25
HETATM   25  C   UNL     1      -5.814  -0.357 -33.218  1.00  0.00     0.015 A 
HETATM   26  S   UNL     1      -4.404  -1.314 -33.462  1.00  0.00    -0.104 SA
HETATM   27  C   UNL     1      -5.246  -2.438 -34.430  1.00  0.00     0.050 A 
HETATM   28  C   UNL     1      -6.570  -2.096 -34.583  1.00  0.00     0.008 A 
HETATM   29  C   UNL     1      -6.899  -0.895 -33.888  1.00  0.00     0.017 A 
ENDBRANCH  20  25
ENDBRANCH  19  20
ENDBRANCH   3  19
TORSDOF 5
ENDMDL
MODEL 6
REMARK VINA RESULT:      -7.5      2.188      3.145
REMARK  5 active torsions:
REMARK  status: ('A' for Active; 'I' for Inactive)
REMARK    1  A    between atoms: C_11  and  N_12 
REMARK       I    between atoms: N_12  and  C_13 
REMARK       I    between atoms: C_13  and  N_14 
REMARK    2  A    between atoms: N_14  and  C_15 
REMARK    3  A    between atoms: C_15  and  C_16 
REMARK    4  A    between atoms: C_16  and  N_17 
REMARK    5  A    between atoms: C_16  and  C_21 
ROOT
HETATM    1  N   UNL     1      -7.385   2.888 -33.951  1.00  0.00    -0.309 N 
HETATM    2  C   UNL     1      -6.723   4.070 -33.994  1.00  0.00     0.320 C 
HETATM    3  N   UNL     1      -5.372   4.056 -34.077  1.00  0.00    -0.341 N 
HETATM    4  O   UNL     1      -7.348   5.130 -33.940  1.00  0.00    -0.247 OA
HETATM    5  H   UNL     1      -8.369   3.022 -33.736  1.00  0.00     0.170 HD
HETATM    6  H   UNL     1      -4.965   3.253 -33.612  1.00  0.00     0.164 HD
ENDROOT
BRANCH   1   7
HETATM    7  C   UNL     1      -6.996   1.549 -34.158  1.00  0.00     0.038 A 
HETATM    8  C   UNL     1      -7.570   0.679 -35.080  1.00  0.00     0.032 A 
HETATM    9  C   UNL     1      -7.069  -0.621 -35.223  1.00  0.00     0.036 A 
HETATM   10  C   UNL     1      -6.024  -1.088 -34.439  1.00  0.00     0.086 A 
HETATM   11  N   UNL     1      -5.562  -2.337 -34.618  1.00  0.00    -0.250 NA
HETATM   12  C   UNL     1      -5.478  -0.235 -33.460  1.00  0.00     0.088 A 
HETATM   13  C   UNL     1      -4.554  -2.749 -33.806  1.00  0.00     0.055 A 
HETATM   14  C   UNL     1      -4.041  -4.140 -34.028  1.00  0.00     0.072 C 
HETATM   15  C   UNL     1      -4.032  -1.915 -32.816  1.00  0.00     0.055 A 
HETATM   16  N   UNL     1      -4.489  -0.647 -32.648  1.00  0.00    -0.250 NA
HETATM   17  C   UNL     1      -2.946  -2.363 -31.887  1.00  0.00     0.072 C 
HETATM   18  C   UNL     1      -5.970   1.060 -33.338  1.00  0.00     0.063 A 
ENDBRANCH   1   7
BRANCH   3  19
HETATM   19  C   UNL     1      -4.517   5.246 -34.093  1.00  0.00     0.163 C 
BRANCH  19  20
HETATM   20  C   UNL     1      -3.475   5.402 -32.931  1.00  0.00     0.244 C 
BRANCH  20  21
HETATM   21  N   UNL     1      -2.064   5.684 -33.460  1.00  0.00    -0.068 N 
HETATM   22  H   UNL     1      -2.072   6.715 -33.610  1.00  0.00     0.279 HD
HETATM   23  C   UNL     1      -0.921   5.411 -32.539  1.00  0.00     0.270 C 
HETATM   24  C   UNL     1      -1.822   5.109 -34.824  1.00  0.00     0.270 C 
ENDBRANCH  20  21
BRANCH  20  25
HETATM   25  C   UNL     1      -3.937   6.413 -31.905  1.00  0.00     0.015 A 
HETATM   26  S   UNL     1      -5.141   5.957 -30.763  1.00  0.00    -0.104 SA
HETATM   27  C   UNL     1      -5.125   7.494 -30.024  1.00  0.00     0.050 A 
HETATM   28  C   UNL     1      -4.235   8.349 -30.632  1.00  0.00     0.008 A 
HETATM   29  C   UNL     1      -3.552   7.729 -31.720  1.00  0.00     0.017 A 
ENDBRANCH  20  25
ENDBRANCH  19  20
ENDBRANCH   3  19
TORSDOF 5
ENDMDL
MODEL 7
REMARK VINA RESULT:      -7.4      1.785      2.702
REMARK  5 active torsions:
REMARK  status: ('A' for Active; 'I' for Inactive)
REMARK    1  A    between atoms: C_11  and  N_12 
REMARK       I    between atoms: N_12  and  C_13 
REMARK       I    between atoms: C_13  and  N_14 
REMARK    2  A    between atoms: N_14  and  C_15 
REMARK    3  A    between atoms: C_15  and  C_16 
REMARK    4  A    between atoms: C_16  and  N_17 
REMARK    5  A    between atoms: C_16  and  C_21 
ROOT
HETATM    1  N   UNL     1      -6.106   3.610 -29.387  1.00  0.00    -0.309 N 
HETATM    2  C   UNL     1      -5.329   4.717 -29.478  1.00  0.00     0.320 C 
HETATM    3  N   UNL     1      -4.596   4.908 -30.600  1.00  0.00    -0.341 N 
HETATM    4  O   UNL     1      -5.285   5.518 -28.543  1.00  0.00    -0.247 OA
HETATM    5  H   UNL     1      -6.483   3.497 -28.450  1.00  0.00     0.170 HD
HETATM    6  H   UNL     1      -4.302   4.034 -31.021  1.00  0.00     0.164 HD
ENDROOT
BRANCH   1   7
HETATM    7  C   UNL     1      -6.499   2.621 -30.312  1.00  0.00     0.038 A 
HETATM    8  C   UNL     1      -7.769   2.498 -30.866  1.00  0.00     0.032 A 
HETATM    9  C   UNL     1      -8.028   1.495 -31.809  1.00  0.00     0.036 A 
HETATM   10  C   UNL     1      -7.055   0.584 -32.188  1.00  0.00     0.086 A 
HETATM   11  N   UNL     1      -7.339  -0.354 -33.107  1.00  0.00    -0.250 NA
HETATM   12  C   UNL     1      -5.783   0.661 -31.586  1.00  0.00     0.088 A 
HETATM   13  C   UNL     1      -6.354  -1.235 -33.422  1.00  0.00     0.055 A 
HETATM   14  C   UNL     1      -6.685  -2.266 -34.459  1.00  0.00     0.072 C 
HETATM   15  C   UNL     1      -5.104  -1.177 -32.805  1.00  0.00     0.055 A 
HETATM   16  N   UNL     1      -4.812  -0.218 -31.889  1.00  0.00    -0.250 NA
HETATM   17  C   UNL     1      -4.018  -2.161 -33.112  1.00  0.00     0.072 C 
HETATM   18  C   UNL     1      -5.530   1.672 -30.665  1.00  0.00     0.063 A 
ENDBRANCH   1   7
BRANCH   3  19
HETATM   19  C   UNL     1      -3.683   6.030 -30.829  1.00  0.00     0.163 C 
BRANCH  19  20
HETATM   20  C   UNL     1      -2.170   5.693 -31.064  1.00  0.00     0.244 C 
BRANCH  20  21
HETATM   21  N   UNL     1      -1.788   5.770 -32.547  1.00  0.00    -0.068 N 
HETATM   22  H   UNL     1      -0.747   5.769 -32.522  1.00  0.00     0.279 HD
HETATM   23  C   UNL     1      -2.181   4.620 -33.416  1.00  0.00     0.270 C 
HETATM   24  C   UNL     1      -2.145   7.084 -33.178  1.00  0.00     0.270 C 
ENDBRANCH  20  21
BRANCH  20  25
HETATM   25  C   UNL     1      -1.272   6.528 -30.178  1.00  0.00     0.015 A 
HETATM   26  S   UNL     1      -1.985   7.579 -29.016  1.00  0.00    -0.104 SA
HETATM   27  C   UNL     1      -0.464   8.122 -28.467  1.00  0.00     0.050 A 
HETATM   28  C   UNL     1       0.572   7.534 -29.155  1.00  0.00     0.008 A 
HETATM   29  C   UNL     1       0.109   6.617 -30.145  1.00  0.00     0.017 A 
ENDBRANCH  20  25
ENDBRANCH  19  20
ENDBRANCH   3  19
TORSDOF 5
ENDMDL
MODEL 8
REMARK VINA RESULT:      -7.4      4.828      7.404
REMARK  5 active torsions:
REMARK  status: ('A' for Active; 'I' for Inactive)
REMARK    1  A    between atoms: C_11  and  N_12 
REMARK       I    between atoms: N_12  and  C_13 
REMARK       I    between atoms: C_13  and  N_14 
REMARK    2  A    between atoms: N_14  and  C_15 
REMARK    3  A    between atoms: C_15  and  C_16 
REMARK    4  A    between atoms: C_16  and  N_17 
REMARK    5  A    between atoms: C_16  and  C_21 
ROOT
HETATM    1  N   UNL     1      -6.651   2.380 -33.439  1.00  0.00    -0.309 N 
HETATM    2  C   UNL     1      -7.934   2.686 -33.127  1.00  0.00     0.320 C 
HETATM    3  N   UNL     1      -8.793   1.678 -32.845  1.00  0.00    -0.341 N 
HETATM    4  O   UNL     1      -8.305   3.860 -33.121  1.00  0.00    -0.247 OA
HETATM    5  H   UNL     1      -6.147   3.195 -33.779  1.00  0.00     0.170 HD
HETATM    6  H   UNL     1      -8.573   0.830 -33.354  1.00  0.00     0.164 HD
ENDROOT
BRANCH   1   7
HETATM    7  C   UNL     1      -5.891   1.194 -33.371  1.00  0.00     0.038 A 
HETATM    8  C   UNL     1      -4.688   1.048 -32.686  1.00  0.00     0.032 A 
HETATM    9  C   UNL     1      -4.044  -0.195 -32.658  1.00  0.00     0.036 A 
HETATM   10  C   UNL     1      -4.556  -1.295 -33.329  1.00  0.00     0.086 A 
HETATM   11  N   UNL     1      -3.916  -2.475 -33.264  1.00  0.00    -0.250 NA
HETATM   12  C   UNL     1      -5.741  -1.142 -34.076  1.00  0.00     0.088 A 
HETATM   13  C   UNL     1      -4.451  -3.511 -33.960  1.00  0.00     0.055 A 
HETATM   14  C   UNL     1      -3.731  -4.823 -33.866  1.00  0.00     0.072 C 
HETATM   15  C   UNL     1      -5.607  -3.353 -34.725  1.00  0.00     0.055 A 
HETATM   16  N   UNL     1      -6.263  -2.164 -34.775  1.00  0.00    -0.250 NA
HETATM   17  C   UNL     1      -6.192  -4.474 -35.528  1.00  0.00     0.072 C 
HETATM   18  C   UNL     1      -6.383   0.092 -34.084  1.00  0.00     0.063 A 
ENDBRANCH   1   7
BRANCH   3  19
HETATM   19  C   UNL     1     -10.213   1.846 -32.529  1.00  0.00     0.163 C 
BRANCH  19  20
HETATM   20  C   UNL     1     -11.214   1.942 -33.733  1.00  0.00     0.244 C 
BRANCH  20  21
HETATM   21  N   UNL     1     -12.525   1.200 -33.451  1.00  0.00    -0.068 N 
HETATM   22  H   UNL     1     -12.741   1.470 -32.468  1.00  0.00     0.279 HD
HETATM   23  C   UNL     1     -13.720   1.589 -34.258  1.00  0.00     0.270 C 
HETATM   24  C   UNL     1     -12.356  -0.291 -33.400  1.00  0.00     0.270 C 
ENDBRANCH  20  21
BRANCH  20  25
HETATM   25  C   UNL     1     -11.427   3.376 -34.164  1.00  0.00     0.015 A 
HETATM   26  S   UNL     1     -11.971   4.527 -33.005  1.00  0.00    -0.104 SA
HETATM   27  C   UNL     1     -11.971   5.790 -34.151  1.00  0.00     0.050 A 
HETATM   28  C   UNL     1     -11.580   5.355 -35.397  1.00  0.00     0.008 A 
HETATM   29  C   UNL     1     -11.270   3.963 -35.407  1.00  0.00     0.017 A 
ENDBRANCH  20  25
ENDBRANCH  19  20
ENDBRANCH   3  19
TORSDOF 5
ENDMDL
MODEL 9
REMARK VINA RESULT:      -7.3      7.278      9.832
REMARK  5 active torsions:
REMARK  status: ('A' for Active; 'I' for Inactive)
REMARK    1  A    between atoms: C_11  and  N_12 
REMARK       I    between atoms: N_12  and  C_13 
REMARK       I    between atoms: C_13  and  N_14 
REMARK    2  A    between atoms: N_14  and  C_15 
REMARK    3  A    between atoms: C_15  and  C_16 
REMARK    4  A    between atoms: C_16  and  N_17 
REMARK    5  A    between atoms: C_16  and  C_21 
ROOT
HETATM    1  N   UNL     1     -11.092   1.353 -34.606  1.00  0.00    -0.309 N 
HETATM    2  C   UNL     1      -9.945   1.024 -33.962  1.00  0.00     0.320 C 
HETATM    3  N   UNL     1      -9.970   0.894 -32.615  1.00  0.00    -0.341 N 
HETATM    4  O   UNL     1      -8.903   0.866 -34.599  1.00  0.00    -0.247 OA
HETATM    5  H   UNL     1     -10.920   1.571 -35.583  1.00  0.00     0.170 HD
HETATM    6  H   UNL     1     -10.648   1.509 -32.180  1.00  0.00     0.164 HD
ENDROOT
BRANCH   1   7
HETATM    7  C   UNL     1     -12.442   1.433 -34.206  1.00  0.00     0.038 A 
HETATM    8  C   UNL     1     -13.414   0.471 -34.462  1.00  0.00     0.032 A 
HETATM    9  C   UNL     1     -14.716   0.644 -33.976  1.00  0.00     0.036 A 
HETATM   10  C   UNL     1     -15.084   1.777 -33.266  1.00  0.00     0.086 A 
HETATM   11  N   UNL     1     -16.340   1.899 -32.804  1.00  0.00    -0.250 NA
HETATM   12  C   UNL     1     -14.122   2.786 -33.056  1.00  0.00     0.088 A 
HETATM   13  C   UNL     1     -16.648   3.040 -32.137  1.00  0.00     0.055 A 
HETATM   14  C   UNL     1     -18.050   3.153 -31.617  1.00  0.00     0.072 C 
HETATM   15  C   UNL     1     -15.705   4.052 -31.954  1.00  0.00     0.055 A 
HETATM   16  N   UNL     1     -14.432   3.921 -32.406  1.00  0.00    -0.250 NA
HETATM   17  C   UNL     1     -16.037   5.333 -31.252  1.00  0.00     0.072 C 
HETATM   18  C   UNL     1     -12.827   2.596 -33.526  1.00  0.00     0.063 A 
ENDBRANCH   1   7
BRANCH   3  19
HETATM   19  C   UNL     1      -8.809   0.583 -31.778  1.00  0.00     0.163 C 
BRANCH  19  20
HETATM   20  C   UNL     1      -7.762   1.727 -31.540  1.00  0.00     0.244 C 
BRANCH  20  21
HETATM   21  N   UNL     1      -8.066   2.526 -30.267  1.00  0.00    -0.068 N 
HETATM   22  H   UNL     1      -8.239   1.783 -29.559  1.00  0.00     0.279 HD
HETATM   23  C   UNL     1      -6.968   3.376 -29.715  1.00  0.00     0.270 C 
HETATM   24  C   UNL     1      -9.361   3.281 -30.343  1.00  0.00     0.270 C 
ENDBRANCH  20  21
BRANCH  20  25
HETATM   25  C   UNL     1      -6.346   1.200 -31.584  1.00  0.00     0.015 A 
HETATM   26  S   UNL     1      -5.188   1.991 -32.581  1.00  0.00    -0.104 SA
HETATM   27  C   UNL     1      -3.951   0.906 -32.133  1.00  0.00     0.050 A 
HETATM   28  C   UNL     1      -4.400  -0.052 -31.253  1.00  0.00     0.008 A 
HETATM   29  C   UNL     1      -5.781   0.113 -30.938  1.00  0.00     0.017 A 
ENDBRANCH  20  25
ENDBRANCH  19  20
ENDBRANCH   3  19
TORSDOF 5
ENDMDL
MODEL 10
REMARK VINA RESULT:      -7.3      1.714      2.152
REMARK  5 active torsions:
REMARK  status: ('A' for Active; 'I' for Inactive)
REMARK    1  A    between atoms: C_11  and  N_12 
REMARK       I    between atoms: N_12  and  C_13 
REMARK       I    between atoms: C_13  and  N_14 
REMARK    2  A    between atoms: N_14  and  C_15 
REMARK    3  A    between atoms: C_15  and  C_16 
REMARK    4  A    between atoms: C_16  and  N_17 
REMARK    5  A    between atoms: C_16  and  C_21 
ROOT
HETATM    1  N   UNL     1      -6.738   2.147 -32.947  1.00  0.00    -0.309 N 
HETATM    2  C   UNL     1      -6.498   3.457 -33.202  1.00  0.00     0.320 C 
HETATM    3  N   UNL     1      -5.219   3.860 -33.386  1.00  0.00    -0.341 N 
HETATM    4  O   UNL     1      -7.432   4.258 -33.245  1.00  0.00    -0.247 OA
HETATM    5  H   UNL     1      -7.705   1.993 -32.677  1.00  0.00     0.170 HD
HETATM    6  H   UNL     1      -4.560   3.310 -32.848  1.00  0.00     0.164 HD
ENDROOT
BRANCH   1   7
HETATM    7  C   UNL     1      -5.940   0.986 -32.999  1.00  0.00     0.038 A 
HETATM    8  C   UNL     1      -4.698   0.837 -32.390  1.00  0.00     0.032 A 
HETATM    9  C   UNL     1      -4.016  -0.383 -32.479  1.00  0.00     0.036 A 
HETATM   10  C   UNL     1      -4.530  -1.454 -33.194  1.00  0.00     0.086 A 
HETATM   11  N   UNL     1      -3.851  -2.613 -33.242  1.00  0.00    -0.250 NA
HETATM   12  C   UNL     1      -5.758  -1.292 -33.867  1.00  0.00     0.088 A 
HETATM   13  C   UNL     1      -4.392  -3.619 -33.978  1.00  0.00     0.055 A 
HETATM   14  C   UNL     1      -3.628  -4.909 -34.009  1.00  0.00     0.072 C 
HETATM   15  C   UNL     1      -5.592  -3.450 -34.668  1.00  0.00     0.055 A 
HETATM   16  N   UNL     1      -6.286  -2.284 -34.604  1.00  0.00    -0.250 NA
HETATM   17  C   UNL     1      -6.185  -4.536 -35.513  1.00  0.00     0.072 C 
HETATM   18  C   UNL     1      -6.436  -0.083 -33.757  1.00  0.00     0.063 A 
ENDBRANCH   1   7
BRANCH   3  19
HETATM   19  C   UNL     1      -4.799   5.242 -33.629  1.00  0.00     0.163 C 
BRANCH  19  20
HETATM   20  C   UNL     1      -3.434   5.702 -33.008  1.00  0.00     0.244 C 
BRANCH  20  21
HETATM   21  N   UNL     1      -2.485   6.273 -34.068  1.00  0.00    -0.068 N 
HETATM   22  H   UNL     1      -3.132   6.750 -34.730  1.00  0.00     0.279 HD
HETATM   23  C   UNL     1      -1.509   7.313 -33.624  1.00  0.00     0.270 C 
HETATM   24  C   UNL     1      -1.821   5.212 -34.895  1.00  0.00     0.270 C 
ENDBRANCH  20  21
BRANCH  20  25
HETATM   25  C   UNL     1      -3.644   6.635 -31.837  1.00  0.00     0.015 A 
HETATM   26  S   UNL     1      -2.673   6.443 -30.428  1.00  0.00    -0.104 SA
HETATM   27  C   UNL     1      -3.441   7.743 -29.634  1.00  0.00     0.050 A 
HETATM   28  C   UNL     1      -4.426   8.311 -30.409  1.00  0.00     0.008 A 
HETATM   29  C   UNL     1      -4.547   7.671 -31.678  1.00  0.00     0.017 A 
ENDBRANCH  20  25
ENDBRANCH  19  20
ENDBRANCH   3  19
TORSDOF 5
ENDMDL
