MODEL 1
REMARK VINA RESULT:      -8.3      0.000      0.000
REMARK  5 active torsions:
REMARK  status: ('A' for Active; 'I' for Inactive)
REMARK    1  A    between atoms: C_9  and  N_10 
REMARK       I    between atoms: N_10  and  C_11 
REMARK    2  A    between atoms: C_11  and  C_12 
REMARK    3  A    between atoms: C_12  and  N_13 
REMARK    4  A    between atoms: C_12  and  C_17 
REMARK    5  A    between atoms: C_17  and  C_18 
ROOT
HETATM    1  N   UNL     1      -4.451   0.985 -32.903  1.00  0.00    -0.325 N 
HETATM    2  C   UNL     1      -4.359   1.327 -31.569  1.00  0.00     0.253 C 
HETATM    3  O   UNL     1      -4.819   0.713 -30.606  1.00  0.00    -0.271 OA
HETATM    4  H   UNL     1      -4.000   1.576 -33.594  1.00  0.00     0.169 HD
ENDROOT
BRANCH   2   5
HETATM    5  C   UNL     1      -3.579   2.617 -31.284  1.00  0.00     0.280 C 
BRANCH   5   6
HETATM    6  N   UNL     1      -4.431   3.529 -30.431  1.00  0.00    -0.066 N 
HETATM    7  H   UNL     1      -5.168   3.962 -31.027  1.00  0.00     0.275 HD
HETATM    8  H   UNL     1      -4.886   2.986 -29.683  1.00  0.00     0.275 HD
HETATM    9  H   UNL     1      -3.882   4.265 -29.978  1.00  0.00     0.275 HD
ENDBRANCH   5   6
BRANCH   5  10
HETATM   10  C   UNL     1      -3.205   3.323 -32.593  1.00  0.00     0.103 C 
BRANCH  10  11
HETATM   11  C   UNL     1      -2.133   4.341 -32.402  1.00  0.00     0.053 A 
HETATM   12  N   UNL     1      -1.426   4.384 -31.216  1.00  0.00    -0.247 NA
HETATM   13  C   UNL     1      -0.586   5.389 -31.351  1.00  0.00     0.207 A 
HETATM   14  N   UNL     1      -0.716   5.994 -32.570  1.00  0.00    -0.359 N 
HETATM   15  H   UNL     1      -0.184   6.792 -32.900  1.00  0.00     0.166 HD
HETATM   16  C   UNL     1      -1.701   5.331 -33.253  1.00  0.00     0.116 A 
ENDBRANCH  10  11
ENDBRANCH   5  10
ENDBRANCH   2   5
BRANCH   1  17
HETATM   17  C   UNL     1      -5.093  -0.152 -33.445  1.00  0.00     0.035 A 
HETATM   18  C   UNL     1      -6.396  -0.154 -33.939  1.00  0.00     0.030 A 
HETATM   19  C   UNL     1      -6.960  -1.329 -34.449  1.00  0.00     0.014 A 
HETATM   20  C   UNL     1      -6.232  -2.526 -34.479  1.00  0.00    -0.026 A 
HETATM   21  C   UNL     1      -6.790  -3.711 -34.986  1.00  0.00     0.012 A 
HETATM   22  C   UNL     1      -4.910  -2.536 -33.986  1.00  0.00    -0.024 A 
HETATM   23  C   UNL     1      -6.050  -4.893 -35.007  1.00  0.00     0.001 A 
HETATM   24  C   UNL     1      -4.744  -4.906 -34.524  1.00  0.00     0.001 A 
HETATM   25  C   UNL     1      -4.177  -3.735 -34.017  1.00  0.00     0.012 A 
HETATM   26  C   UNL     1      -4.358  -1.347 -33.475  1.00  0.00     0.042 A 
ENDBRANCH   1  17
TORSDOF 5
ENDMDL
MODEL 2
REMARK VINA RESULT:      -8.3      4.891      7.679
REMARK  5 active torsions:
REMARK  status: ('A' for Active; 'I' for Inactive)
REMARK    1  A    between atoms: C_9  and  N_10 
REMARK       I    between atoms: N_10  and  C_11 
REMARK    2  A    between atoms: C_11  and  C_12 
REMARK    3  A    between atoms: C_12  and  N_13 
REMARK    4  A    between atoms: C_12  and  C_17 
REMARK    5  A    between atoms: C_17  and  C_18 
ROOT
HETATM    1  N   UNL     1      -8.521   0.834 -34.305  1.00  0.00    -0.325 N 
HETATM    2  C   UNL     1      -9.569   0.980 -33.418  1.00  0.00     0.253 C 
HETATM    3  O   UNL     1      -9.736   0.382 -32.355  1.00  0.00    -0.271 OA
HETATM    4  H   UNL     1      -8.497   1.413 -35.138  1.00  0.00     0.169 HD
ENDROOT
BRANCH   2   5
HETATM    5  C   UNL     1     -10.620   2.020 -33.824  1.00  0.00     0.280 C 
BRANCH   5   6
HETATM    6  N   UNL     1     -11.460   2.367 -32.616  1.00  0.00    -0.066 N 
HETATM    7  H   UNL     1     -10.846   2.774 -31.879  1.00  0.00     0.275 HD
HETATM    8  H   UNL     1     -12.175   3.061 -32.873  1.00  0.00     0.275 HD
HETATM    9  H   UNL     1     -11.953   1.553 -32.238  1.00  0.00     0.275 HD
ENDBRANCH   5   6
BRANCH   5  10
HETATM   10  C   UNL     1     -11.515   1.476 -34.945  1.00  0.00     0.103 C 
BRANCH  10  11
HETATM   11  C   UNL     1     -12.785   0.895 -34.424  1.00  0.00     0.053 A 
HETATM   12  N   UNL     1     -13.978   1.566 -34.607  1.00  0.00    -0.247 NA
HETATM   13  C   UNL     1     -14.889   0.819 -34.021  1.00  0.00     0.207 A 
HETATM   14  N   UNL     1     -14.339  -0.306 -33.470  1.00  0.00    -0.359 N 
HETATM   15  H   UNL     1     -14.840  -1.026 -32.962  1.00  0.00     0.166 HD
HETATM   16  C   UNL     1     -12.993  -0.270 -33.723  1.00  0.00     0.116 A 
ENDBRANCH  10  11
ENDBRANCH   5  10
ENDBRANCH   2   5
BRANCH   1  17
HETATM   17  C   UNL     1      -7.412  -0.035 -34.174  1.00  0.00     0.035 A 
HETATM   18  C   UNL     1      -6.163   0.358 -33.697  1.00  0.00     0.030 A 
HETATM   19  C   UNL     1      -5.115  -0.565 -33.610  1.00  0.00     0.014 A 
HETATM   20  C   UNL     1      -5.294  -1.900 -33.995  1.00  0.00    -0.026 A 
HETATM   21  C   UNL     1      -4.248  -2.833 -33.914  1.00  0.00     0.012 A 
HETATM   22  C   UNL     1      -6.555  -2.312 -34.475  1.00  0.00    -0.024 A 
HETATM   23  C   UNL     1      -4.445  -4.159 -34.302  1.00  0.00     0.001 A 
HETATM   24  C   UNL     1      -5.689  -4.568 -34.774  1.00  0.00     0.001 A 
HETATM   25  C   UNL     1      -6.738  -3.651 -34.861  1.00  0.00     0.012 A 
HETATM   26  C   UNL     1      -7.599  -1.371 -34.559  1.00  0.00     0.042 A 
ENDBRANCH   1  17
TORSDOF 5
ENDMDL
MODEL 3
REMARK VINA RESULT:      -7.8      3.864      5.889
REMARK  5 active torsions:
REMARK  status: ('A' for Active; 'I' for Inactive)
REMARK    1  A    between atoms: C_9  and  N_10 
REMARK       I    between atoms: N_10  and  C_11 
REMARK    2  A    between atoms: C_11  and  C_12 
REMARK    3  A    between atoms: C_12  and  N_13 
REMARK    4  A    between atoms: C_12  and  C_17 
REMARK    5  A    between atoms: C_17  and  C_18 
ROOT
HETATM    1  N   UNL     1      -7.181   0.871 -32.928  1.00  0.00    -0.325 N 
HETATM    2  C   UNL     1      -7.457   1.317 -31.651  1.00  0.00     0.253 C 
HETATM    3  O   UNL     1      -7.058   0.839 -30.590  1.00  0.00    -0.271 OA
HETATM    4  H   UNL     1      -7.560   1.380 -33.719  1.00  0.00     0.169 HD
ENDROOT
BRANCH   2   5
HETATM    5  C   UNL     1      -8.355   2.559 -31.580  1.00  0.00     0.280 C 
BRANCH   5   6
HETATM    6  N   UNL     1      -9.448   2.317 -30.564  1.00  0.00    -0.066 N 
HETATM    7  H   UNL     1     -10.312   2.012 -31.059  1.00  0.00     0.275 HD
HETATM    8  H   UNL     1      -9.161   1.576 -29.910  1.00  0.00     0.275 HD
HETATM    9  H   UNL     1      -9.651   3.151 -30.005  1.00  0.00     0.275 HD
ENDBRANCH   5   6
BRANCH   5  10
HETATM   10  C   UNL     1      -8.973   2.858 -32.952  1.00  0.00     0.103 C 
BRANCH  10  11
HETATM   11  C   UNL     1     -10.322   2.243 -33.112  1.00  0.00     0.053 A 
HETATM   12  N   UNL     1     -10.440   0.884 -33.321  1.00  0.00    -0.247 NA
HETATM   13  C   UNL     1     -11.733   0.665 -33.443  1.00  0.00     0.207 A 
HETATM   14  N   UNL     1     -12.454   1.820 -33.320  1.00  0.00    -0.359 N 
HETATM   15  H   UNL     1     -13.462   1.903 -33.385  1.00  0.00     0.166 HD
HETATM   16  C   UNL     1     -11.562   2.837 -33.105  1.00  0.00     0.116 A 
ENDBRANCH  10  11
ENDBRANCH   5  10
ENDBRANCH   2   5
BRANCH   1  17
HETATM   17  C   UNL     1      -6.372  -0.234 -33.285  1.00  0.00     0.035 A 
HETATM   18  C   UNL     1      -4.984  -0.258 -33.165  1.00  0.00     0.030 A 
HETATM   19  C   UNL     1      -4.258  -1.390 -33.553  1.00  0.00     0.014 A 
HETATM   20  C   UNL     1      -4.905  -2.522 -34.065  1.00  0.00    -0.026 A 
HETATM   21  C   UNL     1      -4.186  -3.662 -34.459  1.00  0.00     0.012 A 
HETATM   22  C   UNL     1      -6.311  -2.512 -34.187  1.00  0.00    -0.024 A 
HETATM   23  C   UNL     1      -4.847  -4.781 -34.967  1.00  0.00     0.001 A 
HETATM   24  C   UNL     1      -6.234  -4.774 -35.086  1.00  0.00     0.001 A 
HETATM   25  C   UNL     1      -6.962  -3.648 -34.699  1.00  0.00     0.012 A 
HETATM   26  C   UNL     1      -7.026  -1.365 -33.794  1.00  0.00     0.042 A 
ENDBRANCH   1  17
TORSDOF 5
ENDMDL
MODEL 4
REMARK VINA RESULT:      -7.7      1.737      2.265
REMARK  5 active torsions:
REMARK  status: ('A' for Active; 'I' for Inactive)
REMARK    1  A    between atoms: C_9  and  N_10 
REMARK       I    between atoms: N_10  and  C_11 
REMARK    2  A    between atoms: C_11  and  C_12 
REMARK    3  A    between atoms: C_12  and  N_13 
REMARK    4  A    between atoms: C_12  and  C_17 
REMARK    5  A    between atoms: C_17  and  C_18 
ROOT
HETATM    1  N   UNL     1      -4.632   1.039 -32.900  1.00  0.00    -0.325 N 
HETATM    2  C   UNL     1      -4.439   1.317 -31.562  1.00  0.00     0.253 C 
HETATM    3  O   UNL     1      -4.735   0.608 -30.601  1.00  0.00    -0.271 OA
HETATM    4  H   UNL     1      -4.315   1.709 -33.593  1.00  0.00     0.169 HD
ENDROOT
BRANCH   2   5
HETATM    5  C   UNL     1      -3.766   2.665 -31.272  1.00  0.00     0.280 C 
BRANCH   5   6
HETATM    6  N   UNL     1      -4.648   3.465 -30.341  1.00  0.00    -0.066 N 
HETATM    7  H   UNL     1      -5.552   2.962 -30.213  1.00  0.00     0.275 HD
HETATM    8  H   UNL     1      -4.191   3.564 -29.424  1.00  0.00     0.275 HD
HETATM    9  H   UNL     1      -4.830   4.409 -30.692  1.00  0.00     0.275 HD
ENDBRANCH   5   6
BRANCH   5  10
HETATM   10  C   UNL     1      -3.535   3.445 -32.573  1.00  0.00     0.103 C 
BRANCH  10  11
HETATM   11  C   UNL     1      -4.638   4.406 -32.859  1.00  0.00     0.053 A 
HETATM   12  N   UNL     1      -5.899   3.938 -33.172  1.00  0.00    -0.247 NA
HETATM   13  C   UNL     1      -6.623   5.015 -33.390  1.00  0.00     0.207 A 
HETATM   14  N   UNL     1      -5.889   6.158 -33.229  1.00  0.00    -0.359 N 
HETATM   15  H   UNL     1      -6.227   7.106 -33.351  1.00  0.00     0.166 HD
HETATM   16  C   UNL     1      -4.617   5.781 -32.887  1.00  0.00     0.116 A 
ENDBRANCH  10  11
ENDBRANCH   5  10
ENDBRANCH   2   5
BRANCH   1  17
HETATM   17  C   UNL     1      -5.209  -0.130 -33.450  1.00  0.00     0.035 A 
HETATM   18  C   UNL     1      -6.494  -0.190 -33.986  1.00  0.00     0.030 A 
HETATM   19  C   UNL     1      -6.993  -1.392 -34.500  1.00  0.00     0.014 A 
HETATM   20  C   UNL     1      -6.217  -2.559 -34.491  1.00  0.00    -0.026 A 
HETATM   21  C   UNL     1      -6.709  -3.771 -35.001  1.00  0.00     0.012 A 
HETATM   22  C   UNL     1      -4.913  -2.510 -33.955  1.00  0.00    -0.024 A 
HETATM   23  C   UNL     1      -5.922  -4.922 -34.984  1.00  0.00     0.001 A 
HETATM   24  C   UNL     1      -4.634  -4.877 -34.458  1.00  0.00     0.001 A 
HETATM   25  C   UNL     1      -4.132  -3.679 -33.946  1.00  0.00     0.012 A 
HETATM   26  C   UNL     1      -4.426  -1.294 -33.440  1.00  0.00     0.042 A 
ENDBRANCH   1  17
TORSDOF 5
ENDMDL
MODEL 5
REMARK VINA RESULT:      -7.6      2.253      2.886
REMARK  5 active torsions:
REMARK  status: ('A' for Active; 'I' for Inactive)
REMARK    1  A    between atoms: C_9  and  N_10 
REMARK       I    between atoms: N_10  and  C_11 
REMARK    2  A    between atoms: C_11  and  C_12 
REMARK    3  A    between atoms: C_12  and  N_13 
REMARK    4  A    between atoms: C_12  and  C_17 
REMARK    5  A    between atoms: C_17  and  C_18 
ROOT
HETATM    1  N   UNL     1      -5.935   1.405 -33.530  1.00  0.00    -0.325 N 
HETATM    2  C   UNL     1      -6.377   2.060 -32.398  1.00  0.00     0.253 C 
HETATM    3  O   UNL     1      -6.441   1.612 -31.253  1.00  0.00    -0.271 OA
HETATM    4  H   UNL     1      -5.913   1.907 -34.411  1.00  0.00     0.169 HD
ENDROOT
BRANCH   2   5
HETATM    5  C   UNL     1      -6.817   3.512 -32.621  1.00  0.00     0.280 C 
BRANCH   5   6
HETATM    6  N   UNL     1      -8.317   3.602 -32.446  1.00  0.00    -0.066 N 
HETATM    7  H   UNL     1      -8.771   3.570 -33.383  1.00  0.00     0.275 HD
HETATM    8  H   UNL     1      -8.653   2.807 -31.886  1.00  0.00     0.275 HD
HETATM    9  H   UNL     1      -8.601   4.457 -31.959  1.00  0.00     0.275 HD
ENDBRANCH   5   6
BRANCH   5  10
HETATM   10  C   UNL     1      -6.424   3.986 -34.026  1.00  0.00     0.103 C 
BRANCH  10  11
HETATM   11  C   UNL     1      -5.142   4.747 -34.029  1.00  0.00     0.053 A 
HETATM   12  N   UNL     1      -4.419   4.876 -35.198  1.00  0.00    -0.247 NA
HETATM   13  C   UNL     1      -3.348   5.567 -34.867  1.00  0.00     0.207 A 
HETATM   14  N   UNL     1      -3.349   5.892 -33.539  1.00  0.00    -0.359 N 
HETATM   15  H   UNL     1      -2.628   6.413 -33.052  1.00  0.00     0.166 HD
HETATM   16  C   UNL     1      -4.493   5.374 -32.992  1.00  0.00     0.116 A 
ENDBRANCH  10  11
ENDBRANCH   5  10
ENDBRANCH   2   5
BRANCH   1  17
HETATM   17  C   UNL     1      -5.458   0.075 -33.610  1.00  0.00     0.035 A 
HETATM   18  C   UNL     1      -4.198  -0.331 -33.174  1.00  0.00     0.030 A 
HETATM   19  C   UNL     1      -3.800  -1.667 -33.301  1.00  0.00     0.014 A 
HETATM   20  C   UNL     1      -4.654  -2.624 -33.863  1.00  0.00    -0.026 A 
HETATM   21  C   UNL     1      -4.263  -3.967 -33.997  1.00  0.00     0.012 A 
HETATM   22  C   UNL     1      -5.935  -2.227 -34.303  1.00  0.00    -0.024 A 
HETATM   23  C   UNL     1      -5.128  -4.907 -34.559  1.00  0.00     0.001 A 
HETATM   24  C   UNL     1      -6.392  -4.518 -34.992  1.00  0.00     0.001 A 
HETATM   25  C   UNL     1      -6.794  -3.186 -34.866  1.00  0.00     0.012 A 
HETATM   26  C   UNL     1      -6.319  -0.880 -34.170  1.00  0.00     0.042 A 
ENDBRANCH   1  17
TORSDOF 5
ENDMDL
MODEL 6
REMARK VINA RESULT:      -7.5      4.147      6.292
REMARK  5 active torsions:
REMARK  status: ('A' for Active; 'I' for Inactive)
REMARK    1  A    between atoms: C_9  and  N_10 
REMARK       I    between atoms: N_10  and  C_11 
REMARK    2  A    between atoms: C_11  and  C_12 
REMARK    3  A    between atoms: C_12  and  N_13 
REMARK    4  A    between atoms: C_12  and  C_17 
REMARK    5  A    between atoms: C_17  and  C_18 
ROOT
HETATM    1  N   UNL     1      -7.874   1.328 -31.674  1.00  0.00    -0.325 N 
HETATM    2  C   UNL     1      -7.870   2.685 -31.922  1.00  0.00     0.253 C 
HETATM    3  O   UNL     1      -7.018   3.331 -32.531  1.00  0.00    -0.271 OA
HETATM    4  H   UNL     1      -8.659   0.921 -31.177  1.00  0.00     0.169 HD
ENDROOT
BRANCH   2   5
HETATM    5  C   UNL     1      -9.086   3.446 -31.377  1.00  0.00     0.280 C 
BRANCH   5   6
HETATM    6  N   UNL     1      -9.837   2.548 -30.420  1.00  0.00    -0.066 N 
HETATM    7  H   UNL     1     -10.000   3.062 -29.528  1.00  0.00     0.275 HD
HETATM    8  H   UNL     1     -10.747   2.288 -30.824  1.00  0.00     0.275 HD
HETATM    9  H   UNL     1      -9.334   1.678 -30.225  1.00  0.00     0.275 HD
ENDBRANCH   5   6
BRANCH   5  10
HETATM   10  C   UNL     1     -10.010   3.880 -32.522  1.00  0.00     0.103 C 
BRANCH  10  11
HETATM   11  C   UNL     1     -11.010   2.831 -32.872  1.00  0.00     0.053 A 
HETATM   12  N   UNL     1     -10.585   1.595 -33.318  1.00  0.00    -0.247 NA
HETATM   13  C   UNL     1     -11.688   0.918 -33.560  1.00  0.00     0.207 A 
HETATM   14  N   UNL     1     -12.805   1.659 -33.287  1.00  0.00    -0.359 N 
HETATM   15  H   UNL     1     -13.765   1.355 -33.402  1.00  0.00     0.166 HD
HETATM   16  C   UNL     1     -12.383   2.885 -32.843  1.00  0.00     0.116 A 
ENDBRANCH  10  11
ENDBRANCH   5  10
ENDBRANCH   2   5
BRANCH   1  17
HETATM   17  C   UNL     1      -6.894   0.389 -32.074  1.00  0.00     0.035 A 
HETATM   18  C   UNL     1      -5.631   0.280 -31.493  1.00  0.00     0.030 A 
HETATM   19  C   UNL     1      -4.717  -0.671 -31.959  1.00  0.00     0.014 A 
HETATM   20  C   UNL     1      -5.045  -1.536 -33.011  1.00  0.00    -0.026 A 
HETATM   21  C   UNL     1      -4.133  -2.492 -33.487  1.00  0.00     0.012 A 
HETATM   22  C   UNL     1      -6.322  -1.439 -33.604  1.00  0.00    -0.024 A 
HETATM   23  C   UNL     1      -4.478  -3.344 -34.536  1.00  0.00     0.001 A 
HETATM   24  C   UNL     1      -5.738  -3.252 -35.121  1.00  0.00     0.001 A 
HETATM   25  C   UNL     1      -6.655  -2.306 -34.659  1.00  0.00     0.012 A 
HETATM   26  C   UNL     1      -7.231  -0.476 -33.126  1.00  0.00     0.042 A 
ENDBRANCH   1  17
TORSDOF 5
ENDMDL
MODEL 7
REMARK VINA RESULT:      -7.5      5.149      8.032
REMARK  5 active torsions:
REMARK  status: ('A' for Active; 'I' for Inactive)
REMARK    1  A    between atoms: C_9  and  N_10 
REMARK       I    between atoms: N_10  and  C_11 
REMARK    2  A    between atoms: C_11  and  C_12 
REMARK    3  A    between atoms: C_12  and  N_13 
REMARK    4  A    between atoms: C_12  and  C_17 
REMARK    5  A    between atoms: C_17  and  C_18 
ROOT
HETATM    1  N   UNL     1      -9.361   0.854 -34.014  1.00  0.00    -0.325 N 
HETATM    2  C   UNL     1      -9.594   2.213 -34.084  1.00  0.00     0.253 C 
HETATM    3  O   UNL     1      -8.756   3.114 -34.130  1.00  0.00    -0.271 OA
HETATM    4  H   UNL     1     -10.152   0.220 -34.007  1.00  0.00     0.169 HD
ENDROOT
BRANCH   2   5
HETATM    5  C   UNL     1     -11.074   2.614 -34.122  1.00  0.00     0.280 C 
BRANCH   5   6
HETATM    6  N   UNL     1     -11.670   2.422 -32.745  1.00  0.00    -0.066 N 
HETATM    7  H   UNL     1     -11.020   2.819 -32.035  1.00  0.00     0.275 HD
HETATM    8  H   UNL     1     -12.571   2.914 -32.682  1.00  0.00     0.275 HD
HETATM    9  H   UNL     1     -11.848   1.437 -32.532  1.00  0.00     0.275 HD
ENDBRANCH   5   6
BRANCH   5  10
HETATM   10  C   UNL     1     -11.838   1.766 -35.146  1.00  0.00     0.103 C 
BRANCH  10  11
HETATM   11  C   UNL     1     -12.953   0.996 -34.524  1.00  0.00     0.053 A 
HETATM   12  N   UNL     1     -14.253   1.446 -34.644  1.00  0.00    -0.247 NA
HETATM   13  C   UNL     1     -14.982   0.576 -33.977  1.00  0.00     0.207 A 
HETATM   14  N   UNL     1     -14.213  -0.416 -33.435  1.00  0.00    -0.359 N 
HETATM   15  H   UNL     1     -14.548  -1.192 -32.874  1.00  0.00     0.166 HD
HETATM   16  C   UNL     1     -12.912  -0.160 -33.780  1.00  0.00     0.116 A 
ENDBRANCH  10  11
ENDBRANCH   5  10
ENDBRANCH   2   5
BRANCH   1  17
HETATM   17  C   UNL     1      -8.102   0.209 -33.984  1.00  0.00     0.035 A 
HETATM   18  C   UNL     1      -7.563  -0.504 -35.053  1.00  0.00     0.030 A 
HETATM   19  C   UNL     1      -6.313  -1.122 -34.935  1.00  0.00     0.014 A 
HETATM   20  C   UNL     1      -5.575  -1.039 -33.747  1.00  0.00    -0.026 A 
HETATM   21  C   UNL     1      -4.321  -1.658 -33.617  1.00  0.00     0.012 A 
HETATM   22  C   UNL     1      -6.108  -0.316 -32.659  1.00  0.00    -0.024 A 
HETATM   23  C   UNL     1      -3.601  -1.564 -32.426  1.00  0.00     0.001 A 
HETATM   24  C   UNL     1      -4.123  -0.849 -31.352  1.00  0.00     0.001 A 
HETATM   25  C   UNL     1      -5.369  -0.229 -31.466  1.00  0.00     0.012 A 
HETATM   26  C   UNL     1      -7.367   0.299 -32.793  1.00  0.00     0.042 A 
ENDBRANCH   1  17
TORSDOF 5
ENDMDL
MODEL 8
REMARK VINA RESULT:      -7.2      4.764      7.021
REMARK  5 active torsions:
REMARK  status: ('A' for Active; 'I' for Inactive)
REMARK    1  A    between atoms: C_9  and  N_10 
REMARK       I    between atoms: N_10  and  C_11 
REMARK    2  A    between atoms: C_11  and  C_12 
REMARK    3  A    between atoms: C_12  and  N_13 
REMARK    4  A    between atoms: C_12  and  C_17 
REMARK    5  A    between atoms: C_17  and  C_18 
ROOT
HETATM    1  N   UNL     1      -8.422   0.555 -33.219  1.00  0.00    -0.325 N 
HETATM    2  C   UNL     1      -8.510   1.858 -33.667  1.00  0.00     0.253 C 
HETATM    3  O   UNL     1      -7.653   2.497 -34.279  1.00  0.00    -0.271 OA
HETATM    4  H   UNL     1      -9.220   0.144 -32.747  1.00  0.00     0.169 HD
ENDROOT
BRANCH   2   5
HETATM    5  C   UNL     1      -9.840   2.558 -33.365  1.00  0.00     0.280 C 
BRANCH   5   6
HETATM    6  N   UNL     1     -10.295   2.171 -31.975  1.00  0.00    -0.066 N 
HETATM    7  H   UNL     1     -11.164   1.601 -32.048  1.00  0.00     0.275 HD
HETATM    8  H   UNL     1      -9.567   1.609 -31.513  1.00  0.00     0.275 HD
HETATM    9  H   UNL     1     -10.470   2.986 -31.381  1.00  0.00     0.275 HD
ENDBRANCH   5   6
BRANCH   5  10
HETATM   10  C   UNL     1     -10.906   2.161 -34.394  1.00  0.00     0.103 C 
BRANCH  10  11
HETATM   11  C   UNL     1     -12.290   2.439 -33.912  1.00  0.00     0.053 A 
HETATM   12  N   UNL     1     -13.078   1.407 -33.443  1.00  0.00    -0.247 NA
HETATM   13  C   UNL     1     -14.226   1.967 -33.124  1.00  0.00     0.207 A 
HETATM   14  N   UNL     1     -14.214   3.313 -33.363  1.00  0.00    -0.359 N 
HETATM   15  H   UNL     1     -14.983   3.954 -33.204  1.00  0.00     0.166 HD
HETATM   16  C   UNL     1     -12.979   3.628 -33.866  1.00  0.00     0.116 A 
ENDBRANCH  10  11
ENDBRANCH   5  10
ENDBRANCH   2   5
BRANCH   1  17
HETATM   17  C   UNL     1      -7.325  -0.324 -33.375  1.00  0.00     0.035 A 
HETATM   18  C   UNL     1      -6.024  -0.032 -32.971  1.00  0.00     0.030 A 
HETATM   19  C   UNL     1      -4.994  -0.957 -33.173  1.00  0.00     0.014 A 
HETATM   20  C   UNL     1      -5.242  -2.194 -33.782  1.00  0.00    -0.026 A 
HETATM   21  C   UNL     1      -4.215  -3.127 -33.992  1.00  0.00     0.012 A 
HETATM   22  C   UNL     1      -6.556  -2.504 -34.192  1.00  0.00    -0.024 A 
HETATM   23  C   UNL     1      -4.481  -4.354 -34.600  1.00  0.00     0.001 A 
HETATM   24  C   UNL     1      -5.777  -4.664 -35.004  1.00  0.00     0.001 A 
HETATM   25  C   UNL     1      -6.809  -3.745 -34.801  1.00  0.00     0.012 A 
HETATM   26  C   UNL     1      -7.582  -1.563 -33.983  1.00  0.00     0.042 A 
ENDBRANCH   1  17
TORSDOF 5
ENDMDL
MODEL 9
REMARK VINA RESULT:      -7.2      4.358      6.555
REMARK  5 active torsions:
REMARK  status: ('A' for Active; 'I' for Inactive)
REMARK    1  A    between atoms: C_9  and  N_10 
REMARK       I    between atoms: N_10  and  C_11 
REMARK    2  A    between atoms: C_11  and  C_12 
REMARK    3  A    between atoms: C_12  and  N_13 
REMARK    4  A    between atoms: C_12  and  C_17 
REMARK    5  A    between atoms: C_17  and  C_18 
ROOT
HETATM    1  N   UNL     1      -7.740   1.287 -33.623  1.00  0.00    -0.325 N 
HETATM    2  C   UNL     1      -8.715   1.495 -32.668  1.00  0.00     0.253 C 
HETATM    3  O   UNL     1      -9.089   0.709 -31.798  1.00  0.00    -0.271 OA
HETATM    4  H   UNL     1      -7.515   2.037 -34.267  1.00  0.00     0.169 HD
ENDROOT
BRANCH   2   5
HETATM    5  C   UNL     1      -9.378   2.878 -32.712  1.00  0.00     0.280 C 
BRANCH   5   6
HETATM    6  N   UNL     1     -10.621   2.854 -31.851  1.00  0.00    -0.066 N 
HETATM    7  H   UNL     1     -10.823   1.871 -31.572  1.00  0.00     0.275 HD
HETATM    8  H   UNL     1     -10.469   3.415 -31.002  1.00  0.00     0.275 HD
HETATM    9  H   UNL     1     -11.435   3.246 -32.331  1.00  0.00     0.275 HD
ENDBRANCH   5   6
BRANCH   5  10
HETATM   10  C   UNL     1      -9.747   3.254 -34.153  1.00  0.00     0.103 C 
BRANCH  10  11
HETATM   11  C   UNL     1     -11.151   2.885 -34.492  1.00  0.00     0.053 A 
HETATM   12  N   UNL     1     -11.527   1.557 -34.526  1.00  0.00    -0.247 NA
HETATM   13  C   UNL     1     -12.796   1.566 -34.874  1.00  0.00     0.207 A 
HETATM   14  N   UNL     1     -13.258   2.839 -35.065  1.00  0.00    -0.359 N 
HETATM   15  H   UNL     1     -14.198   3.097 -35.343  1.00  0.00     0.166 HD
HETATM   16  C   UNL     1     -12.215   3.693 -34.821  1.00  0.00     0.116 A 
ENDBRANCH  10  11
ENDBRANCH   5  10
ENDBRANCH   2   5
BRANCH   1  17
HETATM   17  C   UNL     1      -6.961   0.119 -33.800  1.00  0.00     0.035 A 
HETATM   18  C   UNL     1      -7.162  -0.809 -34.820  1.00  0.00     0.030 A 
HETATM   19  C   UNL     1      -6.351  -1.945 -34.916  1.00  0.00     0.014 A 
HETATM   20  C   UNL     1      -5.319  -2.176 -33.996  1.00  0.00    -0.026 A 
HETATM   21  C   UNL     1      -4.501  -3.314 -34.082  1.00  0.00     0.012 A 
HETATM   22  C   UNL     1      -5.102  -1.241 -32.962  1.00  0.00    -0.024 A 
HETATM   23  C   UNL     1      -3.479  -3.527 -33.157  1.00  0.00     0.001 A 
HETATM   24  C   UNL     1      -3.260  -2.605 -32.137  1.00  0.00     0.001 A 
HETATM   25  C   UNL     1      -4.066  -1.469 -32.039  1.00  0.00     0.012 A 
HETATM   26  C   UNL     1      -5.928  -0.104 -32.878  1.00  0.00     0.042 A 
ENDBRANCH   1  17
TORSDOF 5
ENDMDL
MODEL 10
REMARK VINA RESULT:      -7.2      4.195      5.632
REMARK  5 active torsions:
REMARK  status: ('A' for Active; 'I' for Inactive)
REMARK    1  A    between atoms: C_9  and  N_10 
REMARK       I    between atoms: N_10  and  C_11 
REMARK    2  A    between atoms: C_11  and  C_12 
REMARK    3  A    between atoms: C_12  and  N_13 
REMARK    4  A    between atoms: C_12  and  C_17 
REMARK    5  A    between atoms: C_17  and  C_18 
ROOT
HETATM    1  N   UNL     1      -8.823   1.331 -34.712  1.00  0.00    -0.325 N 
HETATM    2  C   UNL     1      -9.802   1.724 -33.822  1.00  0.00     0.253 C 
HETATM    3  O   UNL     1      -9.861   1.475 -32.618  1.00  0.00    -0.271 OA
HETATM    4  H   UNL     1      -8.888   1.631 -35.679  1.00  0.00     0.169 HD
ENDROOT
BRANCH   2   5
HETATM    5  C   UNL     1     -10.923   2.578 -34.429  1.00  0.00     0.280 C 
BRANCH   5   6
HETATM    6  N   UNL     1     -11.638   1.769 -35.488  1.00  0.00    -0.066 N 
HETATM    7  H   UNL     1     -12.660   1.777 -35.290  1.00  0.00     0.275 HD
HETATM    8  H   UNL     1     -11.475   2.184 -36.416  1.00  0.00     0.275 HD
HETATM    9  H   UNL     1     -11.306   0.801 -35.529  1.00  0.00     0.275 HD
ENDBRANCH   5   6
BRANCH   5  10
HETATM   10  C   UNL     1     -10.351   3.860 -35.047  1.00  0.00     0.103 C 
BRANCH  10  11
HETATM   11  C   UNL     1      -9.651   4.710 -34.042  1.00  0.00     0.053 A 
HETATM   12  N   UNL     1      -8.318   5.027 -34.214  1.00  0.00    -0.247 NA
HETATM   13  C   UNL     1      -7.998   5.754 -33.164  1.00  0.00     0.207 A 
HETATM   14  N   UNL     1      -9.063   5.922 -32.324  1.00  0.00    -0.359 N 
HETATM   15  H   UNL     1      -9.058   6.436 -31.450  1.00  0.00     0.166 HD
HETATM   16  C   UNL     1     -10.128   5.261 -32.876  1.00  0.00     0.116 A 
ENDBRANCH  10  11
ENDBRANCH   5  10
ENDBRANCH   2   5
BRANCH   1  17
HETATM   17  C   UNL     1      -7.673   0.559 -34.423  1.00  0.00     0.035 A 
HETATM   18  C   UNL     1      -6.538   1.055 -33.785  1.00  0.00     0.030 A 
HETATM   19  C   UNL     1      -5.438   0.223 -33.547  1.00  0.00     0.014 A 
HETATM   20  C   UNL     1      -5.451  -1.122 -33.940  1.00  0.00    -0.026 A 
HETATM   21  C   UNL     1      -4.351  -1.964 -33.708  1.00  0.00     0.012 A 
HETATM   22  C   UNL     1      -6.596  -1.638 -34.582  1.00  0.00    -0.024 A 
HETATM   23  C   UNL     1      -4.382  -3.301 -34.106  1.00  0.00     0.001 A 
HETATM   24  C   UNL     1      -5.512  -3.813 -34.738  1.00  0.00     0.001 A 
HETATM   25  C   UNL     1      -6.613  -2.987 -34.976  1.00  0.00     0.012 A 
HETATM   26  C   UNL     1      -7.694  -0.788 -34.816  1.00  0.00     0.042 A 
ENDBRANCH   1  17
TORSDOF 5
ENDMDL
