MODEL 1
REMARK VINA RESULT:      -6.7      0.000      0.000
REMARK  5 active torsions:
REMARK  status: ('A' for Active; 'I' for Inactive)
REMARK    1  A    between atoms: C_2  and  O_3 
REMARK    2  A    between atoms: C_4  and  C_5 
REMARK    3  A    between atoms: C_5  and  O_6 
REMARK    4  A    between atoms: C_9  and  C_10 
REMARK    5  A    between atoms: C_22  and  O_23 
ROOT
HETATM    1  C   UNL     1      -5.508  -2.291 -34.650  1.00  0.00     0.047 C 
HETATM    2  C   UNL     1      -6.641  -1.466 -34.021  1.00  0.00     0.073 C 
HETATM    3  C   UNL     1      -6.255  -0.819 -32.642  1.00  0.00     0.133 C 
HETATM    4  C   UNL     1      -7.276   0.223 -32.062  1.00  0.00     0.074 C 
HETATM    5  C   UNL     1      -8.296   0.658 -33.062  1.00  0.00     0.030 A 
HETATM    6  C   UNL     1      -8.227   0.373 -34.408  1.00  0.00     0.042 A 
HETATM    7  N   UNL     1      -9.340   0.910 -34.990  1.00  0.00    -0.279 N 
HETATM    8  H   UNL     1      -9.618   0.895 -35.966  1.00  0.00     0.189 HD
HETATM    9  N   UNL     1     -10.171   1.478 -34.089  1.00  0.00    -0.149 NA
HETATM   10  C   UNL     1      -9.522   1.314 -32.944  1.00  0.00     0.190 A 
HETATM   11  C   UNL     1      -7.178  -0.443 -35.064  1.00  0.00     0.097 C 
ENDROOT
BRANCH   4  12
HETATM   12  C   UNL     1      -6.693   1.517 -31.498  1.00  0.00    -0.048 A 
HETATM   13  C   UNL     1      -6.266   1.634 -30.160  1.00  0.00     0.009 A 
HETATM   14  C   UNL     1      -5.764   2.839 -29.664  1.00  0.00     0.019 A 
HETATM   15  C   UNL     1      -5.681   3.946 -30.503  1.00  0.00     0.011 A 
HETATM   16 BR   UNL     1      -5.004   5.578 -29.834  1.00  0.00    -0.051 Br
HETATM   17  C   UNL     1      -6.096   3.856 -31.829  1.00  0.00     0.019 A 
HETATM   18  C   UNL     1      -6.601   2.650 -32.322  1.00  0.00     0.009 A 
ENDBRANCH   4  12
BRANCH   3  19
HETATM   19  C   UNL     1      -4.837  -0.286 -32.651  1.00  0.00     0.266 C 
HETATM   20  O   UNL     1      -4.392   0.516 -33.460  1.00  0.00    -0.265 OA
BRANCH  19  21
HETATM   21  O   UNL     1      -4.133  -0.831 -31.616  1.00  0.00    -0.326 OA
HETATM   22  C   UNL     1      -3.059  -0.022 -31.140  1.00  0.00     0.213 C 
ENDBRANCH  19  21
ENDBRANCH   3  19
BRANCH   2  23
HETATM   23  O   UNL     1      -7.676  -2.448 -33.762  1.00  0.00    -0.389 OA
HETATM   24  H   UNL     1      -8.182  -2.590 -34.583  1.00  0.00     0.210 HD
ENDBRANCH   2  23
BRANCH  10  25
HETATM   25  O   UNL     1     -10.151   1.756 -31.861  1.00  0.00    -0.343 OA
HETATM   26  H   UNL     1      -9.582   1.487 -31.120  1.00  0.00     0.219 HD
ENDBRANCH  10  25
TORSDOF 5
ENDMDL
MODEL 2
REMARK VINA RESULT:      -6.5      2.723      3.871
REMARK  5 active torsions:
REMARK  status: ('A' for Active; 'I' for Inactive)
REMARK    1  A    between atoms: C_2  and  O_3 
REMARK    2  A    between atoms: C_4  and  C_5 
REMARK    3  A    between atoms: C_5  and  O_6 
REMARK    4  A    between atoms: C_9  and  C_10 
REMARK    5  A    between atoms: C_22  and  O_23 
ROOT
HETATM    1  C   UNL     1      -9.327  -0.028 -33.197  1.00  0.00     0.047 C 
HETATM    2  C   UNL     1      -8.825   0.930 -32.105  1.00  0.00     0.073 C 
HETATM    3  C   UNL     1      -7.261   0.952 -31.963  1.00  0.00     0.133 C 
HETATM    4  C   UNL     1      -6.671   2.075 -31.038  1.00  0.00     0.074 C 
HETATM    5  C   UNL     1      -7.672   3.128 -30.690  1.00  0.00     0.030 A 
HETATM    6  C   UNL     1      -8.905   3.248 -31.290  1.00  0.00     0.042 A 
HETATM    7  N   UNL     1      -9.539   4.302 -30.697  1.00  0.00    -0.279 N 
HETATM    8  H   UNL     1     -10.463   4.678 -30.888  1.00  0.00     0.189 HD
HETATM    9  N   UNL     1      -8.816   4.842 -29.692  1.00  0.00    -0.149 NA
HETATM   10  C   UNL     1      -7.702   4.121 -29.710  1.00  0.00     0.190 A 
HETATM   11  C   UNL     1      -9.455   2.337 -32.321  1.00  0.00     0.097 C 
ENDROOT
BRANCH   4  12
HETATM   12  C   UNL     1      -5.458   2.837 -31.567  1.00  0.00    -0.048 A 
HETATM   13  C   UNL     1      -5.578   3.951 -32.421  1.00  0.00     0.009 A 
HETATM   14  C   UNL     1      -4.449   4.610 -32.913  1.00  0.00     0.019 A 
HETATM   15  C   UNL     1      -3.182   4.163 -32.554  1.00  0.00     0.011 A 
HETATM   16 BR   UNL     1      -1.652   5.051 -33.219  1.00  0.00    -0.051 Br
HETATM   17  C   UNL     1      -3.036   3.065 -31.710  1.00  0.00     0.019 A 
HETATM   18  C   UNL     1      -4.167   2.405 -31.222  1.00  0.00     0.009 A 
ENDBRANCH   4  12
BRANCH   3  19
HETATM   19  C   UNL     1      -6.574   0.906 -33.312  1.00  0.00     0.266 C 
HETATM   20  O   UNL     1      -6.837   1.631 -34.261  1.00  0.00    -0.265 OA
BRANCH  19  21
HETATM   21  O   UNL     1      -5.614  -0.065 -33.308  1.00  0.00    -0.326 OA
HETATM   22  C   UNL     1      -5.890  -1.175 -34.161  1.00  0.00     0.213 C 
ENDBRANCH  19  21
ENDBRANCH   3  19
BRANCH   2  23
HETATM   23  O   UNL     1      -9.362   0.366 -30.882  1.00  0.00    -0.389 OA
HETATM   24  H   UNL     1      -9.451   1.080 -30.224  1.00  0.00     0.210 HD
ENDBRANCH   2  23
BRANCH  10  25
HETATM   25  O   UNL     1      -6.810   4.423 -28.774  1.00  0.00    -0.343 OA
HETATM   26  H   UNL     1      -6.713   5.389 -28.830  1.00  0.00     0.219 HD
ENDBRANCH  10  25
TORSDOF 5
ENDMDL
MODEL 3
REMARK VINA RESULT:      -6.4     15.274     17.234
REMARK  5 active torsions:
REMARK  status: ('A' for Active; 'I' for Inactive)
REMARK    1  A    between atoms: C_2  and  O_3 
REMARK    2  A    between atoms: C_4  and  C_5 
REMARK    3  A    between atoms: C_5  and  O_6 
REMARK    4  A    between atoms: C_9  and  C_10 
REMARK    5  A    between atoms: C_22  and  O_23 
ROOT
HETATM    1  C   UNL     1      -1.461 -15.837 -41.358  1.00  0.00     0.047 C 
HETATM    2  C   UNL     1      -1.984 -14.934 -40.231  1.00  0.00     0.073 C 
HETATM    3  C   UNL     1      -3.115 -13.946 -40.693  1.00  0.00     0.133 C 
HETATM    4  C   UNL     1      -3.855 -13.165 -39.550  1.00  0.00     0.074 C 
HETATM    5  C   UNL     1      -3.573 -13.717 -38.191  1.00  0.00     0.030 A 
HETATM    6  C   UNL     1      -2.932 -14.914 -37.962  1.00  0.00     0.042 A 
HETATM    7  N   UNL     1      -2.837 -15.066 -36.609  1.00  0.00    -0.279 N 
HETATM    8  H   UNL     1      -2.425 -15.830 -36.082  1.00  0.00     0.189 HD
HETATM    9  N   UNL     1      -3.322 -14.002 -35.933  1.00  0.00    -0.149 NA
HETATM   10  C   UNL     1      -3.757 -13.209 -36.904  1.00  0.00     0.190 A 
HETATM   11  C   UNL     1      -2.379 -15.809 -39.006  1.00  0.00     0.097 C 
ENDROOT
BRANCH   4  12
HETATM   12  C   UNL     1      -5.377 -13.089 -39.642  1.00  0.00    -0.048 A 
HETATM   13  C   UNL     1      -6.222 -13.976 -38.945  1.00  0.00     0.009 A 
HETATM   14  C   UNL     1      -7.611 -13.900 -39.071  1.00  0.00     0.019 A 
HETATM   15  C   UNL     1      -8.174 -12.933 -39.897  1.00  0.00     0.011 A 
HETATM   16 BR   UNL     1     -10.053 -12.830 -40.072  1.00  0.00    -0.051 Br
HETATM   17  C   UNL     1      -7.361 -12.045 -40.596  1.00  0.00     0.019 A 
HETATM   18  C   UNL     1      -5.972 -12.124 -40.471  1.00  0.00     0.009 A 
ENDBRANCH   4  12
BRANCH   3  19
HETATM   19  C   UNL     1      -4.083 -14.611 -41.649  1.00  0.00     0.266 C 
HETATM   20  O   UNL     1      -4.739 -15.614 -41.403  1.00  0.00    -0.265 OA
BRANCH  19  21
HETATM   21  O   UNL     1      -4.118 -13.920 -42.826  1.00  0.00    -0.326 OA
HETATM   22  C   UNL     1      -4.427 -14.714 -43.971  1.00  0.00     0.213 C 
ENDBRANCH  19  21
ENDBRANCH   3  19
BRANCH   2  23
HETATM   23  O   UNL     1      -0.830 -14.132 -39.872  1.00  0.00    -0.389 OA
HETATM   24  H   UNL     1      -0.159 -14.223 -40.573  1.00  0.00     0.210 HD
ENDBRANCH   2  23
BRANCH  10  25
HETATM   25  O   UNL     1      -4.260 -12.045 -36.510  1.00  0.00    -0.343 OA
HETATM   26  H   UNL     1      -3.494 -11.446 -36.480  1.00  0.00     0.219 HD
ENDBRANCH  10  25
TORSDOF 5
ENDMDL
MODEL 4
REMARK VINA RESULT:      -6.4      2.932      4.877
REMARK  5 active torsions:
REMARK  status: ('A' for Active; 'I' for Inactive)
REMARK    1  A    between atoms: C_2  and  O_3 
REMARK    2  A    between atoms: C_4  and  C_5 
REMARK    3  A    between atoms: C_5  and  O_6 
REMARK    4  A    between atoms: C_9  and  C_10 
REMARK    5  A    between atoms: C_22  and  O_23 
ROOT
HETATM    1  C   UNL     1      -5.600   3.166 -29.703  1.00  0.00     0.047 C 
HETATM    2  C   UNL     1      -6.514   2.946 -30.918  1.00  0.00     0.073 C 
HETATM    3  C   UNL     1      -5.863   2.060 -32.039  1.00  0.00     0.133 C 
HETATM    4  C   UNL     1      -6.821   1.601 -33.195  1.00  0.00     0.074 C 
HETATM    5  C   UNL     1      -8.263   1.825 -32.880  1.00  0.00     0.030 A 
HETATM    6  C   UNL     1      -8.735   2.172 -31.633  1.00  0.00     0.042 A 
HETATM    7  N   UNL     1     -10.089   2.310 -31.741  1.00  0.00    -0.279 N 
HETATM    8  H   UNL     1     -10.763   2.557 -31.022  1.00  0.00     0.189 HD
HETATM    9  N   UNL     1     -10.528   2.137 -33.006  1.00  0.00    -0.149 NA
HETATM   10  C   UNL     1      -9.415   1.847 -33.668  1.00  0.00     0.190 A 
HETATM   11  C   UNL     1      -7.901   2.429 -30.436  1.00  0.00     0.097 C 
ENDROOT
BRANCH   4  12
HETATM   12  C   UNL     1      -6.729   0.139 -33.627  1.00  0.00    -0.048 A 
HETATM   13  C   UNL     1      -5.596  -0.388 -34.277  1.00  0.00     0.009 A 
HETATM   14  C   UNL     1      -5.551  -1.723 -34.686  1.00  0.00     0.019 A 
HETATM   15  C   UNL     1      -6.643  -2.550 -34.447  1.00  0.00     0.011 A 
HETATM   16 BR   UNL     1      -6.588  -4.356 -35.001  1.00  0.00    -0.051 Br
HETATM   17  C   UNL     1      -7.776  -2.055 -33.806  1.00  0.00     0.019 A 
HETATM   18  C   UNL     1      -7.819  -0.718 -33.400  1.00  0.00     0.009 A 
ENDBRANCH   4  12
BRANCH   3  19
HETATM   19  C   UNL     1      -5.079   0.903 -31.455  1.00  0.00     0.266 C 
HETATM   20  O   UNL     1      -5.553   0.003 -30.777  1.00  0.00    -0.265 OA
BRANCH  19  21
HETATM   21  O   UNL     1      -3.763   1.015 -31.804  1.00  0.00    -0.326 OA
HETATM   22  C   UNL     1      -2.911   0.029 -31.223  1.00  0.00     0.213 C 
ENDBRANCH  19  21
ENDBRANCH   3  19
BRANCH   2  23
HETATM   23  O   UNL     1      -6.683   4.279 -31.464  1.00  0.00    -0.389 OA
HETATM   24  H   UNL     1      -5.831   4.574 -31.834  1.00  0.00     0.210 HD
ENDBRANCH   2  23
BRANCH  10  25
HETATM   25  O   UNL     1      -9.557   1.665 -34.975  1.00  0.00    -0.343 OA
HETATM   26  H   UNL     1      -9.761   0.719 -35.070  1.00  0.00     0.219 HD
ENDBRANCH  10  25
TORSDOF 5
ENDMDL
MODEL 5
REMARK VINA RESULT:      -6.4      3.206      4.728
REMARK  5 active torsions:
REMARK  status: ('A' for Active; 'I' for Inactive)
REMARK    1  A    between atoms: C_2  and  O_3 
REMARK    2  A    between atoms: C_4  and  C_5 
REMARK    3  A    between atoms: C_5  and  O_6 
REMARK    4  A    between atoms: C_9  and  C_10 
REMARK    5  A    between atoms: C_22  and  O_23 
ROOT
HETATM    1  C   UNL     1      -4.076  -0.716 -33.327  1.00  0.00     0.047 C 
HETATM    2  C   UNL     1      -4.904   0.432 -32.730  1.00  0.00     0.073 C 
HETATM    3  C   UNL     1      -6.045   0.944 -33.681  1.00  0.00     0.133 C 
HETATM    4  C   UNL     1      -7.071   1.947 -33.045  1.00  0.00     0.074 C 
HETATM    5  C   UNL     1      -6.976   2.012 -31.556  1.00  0.00     0.030 A 
HETATM    6  C   UNL     1      -6.245   1.131 -30.791  1.00  0.00     0.042 A 
HETATM    7  N   UNL     1      -6.380   1.521 -29.490  1.00  0.00    -0.279 N 
HETATM    8  H   UNL     1      -5.981   1.103 -28.655  1.00  0.00     0.189 HD
HETATM    9  N   UNL     1      -7.108   2.652 -29.362  1.00  0.00    -0.149 NA
HETATM   10  C   UNL     1      -7.453   2.924 -30.614  1.00  0.00     0.190 A 
HETATM   11  C   UNL     1      -5.404   0.027 -31.312  1.00  0.00     0.097 C 
ENDROOT
BRANCH   4  12
HETATM   12  C   UNL     1      -8.549   1.699 -33.340  1.00  0.00    -0.048 A 
HETATM   13  C   UNL     1      -9.263   0.625 -32.774  1.00  0.00     0.009 A 
HETATM   14  C   UNL     1     -10.607   0.407 -33.085  1.00  0.00     0.019 A 
HETATM   15  C   UNL     1     -11.256   1.263 -33.969  1.00  0.00     0.011 A 
HETATM   16 BR   UNL     1     -13.073   0.969 -34.393  1.00  0.00    -0.051 Br
HETATM   17  C   UNL     1     -10.572   2.332 -34.542  1.00  0.00     0.019 A 
HETATM   18  C   UNL     1      -9.226   2.547 -34.231  1.00  0.00     0.009 A 
ENDBRANCH   4  12
BRANCH   3  19
HETATM   19  C   UNL     1      -6.732  -0.200 -34.397  1.00  0.00     0.266 C 
HETATM   20  O   UNL     1      -7.115  -0.175 -35.558  1.00  0.00    -0.265 OA
BRANCH  19  21
HETATM   21  O   UNL     1      -6.858  -1.265 -33.552  1.00  0.00    -0.326 OA
HETATM   22  C   UNL     1      -7.071  -2.516 -34.203  1.00  0.00     0.213 C 
ENDBRANCH  19  21
ENDBRANCH   3  19
BRANCH   2  23
HETATM   23  O   UNL     1      -3.942   1.509 -32.590  1.00  0.00    -0.389 OA
HETATM   24  H   UNL     1      -3.978   2.063 -33.391  1.00  0.00     0.210 HD
ENDBRANCH   2  23
BRANCH  10  25
HETATM   25  O   UNL     1      -8.158   4.036 -30.784  1.00  0.00    -0.343 OA
HETATM   26  H   UNL     1      -8.891   3.774 -31.368  1.00  0.00     0.219 HD
ENDBRANCH  10  25
TORSDOF 5
ENDMDL
MODEL 6
REMARK VINA RESULT:      -6.3      3.186      5.124
REMARK  5 active torsions:
REMARK  status: ('A' for Active; 'I' for Inactive)
REMARK    1  A    between atoms: C_2  and  O_3 
REMARK    2  A    between atoms: C_4  and  C_5 
REMARK    3  A    between atoms: C_5  and  O_6 
REMARK    4  A    between atoms: C_9  and  C_10 
REMARK    5  A    between atoms: C_22  and  O_23 
ROOT
HETATM    1  C   UNL     1      -6.933   5.088 -30.931  1.00  0.00     0.047 C 
HETATM    2  C   UNL     1      -7.916   4.458 -31.929  1.00  0.00     0.073 C 
HETATM    3  C   UNL     1      -7.228   3.501 -32.968  1.00  0.00     0.133 C 
HETATM    4  C   UNL     1      -8.195   2.646 -33.861  1.00  0.00     0.074 C 
HETATM    5  C   UNL     1      -9.604   2.653 -33.365  1.00  0.00     0.030 A 
HETATM    6  C   UNL     1      -9.987   3.150 -32.139  1.00  0.00     0.042 A 
HETATM    7  N   UNL     1     -11.343   3.006 -32.053  1.00  0.00    -0.279 N 
HETATM    8  H   UNL     1     -11.963   3.261 -31.291  1.00  0.00     0.189 HD
HETATM    9  N   UNL     1     -11.882   2.500 -33.184  1.00  0.00    -0.149 NA
HETATM   10  C   UNL     1     -10.819   2.297 -33.953  1.00  0.00     0.190 A 
HETATM   11  C   UNL     1      -9.091   3.796 -31.151  1.00  0.00     0.097 C 
ENDROOT
BRANCH   4  12
HETATM   12  C   UNL     1      -7.843   1.171 -34.040  1.00  0.00    -0.048 A 
HETATM   13  C   UNL     1      -8.246   0.180 -33.123  1.00  0.00     0.009 A 
HETATM   14  C   UNL     1      -7.884  -1.158 -33.298  1.00  0.00     0.019 A 
HETATM   15  C   UNL     1      -7.112  -1.522 -34.397  1.00  0.00     0.011 A 
HETATM   16 BR   UNL     1      -6.619  -3.330 -34.635  1.00  0.00    -0.051 Br
HETATM   17  C   UNL     1      -6.701  -0.562 -35.318  1.00  0.00     0.019 A 
HETATM   18  C   UNL     1      -7.062   0.776 -35.139  1.00  0.00     0.009 A 
ENDBRANCH   4  12
BRANCH   3  19
HETATM   19  C   UNL     1      -6.149   2.657 -32.324  1.00  0.00     0.266 C 
HETATM   20  O   UNL     1      -6.295   1.976 -31.317  1.00  0.00    -0.265 OA
BRANCH  19  21
HETATM   21  O   UNL     1      -4.990   2.765 -33.037  1.00  0.00    -0.326 OA
HETATM   22  C   UNL     1      -3.846   3.114 -32.259  1.00  0.00     0.213 C 
ENDBRANCH  19  21
ENDBRANCH   3  19
BRANCH   2  23
HETATM   23  O   UNL     1      -8.433   5.596 -32.665  1.00  0.00    -0.389 OA
HETATM   24  H   UNL     1      -9.257   5.330 -33.111  1.00  0.00     0.210 HD
ENDBRANCH   2  23
BRANCH  10  25
HETATM   25  O   UNL     1     -11.073   1.831 -35.169  1.00  0.00    -0.343 OA
HETATM   26  H   UNL     1     -12.038   1.717 -35.191  1.00  0.00     0.219 HD
ENDBRANCH  10  25
TORSDOF 5
ENDMDL
MODEL 7
REMARK VINA RESULT:      -6.3      3.246      4.883
REMARK  5 active torsions:
REMARK  status: ('A' for Active; 'I' for Inactive)
REMARK    1  A    between atoms: C_2  and  O_3 
REMARK    2  A    between atoms: C_4  and  C_5 
REMARK    3  A    between atoms: C_5  and  O_6 
REMARK    4  A    between atoms: C_9  and  C_10 
REMARK    5  A    between atoms: C_22  and  O_23 
ROOT
HETATM    1  C   UNL     1      -3.531   0.279 -30.873  1.00  0.00     0.047 C 
HETATM    2  C   UNL     1      -4.152   1.432 -31.677  1.00  0.00     0.073 C 
HETATM    3  C   UNL     1      -5.250   0.963 -32.698  1.00  0.00     0.133 C 
HETATM    4  C   UNL     1      -6.087   2.104 -33.378  1.00  0.00     0.074 C 
HETATM    5  C   UNL     1      -5.911   3.430 -32.714  1.00  0.00     0.030 A 
HETATM    6  C   UNL     1      -5.281   3.608 -31.503  1.00  0.00     0.042 A 
HETATM    7  N   UNL     1      -5.295   4.947 -31.237  1.00  0.00    -0.279 N 
HETATM    8  H   UNL     1      -4.921   5.440 -30.431  1.00  0.00     0.189 HD
HETATM    9  N   UNL     1      -5.843   5.669 -32.238  1.00  0.00    -0.149 NA
HETATM   10  C   UNL     1      -6.204   4.736 -33.110  1.00  0.00     0.190 A 
HETATM   11  C   UNL     1      -4.637   2.542 -30.700  1.00  0.00     0.097 C 
ENDROOT
BRANCH   4  12
HETATM   12  C   UNL     1      -7.597   1.894 -33.460  1.00  0.00    -0.048 A 
HETATM   13  C   UNL     1      -8.481   2.372 -32.472  1.00  0.00     0.009 A 
HETATM   14  C   UNL     1      -9.856   2.141 -32.558  1.00  0.00     0.019 A 
HETATM   15  C   UNL     1     -10.365   1.426 -33.638  1.00  0.00     0.011 A 
HETATM   16 BR   UNL     1     -12.224   1.109 -33.756  1.00  0.00    -0.051 Br
HETATM   17  C   UNL     1      -9.513   0.944 -34.628  1.00  0.00     0.019 A 
HETATM   18  C   UNL     1      -8.137   1.174 -34.537  1.00  0.00     0.009 A 
ENDBRANCH   4  12
BRANCH   3  19
HETATM   19  C   UNL     1      -6.131  -0.122 -32.115  1.00  0.00     0.266 C 
HETATM   20  O   UNL     1      -6.719  -0.052 -31.045  1.00  0.00    -0.265 OA
BRANCH  19  21
HETATM   21  O   UNL     1      -6.175  -1.188 -32.966  1.00  0.00    -0.326 OA
HETATM   22  C   UNL     1      -5.017  -1.340 -33.787  1.00  0.00     0.213 C 
ENDBRANCH  19  21
ENDBRANCH   3  19
BRANCH   2  23
HETATM   23  O   UNL     1      -3.037   1.949 -32.448  1.00  0.00    -0.389 OA
HETATM   24  H   UNL     1      -3.334   2.745 -32.927  1.00  0.00     0.210 HD
ENDBRANCH   2  23
BRANCH  10  25
HETATM   25  O   UNL     1      -6.747   5.184 -34.236  1.00  0.00    -0.343 OA
HETATM   26  H   UNL     1      -6.907   6.128 -34.072  1.00  0.00     0.219 HD
ENDBRANCH  10  25
TORSDOF 5
ENDMDL
MODEL 8
REMARK VINA RESULT:      -6.3     15.020     16.445
REMARK  5 active torsions:
REMARK  status: ('A' for Active; 'I' for Inactive)
REMARK    1  A    between atoms: C_2  and  O_3 
REMARK    2  A    between atoms: C_4  and  C_5 
REMARK    3  A    between atoms: C_5  and  O_6 
REMARK    4  A    between atoms: C_9  and  C_10 
REMARK    5  A    between atoms: C_22  and  O_23 
ROOT
HETATM    1  C   UNL     1      -2.191 -15.494 -37.427  1.00  0.00     0.047 C 
HETATM    2  C   UNL     1      -3.320 -14.821 -36.631  1.00  0.00     0.073 C 
HETATM    3  C   UNL     1      -4.234 -13.890 -37.506  1.00  0.00     0.133 C 
HETATM    4  C   UNL     1      -5.539 -13.361 -36.812  1.00  0.00     0.074 C 
HETATM    5  C   UNL     1      -5.853 -14.077 -35.539  1.00  0.00     0.030 A 
HETATM    6  C   UNL     1      -5.220 -15.227 -35.125  1.00  0.00     0.042 A 
HETATM    7  N   UNL     1      -5.756 -15.568 -33.916  1.00  0.00    -0.279 N 
HETATM    8  H   UNL     1      -5.530 -16.359 -33.320  1.00  0.00     0.189 HD
HETATM    9  N   UNL     1      -6.663 -14.667 -33.480  1.00  0.00    -0.149 NA
HETATM   10  C   UNL     1      -6.703 -13.785 -34.471  1.00  0.00     0.190 A 
HETATM   11  C   UNL     1      -4.106 -15.902 -35.833  1.00  0.00     0.097 C 
ENDROOT
BRANCH   4  12
HETATM   12  C   UNL     1      -6.826 -13.419 -37.631  1.00  0.00    -0.048 A 
HETATM   13  C   UNL     1      -7.699 -14.525 -37.591  1.00  0.00     0.009 A 
HETATM   14  C   UNL     1      -8.855 -14.562 -38.374  1.00  0.00     0.019 A 
HETATM   15  C   UNL     1      -9.154 -13.490 -39.208  1.00  0.00     0.011 A 
HETATM   16 BR   UNL     1     -10.717 -13.539 -40.270  1.00  0.00    -0.051 Br
HETATM   17  C   UNL     1      -8.309 -12.385 -39.265  1.00  0.00     0.019 A 
HETATM   18  C   UNL     1      -7.151 -12.351 -38.483  1.00  0.00     0.009 A 
ENDBRANCH   4  12
BRANCH   3  19
HETATM   19  C   UNL     1      -4.516 -14.497 -38.864  1.00  0.00     0.266 C 
HETATM   20  O   UNL     1      -5.003 -15.603 -39.054  1.00  0.00    -0.265 OA
BRANCH  19  21
HETATM   21  O   UNL     1      -4.148 -13.622 -39.846  1.00  0.00    -0.326 OA
HETATM   22  C   UNL     1      -4.836 -13.797 -41.083  1.00  0.00     0.213 C 
ENDBRANCH  19  21
ENDBRANCH   3  19
BRANCH   2  23
HETATM   23  O   UNL     1      -2.614 -13.974 -35.689  1.00  0.00    -0.389 OA
HETATM   24  H   UNL     1      -2.815 -13.043 -35.898  1.00  0.00     0.210 HD
ENDBRANCH   2  23
BRANCH  10  25
HETATM   25  O   UNL     1      -7.506 -12.746 -34.280  1.00  0.00    -0.343 OA
HETATM   26  H   UNL     1      -7.451 -12.239 -35.108  1.00  0.00     0.219 HD
ENDBRANCH  10  25
TORSDOF 5
ENDMDL
MODEL 9
REMARK VINA RESULT:      -6.3      3.953      6.084
REMARK  5 active torsions:
REMARK  status: ('A' for Active; 'I' for Inactive)
REMARK    1  A    between atoms: C_2  and  O_3 
REMARK    2  A    between atoms: C_4  and  C_5 
REMARK    3  A    between atoms: C_5  and  O_6 
REMARK    4  A    between atoms: C_9  and  C_10 
REMARK    5  A    between atoms: C_22  and  O_23 
ROOT
HETATM    1  C   UNL     1      -7.700   4.976 -33.852  1.00  0.00     0.047 C 
HETATM    2  C   UNL     1      -6.338   4.826 -33.156  1.00  0.00     0.073 C 
HETATM    3  C   UNL     1      -6.238   3.552 -32.242  1.00  0.00     0.133 C 
HETATM    4  C   UNL     1      -4.807   3.212 -31.692  1.00  0.00     0.074 C 
HETATM    5  C   UNL     1      -3.723   3.977 -32.377  1.00  0.00     0.030 A 
HETATM    6  C   UNL     1      -3.909   4.722 -33.520  1.00  0.00     0.042 A 
HETATM    7  N   UNL     1      -2.706   5.288 -33.831  1.00  0.00    -0.279 N 
HETATM    8  H   UNL     1      -2.471   5.898 -34.608  1.00  0.00     0.189 HD
HETATM    9  N   UNL     1      -1.751   5.009 -32.917  1.00  0.00    -0.149 NA
HETATM   10  C   UNL     1      -2.387   4.222 -32.058  1.00  0.00     0.190 A 
HETATM   11  C   UNL     1      -5.202   4.928 -34.215  1.00  0.00     0.097 C 
ENDROOT
BRANCH   4  12
HETATM   12  C   UNL     1      -4.372   1.750 -31.764  1.00  0.00    -0.048 A 
HETATM   13  C   UNL     1      -3.610   1.240 -32.834  1.00  0.00     0.009 A 
HETATM   14  C   UNL     1      -3.250  -0.109 -32.887  1.00  0.00     0.019 A 
HETATM   15  C   UNL     1      -3.649  -0.966 -31.867  1.00  0.00     0.011 A 
HETATM   16 BR   UNL     1      -3.167  -2.792 -31.937  1.00  0.00    -0.051 Br
HETATM   17  C   UNL     1      -4.402  -0.487 -30.798  1.00  0.00     0.019 A 
HETATM   18  C   UNL     1      -4.763   0.863 -30.749  1.00  0.00     0.009 A 
ENDBRANCH   4  12
BRANCH   3  19
HETATM   19  C   UNL     1      -6.905   2.351 -32.879  1.00  0.00     0.266 C 
HETATM   20  O   UNL     1      -6.629   1.893 -33.979  1.00  0.00    -0.265 OA
BRANCH  19  21
HETATM   21  O   UNL     1      -7.859   1.853 -32.038  1.00  0.00    -0.326 OA
HETATM   22  C   UNL     1      -8.164   0.474 -32.238  1.00  0.00     0.213 C 
ENDBRANCH  19  21
ENDBRANCH   3  19
BRANCH   2  23
HETATM   23  O   UNL     1      -6.268   5.987 -32.290  1.00  0.00    -0.389 OA
HETATM   24  H   UNL     1      -5.632   6.620 -32.670  1.00  0.00     0.210 HD
ENDBRANCH   2  23
BRANCH  10  25
HETATM   25  O   UNL     1      -1.674   3.824 -31.011  1.00  0.00    -0.343 OA
HETATM   26  H   UNL     1      -0.948   4.467 -30.950  1.00  0.00     0.219 HD
ENDBRANCH  10  25
TORSDOF 5
ENDMDL
MODEL 10
REMARK VINA RESULT:      -6.2      2.878      4.323
REMARK  5 active torsions:
REMARK  status: ('A' for Active; 'I' for Inactive)
REMARK    1  A    between atoms: C_2  and  O_3 
REMARK    2  A    between atoms: C_4  and  C_5 
REMARK    3  A    between atoms: C_5  and  O_6 
REMARK    4  A    between atoms: C_9  and  C_10 
REMARK    5  A    between atoms: C_22  and  O_23 
ROOT
HETATM    1  C   UNL     1      -6.771  -2.240 -34.186  1.00  0.00     0.047 C 
HETATM    2  C   UNL     1      -5.810  -1.141 -33.706  1.00  0.00     0.073 C 
HETATM    3  C   UNL     1      -6.397   0.309 -33.843  1.00  0.00     0.133 C 
HETATM    4  C   UNL     1      -5.570   1.453 -33.157  1.00  0.00     0.074 C 
HETATM    5  C   UNL     1      -4.523   0.937 -32.226  1.00  0.00     0.030 A 
HETATM    6  C   UNL     1      -4.433  -0.376 -31.819  1.00  0.00     0.042 A 
HETATM    7  N   UNL     1      -3.346  -0.467 -30.996  1.00  0.00    -0.279 N 
HETATM    8  H   UNL     1      -2.980  -1.282 -30.514  1.00  0.00     0.189 HD
HETATM    9  N   UNL     1      -2.677   0.701 -30.892  1.00  0.00    -0.149 NA
HETATM   10  C   UNL     1      -3.403   1.525 -31.637  1.00  0.00     0.190 A 
HETATM   11  C   UNL     1      -5.309  -1.482 -32.272  1.00  0.00     0.097 C 
ENDROOT
BRANCH   4  12
HETATM   12  C   UNL     1      -6.356   2.480 -32.345  1.00  0.00    -0.048 A 
HETATM   13  C   UNL     1      -6.617   2.317 -30.970  1.00  0.00     0.009 A 
HETATM   14  C   UNL     1      -7.364   3.259 -30.259  1.00  0.00     0.019 A 
HETATM   15  C   UNL     1      -7.861   4.379 -30.917  1.00  0.00     0.011 A 
HETATM   16 BR   UNL     1      -8.874   5.654 -29.959  1.00  0.00    -0.051 Br
HETATM   17  C   UNL     1      -7.618   4.564 -32.276  1.00  0.00     0.019 A 
HETATM   18  C   UNL     1      -6.872   3.618 -32.985  1.00  0.00     0.009 A 
ENDBRANCH   4  12
BRANCH   3  19
HETATM   19  C   UNL     1      -7.863   0.358 -33.464  1.00  0.00     0.266 C 
HETATM   20  O   UNL     1      -8.325  -0.001 -32.390  1.00  0.00    -0.265 OA
BRANCH  19  21
HETATM   21  O   UNL     1      -8.591   0.868 -34.500  1.00  0.00    -0.326 OA
HETATM   22  C   UNL     1      -9.803   1.512 -34.112  1.00  0.00     0.213 C 
ENDBRANCH  19  21
ENDBRANCH   3  19
BRANCH   2  23
HETATM   23  O   UNL     1      -4.690  -1.243 -34.622  1.00  0.00    -0.389 OA
HETATM   24  H   UNL     1      -5.006  -1.042 -35.522  1.00  0.00     0.210 HD
ENDBRANCH   2  23
BRANCH  10  25
HETATM   25  O   UNL     1      -2.936   2.763 -31.743  1.00  0.00    -0.343 OA
HETATM   26  H   UNL     1      -2.639   2.835 -32.666  1.00  0.00     0.219 HD
ENDBRANCH  10  25
TORSDOF 5
ENDMDL
