MODEL 1
REMARK VINA RESULT:      -9.9      0.000      0.000
REMARK  7 active torsions:
REMARK  status: ('A' for Active; 'I' for Inactive)
REMARK    1  A    between atoms: C_2  and  C_3 
REMARK       I    between atoms: C_3  and  N_4 
REMARK    2  A    between atoms: N_7  and  C_8 
REMARK    3  A    between atoms: C_11  and  N_12 
REMARK    4  A    between atoms: N_12  and  C_13 
REMARK    5  A    between atoms: C_13  and  N_14 
REMARK       I    between atoms: N_14  and  C_15 
REMARK    6  A    between atoms: C_15  and  C_16 
REMARK    7  A    between atoms: C_18  and  C_19 
ROOT
HETATM    1  C   UNL     1      -2.455   5.285 -33.286  1.00  0.00     0.179 C 
HETATM    2  S   UNL     1      -1.848   5.113 -34.838  1.00  0.00    -0.040 SA
ENDROOT
BRANCH   1   3
HETATM    3  N   UNL     1      -2.638   6.437 -32.562  1.00  0.00    -0.333 N 
HETATM    4  H   UNL     1      -3.429   7.007 -32.858  1.00  0.00     0.168 HD
BRANCH   3   5
HETATM    5  C   UNL     1      -1.986   6.846 -31.379  1.00  0.00     0.034 A 
HETATM    6  C   UNL     1      -0.607   6.781 -31.223  1.00  0.00     0.032 A 
HETATM    7  C   UNL     1      -0.007   7.195 -30.031  1.00  0.00     0.031 A 
HETATM    8  C   UNL     1      -0.755   7.667 -28.942  1.00  0.00     0.030 A 
HETATM    9  C   UNL     1      -2.135   7.796 -29.144  1.00  0.00     0.031 A 
HETATM   10  C   UNL     1      -2.744   7.406 -30.352  1.00  0.00     0.032 A 
BRANCH   8  11
HETATM   11  N   UNL     1      -0.097   8.025 -27.757  1.00  0.00    -0.378 N 
HETATM   12  C   UNL     1      -0.799   9.055 -26.949  1.00  0.00     0.143 C 
HETATM   13  C   UNL     1      -0.278   9.043 -25.507  1.00  0.00     0.145 C 
HETATM   14  N   UNL     1       1.183   9.144 -25.414  1.00  0.00    -0.349 N 
HETATM   15  C   UNL     1       1.697   9.581 -24.195  1.00  0.00     0.219 C 
HETATM   16  C   UNL     1       1.926   8.271 -26.336  1.00  0.00     0.145 C 
HETATM   17  O   UNL     1       0.975  10.050 -23.314  1.00  0.00    -0.273 OA
HETATM   18  C   UNL     1       1.361   8.245 -27.773  1.00  0.00     0.143 C 
BRANCH  15  19
HETATM   19  C   UNL     1       3.202   9.476 -24.008  1.00  0.00     0.098 C 
HETATM   20  C   UNL     1       3.575   8.588 -22.832  1.00  0.00     0.014 C 
ENDBRANCH  15  19
ENDBRANCH   8  11
ENDBRANCH   3   5
ENDBRANCH   1   3
BRANCH   1  21
HETATM   21  N   UNL     1      -2.801   4.115 -32.651  1.00  0.00    -0.298 N 
HETATM   22  C   UNL     1      -4.035   3.493 -32.517  1.00  0.00     0.281 C 
HETATM   23  O   UNL     1      -5.107   4.080 -32.644  1.00  0.00    -0.265 OA
HETATM   24  H   UNL     1      -2.003   3.538 -32.411  1.00  0.00     0.171 HD
BRANCH  22  25
HETATM   25  C   UNL     1      -3.900   2.095 -32.161  1.00  0.00     0.144 A 
HETATM   26  O   UNL     1      -4.460   1.167 -32.999  1.00  0.00    -0.304 OA
HETATM   27  C   UNL     1      -4.261  -0.071 -32.461  1.00  0.00     0.086 A 
HETATM   28  C   UNL     1      -3.553   0.059 -31.282  1.00  0.00     0.041 A 
HETATM   29  C   UNL     1      -3.318   1.448 -31.091  1.00  0.00     0.046 A 
BRANCH  27  30
HETATM   30  C   UNL     1      -4.837  -1.184 -33.214  1.00  0.00    -0.001 A 
HETATM   31  C   UNL     1      -4.135  -2.388 -33.369  1.00  0.00     0.038 A 
HETATM   32  C   UNL     1      -4.671  -3.448 -34.107  1.00  0.00     0.040 A 
HETATM   33 CL   UNL     1      -3.726  -4.890 -34.250  1.00  0.00    -0.084 Cl
HETATM   34  C   UNL     1      -5.929  -3.334 -34.710  1.00  0.00    -0.040 A 
HETATM   35  C   UNL     1      -6.524  -4.449 -35.523  1.00  0.00     0.050 C 
HETATM   36  C   UNL     1      -6.635  -2.133 -34.555  1.00  0.00     0.009 A 
HETATM   37  C   UNL     1      -6.096  -1.072 -33.815  1.00  0.00     0.015 A 
ENDBRANCH  27  30
ENDBRANCH  22  25
ENDBRANCH   1  21
TORSDOF 7
ENDMDL
MODEL 2
REMARK VINA RESULT:      -9.4      1.170      1.766
REMARK  7 active torsions:
REMARK  status: ('A' for Active; 'I' for Inactive)
REMARK    1  A    between atoms: C_2  and  C_3 
REMARK       I    between atoms: C_3  and  N_4 
REMARK    2  A    between atoms: N_7  and  C_8 
REMARK    3  A    between atoms: C_11  and  N_12 
REMARK    4  A    between atoms: N_12  and  C_13 
REMARK    5  A    between atoms: C_13  and  N_14 
REMARK       I    between atoms: N_14  and  C_15 
REMARK    6  A    between atoms: C_15  and  C_16 
REMARK    7  A    between atoms: C_18  and  C_19 
ROOT
HETATM    1  C   UNL     1      -3.065   5.177 -33.371  1.00  0.00     0.179 C 
HETATM    2  S   UNL     1      -1.841   5.199 -34.515  1.00  0.00    -0.040 SA
ENDROOT
BRANCH   1   3
HETATM    3  N   UNL     1      -3.386   6.138 -32.442  1.00  0.00    -0.333 N 
HETATM    4  H   UNL     1      -4.335   6.498 -32.511  1.00  0.00     0.168 HD
BRANCH   3   5
HETATM    5  C   UNL     1      -2.638   6.564 -31.324  1.00  0.00     0.034 A 
HETATM    6  C   UNL     1      -1.267   6.788 -31.379  1.00  0.00     0.032 A 
HETATM    7  C   UNL     1      -0.570   7.206 -30.243  1.00  0.00     0.031 A 
HETATM    8  C   UNL     1      -1.202   7.397 -29.005  1.00  0.00     0.030 A 
HETATM    9  C   UNL     1      -2.594   7.240 -28.987  1.00  0.00     0.031 A 
HETATM   10  C   UNL     1      -3.308   6.844 -30.134  1.00  0.00     0.032 A 
BRANCH   8  11
HETATM   11  N   UNL     1      -0.438   7.775 -27.893  1.00  0.00    -0.378 N 
HETATM   12  C   UNL     1      -1.031   8.869 -27.081  1.00  0.00     0.143 C 
HETATM   13  C   UNL     1      -0.398   8.896 -25.685  1.00  0.00     0.145 C 
HETATM   14  N   UNL     1       1.068   8.935 -25.709  1.00  0.00    -0.349 N 
HETATM   15  C   UNL     1       1.694   9.399 -24.555  1.00  0.00     0.219 C 
HETATM   16  C   UNL     1       1.699   7.990 -26.645  1.00  0.00     0.145 C 
HETATM   17  O   UNL     1       1.065   9.938 -23.644  1.00  0.00    -0.273 OA
HETATM   18  C   UNL     1       1.022   7.929 -28.031  1.00  0.00     0.143 C 
BRANCH  15  19
HETATM   19  C   UNL     1       3.203   9.235 -24.480  1.00  0.00     0.098 C 
HETATM   20  C   UNL     1       3.652   8.630 -23.158  1.00  0.00     0.014 C 
ENDBRANCH  15  19
ENDBRANCH   8  11
ENDBRANCH   3   5
ENDBRANCH   1   3
BRANCH   1  21
HETATM   21  N   UNL     1      -3.840   4.041 -33.352  1.00  0.00    -0.298 N 
HETATM   22  C   UNL     1      -5.061   3.793 -32.740  1.00  0.00     0.281 C 
HETATM   23  O   UNL     1      -5.493   4.451 -31.797  1.00  0.00    -0.265 OA
HETATM   24  H   UNL     1      -3.559   3.354 -34.042  1.00  0.00     0.171 HD
BRANCH  22  25
HETATM   25  C   UNL     1      -5.728   2.642 -33.313  1.00  0.00     0.144 A 
HETATM   26  O   UNL     1      -5.119   1.421 -33.184  1.00  0.00    -0.304 OA
HETATM   27  C   UNL     1      -5.882   0.491 -33.827  1.00  0.00     0.086 A 
HETATM   28  C   UNL     1      -6.997   1.111 -34.357  1.00  0.00     0.041 A 
HETATM   29  C   UNL     1      -6.900   2.490 -34.025  1.00  0.00     0.046 A 
BRANCH  27  30
HETATM   30  C   UNL     1      -5.351  -0.870 -33.822  1.00  0.00    -0.001 A 
HETATM   31  C   UNL     1      -5.980  -1.892 -34.549  1.00  0.00     0.038 A 
HETATM   32  C   UNL     1      -5.489  -3.201 -34.529  1.00  0.00     0.040 A 
HETATM   33 CL   UNL     1      -6.338  -4.394 -35.451  1.00  0.00    -0.084 Cl
HETATM   34  C   UNL     1      -4.352  -3.527 -33.781  1.00  0.00    -0.040 A 
HETATM   35  C   UNL     1      -3.811  -4.928 -33.727  1.00  0.00     0.050 C 
HETATM   36  C   UNL     1      -3.719  -2.508 -33.054  1.00  0.00     0.009 A 
HETATM   37  C   UNL     1      -4.212  -1.197 -33.076  1.00  0.00     0.015 A 
ENDBRANCH  27  30
ENDBRANCH  22  25
ENDBRANCH   1  21
TORSDOF 7
ENDMDL
MODEL 3
REMARK VINA RESULT:      -9.2      1.697      2.369
REMARK  7 active torsions:
REMARK  status: ('A' for Active; 'I' for Inactive)
REMARK    1  A    between atoms: C_2  and  C_3 
REMARK       I    between atoms: C_3  and  N_4 
REMARK    2  A    between atoms: N_7  and  C_8 
REMARK    3  A    between atoms: C_11  and  N_12 
REMARK    4  A    between atoms: N_12  and  C_13 
REMARK    5  A    between atoms: C_13  and  N_14 
REMARK       I    between atoms: N_14  and  C_15 
REMARK    6  A    between atoms: C_15  and  C_16 
REMARK    7  A    between atoms: C_18  and  C_19 
ROOT
HETATM    1  C   UNL     1      -4.419   5.168 -33.706  1.00  0.00     0.179 C 
HETATM    2  S   UNL     1      -3.366   5.230 -35.008  1.00  0.00    -0.040 SA
ENDROOT
BRANCH   1   3
HETATM    3  N   UNL     1      -4.625   6.108 -32.726  1.00  0.00    -0.333 N 
HETATM    4  H   UNL     1      -5.565   6.499 -32.699  1.00  0.00     0.168 HD
BRANCH   3   5
HETATM    5  C   UNL     1      -3.768   6.477 -31.667  1.00  0.00     0.034 A 
HETATM    6  C   UNL     1      -2.392   6.599 -31.824  1.00  0.00     0.032 A 
HETATM    7  C   UNL     1      -1.584   6.964 -30.745  1.00  0.00     0.031 A 
HETATM    8  C   UNL     1      -2.108   7.200 -29.465  1.00  0.00     0.030 A 
HETATM    9  C   UNL     1      -3.502   7.145 -29.343  1.00  0.00     0.031 A 
HETATM   10  C   UNL     1      -4.326   6.804 -30.433  1.00  0.00     0.032 A 
BRANCH   8  11
HETATM   11  N   UNL     1      -1.239   7.519 -28.413  1.00  0.00    -0.378 N 
HETATM   12  C   UNL     1      -1.721   8.606 -27.523  1.00  0.00     0.143 C 
HETATM   13  C   UNL     1      -0.970   8.570 -26.186  1.00  0.00     0.145 C 
HETATM   14  N   UNL     1       0.489   8.563 -26.338  1.00  0.00    -0.349 N 
HETATM   15  C   UNL     1       1.228   8.972 -25.230  1.00  0.00     0.219 C 
HETATM   16  C   UNL     1       1.005   7.628 -27.350  1.00  0.00     0.145 C 
HETATM   17  O   UNL     1       0.699   9.503 -24.253  1.00  0.00    -0.273 OA
HETATM   18  C   UNL     1       0.209   7.630 -28.674  1.00  0.00     0.143 C 
BRANCH  15  19
HETATM   19  C   UNL     1       2.732   8.758 -25.291  1.00  0.00     0.098 C 
HETATM   20  C   UNL     1       3.450   9.367 -24.097  1.00  0.00     0.014 C 
ENDBRANCH  15  19
ENDBRANCH   8  11
ENDBRANCH   3   5
ENDBRANCH   1   3
BRANCH   1  21
HETATM   21  N   UNL     1      -5.165   4.017 -33.600  1.00  0.00    -0.298 N 
HETATM   22  C   UNL     1      -6.495   3.833 -33.250  1.00  0.00     0.281 C 
HETATM   23  O   UNL     1      -7.150   4.659 -32.618  1.00  0.00    -0.265 OA
HETATM   24  H   UNL     1      -4.718   3.211 -34.022  1.00  0.00     0.171 HD
BRANCH  22  25
HETATM   25  C   UNL     1      -6.992   2.540 -33.674  1.00  0.00     0.144 A 
HETATM   26  O   UNL     1      -6.146   1.467 -33.571  1.00  0.00    -0.304 OA
HETATM   27  C   UNL     1      -6.787   0.367 -34.061  1.00  0.00     0.086 A 
HETATM   28  C   UNL     1      -8.059   0.729 -34.463  1.00  0.00     0.041 A 
HETATM   29  C   UNL     1      -8.191   2.122 -34.212  1.00  0.00     0.046 A 
BRANCH  27  30
HETATM   30  C   UNL     1      -6.006  -0.868 -34.064  1.00  0.00    -0.001 A 
HETATM   31  C   UNL     1      -6.480  -2.019 -34.711  1.00  0.00     0.038 A 
HETATM   32  C   UNL     1      -5.747  -3.210 -34.697  1.00  0.00     0.040 A 
HETATM   33 CL   UNL     1      -6.417  -4.578 -35.514  1.00  0.00    -0.084 Cl
HETATM   34  C   UNL     1      -4.514  -3.282 -34.036  1.00  0.00    -0.040 A 
HETATM   35  C   UNL     1      -3.712  -4.552 -33.990  1.00  0.00     0.050 C 
HETATM   36  C   UNL     1      -4.036  -2.133 -33.391  1.00  0.00     0.009 A 
HETATM   37  C   UNL     1      -4.772  -0.941 -33.407  1.00  0.00     0.015 A 
ENDBRANCH  27  30
ENDBRANCH  22  25
ENDBRANCH   1  21
TORSDOF 7
ENDMDL
MODEL 4
REMARK VINA RESULT:      -9.2      1.818      2.486
REMARK  7 active torsions:
REMARK  status: ('A' for Active; 'I' for Inactive)
REMARK    1  A    between atoms: C_2  and  C_3 
REMARK       I    between atoms: C_3  and  N_4 
REMARK    2  A    between atoms: N_7  and  C_8 
REMARK    3  A    between atoms: C_11  and  N_12 
REMARK    4  A    between atoms: N_12  and  C_13 
REMARK    5  A    between atoms: C_13  and  N_14 
REMARK       I    between atoms: N_14  and  C_15 
REMARK    6  A    between atoms: C_15  and  C_16 
REMARK    7  A    between atoms: C_18  and  C_19 
ROOT
HETATM    1  C   UNL     1      -2.521   6.208 -33.557  1.00  0.00     0.179 C 
HETATM    2  S   UNL     1      -1.375   5.508 -34.560  1.00  0.00    -0.040 SA
ENDROOT
BRANCH   1   3
HETATM    3  N   UNL     1      -2.442   7.391 -32.863  1.00  0.00    -0.333 N 
HETATM    4  H   UNL     1      -2.999   8.151 -33.251  1.00  0.00     0.168 HD
BRANCH   3   5
HETATM    5  C   UNL     1      -1.832   7.641 -31.616  1.00  0.00     0.034 A 
HETATM    6  C   UNL     1      -0.731   6.924 -31.163  1.00  0.00     0.032 A 
HETATM    7  C   UNL     1      -0.164   7.206 -29.918  1.00  0.00     0.031 A 
HETATM    8  C   UNL     1      -0.681   8.193 -29.066  1.00  0.00     0.030 A 
HETATM    9  C   UNL     1      -1.743   8.955 -29.571  1.00  0.00     0.031 A 
HETATM   10  C   UNL     1      -2.303   8.695 -30.835  1.00  0.00     0.032 A 
BRANCH   8  11
HETATM   11  N   UNL     1      -0.093   8.397 -27.811  1.00  0.00    -0.378 N 
HETATM   12  C   UNL     1      -0.349   9.736 -27.220  1.00  0.00     0.143 C 
HETATM   13  C   UNL     1      -0.083   9.709 -25.710  1.00  0.00     0.145 C 
HETATM   14  N   UNL     1       1.238   9.175 -25.360  1.00  0.00    -0.349 N 
HETATM   15  C   UNL     1       1.730   9.517 -24.103  1.00  0.00     0.219 C 
HETATM   16  C   UNL     1       1.616   7.941 -26.066  1.00  0.00     0.145 C 
HETATM   17  O   UNL     1       1.192  10.377 -23.404  1.00  0.00    -0.273 OA
HETATM   18  C   UNL     1       1.294   7.955 -27.576  1.00  0.00     0.143 C 
BRANCH  15  19
HETATM   19  C   UNL     1       2.984   8.795 -23.637  1.00  0.00     0.098 C 
HETATM   20  C   UNL     1       4.254   9.511 -24.068  1.00  0.00     0.014 C 
ENDBRANCH  15  19
ENDBRANCH   8  11
ENDBRANCH   3   5
ENDBRANCH   1   3
BRANCH   1  21
HETATM   21  N   UNL     1      -3.686   5.495 -33.398  1.00  0.00    -0.298 N 
HETATM   22  C   UNL     1      -4.896   5.861 -32.826  1.00  0.00     0.281 C 
HETATM   23  O   UNL     1      -5.016   6.789 -32.029  1.00  0.00    -0.265 OA
HETATM   24  H   UNL     1      -3.713   4.645 -33.950  1.00  0.00     0.171 HD
BRANCH  22  25
HETATM   25  C   UNL     1      -5.976   4.989 -33.242  1.00  0.00     0.144 A 
HETATM   26  O   UNL     1      -5.711   3.649 -33.344  1.00  0.00    -0.304 OA
HETATM   27  C   UNL     1      -6.837   3.022 -33.790  1.00  0.00     0.086 A 
HETATM   28  C   UNL     1      -7.838   3.959 -33.958  1.00  0.00     0.041 A 
HETATM   29  C   UNL     1      -7.287   5.221 -33.603  1.00  0.00     0.046 A 
BRANCH  27  30
HETATM   30  C   UNL     1      -6.715   1.580 -33.995  1.00  0.00    -0.001 A 
HETATM   31  C   UNL     1      -5.754   0.832 -33.298  1.00  0.00     0.038 A 
HETATM   32  C   UNL     1      -5.618  -0.544 -33.508  1.00  0.00     0.040 A 
HETATM   33 CL   UNL     1      -4.399  -1.379 -32.609  1.00  0.00    -0.084 Cl
HETATM   34  C   UNL     1      -6.443  -1.213 -34.420  1.00  0.00    -0.040 A 
HETATM   35  C   UNL     1      -6.309  -2.687 -34.678  1.00  0.00     0.050 C 
HETATM   36  C   UNL     1      -7.406  -0.469 -35.116  1.00  0.00     0.009 A 
HETATM   37  C   UNL     1      -7.541   0.909 -34.904  1.00  0.00     0.015 A 
ENDBRANCH  27  30
ENDBRANCH  22  25
ENDBRANCH   1  21
TORSDOF 7
ENDMDL
MODEL 5
REMARK VINA RESULT:      -9.1      2.252      2.579
REMARK  7 active torsions:
REMARK  status: ('A' for Active; 'I' for Inactive)
REMARK    1  A    between atoms: C_2  and  C_3 
REMARK       I    between atoms: C_3  and  N_4 
REMARK    2  A    between atoms: N_7  and  C_8 
REMARK    3  A    between atoms: C_11  and  N_12 
REMARK    4  A    between atoms: N_12  and  C_13 
REMARK    5  A    between atoms: C_13  and  N_14 
REMARK       I    between atoms: N_14  and  C_15 
REMARK    6  A    between atoms: C_15  and  C_16 
REMARK    7  A    between atoms: C_18  and  C_19 
ROOT
HETATM    1  C   UNL     1      -7.153   4.642 -30.798  1.00  0.00     0.179 C 
HETATM    2  S   UNL     1      -8.675   4.294 -30.189  1.00  0.00    -0.040 SA
ENDROOT
BRANCH   1   3
HETATM    3  N   UNL     1      -6.493   5.846 -30.815  1.00  0.00    -0.333 N 
HETATM    4  H   UNL     1      -6.913   6.555 -31.413  1.00  0.00     0.168 HD
BRANCH   3   5
HETATM    5  C   UNL     1      -5.421   6.274 -30.003  1.00  0.00     0.034 A 
HETATM    6  C   UNL     1      -4.155   6.540 -30.511  1.00  0.00     0.032 A 
HETATM    7  C   UNL     1      -3.124   6.958 -29.666  1.00  0.00     0.031 A 
HETATM    8  C   UNL     1      -3.304   7.105 -28.282  1.00  0.00     0.030 A 
HETATM    9  C   UNL     1      -4.604   6.904 -27.800  1.00  0.00     0.031 A 
HETATM   10  C   UNL     1      -5.655   6.509 -28.649  1.00  0.00     0.032 A 
BRANCH   8  11
HETATM   11  N   UNL     1      -2.218   7.484 -27.482  1.00  0.00    -0.378 N 
HETATM   12  C   UNL     1      -2.368   8.809 -26.827  1.00  0.00     0.143 C 
HETATM   13  C   UNL     1      -1.394   8.931 -25.649  1.00  0.00     0.145 C 
HETATM   14  N   UNL     1      -0.004   8.626 -26.007  1.00  0.00    -0.349 N 
HETATM   15  C   UNL     1       0.978   9.128 -25.157  1.00  0.00     0.219 C 
HETATM   16  C   UNL     1       0.176   7.414 -26.822  1.00  0.00     0.145 C 
HETATM   17  O   UNL     1       0.720   9.947 -24.274  1.00  0.00    -0.273 OA
HETATM   18  C   UNL     1      -0.844   7.271 -27.973  1.00  0.00     0.143 C 
BRANCH  15  19
HETATM   19  C   UNL     1       2.398   8.636 -25.384  1.00  0.00     0.098 C 
HETATM   20  C   UNL     1       3.389   9.273 -24.423  1.00  0.00     0.014 C 
ENDBRANCH  15  19
ENDBRANCH   8  11
ENDBRANCH   3   5
ENDBRANCH   1   3
BRANCH   1  21
HETATM   21  N   UNL     1      -6.485   3.583 -31.367  1.00  0.00    -0.298 N 
HETATM   22  C   UNL     1      -5.499   3.558 -32.343  1.00  0.00     0.281 C 
HETATM   23  O   UNL     1      -5.304   4.479 -33.134  1.00  0.00    -0.265 OA
HETATM   24  H   UNL     1      -6.606   2.714 -30.859  1.00  0.00     0.171 HD
BRANCH  22  25
HETATM   25  C   UNL     1      -4.771   2.305 -32.345  1.00  0.00     0.144 A 
HETATM   26  O   UNL     1      -5.320   1.251 -33.028  1.00  0.00    -0.304 OA
HETATM   27  C   UNL     1      -4.508   0.167 -32.865  1.00  0.00     0.086 A 
HETATM   28  C   UNL     1      -3.423   0.528 -32.091  1.00  0.00     0.041 A 
HETATM   29  C   UNL     1      -3.590   1.901 -31.760  1.00  0.00     0.046 A 
BRANCH  27  30
HETATM   30  C   UNL     1      -4.970  -1.066 -33.501  1.00  0.00    -0.001 A 
HETATM   31  C   UNL     1      -4.177  -2.223 -33.489  1.00  0.00     0.038 A 
HETATM   32  C   UNL     1      -4.604  -3.398 -34.116  1.00  0.00     0.040 A 
HETATM   33 CL   UNL     1      -3.553  -4.771 -34.056  1.00  0.00    -0.084 Cl
HETATM   34  C   UNL     1      -5.841  -3.450 -34.770  1.00  0.00    -0.040 A 
HETATM   35  C   UNL     1      -6.319  -4.693 -35.465  1.00  0.00     0.050 C 
HETATM   36  C   UNL     1      -6.637  -2.297 -34.781  1.00  0.00     0.009 A 
HETATM   37  C   UNL     1      -6.207  -1.121 -34.153  1.00  0.00     0.015 A 
ENDBRANCH  27  30
ENDBRANCH  22  25
ENDBRANCH   1  21
TORSDOF 7
ENDMDL
MODEL 6
REMARK VINA RESULT:      -9.1      4.180     12.309
REMARK  7 active torsions:
REMARK  status: ('A' for Active; 'I' for Inactive)
REMARK    1  A    between atoms: C_2  and  C_3 
REMARK       I    between atoms: C_3  and  N_4 
REMARK    2  A    between atoms: N_7  and  C_8 
REMARK    3  A    between atoms: C_11  and  N_12 
REMARK    4  A    between atoms: N_12  and  C_13 
REMARK    5  A    between atoms: C_13  and  N_14 
REMARK       I    between atoms: N_14  and  C_15 
REMARK    6  A    between atoms: C_15  and  C_16 
REMARK    7  A    between atoms: C_18  and  C_19 
ROOT
HETATM    1  C   UNL     1      -5.010   6.341 -29.264  1.00  0.00     0.179 C 
HETATM    2  S   UNL     1      -5.591   6.917 -27.801  1.00  0.00    -0.040 SA
ENDROOT
BRANCH   1   3
HETATM    3  N   UNL     1      -5.719   5.832 -30.325  1.00  0.00    -0.333 N 
HETATM    4  H   UNL     1      -6.256   6.520 -30.849  1.00  0.00     0.168 HD
BRANCH   3   5
HETATM    5  C   UNL     1      -5.671   4.533 -30.873  1.00  0.00     0.034 A 
HETATM    6  C   UNL     1      -5.569   3.391 -30.087  1.00  0.00     0.032 A 
HETATM    7  C   UNL     1      -5.521   2.125 -30.675  1.00  0.00     0.031 A 
HETATM    8  C   UNL     1      -5.550   1.946 -32.067  1.00  0.00     0.030 A 
HETATM    9  C   UNL     1      -5.727   3.101 -32.839  1.00  0.00     0.031 A 
HETATM   10  C   UNL     1      -5.803   4.378 -32.252  1.00  0.00     0.032 A 
BRANCH   8  11
HETATM   11  N   UNL     1      -5.453   0.652 -32.597  1.00  0.00    -0.378 N 
HETATM   12  C   UNL     1      -4.115   0.024 -32.451  1.00  0.00     0.143 C 
HETATM   13  C   UNL     1      -4.222  -1.496 -32.622  1.00  0.00     0.145 C 
HETATM   14  N   UNL     1      -4.908  -1.898 -33.855  1.00  0.00    -0.349 N 
HETATM   15  C   UNL     1      -4.664  -3.193 -34.305  1.00  0.00     0.219 C 
HETATM   16  C   UNL     1      -6.152  -1.165 -34.141  1.00  0.00     0.145 C 
HETATM   17  O   UNL     1      -3.775  -3.895 -33.822  1.00  0.00    -0.273 OA
HETATM   18  C   UNL     1      -6.052   0.359 -33.912  1.00  0.00     0.143 C 
BRANCH  15  19
HETATM   19  C   UNL     1      -5.534  -3.698 -35.445  1.00  0.00     0.098 C 
HETATM   20  C   UNL     1      -6.701  -4.539 -34.951  1.00  0.00     0.014 C 
ENDBRANCH  15  19
ENDBRANCH   8  11
ENDBRANCH   3   5
ENDBRANCH   1   3
BRANCH   1  21
HETATM   21  N   UNL     1      -3.644   6.370 -29.413  1.00  0.00    -0.298 N 
HETATM   22  C   UNL     1      -2.858   6.912 -30.421  1.00  0.00     0.281 C 
HETATM   23  O   UNL     1      -3.276   7.151 -31.552  1.00  0.00    -0.265 OA
HETATM   24  H   UNL     1      -3.143   6.123 -28.567  1.00  0.00     0.171 HD
BRANCH  22  25
HETATM   25  C   UNL     1      -1.488   7.109 -29.992  1.00  0.00     0.144 A 
HETATM   26  O   UNL     1      -1.279   7.578 -28.722  1.00  0.00    -0.304 OA
HETATM   27  C   UNL     1       0.064   7.735 -28.539  1.00  0.00     0.086 A 
HETATM   28  C   UNL     1       0.724   7.347 -29.689  1.00  0.00     0.041 A 
HETATM   29  C   UNL     1      -0.272   6.942 -30.621  1.00  0.00     0.046 A 
BRANCH  27  30
HETATM   30  C   UNL     1       0.464   8.271 -27.240  1.00  0.00    -0.001 A 
HETATM   31  C   UNL     1      -0.495   8.735 -26.326  1.00  0.00     0.038 A 
HETATM   32  C   UNL     1      -0.116   9.271 -25.091  1.00  0.00     0.040 A 
HETATM   33 CL   UNL     1      -1.369   9.826 -24.036  1.00  0.00    -0.084 Cl
HETATM   34  C   UNL     1       1.235   9.353 -24.732  1.00  0.00    -0.040 A 
HETATM   35  C   UNL     1       1.673   9.938 -23.419  1.00  0.00     0.050 C 
HETATM   36  C   UNL     1       2.195   8.888 -25.641  1.00  0.00     0.009 A 
HETATM   37  C   UNL     1       1.814   8.352 -26.878  1.00  0.00     0.015 A 
ENDBRANCH  27  30
ENDBRANCH  22  25
ENDBRANCH   1  21
TORSDOF 7
ENDMDL
MODEL 7
REMARK VINA RESULT:      -8.8      5.005      7.456
REMARK  7 active torsions:
REMARK  status: ('A' for Active; 'I' for Inactive)
REMARK    1  A    between atoms: C_2  and  C_3 
REMARK       I    between atoms: C_3  and  N_4 
REMARK    2  A    between atoms: N_7  and  C_8 
REMARK    3  A    between atoms: C_11  and  N_12 
REMARK    4  A    between atoms: N_12  and  C_13 
REMARK    5  A    between atoms: C_13  and  N_14 
REMARK       I    between atoms: N_14  and  C_15 
REMARK    6  A    between atoms: C_15  and  C_16 
REMARK    7  A    between atoms: C_18  and  C_19 
ROOT
HETATM    1  C   UNL     1     -11.983   4.583 -30.968  1.00  0.00     0.179 C 
HETATM    2  S   UNL     1     -13.611   4.931 -31.156  1.00  0.00    -0.040 SA
ENDROOT
BRANCH   1   3
HETATM    3  N   UNL     1     -11.012   5.338 -30.356  1.00  0.00    -0.333 N 
HETATM    4  H   UNL     1     -11.309   5.806 -29.502  1.00  0.00     0.168 HD
BRANCH   3   5
HETATM    5  C   UNL     1      -9.636   5.417 -30.661  1.00  0.00     0.034 A 
HETATM    6  C   UNL     1      -8.665   4.748 -29.925  1.00  0.00     0.032 A 
HETATM    7  C   UNL     1      -7.315   4.859 -30.264  1.00  0.00     0.031 A 
HETATM    8  C   UNL     1      -6.875   5.656 -31.332  1.00  0.00     0.030 A 
HETATM    9  C   UNL     1      -7.872   6.262 -32.107  1.00  0.00     0.031 A 
HETATM   10  C   UNL     1      -9.237   6.133 -31.788  1.00  0.00     0.032 A 
BRANCH   8  11
HETATM   11  N   UNL     1      -5.503   5.762 -31.593  1.00  0.00    -0.378 N 
HETATM   12  C   UNL     1      -5.133   5.598 -33.023  1.00  0.00     0.143 C 
HETATM   13  C   UNL     1      -3.734   6.173 -33.278  1.00  0.00     0.145 C 
HETATM   14  N   UNL     1      -2.713   5.653 -32.362  1.00  0.00    -0.349 N 
HETATM   15  C   UNL     1      -1.390   5.762 -32.784  1.00  0.00     0.219 C 
HETATM   16  C   UNL     1      -3.108   5.620 -30.945  1.00  0.00     0.145 C 
HETATM   17  O   UNL     1      -1.098   6.085 -33.936  1.00  0.00    -0.273 OA
HETATM   18  C   UNL     1      -4.539   5.091 -30.701  1.00  0.00     0.143 C 
BRANCH  15  19
HETATM   19  C   UNL     1      -0.315   5.437 -31.760  1.00  0.00     0.098 C 
HETATM   20  C   UNL     1       0.441   6.676 -31.306  1.00  0.00     0.014 C 
ENDBRANCH  15  19
ENDBRANCH   8  11
ENDBRANCH   3   5
ENDBRANCH   1   3
BRANCH   1  21
HETATM   21  N   UNL     1     -11.564   3.391 -31.510  1.00  0.00    -0.298 N 
HETATM   22  C   UNL     1     -11.138   3.085 -32.795  1.00  0.00     0.281 C 
HETATM   23  O   UNL     1     -11.408   3.769 -33.780  1.00  0.00    -0.265 OA
HETATM   24  H   UNL     1     -11.364   2.683 -30.813  1.00  0.00     0.171 HD
BRANCH  22  25
HETATM   25  C   UNL     1     -10.390   1.845 -32.836  1.00  0.00     0.144 A 
HETATM   26  O   UNL     1      -9.084   1.875 -32.424  1.00  0.00    -0.304 OA
HETATM   27  C   UNL     1      -8.555   0.628 -32.585  1.00  0.00     0.086 A 
HETATM   28  C   UNL     1      -9.530  -0.214 -33.085  1.00  0.00     0.041 A 
HETATM   29  C   UNL     1     -10.709   0.566 -33.243  1.00  0.00     0.046 A 
BRANCH  27  30
HETATM   30  C   UNL     1      -7.144   0.491 -32.229  1.00  0.00    -0.001 A 
HETATM   31  C   UNL     1      -6.319  -0.429 -32.893  1.00  0.00     0.038 A 
HETATM   32  C   UNL     1      -4.974  -0.580 -32.540  1.00  0.00     0.040 A 
HETATM   33 CL   UNL     1      -4.039  -1.746 -33.410  1.00  0.00    -0.084 Cl
HETATM   34  C   UNL     1      -4.415   0.190 -31.513  1.00  0.00    -0.040 A 
HETATM   35  C   UNL     1      -2.977   0.038 -31.101  1.00  0.00     0.050 C 
HETATM   36  C   UNL     1      -5.235   1.111 -30.849  1.00  0.00     0.009 A 
HETATM   37  C   UNL     1      -6.582   1.262 -31.204  1.00  0.00     0.015 A 
ENDBRANCH  27  30
ENDBRANCH  22  25
ENDBRANCH   1  21
TORSDOF 7
ENDMDL
MODEL 8
REMARK VINA RESULT:      -8.7      3.512      4.554
REMARK  7 active torsions:
REMARK  status: ('A' for Active; 'I' for Inactive)
REMARK    1  A    between atoms: C_2  and  C_3 
REMARK       I    between atoms: C_3  and  N_4 
REMARK    2  A    between atoms: N_7  and  C_8 
REMARK    3  A    between atoms: C_11  and  N_12 
REMARK    4  A    between atoms: N_12  and  C_13 
REMARK    5  A    between atoms: C_13  and  N_14 
REMARK       I    between atoms: N_14  and  C_15 
REMARK    6  A    between atoms: C_15  and  C_16 
REMARK    7  A    between atoms: C_18  and  C_19 
ROOT
HETATM    1  C   UNL     1      -9.286   4.945 -31.465  1.00  0.00     0.179 C 
HETATM    2  S   UNL     1     -10.487   5.778 -32.285  1.00  0.00    -0.040 SA
ENDROOT
BRANCH   1   3
HETATM    3  N   UNL     1      -8.836   5.136 -30.181  1.00  0.00    -0.333 N 
HETATM    4  H   UNL     1      -9.418   4.719 -29.457  1.00  0.00     0.168 HD
BRANCH   3   5
HETATM    5  C   UNL     1      -7.609   5.685 -29.752  1.00  0.00     0.034 A 
HETATM    6  C   UNL     1      -7.031   6.794 -30.358  1.00  0.00     0.032 A 
HETATM    7  C   UNL     1      -5.812   7.300 -29.900  1.00  0.00     0.031 A 
HETATM    8  C   UNL     1      -5.111   6.711 -28.837  1.00  0.00     0.030 A 
HETATM    9  C   UNL     1      -5.744   5.641 -28.190  1.00  0.00     0.031 A 
HETATM   10  C   UNL     1      -6.985   5.143 -28.630  1.00  0.00     0.032 A 
BRANCH   8  11
HETATM   11  N   UNL     1      -3.871   7.239 -28.453  1.00  0.00    -0.378 N 
HETATM   12  C   UNL     1      -3.865   8.710 -28.245  1.00  0.00     0.143 C 
HETATM   13  C   UNL     1      -2.649   9.122 -27.406  1.00  0.00     0.145 C 
HETATM   14  N   UNL     1      -1.378   8.616 -27.934  1.00  0.00    -0.349 N 
HETATM   15  C   UNL     1      -0.227   9.283 -27.520  1.00  0.00     0.219 C 
HETATM   16  C   UNL     1      -1.390   7.199 -28.331  1.00  0.00     0.145 C 
HETATM   17  O   UNL     1      -0.276  10.355 -26.916  1.00  0.00    -0.273 OA
HETATM   18  C   UNL     1      -2.644   6.779 -29.129  1.00  0.00     0.143 C 
BRANCH  15  19
HETATM   19  C   UNL     1       1.104   8.638 -27.873  1.00  0.00     0.098 C 
HETATM   20  C   UNL     1       1.744   7.948 -26.679  1.00  0.00     0.014 C 
ENDBRANCH  15  19
ENDBRANCH   8  11
ENDBRANCH   3   5
ENDBRANCH   1   3
BRANCH   1  21
HETATM   21  N   UNL     1      -8.662   3.948 -32.177  1.00  0.00    -0.298 N 
HETATM   22  C   UNL     1      -8.308   2.659 -31.805  1.00  0.00     0.281 C 
HETATM   23  O   UNL     1      -8.173   2.304 -30.636  1.00  0.00    -0.265 OA
HETATM   24  H   UNL     1      -8.629   4.130 -33.174  1.00  0.00     0.171 HD
BRANCH  22  25
HETATM   25  C   UNL     1      -8.071   1.809 -32.954  1.00  0.00     0.144 A 
HETATM   26  O   UNL     1      -7.240   0.733 -32.791  1.00  0.00    -0.304 OA
HETATM   27  C   UNL     1      -7.116   0.100 -33.993  1.00  0.00     0.086 A 
HETATM   28  C   UNL     1      -7.885   0.761 -34.931  1.00  0.00     0.041 A 
HETATM   29  C   UNL     1      -8.501   1.856 -34.264  1.00  0.00     0.046 A 
BRANCH  27  30
HETATM   30  C   UNL     1      -6.224  -1.057 -34.006  1.00  0.00    -0.001 A 
HETATM   31  C   UNL     1      -6.572  -2.227 -34.699  1.00  0.00     0.038 A 
HETATM   32  C   UNL     1      -5.732  -3.345 -34.696  1.00  0.00     0.040 A 
HETATM   33 CL   UNL     1      -6.250  -4.744 -35.571  1.00  0.00    -0.084 Cl
HETATM   34  C   UNL     1      -4.517  -3.325 -34.001  1.00  0.00    -0.040 A 
HETATM   35  C   UNL     1      -3.602  -4.516 -33.966  1.00  0.00     0.050 C 
HETATM   36  C   UNL     1      -4.166  -2.157 -33.309  1.00  0.00     0.009 A 
HETATM   37  C   UNL     1      -5.007  -1.038 -33.314  1.00  0.00     0.015 A 
ENDBRANCH  27  30
ENDBRANCH  22  25
ENDBRANCH   1  21
TORSDOF 7
ENDMDL
MODEL 9
REMARK VINA RESULT:      -8.7      3.114      5.255
REMARK  7 active torsions:
REMARK  status: ('A' for Active; 'I' for Inactive)
REMARK    1  A    between atoms: C_2  and  C_3 
REMARK       I    between atoms: C_3  and  N_4 
REMARK    2  A    between atoms: N_7  and  C_8 
REMARK    3  A    between atoms: C_11  and  N_12 
REMARK    4  A    between atoms: N_12  and  C_13 
REMARK    5  A    between atoms: C_13  and  N_14 
REMARK       I    between atoms: N_14  and  C_15 
REMARK    6  A    between atoms: C_15  and  C_16 
REMARK    7  A    between atoms: C_18  and  C_19 
ROOT
HETATM    1  C   UNL     1      -1.751   8.031 -28.518  1.00  0.00     0.179 C 
HETATM    2  S   UNL     1      -2.997   7.701 -27.447  1.00  0.00    -0.040 SA
ENDROOT
BRANCH   1   3
HETATM    3  N   UNL     1      -0.680   8.875 -28.352  1.00  0.00    -0.333 N 
HETATM    4  H   UNL     1      -0.654   9.663 -28.996  1.00  0.00     0.168 HD
BRANCH   3   5
HETATM    5  C   UNL     1       0.281   8.884 -27.319  1.00  0.00     0.034 A 
HETATM    6  C   UNL     1       1.004   7.753 -26.959  1.00  0.00     0.032 A 
HETATM    7  C   UNL     1       1.943   7.810 -25.926  1.00  0.00     0.031 A 
HETATM    8  C   UNL     1       2.185   8.985 -25.199  1.00  0.00     0.030 A 
HETATM    9  C   UNL     1       1.502  10.132 -25.625  1.00  0.00     0.031 A 
HETATM   10  C   UNL     1       0.573  10.088 -26.682  1.00  0.00     0.032 A 
BRANCH   8  11
HETATM   11  N   UNL     1       3.108   8.966 -24.145  1.00  0.00    -0.378 N 
HETATM   12  C   UNL     1       2.526   8.626 -22.821  1.00  0.00     0.143 C 
HETATM   13  C   UNL     1       3.631   8.181 -21.855  1.00  0.00     0.145 C 
HETATM   14  N   UNL     1       4.742   9.134 -21.761  1.00  0.00    -0.349 N 
HETATM   15  C   UNL     1       5.539   9.045 -20.622  1.00  0.00     0.219 C 
HETATM   16  C   UNL     1       5.232   9.646 -23.051  1.00  0.00     0.145 C 
HETATM   17  O   UNL     1       5.219   8.353 -19.655  1.00  0.00    -0.273 OA
HETATM   18  C   UNL     1       4.113  10.040 -24.039  1.00  0.00     0.143 C 
BRANCH  15  19
HETATM   19  C   UNL     1       6.818   9.866 -20.614  1.00  0.00     0.098 C 
HETATM   20  C   UNL     1       7.036  10.581 -19.290  1.00  0.00     0.014 C 
ENDBRANCH  15  19
ENDBRANCH   8  11
ENDBRANCH   3   5
ENDBRANCH   1   3
BRANCH   1  21
HETATM   21  N   UNL     1      -1.820   7.379 -29.727  1.00  0.00    -0.298 N 
HETATM   22  C   UNL     1      -0.838   6.720 -30.453  1.00  0.00     0.281 C 
HETATM   23  O   UNL     1       0.365   6.918 -30.302  1.00  0.00    -0.265 OA
HETATM   24  H   UNL     1      -2.770   7.200 -30.032  1.00  0.00     0.171 HD
BRANCH  22  25
HETATM   25  C   UNL     1      -1.406   5.819 -31.436  1.00  0.00     0.144 A 
HETATM   26  O   UNL     1      -2.289   4.869 -30.995  1.00  0.00    -0.304 OA
HETATM   27  C   UNL     1      -2.664   4.104 -32.060  1.00  0.00     0.086 A 
HETATM   28  C   UNL     1      -2.034   4.575 -33.196  1.00  0.00     0.041 A 
HETATM   29  C   UNL     1      -1.229   5.677 -32.796  1.00  0.00     0.046 A 
BRANCH  27  30
HETATM   30  C   UNL     1      -3.581   3.007 -31.757  1.00  0.00    -0.001 A 
HETATM   31  C   UNL     1      -3.496   1.786 -32.442  1.00  0.00     0.038 A 
HETATM   32  C   UNL     1      -4.385   0.742 -32.171  1.00  0.00     0.040 A 
HETATM   33 CL   UNL     1      -4.207  -0.723 -33.074  1.00  0.00    -0.084 Cl
HETATM   34  C   UNL     1      -5.386   0.888 -31.203  1.00  0.00    -0.040 A 
HETATM   35  C   UNL     1      -6.366  -0.210 -30.902  1.00  0.00     0.050 C 
HETATM   36  C   UNL     1      -5.473   2.106 -30.515  1.00  0.00     0.009 A 
HETATM   37  C   UNL     1      -4.580   3.151 -30.787  1.00  0.00     0.015 A 
ENDBRANCH  27  30
ENDBRANCH  22  25
ENDBRANCH   1  21
TORSDOF 7
ENDMDL
MODEL 10
REMARK VINA RESULT:      -8.4      8.023     11.380
REMARK  7 active torsions:
REMARK  status: ('A' for Active; 'I' for Inactive)
REMARK    1  A    between atoms: C_2  and  C_3 
REMARK       I    between atoms: C_3  and  N_4 
REMARK    2  A    between atoms: N_7  and  C_8 
REMARK    3  A    between atoms: C_11  and  N_12 
REMARK    4  A    between atoms: N_12  and  C_13 
REMARK    5  A    between atoms: C_13  and  N_14 
REMARK       I    between atoms: N_14  and  C_15 
REMARK    6  A    between atoms: C_15  and  C_16 
REMARK    7  A    between atoms: C_18  and  C_19 
ROOT
HETATM    1  C   UNL     1     -12.292   0.952 -33.589  1.00  0.00     0.179 C 
HETATM    2  S   UNL     1     -13.785   0.203 -33.722  1.00  0.00    -0.040 SA
ENDROOT
BRANCH   1   3
HETATM    3  N   UNL     1     -11.100   0.415 -33.167  1.00  0.00    -0.333 N 
HETATM    4  H   UNL     1     -11.137  -0.575 -32.932  1.00  0.00     0.168 HD
BRANCH   3   5
HETATM    5  C   UNL     1      -9.818   1.006 -33.172  1.00  0.00     0.034 A 
HETATM    6  C   UNL     1      -9.275   1.627 -32.053  1.00  0.00     0.032 A 
HETATM    7  C   UNL     1      -8.002   2.201 -32.108  1.00  0.00     0.031 A 
HETATM    8  C   UNL     1      -7.231   2.200 -33.280  1.00  0.00     0.030 A 
HETATM    9  C   UNL     1      -7.764   1.505 -34.374  1.00  0.00     0.031 A 
HETATM   10  C   UNL     1      -9.034   0.901 -34.319  1.00  0.00     0.032 A 
BRANCH   8  11
HETATM   11  N   UNL     1      -5.981   2.832 -33.283  1.00  0.00    -0.378 N 
HETATM   12  C   UNL     1      -5.229   2.718 -32.006  1.00  0.00     0.143 C 
HETATM   13  C   UNL     1      -3.742   3.013 -32.238  1.00  0.00     0.145 C 
HETATM   14  N   UNL     1      -3.501   4.284 -32.929  1.00  0.00    -0.349 N 
HETATM   15  C   UNL     1      -2.229   4.834 -32.787  1.00  0.00     0.219 C 
HETATM   16  C   UNL     1      -4.359   4.527 -34.100  1.00  0.00     0.145 C 
HETATM   17  O   UNL     1      -1.417   4.397 -31.970  1.00  0.00    -0.273 OA
HETATM   18  C   UNL     1      -5.846   4.175 -33.876  1.00  0.00     0.143 C 
BRANCH  15  19
HETATM   19  C   UNL     1      -1.893   6.023 -33.672  1.00  0.00     0.098 C 
HETATM   20  C   UNL     1      -0.880   6.955 -33.025  1.00  0.00     0.014 C 
ENDBRANCH  15  19
ENDBRANCH   8  11
ENDBRANCH   3   5
ENDBRANCH   1   3
BRANCH   1  21
HETATM   21  N   UNL     1     -12.262   2.282 -33.936  1.00  0.00    -0.298 N 
HETATM   22  C   UNL     1     -12.537   2.905 -35.146  1.00  0.00     0.281 C 
HETATM   23  O   UNL     1     -12.509   2.325 -36.229  1.00  0.00    -0.265 OA
HETATM   24  H   UNL     1     -12.212   2.903 -33.137  1.00  0.00     0.171 HD
BRANCH  22  25
HETATM   25  C   UNL     1     -12.806   4.319 -34.977  1.00  0.00     0.144 A 
HETATM   26  O   UNL     1     -12.450   5.162 -35.997  1.00  0.00    -0.304 OA
HETATM   27  C   UNL     1     -12.744   6.439 -35.620  1.00  0.00     0.086 A 
HETATM   28  C   UNL     1     -13.308   6.418 -34.359  1.00  0.00     0.041 A 
HETATM   29  C   UNL     1     -13.351   5.058 -33.948  1.00  0.00     0.046 A 
BRANCH  27  30
HETATM   30  C   UNL     1     -12.388   7.478 -36.584  1.00  0.00    -0.001 A 
HETATM   31  C   UNL     1     -13.283   7.861 -37.594  1.00  0.00     0.038 A 
HETATM   32  C   UNL     1     -12.939   8.838 -38.533  1.00  0.00     0.040 A 
HETATM   33 CL   UNL     1     -14.105   9.237 -39.746  1.00  0.00    -0.084 Cl
HETATM   34  C   UNL     1     -11.687   9.464 -38.487  1.00  0.00    -0.040 A 
HETATM   35  C   UNL     1     -11.282  10.505 -39.492  1.00  0.00     0.050 C 
HETATM   36  C   UNL     1     -10.790   9.085 -37.479  1.00  0.00     0.009 A 
HETATM   37  C   UNL     1     -11.137   8.106 -36.538  1.00  0.00     0.015 A 
ENDBRANCH  27  30
ENDBRANCH  22  25
ENDBRANCH   1  21
TORSDOF 7
ENDMDL
