MODEL 1
REMARK VINA RESULT:      -9.7      0.000      0.000
REMARK  6 active torsions:
REMARK  status: ('A' for Active; 'I' for Inactive)
REMARK    1  A    between atoms: C_7  and  C_8 
REMARK    2  A    between atoms: C_8  and  O_9 
REMARK    3  A    between atoms: N_12  and  C_13 
REMARK    4  A    between atoms: C_13  and  C_14 
REMARK    5  A    between atoms: C_14  and  C_15 
REMARK    6  A    between atoms: C_15  and  C_16 
ROOT
HETATM    1  C   UNL     1      -8.559   1.119 -32.079  1.00  0.00     0.199 A 
HETATM    2  C   UNL     1      -7.651   2.079 -31.236  1.00  0.00     0.269 A 
HETATM    3  O   UNL     1      -8.010   2.990 -30.501  1.00  0.00    -0.269 OA
HETATM    4  N   UNL     1      -6.318   1.673 -31.445  1.00  0.00    -0.314 N 
HETATM    5  C   UNL     1      -6.248   0.611 -32.359  1.00  0.00     0.047 A 
HETATM    6  C   UNL     1      -7.534   0.257 -32.781  1.00  0.00     0.017 A 
HETATM    7  C   UNL     1      -5.130  -0.048 -32.840  1.00  0.00     0.030 A 
HETATM    8  C   UNL     1      -5.320  -1.081 -33.763  1.00  0.00     0.002 A 
HETATM    9  C   UNL     1      -6.609  -1.443 -34.185  1.00  0.00     0.001 A 
HETATM   10  C   UNL     1      -7.730  -0.777 -33.689  1.00  0.00     0.013 A 
ENDROOT
BRANCH   1  11
HETATM   11  C   UNL     1      -9.353   1.842 -33.147  1.00  0.00     0.025 A 
HETATM   12  C   UNL     1      -8.938   2.945 -33.895  1.00  0.00     0.016 A 
HETATM   13  C   UNL     1      -7.664   3.716 -33.878  1.00  0.00     0.069 C 
HETATM   14  N   UNL     1      -9.939   3.272 -34.771  1.00  0.00    -0.359 N 
HETATM   15  H   UNL     1      -9.897   4.023 -35.445  1.00  0.00     0.166 HD
HETATM   16  C   UNL     1     -11.013   2.433 -34.621  1.00  0.00     0.043 A 
HETATM   17  C   UNL     1     -10.688   1.525 -33.612  1.00  0.00     0.003 A 
HETATM   18  C   UNL     1     -12.234   2.415 -35.307  1.00  0.00     0.030 A 
HETATM   19  C   UNL     1     -11.656   0.552 -33.276  1.00  0.00     0.014 A 
HETATM   20  C   UNL     1     -12.884   0.518 -33.950  1.00  0.00     0.001 A 
HETATM   21  C   UNL     1     -13.165   1.437 -34.953  1.00  0.00     0.002 A 
ENDBRANCH   1  11
BRANCH   1  22
HETATM   22  O   UNL     1      -9.353   0.290 -31.232  1.00  0.00    -0.371 OA
HETATM   23  H   UNL     1      -9.998   0.872 -30.799  1.00  0.00     0.212 HD
ENDBRANCH   1  22
BRANCH   4  24
HETATM   24  C   UNL     1      -5.186   2.386 -30.896  1.00  0.00     0.133 C 
BRANCH  24  25
HETATM   25  C   UNL     1      -4.531   3.361 -31.874  1.00  0.00     0.025 C 
BRANCH  25  26
HETATM   26  C   UNL     1      -3.032   3.115 -32.049  1.00  0.00     0.040 C 
BRANCH  26  27
HETATM   27  C   UNL     1      -2.336   4.347 -32.577  1.00  0.00    -0.058 A 
HETATM   28  C   UNL     1      -1.791   5.289 -31.693  1.00  0.00     0.007 A 
HETATM   29  C   UNL     1      -1.179   6.445 -32.179  1.00  0.00     0.001 A 
HETATM   30  C   UNL     1      -1.105   6.672 -33.553  1.00  0.00     0.000 A 
HETATM   31  C   UNL     1      -1.642   5.742 -34.440  1.00  0.00     0.001 A 
HETATM   32  C   UNL     1      -2.256   4.585 -33.955  1.00  0.00     0.007 A 
ENDBRANCH  26  27
ENDBRANCH  25  26
ENDBRANCH  24  25
ENDBRANCH   4  24
TORSDOF 6
ENDMDL
MODEL 2
REMARK VINA RESULT:      -9.5      2.418      7.095
REMARK  6 active torsions:
REMARK  status: ('A' for Active; 'I' for Inactive)
REMARK    1  A    between atoms: C_7  and  C_8 
REMARK    2  A    between atoms: C_8  and  O_9 
REMARK    3  A    between atoms: N_12  and  C_13 
REMARK    4  A    between atoms: C_13  and  C_14 
REMARK    5  A    between atoms: C_14  and  C_15 
REMARK    6  A    between atoms: C_15  and  C_16 
ROOT
HETATM    1  C   UNL     1      -6.677   2.677 -30.289  1.00  0.00     0.199 A 
HETATM    2  C   UNL     1      -6.035   1.253 -30.164  1.00  0.00     0.269 A 
HETATM    3  O   UNL     1      -5.375   0.813 -29.231  1.00  0.00    -0.269 OA
HETATM    4  N   UNL     1      -6.394   0.536 -31.322  1.00  0.00    -0.314 N 
HETATM    5  C   UNL     1      -7.137   1.335 -32.204  1.00  0.00     0.047 A 
HETATM    6  C   UNL     1      -7.317   2.610 -31.658  1.00  0.00     0.017 A 
HETATM    7  C   UNL     1      -7.652   1.009 -33.447  1.00  0.00     0.030 A 
HETATM    8  C   UNL     1      -8.358   1.991 -34.146  1.00  0.00     0.002 A 
HETATM    9  C   UNL     1      -8.545   3.271 -33.600  1.00  0.00     0.001 A 
HETATM   10  C   UNL     1      -8.028   3.587 -32.343  1.00  0.00     0.013 A 
ENDROOT
BRANCH   1  11
HETATM   11  C   UNL     1      -5.649   3.788 -30.322  1.00  0.00     0.025 A 
HETATM   12  C   UNL     1      -5.618   4.923 -29.510  1.00  0.00     0.016 A 
HETATM   13  C   UNL     1      -6.532   5.376 -28.425  1.00  0.00     0.069 C 
HETATM   14  N   UNL     1      -4.510   5.658 -29.840  1.00  0.00    -0.359 N 
HETATM   15  H   UNL     1      -4.235   6.522 -29.396  1.00  0.00     0.166 HD
HETATM   16  C   UNL     1      -3.811   5.058 -30.855  1.00  0.00     0.043 A 
HETATM   17  C   UNL     1      -4.492   3.887 -31.188  1.00  0.00     0.003 A 
HETATM   18  C   UNL     1      -2.631   5.469 -31.490  1.00  0.00     0.030 A 
HETATM   19  C   UNL     1      -3.952   3.093 -32.225  1.00  0.00     0.014 A 
HETATM   20  C   UNL     1      -2.773   3.486 -32.873  1.00  0.00     0.001 A 
HETATM   21  C   UNL     1      -2.122   4.658 -32.506  1.00  0.00     0.002 A 
ENDBRANCH   1  11
BRANCH   1  22
HETATM   22  O   UNL     1      -7.700   2.866 -29.313  1.00  0.00    -0.371 OA
HETATM   23  H   UNL     1      -7.423   3.616 -28.763  1.00  0.00     0.212 HD
ENDBRANCH   1  22
BRANCH   4  24
HETATM   24  C   UNL     1      -5.905  -0.796 -31.602  1.00  0.00     0.133 C 
BRANCH  24  25
HETATM   25  C   UNL     1      -4.481  -0.833 -32.155  1.00  0.00     0.025 C 
BRANCH  25  26
HETATM   26  C   UNL     1      -4.433  -0.963 -33.678  1.00  0.00     0.040 C 
BRANCH  26  27
HETATM   27  C   UNL     1      -4.958  -2.306 -34.127  1.00  0.00    -0.058 A 
HETATM   28  C   UNL     1      -6.243  -2.419 -34.676  1.00  0.00     0.007 A 
HETATM   29  C   UNL     1      -6.744  -3.664 -35.057  1.00  0.00     0.001 A 
HETATM   30  C   UNL     1      -5.964  -4.809 -34.896  1.00  0.00     0.000 A 
HETATM   31  C   UNL     1      -4.685  -4.708 -34.353  1.00  0.00     0.001 A 
HETATM   32  C   UNL     1      -4.184  -3.463 -33.969  1.00  0.00     0.007 A 
ENDBRANCH  26  27
ENDBRANCH  25  26
ENDBRANCH  24  25
ENDBRANCH   4  24
TORSDOF 6
ENDMDL
MODEL 3
REMARK VINA RESULT:      -9.3      2.910      7.898
REMARK  6 active torsions:
REMARK  status: ('A' for Active; 'I' for Inactive)
REMARK    1  A    between atoms: C_7  and  C_8 
REMARK    2  A    between atoms: C_8  and  O_9 
REMARK    3  A    between atoms: N_12  and  C_13 
REMARK    4  A    between atoms: C_13  and  C_14 
REMARK    5  A    between atoms: C_14  and  C_15 
REMARK    6  A    between atoms: C_15  and  C_16 
ROOT
HETATM    1  C   UNL     1      -4.679   3.967 -30.920  1.00  0.00     0.199 A 
HETATM    2  C   UNL     1      -4.051   2.613 -31.397  1.00  0.00     0.269 A 
HETATM    3  O   UNL     1      -3.008   2.099 -31.013  1.00  0.00    -0.269 OA
HETATM    4  N   UNL     1      -4.940   2.056 -32.337  1.00  0.00    -0.314 N 
HETATM    5  C   UNL     1      -6.033   2.906 -32.569  1.00  0.00     0.047 A 
HETATM    6  C   UNL     1      -5.921   4.054 -31.778  1.00  0.00     0.017 A 
HETATM    7  C   UNL     1      -7.101   2.730 -33.431  1.00  0.00     0.030 A 
HETATM    8  C   UNL     1      -8.071   3.736 -33.492  1.00  0.00     0.002 A 
HETATM    9  C   UNL     1      -7.965   4.887 -32.696  1.00  0.00     0.001 A 
HETATM   10  C   UNL     1      -6.888   5.051 -31.825  1.00  0.00     0.013 A 
ENDROOT
BRANCH   1  11
HETATM   11  C   UNL     1      -3.816   5.167 -31.247  1.00  0.00     0.025 A 
HETATM   12  C   UNL     1      -3.650   6.314 -30.470  1.00  0.00     0.016 A 
HETATM   13  C   UNL     1      -4.237   6.701 -29.157  1.00  0.00     0.069 C 
HETATM   14  N   UNL     1      -2.765   7.142 -31.108  1.00  0.00    -0.359 N 
HETATM   15  H   UNL     1      -2.451   8.036 -30.758  1.00  0.00     0.166 HD
HETATM   16  C   UNL     1      -2.347   6.590 -32.292  1.00  0.00     0.043 A 
HETATM   17  C   UNL     1      -2.984   5.356 -32.418  1.00  0.00     0.003 A 
HETATM   18  C   UNL     1      -1.453   7.096 -33.245  1.00  0.00     0.030 A 
HETATM   19  C   UNL     1      -2.706   4.595 -33.576  1.00  0.00     0.014 A 
HETATM   20  C   UNL     1      -1.816   5.083 -34.542  1.00  0.00     0.001 A 
HETATM   21  C   UNL     1      -1.198   6.317 -34.375  1.00  0.00     0.002 A 
ENDBRANCH   1  11
BRANCH   1  22
HETATM   22  O   UNL     1      -5.073   3.895 -29.550  1.00  0.00    -0.371 OA
HETATM   23  H   UNL     1      -4.969   4.788 -29.185  1.00  0.00     0.212 HD
ENDBRANCH   1  22
BRANCH   4  24
HETATM   24  C   UNL     1      -4.650   0.841 -33.067  1.00  0.00     0.133 C 
BRANCH  24  25
HETATM   25  C   UNL     1      -5.661  -0.281 -32.832  1.00  0.00     0.025 C 
BRANCH  25  26
HETATM   26  C   UNL     1      -6.213  -0.870 -34.132  1.00  0.00     0.040 C 
BRANCH  26  27
HETATM   27  C   UNL     1      -5.829  -2.323 -34.279  1.00  0.00    -0.058 A 
HETATM   28  C   UNL     1      -4.520  -2.742 -34.007  1.00  0.00     0.007 A 
HETATM   29  C   UNL     1      -4.154  -4.078 -34.177  1.00  0.00     0.001 A 
HETATM   30  C   UNL     1      -5.094  -5.009 -34.619  1.00  0.00     0.000 A 
HETATM   31  C   UNL     1      -6.398  -4.603 -34.891  1.00  0.00     0.001 A 
HETATM   32  C   UNL     1      -6.765  -3.266 -34.723  1.00  0.00     0.007 A 
ENDBRANCH  26  27
ENDBRANCH  25  26
ENDBRANCH  24  25
ENDBRANCH   4  24
TORSDOF 6
ENDMDL
MODEL 4
REMARK VINA RESULT:      -9.3      2.230      6.500
REMARK  6 active torsions:
REMARK  status: ('A' for Active; 'I' for Inactive)
REMARK    1  A    between atoms: C_7  and  C_8 
REMARK    2  A    between atoms: C_8  and  O_9 
REMARK    3  A    between atoms: N_12  and  C_13 
REMARK    4  A    between atoms: C_13  and  C_14 
REMARK    5  A    between atoms: C_14  and  C_15 
REMARK    6  A    between atoms: C_15  and  C_16 
ROOT
HETATM    1  C   UNL     1      -4.008   2.151 -31.520  1.00  0.00     0.199 A 
HETATM    2  C   UNL     1      -5.188   2.613 -30.599  1.00  0.00     0.269 A 
HETATM    3  O   UNL     1      -5.738   1.970 -29.713  1.00  0.00    -0.269 OA
HETATM    4  N   UNL     1      -5.486   3.945 -30.947  1.00  0.00    -0.314 N 
HETATM    5  C   UNL     1      -4.686   4.381 -32.015  1.00  0.00     0.047 A 
HETATM    6  C   UNL     1      -3.813   3.360 -32.406  1.00  0.00     0.017 A 
HETATM    7  C   UNL     1      -4.689   5.607 -32.658  1.00  0.00     0.030 A 
HETATM    8  C   UNL     1      -3.792   5.800 -33.713  1.00  0.00     0.002 A 
HETATM    9  C   UNL     1      -2.911   4.780 -34.106  1.00  0.00     0.001 A 
HETATM   10  C   UNL     1      -2.912   3.551 -33.447  1.00  0.00     0.013 A 
ENDROOT
BRANCH   1  11
HETATM   11  C   UNL     1      -4.378   0.987 -32.415  1.00  0.00     0.025 A 
HETATM   12  C   UNL     1      -3.751  -0.259 -32.470  1.00  0.00     0.016 A 
HETATM   13  C   UNL     1      -2.589  -0.803 -31.715  1.00  0.00     0.069 C 
HETATM   14  N   UNL     1      -4.411  -1.033 -33.387  1.00  0.00    -0.359 N 
HETATM   15  H   UNL     1      -4.177  -1.989 -33.613  1.00  0.00     0.166 HD
HETATM   16  C   UNL     1      -5.448  -0.339 -33.956  1.00  0.00     0.043 A 
HETATM   17  C   UNL     1      -5.459   0.930 -33.378  1.00  0.00     0.003 A 
HETATM   18  C   UNL     1      -6.367  -0.750 -34.930  1.00  0.00     0.030 A 
HETATM   19  C   UNL     1      -6.453   1.836 -33.817  1.00  0.00     0.014 A 
HETATM   20  C   UNL     1      -7.382   1.445 -34.790  1.00  0.00     0.001 A 
HETATM   21  C   UNL     1      -7.338   0.167 -35.336  1.00  0.00     0.002 A 
ENDBRANCH   1  11
BRANCH   1  22
HETATM   22  O   UNL     1      -2.818   1.941 -30.762  1.00  0.00    -0.371 OA
HETATM   23  H   UNL     1      -2.210   1.444 -31.334  1.00  0.00     0.212 HD
ENDBRANCH   1  22
BRANCH   4  24
HETATM   24  C   UNL     1      -6.587   4.681 -30.366  1.00  0.00     0.133 C 
BRANCH  24  25
HETATM   25  C   UNL     1      -7.925   4.456 -31.070  1.00  0.00     0.025 C 
BRANCH  25  26
HETATM   26  C   UNL     1      -8.784   3.387 -30.393  1.00  0.00     0.040 C 
BRANCH  26  27
HETATM   27  C   UNL     1      -9.331   2.407 -31.404  1.00  0.00    -0.058 A 
HETATM   28  C   UNL     1     -10.240   2.831 -32.384  1.00  0.00     0.007 A 
HETATM   29  C   UNL     1     -10.774   1.920 -33.296  1.00  0.00     0.001 A 
HETATM   30  C   UNL     1     -10.405   0.577 -33.238  1.00  0.00     0.000 A 
HETATM   31  C   UNL     1      -9.502   0.145 -32.270  1.00  0.00     0.001 A 
HETATM   32  C   UNL     1      -8.968   1.055 -31.355  1.00  0.00     0.007 A 
ENDBRANCH  26  27
ENDBRANCH  25  26
ENDBRANCH  24  25
ENDBRANCH   4  24
TORSDOF 6
ENDMDL
MODEL 5
REMARK VINA RESULT:      -9.2      1.888      7.601
REMARK  6 active torsions:
REMARK  status: ('A' for Active; 'I' for Inactive)
REMARK    1  A    between atoms: C_7  and  C_8 
REMARK    2  A    between atoms: C_8  and  O_9 
REMARK    3  A    between atoms: N_12  and  C_13 
REMARK    4  A    between atoms: C_13  and  C_14 
REMARK    5  A    between atoms: C_14  and  C_15 
REMARK    6  A    between atoms: C_15  and  C_16 
ROOT
HETATM    1  C   UNL     1      -5.672   1.453 -31.560  1.00  0.00     0.199 A 
HETATM    2  C   UNL     1      -7.235   1.366 -31.608  1.00  0.00     0.269 A 
HETATM    3  O   UNL     1      -7.954   0.546 -31.051  1.00  0.00    -0.269 OA
HETATM    4  N   UNL     1      -7.684   2.451 -32.387  1.00  0.00    -0.314 N 
HETATM    5  C   UNL     1      -6.606   3.191 -32.896  1.00  0.00     0.047 A 
HETATM    6  C   UNL     1      -5.398   2.638 -32.459  1.00  0.00     0.017 A 
HETATM    7  C   UNL     1      -6.628   4.305 -33.716  1.00  0.00     0.030 A 
HETATM    8  C   UNL     1      -5.406   4.866 -34.100  1.00  0.00     0.002 A 
HETATM    9  C   UNL     1      -4.192   4.317 -33.659  1.00  0.00     0.001 A 
HETATM   10  C   UNL     1      -4.181   3.198 -32.826  1.00  0.00     0.013 A 
ENDROOT
BRANCH   1  11
HETATM   11  C   UNL     1      -4.994   0.248 -32.178  1.00  0.00     0.025 A 
HETATM   12  C   UNL     1      -3.719  -0.237 -31.884  1.00  0.00     0.016 A 
HETATM   13  C   UNL     1      -2.682   0.250 -30.933  1.00  0.00     0.069 C 
HETATM   14  N   UNL     1      -3.500  -1.359 -32.639  1.00  0.00    -0.359 N 
HETATM   15  H   UNL     1      -2.662  -1.921 -32.612  1.00  0.00     0.166 HD
HETATM   16  C   UNL     1      -4.582  -1.629 -33.437  1.00  0.00     0.043 A 
HETATM   17  C   UNL     1      -5.538  -0.645 -33.182  1.00  0.00     0.003 A 
HETATM   18  C   UNL     1      -4.776  -2.670 -34.354  1.00  0.00     0.030 A 
HETATM   19  C   UNL     1      -6.753  -0.717 -33.900  1.00  0.00     0.014 A 
HETATM   20  C   UNL     1      -6.967  -1.750 -34.821  1.00  0.00     0.001 A 
HETATM   21  C   UNL     1      -5.990  -2.714 -35.042  1.00  0.00     0.002 A 
ENDBRANCH   1  11
BRANCH   1  22
HETATM   22  O   UNL     1      -5.215   1.760 -30.244  1.00  0.00    -0.371 OA
HETATM   23  H   UNL     1      -4.245   1.721 -30.272  1.00  0.00     0.212 HD
ENDBRANCH   1  22
BRANCH   4  24
HETATM   24  C   UNL     1      -9.076   2.648 -32.729  1.00  0.00     0.133 C 
BRANCH  24  25
HETATM   25  C   UNL     1      -9.560   1.779 -33.889  1.00  0.00     0.025 C 
BRANCH  25  26
HETATM   26  C   UNL     1     -10.348   0.551 -33.427  1.00  0.00     0.040 C 
BRANCH  26  27
HETATM   27  C   UNL     1     -11.822   0.711 -33.710  1.00  0.00    -0.058 A 
HETATM   28  C   UNL     1     -12.713  -0.342 -33.459  1.00  0.00     0.007 A 
HETATM   29  C   UNL     1     -14.070  -0.208 -33.754  1.00  0.00     0.001 A 
HETATM   30  C   UNL     1     -14.552   0.981 -34.300  1.00  0.00     0.000 A 
HETATM   31  C   UNL     1     -13.676   2.035 -34.551  1.00  0.00     0.001 A 
HETATM   32  C   UNL     1     -12.318   1.902 -34.259  1.00  0.00     0.007 A 
ENDBRANCH  26  27
ENDBRANCH  25  26
ENDBRANCH  24  25
ENDBRANCH   4  24
TORSDOF 6
ENDMDL
MODEL 6
REMARK VINA RESULT:      -9.2      3.174      5.661
REMARK  6 active torsions:
REMARK  status: ('A' for Active; 'I' for Inactive)
REMARK    1  A    between atoms: C_7  and  C_8 
REMARK    2  A    between atoms: C_8  and  O_9 
REMARK    3  A    between atoms: N_12  and  C_13 
REMARK    4  A    between atoms: C_13  and  C_14 
REMARK    5  A    between atoms: C_14  and  C_15 
REMARK    6  A    between atoms: C_15  and  C_16 
ROOT
HETATM    1  C   UNL     1      -7.889   3.783 -33.669  1.00  0.00     0.199 A 
HETATM    2  C   UNL     1      -6.948   2.578 -34.010  1.00  0.00     0.269 A 
HETATM    3  O   UNL     1      -6.684   2.129 -35.118  1.00  0.00    -0.269 OA
HETATM    4  N   UNL     1      -6.412   2.115 -32.792  1.00  0.00    -0.314 N 
HETATM    5  C   UNL     1      -6.933   2.832 -31.704  1.00  0.00     0.047 A 
HETATM    6  C   UNL     1      -7.823   3.812 -32.158  1.00  0.00     0.017 A 
HETATM    7  C   UNL     1      -6.677   2.668 -30.354  1.00  0.00     0.030 A 
HETATM    8  C   UNL     1      -7.334   3.510 -29.451  1.00  0.00     0.002 A 
HETATM    9  C   UNL     1      -8.223   4.498 -29.903  1.00  0.00     0.001 A 
HETATM   10  C   UNL     1      -8.469   4.660 -31.267  1.00  0.00     0.013 A 
ENDROOT
BRANCH   1  11
HETATM   11  C   UNL     1      -9.332   3.534 -34.055  1.00  0.00     0.025 A 
HETATM   12  C   UNL     1     -10.179   4.411 -34.736  1.00  0.00     0.016 A 
HETATM   13  C   UNL     1      -9.948   5.785 -35.261  1.00  0.00     0.069 C 
HETATM   14  N   UNL     1     -11.387   3.791 -34.912  1.00  0.00    -0.359 N 
HETATM   15  H   UNL     1     -12.180   4.194 -35.391  1.00  0.00     0.166 HD
HETATM   16  C   UNL     1     -11.379   2.537 -34.359  1.00  0.00     0.043 A 
HETATM   17  C   UNL     1     -10.112   2.338 -33.809  1.00  0.00     0.003 A 
HETATM   18  C   UNL     1     -12.396   1.575 -34.314  1.00  0.00     0.030 A 
HETATM   19  C   UNL     1      -9.866   1.100 -33.173  1.00  0.00     0.014 A 
HETATM   20  C   UNL     1     -10.870   0.125 -33.116  1.00  0.00     0.001 A 
HETATM   21  C   UNL     1     -12.118   0.362 -33.682  1.00  0.00     0.002 A 
ENDBRANCH   1  11
BRANCH   1  22
HETATM   22  O   UNL     1      -7.359   5.007 -34.174  1.00  0.00    -0.371 OA
HETATM   23  H   UNL     1      -7.546   5.017 -35.127  1.00  0.00     0.212 HD
ENDBRANCH   1  22
BRANCH   4  24
HETATM   24  C   UNL     1      -5.564   0.948 -32.701  1.00  0.00     0.133 C 
BRANCH  24  25
HETATM   25  C   UNL     1      -6.329  -0.375 -32.662  1.00  0.00     0.025 C 
BRANCH  25  26
HETATM   26  C   UNL     1      -6.623  -0.937 -34.053  1.00  0.00     0.040 C 
BRANCH  26  27
HETATM   27  C   UNL     1      -6.042  -2.321 -34.216  1.00  0.00    -0.058 A 
HETATM   28  C   UNL     1      -4.695  -2.567 -33.912  1.00  0.00     0.007 A 
HETATM   29  C   UNL     1      -4.147  -3.837 -34.097  1.00  0.00     0.001 A 
HETATM   30  C   UNL     1      -4.940  -4.875 -34.585  1.00  0.00     0.000 A 
HETATM   31  C   UNL     1      -6.280  -4.643 -34.888  1.00  0.00     0.001 A 
HETATM   32  C   UNL     1      -6.829  -3.372 -34.706  1.00  0.00     0.007 A 
ENDBRANCH  26  27
ENDBRANCH  25  26
ENDBRANCH  24  25
ENDBRANCH   4  24
TORSDOF 6
ENDMDL
MODEL 7
REMARK VINA RESULT:      -9.0      2.404      6.592
REMARK  6 active torsions:
REMARK  status: ('A' for Active; 'I' for Inactive)
REMARK    1  A    between atoms: C_7  and  C_8 
REMARK    2  A    between atoms: C_8  and  O_9 
REMARK    3  A    between atoms: N_12  and  C_13 
REMARK    4  A    between atoms: C_13  and  C_14 
REMARK    5  A    between atoms: C_14  and  C_15 
REMARK    6  A    between atoms: C_15  and  C_16 
ROOT
HETATM    1  C   UNL     1      -9.156   2.839 -31.383  1.00  0.00     0.199 A 
HETATM    2  C   UNL     1      -8.371   1.497 -31.571  1.00  0.00     0.269 A 
HETATM    3  O   UNL     1      -7.454   1.067 -30.882  1.00  0.00    -0.269 OA
HETATM    4  N   UNL     1      -8.946   0.834 -32.673  1.00  0.00    -0.314 N 
HETATM    5  C   UNL     1      -9.964   1.606 -33.254  1.00  0.00     0.047 A 
HETATM    6  C   UNL     1     -10.117   2.804 -32.549  1.00  0.00     0.017 A 
HETATM    7  C   UNL     1     -10.747   1.319 -34.358  1.00  0.00     0.030 A 
HETATM    8  C   UNL     1     -11.700   2.262 -34.754  1.00  0.00     0.002 A 
HETATM    9  C   UNL     1     -11.861   3.464 -34.046  1.00  0.00     0.001 A 
HETATM   10  C   UNL     1     -11.071   3.740 -32.930  1.00  0.00     0.013 A 
ENDROOT
BRANCH   1  11
HETATM   11  C   UNL     1      -8.282   4.064 -31.551  1.00  0.00     0.025 A 
HETATM   12  C   UNL     1      -8.345   5.245 -30.810  1.00  0.00     0.016 A 
HETATM   13  C   UNL     1      -9.240   5.653 -29.692  1.00  0.00     0.069 C 
HETATM   14  N   UNL     1      -7.362   6.088 -31.258  1.00  0.00    -0.359 N 
HETATM   15  H   UNL     1      -7.172   7.007 -30.885  1.00  0.00     0.166 HD
HETATM   16  C   UNL     1      -6.656   5.513 -32.283  1.00  0.00     0.043 A 
HETATM   17  C   UNL     1      -7.202   4.247 -32.500  1.00  0.00     0.003 A 
HETATM   18  C   UNL     1      -5.579   6.022 -33.021  1.00  0.00     0.030 A 
HETATM   19  C   UNL     1      -6.630   3.458 -33.524  1.00  0.00     0.014 A 
HETATM   20  C   UNL     1      -5.553   3.950 -34.273  1.00  0.00     0.001 A 
HETATM   21  C   UNL     1      -5.036   5.215 -34.021  1.00  0.00     0.002 A 
ENDBRANCH   1  11
BRANCH   1  22
HETATM   22  O   UNL     1      -9.907   2.829 -30.169  1.00  0.00    -0.371 OA
HETATM   23  H   UNL     1      -9.554   2.101 -29.631  1.00  0.00     0.212 HD
ENDBRANCH   1  22
BRANCH   4  24
HETATM   24  C   UNL     1      -8.421  -0.405 -33.204  1.00  0.00     0.133 C 
BRANCH  24  25
HETATM   25  C   UNL     1      -7.016  -0.283 -33.792  1.00  0.00     0.025 C 
BRANCH  25  26
HETATM   26  C   UNL     1      -6.827  -1.109 -35.067  1.00  0.00     0.040 C 
BRANCH  26  27
HETATM   27  C   UNL     1      -6.103  -2.401 -34.776  1.00  0.00    -0.058 A 
HETATM   28  C   UNL     1      -4.814  -2.385 -34.225  1.00  0.00     0.007 A 
HETATM   29  C   UNL     1      -4.128  -3.577 -33.990  1.00  0.00     0.001 A 
HETATM   30  C   UNL     1      -4.724  -4.798 -34.302  1.00  0.00     0.000 A 
HETATM   31  C   UNL     1      -6.006  -4.827 -34.849  1.00  0.00     0.001 A 
HETATM   32  C   UNL     1      -6.692  -3.634 -35.086  1.00  0.00     0.007 A 
ENDBRANCH  26  27
ENDBRANCH  25  26
ENDBRANCH  24  25
ENDBRANCH   4  24
TORSDOF 6
ENDMDL
MODEL 8
REMARK VINA RESULT:      -8.8      2.977      7.677
REMARK  6 active torsions:
REMARK  status: ('A' for Active; 'I' for Inactive)
REMARK    1  A    between atoms: C_7  and  C_8 
REMARK    2  A    between atoms: C_8  and  O_9 
REMARK    3  A    between atoms: N_12  and  C_13 
REMARK    4  A    between atoms: C_13  and  C_14 
REMARK    5  A    between atoms: C_14  and  C_15 
REMARK    6  A    between atoms: C_15  and  C_16 
ROOT
HETATM    1  C   UNL     1      -4.953   3.863 -31.054  1.00  0.00     0.199 A 
HETATM    2  C   UNL     1      -4.696   2.317 -31.055  1.00  0.00     0.269 A 
HETATM    3  O   UNL     1      -3.615   1.742 -31.024  1.00  0.00    -0.269 OA
HETATM    4  N   UNL     1      -5.957   1.689 -31.053  1.00  0.00    -0.314 N 
HETATM    5  C   UNL     1      -6.994   2.633 -31.110  1.00  0.00     0.047 A 
HETATM    6  C   UNL     1      -6.462   3.927 -31.133  1.00  0.00     0.017 A 
HETATM    7  C   UNL     1      -8.360   2.420 -31.150  1.00  0.00     0.030 A 
HETATM    8  C   UNL     1      -9.201   3.535 -31.214  1.00  0.00     0.002 A 
HETATM    9  C   UNL     1      -8.671   4.836 -31.233  1.00  0.00     0.001 A 
HETATM   10  C   UNL     1      -7.292   5.040 -31.185  1.00  0.00     0.013 A 
ENDROOT
BRANCH   1  11
HETATM   11  C   UNL     1      -4.404   4.554 -32.284  1.00  0.00     0.025 A 
HETATM   12  C   UNL     1      -4.822   4.373 -33.603  1.00  0.00     0.016 A 
HETATM   13  C   UNL     1      -5.872   3.491 -34.184  1.00  0.00     0.069 C 
HETATM   14  N   UNL     1      -4.091   5.208 -34.405  1.00  0.00    -0.359 N 
HETATM   15  H   UNL     1      -4.200   5.293 -35.406  1.00  0.00     0.166 HD
HETATM   16  C   UNL     1      -3.189   5.930 -33.666  1.00  0.00     0.043 A 
HETATM   17  C   UNL     1      -3.350   5.548 -32.334  1.00  0.00     0.003 A 
HETATM   18  C   UNL     1      -2.256   6.888 -34.084  1.00  0.00     0.030 A 
HETATM   19  C   UNL     1      -2.516   6.165 -31.374  1.00  0.00     0.014 A 
HETATM   20  C   UNL     1      -1.576   7.125 -31.772  1.00  0.00     0.001 A 
HETATM   21  C   UNL     1      -1.451   7.481 -33.110  1.00  0.00     0.002 A 
ENDBRANCH   1  11
BRANCH   1  22
HETATM   22  O   UNL     1      -4.534   4.452 -29.824  1.00  0.00    -0.371 OA
HETATM   23  H   UNL     1      -5.298   4.938 -29.475  1.00  0.00     0.212 HD
ENDBRANCH   1  22
BRANCH   4  24
HETATM   24  C   UNL     1      -6.119   0.255 -31.144  1.00  0.00     0.133 C 
BRANCH  24  25
HETATM   25  C   UNL     1      -5.291  -0.395 -32.252  1.00  0.00     0.025 C 
BRANCH  25  26
HETATM   26  C   UNL     1      -6.093  -0.645 -33.530  1.00  0.00     0.040 C 
BRANCH  26  27
HETATM   27  C   UNL     1      -5.886  -2.053 -34.037  1.00  0.00    -0.058 A 
HETATM   28  C   UNL     1      -6.966  -2.794 -34.536  1.00  0.00     0.007 A 
HETATM   29  C   UNL     1      -6.784  -4.107 -34.970  1.00  0.00     0.001 A 
HETATM   30  C   UNL     1      -5.520  -4.693 -34.912  1.00  0.00     0.000 A 
HETATM   31  C   UNL     1      -4.439  -3.964 -34.421  1.00  0.00     0.001 A 
HETATM   32  C   UNL     1      -4.620  -2.651 -33.983  1.00  0.00     0.007 A 
ENDBRANCH  26  27
ENDBRANCH  25  26
ENDBRANCH  24  25
ENDBRANCH   4  24
TORSDOF 6
ENDMDL
MODEL 9
REMARK VINA RESULT:      -8.7      2.231      7.264
REMARK  6 active torsions:
REMARK  status: ('A' for Active; 'I' for Inactive)
REMARK    1  A    between atoms: C_7  and  C_8 
REMARK    2  A    between atoms: C_8  and  O_9 
REMARK    3  A    between atoms: N_12  and  C_13 
REMARK    4  A    between atoms: C_13  and  C_14 
REMARK    5  A    between atoms: C_14  and  C_15 
REMARK    6  A    between atoms: C_15  and  C_16 
ROOT
HETATM    1  C   UNL     1      -5.340   3.912 -32.681  1.00  0.00     0.199 A 
HETATM    2  C   UNL     1      -6.808   4.083 -32.161  1.00  0.00     0.269 A 
HETATM    3  O   UNL     1      -7.558   5.033 -32.346  1.00  0.00    -0.269 OA
HETATM    4  N   UNL     1      -7.137   2.905 -31.462  1.00  0.00    -0.314 N 
HETATM    5  C   UNL     1      -6.048   2.021 -31.417  1.00  0.00     0.047 A 
HETATM    6  C   UNL     1      -4.958   2.570 -32.099  1.00  0.00     0.017 A 
HETATM    7  C   UNL     1      -5.962   0.780 -30.809  1.00  0.00     0.030 A 
HETATM    8  C   UNL     1      -4.752   0.086 -30.896  1.00  0.00     0.002 A 
HETATM    9  C   UNL     1      -3.656   0.631 -31.585  1.00  0.00     0.001 A 
HETATM   10  C   UNL     1      -3.756   1.879 -32.199  1.00  0.00     0.013 A 
ENDROOT
BRANCH   1  11
HETATM   11  C   UNL     1      -4.387   4.942 -32.111  1.00  0.00     0.025 A 
HETATM   12  C   UNL     1      -4.430   5.506 -30.835  1.00  0.00     0.016 A 
HETATM   13  C   UNL     1      -5.371   5.292 -29.702  1.00  0.00     0.069 C 
HETATM   14  N   UNL     1      -3.373   6.368 -30.710  1.00  0.00    -0.359 N 
HETATM   15  H   UNL     1      -3.155   6.900 -29.880  1.00  0.00     0.166 HD
HETATM   16  C   UNL     1      -2.636   6.409 -31.865  1.00  0.00     0.043 A 
HETATM   17  C   UNL     1      -3.239   5.533 -32.769  1.00  0.00     0.003 A 
HETATM   18  C   UNL     1      -1.486   7.150 -32.164  1.00  0.00     0.030 A 
HETATM   19  C   UNL     1      -2.648   5.408 -34.047  1.00  0.00     0.014 A 
HETATM   20  C   UNL     1      -1.498   6.142 -34.366  1.00  0.00     0.001 A 
HETATM   21  C   UNL     1      -0.926   6.999 -33.434  1.00  0.00     0.002 A 
ENDBRANCH   1  11
BRANCH   1  22
HETATM   22  O   UNL     1      -5.307   3.821 -34.104  1.00  0.00    -0.371 OA
HETATM   23  H   UNL     1      -4.812   4.594 -34.420  1.00  0.00     0.212 HD
ENDBRANCH   1  22
BRANCH   4  24
HETATM   24  C   UNL     1      -8.389   2.733 -30.760  1.00  0.00     0.133 C 
BRANCH  24  25
HETATM   25  C   UNL     1      -9.276   1.626 -31.329  1.00  0.00     0.025 C 
BRANCH  25  26
HETATM   26  C   UNL     1      -9.455   1.724 -32.845  1.00  0.00     0.040 C 
BRANCH  26  27
HETATM   27  C   UNL     1      -8.477   0.830 -33.569  1.00  0.00    -0.058 A 
HETATM   28  C   UNL     1      -7.769   1.304 -34.682  1.00  0.00     0.007 A 
HETATM   29  C   UNL     1      -6.892   0.467 -35.373  1.00  0.00     0.001 A 
HETATM   30  C   UNL     1      -6.713  -0.852 -34.958  1.00  0.00     0.000 A 
HETATM   31  C   UNL     1      -7.410  -1.333 -33.852  1.00  0.00     0.001 A 
HETATM   32  C   UNL     1      -8.289  -0.498 -33.161  1.00  0.00     0.007 A 
ENDBRANCH  26  27
ENDBRANCH  25  26
ENDBRANCH  24  25
ENDBRANCH   4  24
TORSDOF 6
ENDMDL
MODEL 10
REMARK VINA RESULT:      -8.7      3.420      5.951
REMARK  6 active torsions:
REMARK  status: ('A' for Active; 'I' for Inactive)
REMARK    1  A    between atoms: C_7  and  C_8 
REMARK    2  A    between atoms: C_8  and  O_9 
REMARK    3  A    between atoms: N_12  and  C_13 
REMARK    4  A    between atoms: C_13  and  C_14 
REMARK    5  A    between atoms: C_14  and  C_15 
REMARK    6  A    between atoms: C_15  and  C_16 
ROOT
HETATM    1  C   UNL     1      -4.060   3.847 -31.761  1.00  0.00     0.199 A 
HETATM    2  C   UNL     1      -4.825   4.947 -30.950  1.00  0.00     0.269 A 
HETATM    3  O   UNL     1      -5.679   4.778 -30.088  1.00  0.00    -0.269 OA
HETATM    4  N   UNL     1      -4.316   6.193 -31.364  1.00  0.00    -0.314 N 
HETATM    5  C   UNL     1      -3.360   6.039 -32.380  1.00  0.00     0.047 A 
HETATM    6  C   UNL     1      -3.185   4.681 -32.668  1.00  0.00     0.017 A 
HETATM    7  C   UNL     1      -2.653   7.014 -33.061  1.00  0.00     0.030 A 
HETATM    8  C   UNL     1      -1.752   6.605 -34.050  1.00  0.00     0.002 A 
HETATM    9  C   UNL     1      -1.569   5.244 -34.339  1.00  0.00     0.001 A 
HETATM   10  C   UNL     1      -2.283   4.269 -33.642  1.00  0.00     0.013 A 
ENDROOT
BRANCH   1  11
HETATM   11  C   UNL     1      -4.972   3.021 -32.643  1.00  0.00     0.025 A 
HETATM   12  C   UNL     1      -5.956   3.499 -33.510  1.00  0.00     0.016 A 
HETATM   13  C   UNL     1      -6.397   4.887 -33.818  1.00  0.00     0.069 C 
HETATM   14  N   UNL     1      -6.530   2.428 -34.142  1.00  0.00    -0.359 N 
HETATM   15  H   UNL     1      -7.261   2.489 -34.836  1.00  0.00     0.166 HD
HETATM   16  C   UNL     1      -5.971   1.251 -33.714  1.00  0.00     0.043 A 
HETATM   17  C   UNL     1      -4.994   1.578 -32.774  1.00  0.00     0.003 A 
HETATM   18  C   UNL     1      -6.261  -0.065 -34.098  1.00  0.00     0.030 A 
HETATM   19  C   UNL     1      -4.276   0.512 -32.184  1.00  0.00     0.014 A 
HETATM   20  C   UNL     1      -4.551  -0.812 -32.554  1.00  0.00     0.001 A 
HETATM   21  C   UNL     1      -5.530  -1.093 -33.500  1.00  0.00     0.002 A 
ENDBRANCH   1  11
BRANCH   1  22
HETATM   22  O   UNL     1      -3.223   3.068 -30.906  1.00  0.00    -0.371 OA
HETATM   23  H   UNL     1      -2.863   3.677 -30.241  1.00  0.00     0.212 HD
ENDBRANCH   1  22
BRANCH   4  24
HETATM   24  C   UNL     1      -4.848   7.453 -30.894  1.00  0.00     0.133 C 
BRANCH  24  25
HETATM   25  C   UNL     1      -3.902   8.225 -29.975  1.00  0.00     0.025 C 
BRANCH  25  26
HETATM   26  C   UNL     1      -3.274   7.346 -28.892  1.00  0.00     0.040 C 
BRANCH  26  27
HETATM   27  C   UNL     1      -1.784   7.575 -28.801  1.00  0.00    -0.058 A 
HETATM   28  C   UNL     1      -0.914   6.962 -29.713  1.00  0.00     0.007 A 
HETATM   29  C   UNL     1       0.466   7.143 -29.608  1.00  0.00     0.001 A 
HETATM   30  C   UNL     1       0.990   7.941 -28.592  1.00  0.00     0.000 A 
HETATM   31  C   UNL     1       0.135   8.558 -27.682  1.00  0.00     0.001 A 
HETATM   32  C   UNL     1      -1.246   8.376 -27.784  1.00  0.00     0.007 A 
ENDBRANCH  26  27
ENDBRANCH  25  26
ENDBRANCH  24  25
ENDBRANCH   4  24
TORSDOF 6
ENDMDL
