MODEL 1
REMARK VINA RESULT:      -9.0      0.000      0.000
REMARK  5 active torsions:
REMARK  status: ('A' for Active; 'I' for Inactive)
REMARK    1  A    between atoms: C_4  and  C_5 
REMARK    2  A    between atoms: C_5  and  N_6 
REMARK    3  A    between atoms: C_7  and  C_8 
REMARK       I    between atoms: C_8  and  N_9 
REMARK    4  A    between atoms: N_9  and  N_10 
REMARK       I    between atoms: N_10  and  C_11 
REMARK    5  A    between atoms: C_11  and  C_12 
ROOT
HETATM    1  N   UNL     1      -6.280   1.581 -32.748  1.00  0.00    -0.337 N 
HETATM    2  C   UNL     1      -7.327   2.217 -33.407  1.00  0.00     0.106 A 
HETATM    3  C   UNL     1      -6.837   3.459 -33.791  1.00  0.00     0.049 A 
HETATM    4  C   UNL     1      -5.477   3.563 -33.406  1.00  0.00    -0.007 A 
HETATM    5  C   UNL     1      -5.138   2.371 -32.770  1.00  0.00     0.045 A 
HETATM    6  C   UNL     1      -4.502   4.568 -33.556  1.00  0.00     0.014 A 
HETATM    7  C   UNL     1      -3.210   4.353 -33.065  1.00  0.00     0.001 A 
HETATM    8  C   UNL     1      -2.886   3.157 -32.435  1.00  0.00     0.002 A 
HETATM    9  C   UNL     1      -3.840   2.147 -32.275  1.00  0.00     0.030 A 
ENDROOT
BRANCH   2  10
HETATM   10  C   UNL     1      -8.644   1.651 -33.647  1.00  0.00     0.286 C 
HETATM   11  N   UNL     1      -9.560   1.852 -32.634  1.00  0.00    -0.262 N 
HETATM   12  H   UNL     1      -9.336   2.292 -31.746  1.00  0.00     0.190 HD
HETATM   13  O   UNL     1      -8.966   1.052 -34.675  1.00  0.00    -0.264 OA
BRANCH  11  14
HETATM   14  N   UNL     1     -10.881   1.428 -32.814  1.00  0.00    -0.262 N 
HETATM   15  C   UNL     1     -11.833   2.349 -33.193  1.00  0.00     0.286 C 
HETATM   16  O   UNL     1     -11.566   3.545 -33.316  1.00  0.00    -0.264 OA
HETATM   17  H   UNL     1     -11.064   0.436 -32.699  1.00  0.00     0.190 HD
BRANCH  15  18
HETATM   18  C   UNL     1     -13.157   1.818 -33.433  1.00  0.00     0.102 A 
HETATM   19  N   UNL     1     -14.171   1.974 -32.509  1.00  0.00    -0.361 N 
HETATM   20  H   UNL     1     -14.055   2.455 -31.624  1.00  0.00     0.165 HD
HETATM   21  C   UNL     1     -15.322   1.393 -32.964  1.00  0.00     0.088 A 
HETATM   22  C   UNL     1     -15.063   0.857 -34.203  1.00  0.00     0.019 A 
HETATM   23  C   UNL     1     -13.703   1.122 -34.500  1.00  0.00     0.036 A 
ENDBRANCH  15  18
ENDBRANCH  11  14
ENDBRANCH   2  10
BRANCH   1  24
HETATM   24  C   UNL     1      -6.348   0.264 -32.112  1.00  0.00     0.168 C 
BRANCH  24  25
HETATM   25  C   UNL     1      -6.012  -0.861 -33.065  1.00  0.00    -0.040 A 
HETATM   26  C   UNL     1      -4.681  -1.282 -33.212  1.00  0.00     0.009 A 
HETATM   27  C   UNL     1      -4.360  -2.350 -34.052  1.00  0.00     0.001 A 
HETATM   28  C   UNL     1      -5.365  -3.013 -34.754  1.00  0.00     0.000 A 
HETATM   29  C   UNL     1      -6.690  -2.608 -34.618  1.00  0.00     0.001 A 
HETATM   30  C   UNL     1      -7.013  -1.543 -33.776  1.00  0.00     0.009 A 
ENDBRANCH  24  25
ENDBRANCH   1  24
TORSDOF 5
ENDMDL
MODEL 2
REMARK VINA RESULT:      -8.9      2.303      4.894
REMARK  5 active torsions:
REMARK  status: ('A' for Active; 'I' for Inactive)
REMARK    1  A    between atoms: C_4  and  C_5 
REMARK    2  A    between atoms: C_5  and  N_6 
REMARK    3  A    between atoms: C_7  and  C_8 
REMARK       I    between atoms: C_8  and  N_9 
REMARK    4  A    between atoms: N_9  and  N_10 
REMARK       I    between atoms: N_10  and  C_11 
REMARK    5  A    between atoms: C_11  and  C_12 
ROOT
HETATM    1  N   UNL     1      -5.287  -1.295 -34.033  1.00  0.00    -0.337 N 
HETATM    2  C   UNL     1      -6.523  -1.264 -34.671  1.00  0.00     0.106 A 
HETATM    3  C   UNL     1      -6.803  -2.578 -35.025  1.00  0.00     0.049 A 
HETATM    4  C   UNL     1      -5.759  -3.417 -34.563  1.00  0.00    -0.007 A 
HETATM    5  C   UNL     1      -4.826  -2.600 -33.928  1.00  0.00     0.045 A 
HETATM    6  C   UNL     1      -5.535  -4.806 -34.622  1.00  0.00     0.014 A 
HETATM    7  C   UNL     1      -4.381  -5.343 -34.042  1.00  0.00     0.001 A 
HETATM    8  C   UNL     1      -3.460  -4.515 -33.410  1.00  0.00     0.002 A 
HETATM    9  C   UNL     1      -3.664  -3.134 -33.341  1.00  0.00     0.030 A 
ENDROOT
BRANCH   2  10
HETATM   10  C   UNL     1      -7.337  -0.078 -34.880  1.00  0.00     0.286 C 
HETATM   11  N   UNL     1      -8.415   0.050 -34.026  1.00  0.00    -0.262 N 
HETATM   12  H   UNL     1      -8.686  -0.655 -33.345  1.00  0.00     0.190 HD
HETATM   13  O   UNL     1      -7.103   0.786 -35.727  1.00  0.00    -0.264 OA
BRANCH  11  14
HETATM   14  N   UNL     1      -9.201   1.205 -34.085  1.00  0.00    -0.262 N 
HETATM   15  C   UNL     1     -10.492   1.162 -33.605  1.00  0.00     0.286 C 
HETATM   16  O   UNL     1     -10.992   0.119 -33.184  1.00  0.00    -0.264 OA
HETATM   17  H   UNL     1      -8.755   2.045 -34.443  1.00  0.00     0.190 HD
BRANCH  15  18
HETATM   18  C   UNL     1     -11.211   2.416 -33.631  1.00  0.00     0.102 A 
HETATM   19  N   UNL     1     -11.947   2.844 -32.544  1.00  0.00    -0.361 N 
HETATM   20  H   UNL     1     -12.032   2.318 -31.682  1.00  0.00     0.165 HD
HETATM   21  C   UNL     1     -12.528   4.054 -32.809  1.00  0.00     0.088 A 
HETATM   22  C   UNL     1     -12.161   4.427 -34.081  1.00  0.00     0.019 A 
HETATM   23  C   UNL     1     -11.335   3.400 -34.600  1.00  0.00     0.036 A 
ENDBRANCH  15  18
ENDBRANCH  11  14
ENDBRANCH   2  10
BRANCH   1  24
HETATM   24  C   UNL     1      -4.556  -0.129 -33.535  1.00  0.00     0.168 C 
BRANCH  24  25
HETATM   25  C   UNL     1      -5.200   0.485 -32.312  1.00  0.00    -0.040 A 
HETATM   26  C   UNL     1      -5.455   1.864 -32.273  1.00  0.00     0.009 A 
HETATM   27  C   UNL     1      -6.091   2.440 -31.171  1.00  0.00     0.001 A 
HETATM   28  C   UNL     1      -6.484   1.645 -30.096  1.00  0.00     0.000 A 
HETATM   29  C   UNL     1      -6.240   0.274 -30.122  1.00  0.00     0.001 A 
HETATM   30  C   UNL     1      -5.607  -0.303 -31.224  1.00  0.00     0.009 A 
ENDBRANCH  24  25
ENDBRANCH   1  24
TORSDOF 5
ENDMDL
MODEL 3
REMARK VINA RESULT:      -8.7      3.797      8.137
REMARK  5 active torsions:
REMARK  status: ('A' for Active; 'I' for Inactive)
REMARK    1  A    between atoms: C_4  and  C_5 
REMARK    2  A    between atoms: C_5  and  N_6 
REMARK    3  A    between atoms: C_7  and  C_8 
REMARK       I    between atoms: C_8  and  N_9 
REMARK    4  A    between atoms: N_9  and  N_10 
REMARK       I    between atoms: N_10  and  C_11 
REMARK    5  A    between atoms: C_11  and  C_12 
ROOT
HETATM    1  N   UNL     1      -4.863   0.461 -32.744  1.00  0.00    -0.337 N 
HETATM    2  C   UNL     1      -4.190   0.857 -31.593  1.00  0.00     0.106 A 
HETATM    3  C   UNL     1      -3.510  -0.267 -31.143  1.00  0.00     0.049 A 
HETATM    4  C   UNL     1      -3.730  -1.338 -32.046  1.00  0.00    -0.007 A 
HETATM    5  C   UNL     1      -4.566  -0.859 -33.053  1.00  0.00     0.045 A 
HETATM    6  C   UNL     1      -3.280  -2.671 -32.096  1.00  0.00     0.014 A 
HETATM    7  C   UNL     1      -3.678  -3.493 -33.156  1.00  0.00     0.001 A 
HETATM    8  C   UNL     1      -4.510  -3.000 -34.155  1.00  0.00     0.002 A 
HETATM    9  C   UNL     1      -4.968  -1.680 -34.123  1.00  0.00     0.030 A 
ENDROOT
BRANCH   2  10
HETATM   10  C   UNL     1      -4.203   2.195 -31.023  1.00  0.00     0.286 C 
HETATM   11  N   UNL     1      -3.072   2.946 -31.274  1.00  0.00    -0.262 N 
HETATM   12  H   UNL     1      -2.248   2.591 -31.751  1.00  0.00     0.190 HD
HETATM   13  O   UNL     1      -5.141   2.669 -30.381  1.00  0.00    -0.264 OA
BRANCH  11  14
HETATM   14  N   UNL     1      -3.030   4.279 -30.851  1.00  0.00    -0.262 N 
HETATM   15  C   UNL     1      -1.964   5.067 -31.225  1.00  0.00     0.286 C 
HETATM   16  O   UNL     1      -1.017   4.614 -31.870  1.00  0.00    -0.264 OA
HETATM   17  H   UNL     1      -3.826   4.616 -30.318  1.00  0.00     0.190 HD
BRANCH  15  18
HETATM   18  C   UNL     1      -2.033   6.451 -30.813  1.00  0.00     0.102 A 
HETATM   19  N   UNL     1      -2.206   6.797 -29.487  1.00  0.00    -0.361 N 
HETATM   20  H   UNL     1      -2.298   6.121 -28.739  1.00  0.00     0.165 HD
HETATM   21  C   UNL     1      -2.236   8.158 -29.350  1.00  0.00     0.088 A 
HETATM   22  C   UNL     1      -2.071   8.710 -30.599  1.00  0.00     0.019 A 
HETATM   23  C   UNL     1      -1.945   7.641 -31.519  1.00  0.00     0.036 A 
ENDBRANCH  15  18
ENDBRANCH  11  14
ENDBRANCH   2  10
BRANCH   1  24
HETATM   24  C   UNL     1      -5.764   1.301 -33.536  1.00  0.00     0.168 C 
BRANCH  24  25
HETATM   25  C   UNL     1      -7.222   0.975 -33.301  1.00  0.00    -0.040 A 
HETATM   26  C   UNL     1      -7.679   0.705 -32.002  1.00  0.00     0.009 A 
HETATM   27  C   UNL     1      -9.031   0.448 -31.762  1.00  0.00     0.001 A 
HETATM   28  C   UNL     1      -9.943   0.460 -32.815  1.00  0.00     0.000 A 
HETATM   29  C   UNL     1      -9.504   0.727 -34.109  1.00  0.00     0.001 A 
HETATM   30  C   UNL     1      -8.154   0.987 -34.351  1.00  0.00     0.009 A 
ENDBRANCH  24  25
ENDBRANCH   1  24
TORSDOF 5
ENDMDL
MODEL 4
REMARK VINA RESULT:      -8.5      1.278      4.215
REMARK  5 active torsions:
REMARK  status: ('A' for Active; 'I' for Inactive)
REMARK    1  A    between atoms: C_4  and  C_5 
REMARK    2  A    between atoms: C_5  and  N_6 
REMARK    3  A    between atoms: C_7  and  C_8 
REMARK       I    between atoms: C_8  and  N_9 
REMARK    4  A    between atoms: N_9  and  N_10 
REMARK       I    between atoms: N_10  and  C_11 
REMARK    5  A    between atoms: C_11  and  C_12 
ROOT
HETATM    1  N   UNL     1      -6.634   0.245 -32.971  1.00  0.00    -0.337 N 
HETATM    2  C   UNL     1      -7.728   0.350 -33.824  1.00  0.00     0.106 A 
HETATM    3  C   UNL     1      -7.573  -0.659 -34.767  1.00  0.00     0.049 A 
HETATM    4  C   UNL     1      -6.409  -1.408 -34.462  1.00  0.00    -0.007 A 
HETATM    5  C   UNL     1      -5.843  -0.839 -33.323  1.00  0.00     0.045 A 
HETATM    6  C   UNL     1      -5.796  -2.529 -35.054  1.00  0.00     0.014 A 
HETATM    7  C   UNL     1      -4.629  -3.054 -34.489  1.00  0.00     0.001 A 
HETATM    8  C   UNL     1      -4.077  -2.477 -33.351  1.00  0.00     0.002 A 
HETATM    9  C   UNL     1      -4.670  -1.364 -32.749  1.00  0.00     0.030 A 
ENDROOT
BRANCH   2  10
HETATM   10  C   UNL     1      -8.807   1.317 -33.703  1.00  0.00     0.286 C 
HETATM   11  N   UNL     1      -9.868   0.912 -32.918  1.00  0.00    -0.262 N 
HETATM   12  H   UNL     1      -9.950  -0.014 -32.507  1.00  0.00     0.190 HD
HETATM   13  O   UNL     1      -8.802   2.433 -34.223  1.00  0.00    -0.264 OA
BRANCH  11  14
HETATM   14  N   UNL     1     -10.909   1.810 -32.662  1.00  0.00    -0.262 N 
HETATM   15  C   UNL     1     -12.104   1.659 -33.332  1.00  0.00     0.286 C 
HETATM   16  O   UNL     1     -12.257   0.793 -34.196  1.00  0.00    -0.264 OA
HETATM   17  H   UNL     1     -10.745   2.512 -31.947  1.00  0.00     0.190 HD
BRANCH  15  18
HETATM   18  C   UNL     1     -13.154   2.578 -32.955  1.00  0.00     0.102 A 
HETATM   19  N   UNL     1     -14.232   2.165 -32.197  1.00  0.00    -0.361 N 
HETATM   20  H   UNL     1     -14.355   1.214 -31.869  1.00  0.00     0.165 HD
HETATM   21  C   UNL     1     -15.082   3.212 -31.969  1.00  0.00     0.088 A 
HETATM   22  C   UNL     1     -14.552   4.325 -32.577  1.00  0.00     0.019 A 
HETATM   23  C   UNL     1     -13.341   3.930 -33.198  1.00  0.00     0.036 A 
ENDBRANCH  15  18
ENDBRANCH  11  14
ENDBRANCH   2  10
BRANCH   1  24
HETATM   24  C   UNL     1      -6.338   1.141 -31.852  1.00  0.00     0.168 C 
BRANCH  24  25
HETATM   25  C   UNL     1      -5.262   2.151 -32.182  1.00  0.00    -0.040 A 
HETATM   26  C   UNL     1      -5.511   3.156 -33.129  1.00  0.00     0.009 A 
HETATM   27  C   UNL     1      -4.545   4.124 -33.412  1.00  0.00     0.001 A 
HETATM   28  C   UNL     1      -3.319   4.102 -32.750  1.00  0.00     0.000 A 
HETATM   29  C   UNL     1      -3.058   3.111 -31.807  1.00  0.00     0.001 A 
HETATM   30  C   UNL     1      -4.024   2.145 -31.521  1.00  0.00     0.009 A 
ENDBRANCH  24  25
ENDBRANCH   1  24
TORSDOF 5
ENDMDL
MODEL 5
REMARK VINA RESULT:      -8.5      2.336      7.448
REMARK  5 active torsions:
REMARK  status: ('A' for Active; 'I' for Inactive)
REMARK    1  A    between atoms: C_4  and  C_5 
REMARK    2  A    between atoms: C_5  and  N_6 
REMARK    3  A    between atoms: C_7  and  C_8 
REMARK       I    between atoms: C_8  and  N_9 
REMARK    4  A    between atoms: N_9  and  N_10 
REMARK       I    between atoms: N_10  and  C_11 
REMARK    5  A    between atoms: C_11  and  C_12 
ROOT
HETATM    1  N   UNL     1      -9.196   1.856 -33.032  1.00  0.00    -0.337 N 
HETATM    2  C   UNL     1      -8.503   3.025 -33.325  1.00  0.00     0.106 A 
HETATM    3  C   UNL     1      -9.303   3.731 -34.215  1.00  0.00     0.049 A 
HETATM    4  C   UNL     1     -10.507   3.013 -34.429  1.00  0.00    -0.007 A 
HETATM    5  C   UNL     1     -10.431   1.850 -33.666  1.00  0.00     0.045 A 
HETATM    6  C   UNL     1     -11.659   3.262 -35.199  1.00  0.00     0.014 A 
HETATM    7  C   UNL     1     -12.709   2.337 -35.186  1.00  0.00     0.001 A 
HETATM    8  C   UNL     1     -12.620   1.182 -34.418  1.00  0.00     0.002 A 
HETATM    9  C   UNL     1     -11.484   0.916 -33.647  1.00  0.00     0.030 A 
ENDROOT
BRANCH   2  10
HETATM   10  C   UNL     1      -7.214   3.406 -32.771  1.00  0.00     0.286 C 
HETATM   11  N   UNL     1      -6.152   3.324 -33.650  1.00  0.00    -0.262 N 
HETATM   12  H   UNL     1      -6.225   2.955 -34.594  1.00  0.00     0.190 HD
HETATM   13  O   UNL     1      -7.043   3.802 -31.617  1.00  0.00    -0.264 OA
BRANCH  11  14
HETATM   14  N   UNL     1      -4.889   3.761 -33.238  1.00  0.00    -0.262 N 
HETATM   15  C   UNL     1      -4.238   4.722 -33.981  1.00  0.00     0.286 C 
HETATM   16  O   UNL     1      -4.711   5.160 -35.030  1.00  0.00    -0.264 OA
HETATM   17  H   UNL     1      -4.530   3.374 -32.370  1.00  0.00     0.190 HD
BRANCH  15  18
HETATM   18  C   UNL     1      -2.973   5.175 -33.447  1.00  0.00     0.102 A 
HETATM   19  N   UNL     1      -2.326   4.479 -32.445  1.00  0.00    -0.361 N 
HETATM   20  H   UNL     1      -2.689   3.630 -32.028  1.00  0.00     0.165 HD
HETATM   21  C   UNL     1      -1.153   5.101 -32.115  1.00  0.00     0.088 A 
HETATM   22  C   UNL     1      -1.026   6.212 -32.915  1.00  0.00     0.019 A 
HETATM   23  C   UNL     1      -2.168   6.262 -33.751  1.00  0.00     0.036 A 
ENDBRANCH  15  18
ENDBRANCH  11  14
ENDBRANCH   2  10
BRANCH   1  24
HETATM   24  C   UNL     1      -8.713   0.770 -32.178  1.00  0.00     0.168 C 
BRANCH  24  25
HETATM   25  C   UNL     1      -7.597  -0.024 -32.820  1.00  0.00    -0.040 A 
HETATM   26  C   UNL     1      -7.735  -0.488 -34.137  1.00  0.00     0.009 A 
HETATM   27  C   UNL     1      -6.696  -1.182 -34.761  1.00  0.00     0.001 A 
HETATM   28  C   UNL     1      -5.505  -1.420 -34.077  1.00  0.00     0.000 A 
HETATM   29  C   UNL     1      -5.353  -0.966 -32.770  1.00  0.00     0.001 A 
HETATM   30  C   UNL     1      -6.389  -0.268 -32.147  1.00  0.00     0.009 A 
ENDBRANCH  24  25
ENDBRANCH   1  24
TORSDOF 5
ENDMDL
MODEL 6
REMARK VINA RESULT:      -8.5      3.897      8.165
REMARK  5 active torsions:
REMARK  status: ('A' for Active; 'I' for Inactive)
REMARK    1  A    between atoms: C_4  and  C_5 
REMARK    2  A    between atoms: C_5  and  N_6 
REMARK    3  A    between atoms: C_7  and  C_8 
REMARK       I    between atoms: C_8  and  N_9 
REMARK    4  A    between atoms: N_9  and  N_10 
REMARK       I    between atoms: N_10  and  C_11 
REMARK    5  A    between atoms: C_11  and  C_12 
ROOT
HETATM    1  N   UNL     1      -5.446  -0.545 -32.466  1.00  0.00    -0.337 N 
HETATM    2  C   UNL     1      -4.082  -0.269 -32.483  1.00  0.00     0.106 A 
HETATM    3  C   UNL     1      -3.523  -1.165 -33.386  1.00  0.00     0.049 A 
HETATM    4  C   UNL     1      -4.552  -1.956 -33.955  1.00  0.00    -0.007 A 
HETATM    5  C   UNL     1      -5.753  -1.543 -33.381  1.00  0.00     0.045 A 
HETATM    6  C   UNL     1      -4.564  -2.983 -34.919  1.00  0.00     0.014 A 
HETATM    7  C   UNL     1      -5.779  -3.570 -35.285  1.00  0.00     0.001 A 
HETATM    8  C   UNL     1      -6.969  -3.146 -34.705  1.00  0.00     0.002 A 
HETATM    9  C   UNL     1      -6.979  -2.129 -33.746  1.00  0.00     0.030 A 
ENDROOT
BRANCH   2  10
HETATM   10  C   UNL     1      -3.420   0.772 -31.714  1.00  0.00     0.286 C 
HETATM   11  N   UNL     1      -3.755   2.063 -32.071  1.00  0.00    -0.262 N 
HETATM   12  H   UNL     1      -4.356   2.297 -32.856  1.00  0.00     0.190 HD
HETATM   13  O   UNL     1      -2.634   0.560 -30.790  1.00  0.00    -0.264 OA
BRANCH  11  14
HETATM   14  N   UNL     1      -3.245   3.131 -31.326  1.00  0.00    -0.262 N 
HETATM   15  C   UNL     1      -2.521   4.111 -31.971  1.00  0.00     0.286 C 
HETATM   16  O   UNL     1      -2.259   4.040 -33.172  1.00  0.00    -0.264 OA
HETATM   17  H   UNL     1      -3.477   3.155 -30.338  1.00  0.00     0.190 HD
BRANCH  15  18
HETATM   18  C   UNL     1      -2.095   5.220 -31.145  1.00  0.00     0.102 A 
HETATM   19  N   UNL     1      -0.953   5.141 -30.373  1.00  0.00    -0.361 N 
HETATM   20  H   UNL     1      -0.359   4.322 -30.332  1.00  0.00     0.165 HD
HETATM   21  C   UNL     1      -0.760   6.311 -29.690  1.00  0.00     0.088 A 
HETATM   22  C   UNL     1      -1.781   7.168 -30.026  1.00  0.00     0.019 A 
HETATM   23  C   UNL     1      -2.621   6.485 -30.939  1.00  0.00     0.036 A 
ENDBRANCH  15  18
ENDBRANCH  11  14
ENDBRANCH   2  10
BRANCH   1  24
HETATM   24  C   UNL     1      -6.437   0.111 -31.613  1.00  0.00     0.168 C 
BRANCH  24  25
HETATM   25  C   UNL     1      -7.567   0.734 -32.403  1.00  0.00    -0.040 A 
HETATM   26  C   UNL     1      -7.284   1.649 -33.428  1.00  0.00     0.009 A 
HETATM   27  C   UNL     1      -8.312   2.197 -34.198  1.00  0.00     0.001 A 
HETATM   28  C   UNL     1      -9.636   1.836 -33.955  1.00  0.00     0.000 A 
HETATM   29  C   UNL     1      -9.932   0.928 -32.942  1.00  0.00     0.001 A 
HETATM   30  C   UNL     1      -8.905   0.376 -32.174  1.00  0.00     0.009 A 
ENDBRANCH  24  25
ENDBRANCH   1  24
TORSDOF 5
ENDMDL
MODEL 7
REMARK VINA RESULT:      -8.3      3.651      7.040
REMARK  5 active torsions:
REMARK  status: ('A' for Active; 'I' for Inactive)
REMARK    1  A    between atoms: C_4  and  C_5 
REMARK    2  A    between atoms: C_5  and  N_6 
REMARK    3  A    between atoms: C_7  and  C_8 
REMARK       I    between atoms: C_8  and  N_9 
REMARK    4  A    between atoms: N_9  and  N_10 
REMARK       I    between atoms: N_10  and  C_11 
REMARK    5  A    between atoms: C_11  and  C_12 
ROOT
HETATM    1  N   UNL     1      -5.144  -0.038 -33.490  1.00  0.00    -0.337 N 
HETATM    2  C   UNL     1      -4.228   0.246 -32.481  1.00  0.00     0.106 A 
HETATM    3  C   UNL     1      -3.606  -0.960 -32.182  1.00  0.00     0.049 A 
HETATM    4  C   UNL     1      -4.109  -1.970 -33.039  1.00  0.00    -0.007 A 
HETATM    5  C   UNL     1      -5.058  -1.372 -33.864  1.00  0.00     0.045 A 
HETATM    6  C   UNL     1      -3.828  -3.342 -33.189  1.00  0.00     0.014 A 
HETATM    7  C   UNL     1      -4.505  -4.081 -34.164  1.00  0.00     0.001 A 
HETATM    8  C   UNL     1      -5.449  -3.470 -34.982  1.00  0.00     0.002 A 
HETATM    9  C   UNL     1      -5.743  -2.110 -34.848  1.00  0.00     0.030 A 
ENDROOT
BRANCH   2  10
HETATM   10  C   UNL     1      -3.985   1.557 -31.904  1.00  0.00     0.286 C 
HETATM   11  N   UNL     1      -4.861   1.927 -30.903  1.00  0.00    -0.262 N 
HETATM   12  H   UNL     1      -5.668   1.376 -30.624  1.00  0.00     0.190 HD
HETATM   13  O   UNL     1      -3.062   2.303 -32.238  1.00  0.00    -0.264 OA
BRANCH  11  14
HETATM   14  N   UNL     1      -4.650   3.129 -30.220  1.00  0.00    -0.262 N 
HETATM   15  C   UNL     1      -5.739   3.862 -29.803  1.00  0.00     0.286 C 
HETATM   16  O   UNL     1      -6.892   3.519 -30.070  1.00  0.00    -0.264 OA
HETATM   17  H   UNL     1      -3.686   3.381 -30.022  1.00  0.00     0.190 HD
BRANCH  15  18
HETATM   18  C   UNL     1      -5.438   5.052 -29.038  1.00  0.00     0.102 A 
HETATM   19  N   UNL     1      -5.379   5.021 -27.659  1.00  0.00    -0.361 N 
HETATM   20  H   UNL     1      -5.544   4.187 -27.108  1.00  0.00     0.165 HD
HETATM   21  C   UNL     1      -5.075   6.262 -27.168  1.00  0.00     0.088 A 
HETATM   22  C   UNL     1      -4.922   7.112 -28.239  1.00  0.00     0.019 A 
HETATM   23  C   UNL     1      -5.151   6.355 -29.414  1.00  0.00     0.036 A 
ENDBRANCH  15  18
ENDBRANCH  11  14
ENDBRANCH   2  10
BRANCH   1  24
HETATM   24  C   UNL     1      -6.077   0.919 -34.087  1.00  0.00     0.168 C 
BRANCH  24  25
HETATM   25  C   UNL     1      -7.498   0.725 -33.607  1.00  0.00    -0.040 A 
HETATM   26  C   UNL     1      -7.749   0.454 -32.253  1.00  0.00     0.009 A 
HETATM   27  C   UNL     1      -9.058   0.319 -31.785  1.00  0.00     0.001 A 
HETATM   28  C   UNL     1     -10.132   0.456 -32.662  1.00  0.00     0.000 A 
HETATM   29  C   UNL     1      -9.898   0.727 -34.007  1.00  0.00     0.001 A 
HETATM   30  C   UNL     1      -8.591   0.866 -34.477  1.00  0.00     0.009 A 
ENDBRANCH  24  25
ENDBRANCH   1  24
TORSDOF 5
ENDMDL
MODEL 8
REMARK VINA RESULT:      -8.3      4.026      8.172
REMARK  5 active torsions:
REMARK  status: ('A' for Active; 'I' for Inactive)
REMARK    1  A    between atoms: C_4  and  C_5 
REMARK    2  A    between atoms: C_5  and  N_6 
REMARK    3  A    between atoms: C_7  and  C_8 
REMARK       I    between atoms: C_8  and  N_9 
REMARK    4  A    between atoms: N_9  and  N_10 
REMARK       I    between atoms: N_10  and  C_11 
REMARK    5  A    between atoms: C_11  and  C_12 
ROOT
HETATM    1  N   UNL     1      -5.422   0.635 -32.772  1.00  0.00    -0.337 N 
HETATM    2  C   UNL     1      -5.166   1.584 -31.787  1.00  0.00     0.106 A 
HETATM    3  C   UNL     1      -6.392   1.862 -31.197  1.00  0.00     0.049 A 
HETATM    4  C   UNL     1      -7.390   1.050 -31.791  1.00  0.00    -0.007 A 
HETATM    5  C   UNL     1      -6.763   0.274 -32.763  1.00  0.00     0.045 A 
HETATM    6  C   UNL     1      -8.774   0.902 -31.576  1.00  0.00     0.014 A 
HETATM    7  C   UNL     1      -9.495  -0.021 -32.340  1.00  0.00     0.001 A 
HETATM    8  C   UNL     1      -8.855  -0.789 -33.305  1.00  0.00     0.002 A 
HETATM    9  C   UNL     1      -7.482  -0.657 -33.535  1.00  0.00     0.030 A 
ENDROOT
BRANCH   2  10
HETATM   10  C   UNL     1      -3.859   2.127 -31.456  1.00  0.00     0.286 C 
HETATM   11  N   UNL     1      -3.719   3.484 -31.673  1.00  0.00    -0.262 N 
HETATM   12  H   UNL     1      -4.432   4.067 -32.101  1.00  0.00     0.190 HD
HETATM   13  O   UNL     1      -2.928   1.467 -30.992  1.00  0.00    -0.264 OA
BRANCH  11  14
HETATM   14  N   UNL     1      -2.530   4.116 -31.294  1.00  0.00    -0.262 N 
HETATM   15  C   UNL     1      -2.548   5.466 -31.018  1.00  0.00     0.286 C 
HETATM   16  O   UNL     1      -3.569   6.142 -31.157  1.00  0.00    -0.264 OA
HETATM   17  H   UNL     1      -1.708   3.528 -31.195  1.00  0.00     0.190 HD
BRANCH  15  18
HETATM   18  C   UNL     1      -1.298   6.029 -30.560  1.00  0.00     0.102 A 
HETATM   19  N   UNL     1      -1.046   6.219 -29.216  1.00  0.00    -0.361 N 
HETATM   20  H   UNL     1      -1.707   5.986 -28.483  1.00  0.00     0.165 HD
HETATM   21  C   UNL     1       0.199   6.756 -29.036  1.00  0.00     0.088 A 
HETATM   22  C   UNL     1       0.773   6.912 -30.275  1.00  0.00     0.019 A 
HETATM   23  C   UNL     1      -0.165   6.457 -31.235  1.00  0.00     0.036 A 
ENDBRANCH  15  18
ENDBRANCH  11  14
ENDBRANCH   2  10
BRANCH   1  24
HETATM   24  C   UNL     1      -4.435   0.081 -33.699  1.00  0.00     0.168 C 
BRANCH  24  25
HETATM   25  C   UNL     1      -4.054  -1.344 -33.363  1.00  0.00    -0.040 A 
HETATM   26  C   UNL     1      -3.397  -1.628 -32.156  1.00  0.00     0.009 A 
HETATM   27  C   UNL     1      -3.080  -2.943 -31.810  1.00  0.00     0.001 A 
HETATM   28  C   UNL     1      -3.419  -3.991 -32.663  1.00  0.00     0.000 A 
HETATM   29  C   UNL     1      -4.072  -3.725 -33.864  1.00  0.00     0.001 A 
HETATM   30  C   UNL     1      -4.392  -2.412 -34.210  1.00  0.00     0.009 A 
ENDBRANCH  24  25
ENDBRANCH   1  24
TORSDOF 5
ENDMDL
MODEL 9
REMARK VINA RESULT:      -8.2      2.411      4.806
REMARK  5 active torsions:
REMARK  status: ('A' for Active; 'I' for Inactive)
REMARK    1  A    between atoms: C_4  and  C_5 
REMARK    2  A    between atoms: C_5  and  N_6 
REMARK    3  A    between atoms: C_7  and  C_8 
REMARK       I    between atoms: C_8  and  N_9 
REMARK    4  A    between atoms: N_9  and  N_10 
REMARK       I    between atoms: N_10  and  C_11 
REMARK    5  A    between atoms: C_11  and  C_12 
ROOT
HETATM    1  N   UNL     1      -6.855   0.569 -33.129  1.00  0.00    -0.337 N 
HETATM    2  C   UNL     1      -8.014   0.447 -33.889  1.00  0.00     0.106 A 
HETATM    3  C   UNL     1      -7.837  -0.684 -34.676  1.00  0.00     0.049 A 
HETATM    4  C   UNL     1      -6.589  -1.279 -34.363  1.00  0.00    -0.007 A 
HETATM    5  C   UNL     1      -5.994  -0.492 -33.380  1.00  0.00     0.045 A 
HETATM    6  C   UNL     1      -5.921  -2.429 -34.827  1.00  0.00     0.014 A 
HETATM    7  C   UNL     1      -4.672  -2.761 -34.293  1.00  0.00     0.001 A 
HETATM    8  C   UNL     1      -4.092  -1.967 -33.310  1.00  0.00     0.002 A 
HETATM    9  C   UNL     1      -4.739  -0.822 -32.837  1.00  0.00     0.030 A 
ENDROOT
BRANCH   2  10
HETATM   10  C   UNL     1      -9.165   1.333 -33.823  1.00  0.00     0.286 C 
HETATM   11  N   UNL     1      -9.245   2.262 -34.841  1.00  0.00    -0.262 N 
HETATM   12  H   UNL     1      -8.530   2.391 -35.551  1.00  0.00     0.190 HD
HETATM   13  O   UNL     1     -10.038   1.274 -32.957  1.00  0.00    -0.264 OA
BRANCH  11  14
HETATM   14  N   UNL     1     -10.367   3.094 -34.918  1.00  0.00    -0.262 N 
HETATM   15  C   UNL     1     -10.187   4.461 -34.934  1.00  0.00     0.286 C 
HETATM   16  O   UNL     1      -9.071   4.969 -34.819  1.00  0.00    -0.264 OA
HETATM   17  H   UNL     1     -11.271   2.639 -35.008  1.00  0.00     0.190 HD
BRANCH  15  18
HETATM   18  C   UNL     1     -11.389   5.248 -35.094  1.00  0.00     0.102 A 
HETATM   19  N   UNL     1     -11.343   6.628 -35.133  1.00  0.00    -0.361 N 
HETATM   20  H   UNL     1     -10.487   7.163 -35.051  1.00  0.00     0.165 HD
HETATM   21  C   UNL     1     -12.601   7.141 -35.295  1.00  0.00     0.088 A 
HETATM   22  C   UNL     1     -13.480   6.087 -35.371  1.00  0.00     0.019 A 
HETATM   23  C   UNL     1     -12.722   4.896 -35.244  1.00  0.00     0.036 A 
ENDBRANCH  15  18
ENDBRANCH  11  14
ENDBRANCH   2  10
BRANCH   1  24
HETATM   24  C   UNL     1      -6.560   1.654 -32.192  1.00  0.00     0.168 C 
BRANCH  24  25
HETATM   25  C   UNL     1      -5.613   2.682 -32.769  1.00  0.00    -0.040 A 
HETATM   26  C   UNL     1      -6.059   3.567 -33.763  1.00  0.00     0.009 A 
HETATM   27  C   UNL     1      -5.211   4.552 -34.273  1.00  0.00     0.001 A 
HETATM   28  C   UNL     1      -3.907   4.668 -33.795  1.00  0.00     0.000 A 
HETATM   29  C   UNL     1      -3.450   3.798 -32.808  1.00  0.00     0.001 A 
HETATM   30  C   UNL     1      -4.298   2.815 -32.295  1.00  0.00     0.009 A 
ENDBRANCH  24  25
ENDBRANCH   1  24
TORSDOF 5
ENDMDL
MODEL 10
REMARK VINA RESULT:      -8.0      3.301      8.049
REMARK  5 active torsions:
REMARK  status: ('A' for Active; 'I' for Inactive)
REMARK    1  A    between atoms: C_4  and  C_5 
REMARK    2  A    between atoms: C_5  and  N_6 
REMARK    3  A    between atoms: C_7  and  C_8 
REMARK       I    between atoms: C_8  and  N_9 
REMARK    4  A    between atoms: N_9  and  N_10 
REMARK       I    between atoms: N_10  and  C_11 
REMARK    5  A    between atoms: C_11  and  C_12 
ROOT
HETATM    1  N   UNL     1      -7.337   2.797 -32.969  1.00  0.00    -0.337 N 
HETATM    2  C   UNL     1      -6.945   3.338 -31.748  1.00  0.00     0.106 A 
HETATM    3  C   UNL     1      -8.117   3.715 -31.105  1.00  0.00     0.049 A 
HETATM    4  C   UNL     1      -9.227   3.363 -31.913  1.00  0.00    -0.007 A 
HETATM    5  C   UNL     1      -8.721   2.772 -33.069  1.00  0.00     0.045 A 
HETATM    6  C   UNL     1     -10.620   3.487 -31.752  1.00  0.00     0.014 A 
HETATM    7  C   UNL     1     -11.474   3.015 -32.754  1.00  0.00     0.001 A 
HETATM    8  C   UNL     1     -10.955   2.426 -33.901  1.00  0.00     0.002 A 
HETATM    9  C   UNL     1      -9.575   2.294 -34.080  1.00  0.00     0.030 A 
ENDROOT
BRANCH   2  10
HETATM   10  C   UNL     1      -5.576   3.444 -31.271  1.00  0.00     0.286 C 
HETATM   11  N   UNL     1      -4.923   4.608 -31.624  1.00  0.00    -0.262 N 
HETATM   12  H   UNL     1      -5.318   5.318 -32.234  1.00  0.00     0.190 HD
HETATM   13  O   UNL     1      -5.013   2.594 -30.579  1.00  0.00    -0.264 OA
BRANCH  11  14
HETATM   14  N   UNL     1      -3.636   4.845 -31.131  1.00  0.00    -0.262 N 
HETATM   15  C   UNL     1      -2.714   5.475 -31.939  1.00  0.00     0.286 C 
HETATM   16  O   UNL     1      -2.974   5.778 -33.104  1.00  0.00    -0.264 OA
HETATM   17  H   UNL     1      -3.457   4.578 -30.167  1.00  0.00     0.190 HD
BRANCH  15  18
HETATM   18  C   UNL     1      -1.433   5.753 -31.329  1.00  0.00     0.102 A 
HETATM   19  N   UNL     1      -0.886   4.902 -30.390  1.00  0.00    -0.361 N 
HETATM   20  H   UNL     1      -1.337   4.052 -30.073  1.00  0.00     0.165 HD
HETATM   21  C   UNL     1       0.326   5.375 -29.968  1.00  0.00     0.088 A 
HETATM   22  C   UNL     1       0.580   6.545 -30.644  1.00  0.00     0.019 A 
HETATM   23  C   UNL     1      -0.524   6.786 -31.499  1.00  0.00     0.036 A 
ENDBRANCH  15  18
ENDBRANCH  11  14
ENDBRANCH   2  10
BRANCH   1  24
HETATM   24  C   UNL     1      -6.435   2.316 -34.017  1.00  0.00     0.168 C 
BRANCH  24  25
HETATM   25  C   UNL     1      -6.291   0.810 -34.015  1.00  0.00    -0.040 A 
HETATM   26  C   UNL     1      -7.002   0.037 -34.945  1.00  0.00     0.009 A 
HETATM   27  C   UNL     1      -6.844  -1.350 -34.988  1.00  0.00     0.001 A 
HETATM   28  C   UNL     1      -5.972  -1.981 -34.103  1.00  0.00     0.000 A 
HETATM   29  C   UNL     1      -5.259  -1.227 -33.175  1.00  0.00     0.001 A 
HETATM   30  C   UNL     1      -5.413   0.159 -33.134  1.00  0.00     0.009 A 
ENDBRANCH  24  25
ENDBRANCH   1  24
TORSDOF 5
ENDMDL
