MODEL 1
REMARK VINA RESULT:      -9.2      0.000      0.000
REMARK  7 active torsions:
REMARK  status: ('A' for Active; 'I' for Inactive)
REMARK    1  A    between atoms: C_6  and  N_7 
REMARK    2  A    between atoms: N_7  and  C_8 
REMARK    3  A    between atoms: C_13  and  C_14 
REMARK       I    between atoms: C_14  and  N_15 
REMARK    4  A    between atoms: N_15  and  C_16 
REMARK    5  A    between atoms: C_16  and  C_17 
REMARK    6  A    between atoms: C_17  and  N_18 
REMARK       I    between atoms: N_18  and  C_19 
REMARK    7  A    between atoms: C_19  and  C_20 
ROOT
HETATM    1  C   UNL     1      -3.167   3.536 -31.494  1.00  0.00     0.255 C 
HETATM    2  N   UNL     1      -4.364   4.002 -30.998  1.00  0.00    -0.355 N 
HETATM    3  O   UNL     1      -2.685   2.447 -31.197  1.00  0.00    -0.268 OA
HETATM    4  H   UNL     1      -4.771   4.855 -31.360  1.00  0.00     0.162 HD
ENDROOT
BRANCH   1   5
HETATM    5  C   UNL     1      -2.453   4.431 -32.435  1.00  0.00     0.077 A 
HETATM    6  C   UNL     1      -1.520   5.369 -31.955  1.00  0.00     0.143 A 
HETATM    7  N   UNL     1      -0.887   6.204 -32.817  1.00  0.00    -0.242 NA
HETATM    8  C   UNL     1      -1.187   6.139 -34.133  1.00  0.00     0.119 A 
HETATM    9  C   UNL     1      -2.105   5.258 -34.671  1.00  0.00     0.020 A 
HETATM   10  C   UNL     1      -2.752   4.388 -33.804  1.00  0.00     0.022 A 
BRANCH   6  11
HETATM   11  N   UNL     1      -1.191   5.384 -30.579  1.00  0.00    -0.340 N 
HETATM   12  H   UNL     1      -1.551   4.537 -30.131  1.00  0.00     0.167 HD
BRANCH  11  13
HETATM   13  C   UNL     1      -1.013   6.452 -29.678  1.00  0.00     0.036 A 
HETATM   14  C   UNL     1       0.289   6.909 -29.428  1.00  0.00     0.071 A 
HETATM   15  C   UNL     1       0.512   7.999 -28.589  1.00  0.00     0.118 A 
HETATM   16  C   UNL     1      -0.544   8.674 -27.994  1.00  0.00     0.042 A 
HETATM   17  F   UNL     1       1.767   8.407 -28.359  1.00  0.00    -0.206 F 
HETATM   18  C   UNL     1      -1.845   8.257 -28.253  1.00  0.00     0.005 A 
HETATM   19  C   UNL     1      -2.073   7.162 -29.097  1.00  0.00     0.029 A 
ENDBRANCH  11  13
ENDBRANCH   6  11
ENDBRANCH   1   5
BRANCH   2  20
HETATM   20  C   UNL     1      -5.154   3.226 -30.060  1.00  0.00     0.142 C 
BRANCH  20  21
HETATM   21  C   UNL     1      -6.256   2.421 -30.758  1.00  0.00     0.142 C 
BRANCH  21  22
HETATM   22  N   UNL     1      -5.791   1.145 -31.270  1.00  0.00    -0.355 N 
HETATM   23  C   UNL     1      -5.599   0.946 -32.621  1.00  0.00     0.251 C 
HETATM   24  O   UNL     1      -5.773   1.821 -33.460  1.00  0.00    -0.268 OA
HETATM   25  H   UNL     1      -5.791   0.362 -30.633  1.00  0.00     0.162 HD
BRANCH  23  26
HETATM   26  C   UNL     1      -5.190  -0.421 -33.045  1.00  0.00     0.033 A 
HETATM   27  C   UNL     1      -4.249  -1.102 -32.262  1.00  0.00     0.042 A 
HETATM   28  C   UNL     1      -3.834  -2.390 -32.617  1.00  0.00     0.056 A 
HETATM   29 CL   UNL     1      -2.661  -3.163 -31.613  1.00  0.00    -0.083 Cl
HETATM   30  C   UNL     1      -4.369  -3.007 -33.754  1.00  0.00     0.055 A 
HETATM   31 CL   UNL     1      -3.904  -4.593 -34.255  1.00  0.00    -0.083 Cl
HETATM   32  C   UNL     1      -5.322  -2.334 -34.527  1.00  0.00     0.026 A 
HETATM   33  C   UNL     1      -5.737  -1.047 -34.173  1.00  0.00     0.019 A 
ENDBRANCH  23  26
ENDBRANCH  21  22
ENDBRANCH  20  21
ENDBRANCH   2  20
TORSDOF 7
ENDMDL
MODEL 2
REMARK VINA RESULT:      -9.1      4.853     10.060
REMARK  7 active torsions:
REMARK  status: ('A' for Active; 'I' for Inactive)
REMARK    1  A    between atoms: C_6  and  N_7 
REMARK    2  A    between atoms: N_7  and  C_8 
REMARK    3  A    between atoms: C_13  and  C_14 
REMARK       I    between atoms: C_14  and  N_15 
REMARK    4  A    between atoms: N_15  and  C_16 
REMARK    5  A    between atoms: C_16  and  C_17 
REMARK    6  A    between atoms: C_17  and  N_18 
REMARK       I    between atoms: N_18  and  C_19 
REMARK    7  A    between atoms: C_19  and  C_20 
ROOT
HETATM    1  C   UNL     1      -5.426   0.533 -31.837  1.00  0.00     0.255 C 
HETATM    2  N   UNL     1      -4.832   1.735 -32.153  1.00  0.00    -0.355 N 
HETATM    3  O   UNL     1      -4.839  -0.390 -31.280  1.00  0.00    -0.268 OA
HETATM    4  H   UNL     1      -5.388   2.502 -32.509  1.00  0.00     0.162 HD
ENDROOT
BRANCH   1   5
HETATM    5  C   UNL     1      -6.853   0.387 -32.210  1.00  0.00     0.077 A 
HETATM    6  C   UNL     1      -7.214  -0.276 -33.397  1.00  0.00     0.143 A 
HETATM    7  N   UNL     1      -8.520  -0.385 -33.747  1.00  0.00    -0.242 NA
HETATM    8  C   UNL     1      -9.461   0.176 -32.955  1.00  0.00     0.119 A 
HETATM    9  C   UNL     1      -9.177   0.857 -31.787  1.00  0.00     0.020 A 
HETATM   10  C   UNL     1      -7.847   0.967 -31.408  1.00  0.00     0.022 A 
BRANCH   6  11
HETATM   11  N   UNL     1      -6.213  -0.893 -34.183  1.00  0.00    -0.340 N 
HETATM   12  H   UNL     1      -6.015  -0.315 -35.004  1.00  0.00     0.167 HD
BRANCH  11  13
HETATM   13  C   UNL     1      -5.885  -2.250 -34.372  1.00  0.00     0.036 A 
HETATM   14  C   UNL     1      -4.606  -2.690 -34.004  1.00  0.00     0.071 A 
HETATM   15  C   UNL     1      -4.255  -4.034 -34.119  1.00  0.00     0.118 A 
HETATM   16  C   UNL     1      -5.162  -4.975 -34.580  1.00  0.00     0.042 A 
HETATM   17  F   UNL     1      -3.021  -4.423 -33.769  1.00  0.00    -0.206 F 
HETATM   18  C   UNL     1      -6.446  -4.566 -34.922  1.00  0.00     0.005 A 
HETATM   19  C   UNL     1      -6.804  -3.216 -34.807  1.00  0.00     0.029 A 
ENDBRANCH  11  13
ENDBRANCH   6  11
ENDBRANCH   1   5
BRANCH   2  20
HETATM   20  C   UNL     1      -3.437   1.998 -31.852  1.00  0.00     0.142 C 
BRANCH  20  21
HETATM   21  C   UNL     1      -3.007   3.405 -32.283  1.00  0.00     0.142 C 
BRANCH  21  22
HETATM   22  N   UNL     1      -2.313   4.134 -31.237  1.00  0.00    -0.355 N 
HETATM   23  C   UNL     1      -1.380   5.102 -31.540  1.00  0.00     0.251 C 
HETATM   24  O   UNL     1      -1.102   5.430 -32.687  1.00  0.00    -0.268 OA
HETATM   25  H   UNL     1      -2.398   3.783 -30.293  1.00  0.00     0.162 HD
BRANCH  23  26
HETATM   26  C   UNL     1      -0.676   5.737 -30.392  1.00  0.00     0.033 A 
HETATM   27  C   UNL     1      -1.077   7.019 -29.998  1.00  0.00     0.042 A 
HETATM   28  C   UNL     1      -0.448   7.657 -28.923  1.00  0.00     0.056 A 
HETATM   29 CL   UNL     1      -0.987   9.242 -28.501  1.00  0.00    -0.083 Cl
HETATM   30  C   UNL     1       0.580   7.007 -28.231  1.00  0.00     0.055 A 
HETATM   31 CL   UNL     1       1.403   7.731 -26.896  1.00  0.00    -0.083 Cl
HETATM   32  C   UNL     1       0.970   5.719 -28.614  1.00  0.00     0.026 A 
HETATM   33  C   UNL     1       0.342   5.081 -29.688  1.00  0.00     0.019 A 
ENDBRANCH  23  26
ENDBRANCH  21  22
ENDBRANCH  20  21
ENDBRANCH   2  20
TORSDOF 7
ENDMDL
MODEL 3
REMARK VINA RESULT:      -8.9      4.274      9.329
REMARK  7 active torsions:
REMARK  status: ('A' for Active; 'I' for Inactive)
REMARK    1  A    between atoms: C_6  and  N_7 
REMARK    2  A    between atoms: N_7  and  C_8 
REMARK    3  A    between atoms: C_13  and  C_14 
REMARK       I    between atoms: C_14  and  N_15 
REMARK    4  A    between atoms: N_15  and  C_16 
REMARK    5  A    between atoms: C_16  and  C_17 
REMARK    6  A    between atoms: C_17  and  N_18 
REMARK       I    between atoms: N_18  and  C_19 
REMARK    7  A    between atoms: C_19  and  C_20 
ROOT
HETATM    1  C   UNL     1      -5.894   2.584 -33.448  1.00  0.00     0.255 C 
HETATM    2  N   UNL     1      -5.254   3.804 -33.432  1.00  0.00    -0.355 N 
HETATM    3  O   UNL     1      -6.494   2.144 -34.425  1.00  0.00    -0.268 OA
HETATM    4  H   UNL     1      -4.680   4.070 -32.643  1.00  0.00     0.162 HD
ENDROOT
BRANCH   1   5
HETATM    5  C   UNL     1      -5.831   1.793 -32.197  1.00  0.00     0.077 A 
HETATM    6  C   UNL     1      -5.525   0.420 -32.238  1.00  0.00     0.143 A 
HETATM    7  N   UNL     1      -5.493  -0.306 -31.093  1.00  0.00    -0.242 NA
HETATM    8  C   UNL     1      -5.787   0.302 -29.922  1.00  0.00     0.119 A 
HETATM    9  C   UNL     1      -6.114   1.639 -29.810  1.00  0.00     0.020 A 
HETATM   10  C   UNL     1      -6.138   2.399 -30.971  1.00  0.00     0.022 A 
BRANCH   6  11
HETATM   11  N   UNL     1      -5.177  -0.180 -33.472  1.00  0.00    -0.340 N 
HETATM   12  H   UNL     1      -5.189   0.526 -34.212  1.00  0.00     0.167 HD
BRANCH  11  13
HETATM   13  C   UNL     1      -5.368  -1.490 -33.954  1.00  0.00     0.036 A 
HETATM   14  C   UNL     1      -4.294  -2.390 -33.895  1.00  0.00     0.071 A 
HETATM   15  C   UNL     1      -4.451  -3.712 -34.308  1.00  0.00     0.118 A 
HETATM   16  C   UNL     1      -5.673  -4.181 -34.767  1.00  0.00     0.042 A 
HETATM   17  F   UNL     1      -3.404  -4.547 -34.251  1.00  0.00    -0.206 F 
HETATM   18  C   UNL     1      -6.758  -3.313 -34.804  1.00  0.00     0.005 A 
HETATM   19  C   UNL     1      -6.606  -1.983 -34.390  1.00  0.00     0.029 A 
ENDBRANCH  11  13
ENDBRANCH   6  11
ENDBRANCH   1   5
BRANCH   2  20
HETATM   20  C   UNL     1      -5.252   4.679 -34.591  1.00  0.00     0.142 C 
BRANCH  20  21
HETATM   21  C   UNL     1      -3.849   5.206 -34.915  1.00  0.00     0.142 C 
BRANCH  21  22
HETATM   22  N   UNL     1      -3.152   5.722 -33.752  1.00  0.00    -0.355 N 
HETATM   23  C   UNL     1      -1.776   5.680 -33.668  1.00  0.00     0.251 C 
HETATM   24  O   UNL     1      -1.062   5.245 -34.564  1.00  0.00    -0.268 OA
HETATM   25  H   UNL     1      -3.707   5.937 -32.936  1.00  0.00     0.162 HD
BRANCH  23  26
HETATM   26  C   UNL     1      -1.167   6.169 -32.401  1.00  0.00     0.033 A 
HETATM   27  C   UNL     1      -0.364   5.285 -31.669  1.00  0.00     0.042 A 
HETATM   28  C   UNL     1       0.233   5.698 -30.473  1.00  0.00     0.056 A 
HETATM   29 CL   UNL     1       1.198   4.550 -29.618  1.00  0.00    -0.083 Cl
HETATM   30  C   UNL     1       0.037   7.004 -30.010  1.00  0.00     0.055 A 
HETATM   31 CL   UNL     1       0.739   7.584 -28.543  1.00  0.00    -0.083 Cl
HETATM   32  C   UNL     1      -0.751   7.893 -30.749  1.00  0.00     0.026 A 
HETATM   33  C   UNL     1      -1.348   7.481 -31.945  1.00  0.00     0.019 A 
ENDBRANCH  23  26
ENDBRANCH  21  22
ENDBRANCH  20  21
ENDBRANCH   2  20
TORSDOF 7
ENDMDL
MODEL 4
REMARK VINA RESULT:      -8.6      4.641      9.280
REMARK  7 active torsions:
REMARK  status: ('A' for Active; 'I' for Inactive)
REMARK    1  A    between atoms: C_6  and  N_7 
REMARK    2  A    between atoms: N_7  and  C_8 
REMARK    3  A    between atoms: C_13  and  C_14 
REMARK       I    between atoms: C_14  and  N_15 
REMARK    4  A    between atoms: N_15  and  C_16 
REMARK    5  A    between atoms: C_16  and  C_17 
REMARK    6  A    between atoms: C_17  and  N_18 
REMARK       I    between atoms: N_18  and  C_19 
REMARK    7  A    between atoms: C_19  and  C_20 
ROOT
HETATM    1  C   UNL     1      -4.934   4.443 -33.676  1.00  0.00     0.255 C 
HETATM    2  N   UNL     1      -3.572   4.631 -33.760  1.00  0.00    -0.355 N 
HETATM    3  O   UNL     1      -5.709   4.665 -34.601  1.00  0.00    -0.268 OA
HETATM    4  H   UNL     1      -2.966   4.327 -33.008  1.00  0.00     0.162 HD
ENDROOT
BRANCH   1   5
HETATM    5  C   UNL     1      -5.450   3.945 -32.379  1.00  0.00     0.077 A 
HETATM    6  C   UNL     1      -6.319   2.839 -32.336  1.00  0.00     0.143 A 
HETATM    7  N   UNL     1      -6.808   2.402 -31.149  1.00  0.00    -0.242 NA
HETATM    8  C   UNL     1      -6.472   3.061 -30.018  1.00  0.00     0.119 A 
HETATM    9  C   UNL     1      -5.640   4.163 -29.988  1.00  0.00     0.020 A 
HETATM   10  C   UNL     1      -5.120   4.615 -31.192  1.00  0.00     0.022 A 
BRANCH   6  11
HETATM   11  N   UNL     1      -6.617   2.140 -33.530  1.00  0.00    -0.340 N 
HETATM   12  H   UNL     1      -7.464   2.530 -33.953  1.00  0.00     0.167 HD
BRANCH  11  13
HETATM   13  C   UNL     1      -6.373   0.807 -33.912  1.00  0.00     0.036 A 
HETATM   14  C   UNL     1      -5.252   0.151 -33.382  1.00  0.00     0.071 A 
HETATM   15  C   UNL     1      -5.000  -1.185 -33.685  1.00  0.00     0.118 A 
HETATM   16  C   UNL     1      -5.857  -1.910 -34.499  1.00  0.00     0.042 A 
HETATM   17  F   UNL     1      -3.915  -1.782 -33.173  1.00  0.00    -0.206 F 
HETATM   18  C   UNL     1      -6.991  -1.288 -35.011  1.00  0.00     0.005 A 
HETATM   19  C   UNL     1      -7.249   0.055 -34.708  1.00  0.00     0.029 A 
ENDBRANCH  11  13
ENDBRANCH   6  11
ENDBRANCH   1   5
BRANCH   2  20
HETATM   20  C   UNL     1      -2.944   5.126 -34.971  1.00  0.00     0.142 C 
BRANCH  20  21
HETATM   21  C   UNL     1      -1.486   5.542 -34.740  1.00  0.00     0.142 C 
BRANCH  21  22
HETATM   22  N   UNL     1      -1.205   5.882 -33.358  1.00  0.00    -0.355 N 
HETATM   23  C   UNL     1      -1.288   7.184 -32.912  1.00  0.00     0.251 C 
HETATM   24  O   UNL     1      -1.631   8.117 -33.628  1.00  0.00    -0.268 OA
HETATM   25  H   UNL     1      -0.769   5.173 -32.785  1.00  0.00     0.162 HD
BRANCH  23  26
HETATM   26  C   UNL     1      -0.909   7.433 -31.495  1.00  0.00     0.033 A 
HETATM   27  C   UNL     1      -1.781   8.186 -30.699  1.00  0.00     0.042 A 
HETATM   28  C   UNL     1      -1.470   8.445 -29.360  1.00  0.00     0.056 A 
HETATM   29 CL   UNL     1      -2.586   9.392 -28.443  1.00  0.00    -0.083 Cl
HETATM   30  C   UNL     1      -0.287   7.940 -28.808  1.00  0.00     0.055 A 
HETATM   31 CL   UNL     1       0.165   8.219 -27.165  1.00  0.00    -0.083 Cl
HETATM   32  C   UNL     1       0.576   7.173 -29.598  1.00  0.00     0.026 A 
HETATM   33  C   UNL     1       0.267   6.914 -30.936  1.00  0.00     0.019 A 
ENDBRANCH  23  26
ENDBRANCH  21  22
ENDBRANCH  20  21
ENDBRANCH   2  20
TORSDOF 7
ENDMDL
MODEL 5
REMARK VINA RESULT:      -8.4      5.025     10.176
REMARK  7 active torsions:
REMARK  status: ('A' for Active; 'I' for Inactive)
REMARK    1  A    between atoms: C_6  and  N_7 
REMARK    2  A    between atoms: N_7  and  C_8 
REMARK    3  A    between atoms: C_13  and  C_14 
REMARK       I    between atoms: C_14  and  N_15 
REMARK    4  A    between atoms: N_15  and  C_16 
REMARK    5  A    between atoms: C_16  and  C_17 
REMARK    6  A    between atoms: C_17  and  N_18 
REMARK       I    between atoms: N_18  and  C_19 
REMARK    7  A    between atoms: C_19  and  C_20 
ROOT
HETATM    1  C   UNL     1      -5.100   1.769 -32.605  1.00  0.00     0.255 C 
HETATM    2  N   UNL     1      -4.942   3.134 -32.706  1.00  0.00    -0.355 N 
HETATM    3  O   UNL     1      -4.165   0.973 -32.618  1.00  0.00    -0.268 OA
HETATM    4  H   UNL     1      -5.733   3.751 -32.577  1.00  0.00     0.162 HD
ENDROOT
BRANCH   1   5
HETATM    5  C   UNL     1      -6.492   1.277 -32.478  1.00  0.00     0.077 A 
HETATM    6  C   UNL     1      -6.944   0.207 -33.272  1.00  0.00     0.143 A 
HETATM    7  N   UNL     1      -8.226  -0.224 -33.170  1.00  0.00    -0.242 NA
HETATM    8  C   UNL     1      -9.065   0.407 -32.318  1.00  0.00     0.119 A 
HETATM    9  C   UNL     1      -8.694   1.473 -31.522  1.00  0.00     0.020 A 
HETATM   10  C   UNL     1      -7.383   1.918 -31.605  1.00  0.00     0.022 A 
BRANCH   6  11
HETATM   11  N   UNL     1      -6.033  -0.463 -34.123  1.00  0.00    -0.340 N 
HETATM   12  H   UNL     1      -6.001   0.008 -35.030  1.00  0.00     0.167 HD
BRANCH  11  13
HETATM   13  C   UNL     1      -5.648  -1.817 -34.189  1.00  0.00     0.036 A 
HETATM   14  C   UNL     1      -6.491  -2.723 -34.849  1.00  0.00     0.071 A 
HETATM   15  C   UNL     1      -6.126  -4.061 -34.989  1.00  0.00     0.118 A 
HETATM   16  C   UNL     1      -4.915  -4.530 -34.501  1.00  0.00     0.042 A 
HETATM   17  F   UNL     1      -6.956  -4.906 -35.614  1.00  0.00    -0.206 F 
HETATM   18  C   UNL     1      -4.052  -3.641 -33.870  1.00  0.00     0.005 A 
HETATM   19  C   UNL     1      -4.413  -2.295 -33.727  1.00  0.00     0.029 A 
ENDBRANCH  11  13
ENDBRANCH   6  11
ENDBRANCH   1   5
BRANCH   2  20
HETATM   20  C   UNL     1      -3.631   3.741 -32.848  1.00  0.00     0.142 C 
BRANCH  20  21
HETATM   21  C   UNL     1      -2.736   3.477 -31.631  1.00  0.00     0.142 C 
BRANCH  21  22
HETATM   22  N   UNL     1      -2.448   4.677 -30.867  1.00  0.00    -0.355 N 
HETATM   23  C   UNL     1      -1.195   5.254 -30.891  1.00  0.00     0.251 C 
HETATM   24  O   UNL     1      -0.271   4.823 -31.570  1.00  0.00    -0.268 OA
HETATM   25  H   UNL     1      -3.130   4.964 -30.179  1.00  0.00     0.162 HD
BRANCH  23  26
HETATM   26  C   UNL     1      -0.987   6.439 -30.015  1.00  0.00     0.033 A 
HETATM   27  C   UNL     1      -0.040   6.343 -28.988  1.00  0.00     0.042 A 
HETATM   28  C   UNL     1       0.195   7.431 -28.140  1.00  0.00     0.056 A 
HETATM   29 CL   UNL     1       1.367   7.236 -26.887  1.00  0.00    -0.083 Cl
HETATM   30  C   UNL     1      -0.512   8.625 -28.324  1.00  0.00     0.055 A 
HETATM   31 CL   UNL     1      -0.278  10.007 -27.316  1.00  0.00    -0.083 Cl
HETATM   32  C   UNL     1      -1.446   8.727 -29.360  1.00  0.00     0.026 A 
HETATM   33  C   UNL     1      -1.681   7.640 -30.209  1.00  0.00     0.019 A 
ENDBRANCH  23  26
ENDBRANCH  21  22
ENDBRANCH  20  21
ENDBRANCH   2  20
TORSDOF 7
ENDMDL
MODEL 6
REMARK VINA RESULT:      -8.4      3.839      5.781
REMARK  7 active torsions:
REMARK  status: ('A' for Active; 'I' for Inactive)
REMARK    1  A    between atoms: C_6  and  N_7 
REMARK    2  A    between atoms: N_7  and  C_8 
REMARK    3  A    between atoms: C_13  and  C_14 
REMARK       I    between atoms: C_14  and  N_15 
REMARK    4  A    between atoms: N_15  and  C_16 
REMARK    5  A    between atoms: C_16  and  C_17 
REMARK    6  A    between atoms: C_17  and  N_18 
REMARK       I    between atoms: N_18  and  C_19 
REMARK    7  A    between atoms: C_19  and  C_20 
ROOT
HETATM    1  C   UNL     1      -4.875   4.646 -31.870  1.00  0.00     0.255 C 
HETATM    2  N   UNL     1      -5.750   4.907 -32.901  1.00  0.00    -0.355 N 
HETATM    3  O   UNL     1      -4.007   3.779 -31.918  1.00  0.00    -0.268 OA
HETATM    4  H   UNL     1      -6.371   5.705 -32.856  1.00  0.00     0.162 HD
ENDROOT
BRANCH   1   5
HETATM    5  C   UNL     1      -5.025   5.480 -30.654  1.00  0.00     0.077 A 
HETATM    6  C   UNL     1      -5.412   4.895 -29.434  1.00  0.00     0.143 A 
HETATM    7  N   UNL     1      -5.573   5.665 -28.329  1.00  0.00    -0.242 NA
HETATM    8  C   UNL     1      -5.385   7.000 -28.427  1.00  0.00     0.119 A 
HETATM    9  C   UNL     1      -5.024   7.643 -29.595  1.00  0.00     0.020 A 
HETATM   10  C   UNL     1      -4.843   6.868 -30.732  1.00  0.00     0.022 A 
BRANCH   6  11
HETATM   11  N   UNL     1      -5.557   3.490 -29.350  1.00  0.00    -0.340 N 
HETATM   12  H   UNL     1      -4.662   3.067 -29.092  1.00  0.00     0.167 HD
BRANCH  11  13
HETATM   13  C   UNL     1      -6.411   2.602 -30.032  1.00  0.00     0.036 A 
HETATM   14  C   UNL     1      -5.985   1.281 -30.232  1.00  0.00     0.071 A 
HETATM   15  C   UNL     1      -6.818   0.350 -30.851  1.00  0.00     0.118 A 
HETATM   16  C   UNL     1      -8.095   0.696 -31.268  1.00  0.00     0.042 A 
HETATM   17  F   UNL     1      -6.380  -0.902 -31.039  1.00  0.00    -0.206 F 
HETATM   18  C   UNL     1      -8.548   1.992 -31.052  1.00  0.00     0.005 A 
HETATM   19  C   UNL     1      -7.715   2.931 -30.429  1.00  0.00     0.029 A 
ENDBRANCH  11  13
ENDBRANCH   6  11
ENDBRANCH   1   5
BRANCH   2  20
HETATM   20  C   UNL     1      -5.714   4.153 -34.141  1.00  0.00     0.142 C 
BRANCH  20  21
HETATM   21  C   UNL     1      -6.698   2.978 -34.134  1.00  0.00     0.142 C 
BRANCH  21  22
HETATM   22  N   UNL     1      -6.043   1.688 -34.018  1.00  0.00    -0.355 N 
HETATM   23  C   UNL     1      -6.581   0.560 -34.601  1.00  0.00     0.251 C 
HETATM   24  O   UNL     1      -7.608   0.575 -35.269  1.00  0.00    -0.268 OA
HETATM   25  H   UNL     1      -5.290   1.608 -33.349  1.00  0.00     0.162 HD
BRANCH  23  26
HETATM   26  C   UNL     1      -5.867  -0.724 -34.360  1.00  0.00     0.033 A 
HETATM   27  C   UNL     1      -6.441  -1.902 -34.853  1.00  0.00     0.042 A 
HETATM   28  C   UNL     1      -5.807  -3.133 -34.655  1.00  0.00     0.056 A 
HETATM   29 CL   UNL     1      -6.580  -4.546 -35.279  1.00  0.00    -0.083 Cl
HETATM   30  C   UNL     1      -4.587  -3.188 -33.971  1.00  0.00     0.055 A 
HETATM   31 CL   UNL     1      -3.747  -4.670 -33.687  1.00  0.00    -0.083 Cl
HETATM   32  C   UNL     1      -4.005  -2.009 -33.493  1.00  0.00     0.026 A 
HETATM   33  C   UNL     1      -4.638  -0.778 -33.690  1.00  0.00     0.019 A 
ENDBRANCH  23  26
ENDBRANCH  21  22
ENDBRANCH  20  21
ENDBRANCH   2  20
TORSDOF 7
ENDMDL
MODEL 7
REMARK VINA RESULT:      -8.3     17.464     19.825
REMARK  7 active torsions:
REMARK  status: ('A' for Active; 'I' for Inactive)
REMARK    1  A    between atoms: C_6  and  N_7 
REMARK    2  A    between atoms: N_7  and  C_8 
REMARK    3  A    between atoms: C_13  and  C_14 
REMARK       I    between atoms: C_14  and  N_15 
REMARK    4  A    between atoms: N_15  and  C_16 
REMARK    5  A    between atoms: C_16  and  C_17 
REMARK    6  A    between atoms: C_17  and  N_18 
REMARK       I    between atoms: N_18  and  C_19 
REMARK    7  A    between atoms: C_19  and  C_20 
ROOT
HETATM    1  C   UNL     1      -2.745 -14.582 -40.335  1.00  0.00     0.255 C 
HETATM    2  N   UNL     1      -1.706 -13.683 -40.239  1.00  0.00    -0.355 N 
HETATM    3  O   UNL     1      -3.138 -15.269 -39.397  1.00  0.00    -0.268 OA
HETATM    4  H   UNL     1      -1.495 -13.060 -41.009  1.00  0.00     0.162 HD
ENDROOT
BRANCH   1   5
HETATM    5  C   UNL     1      -3.395 -14.695 -41.662  1.00  0.00     0.077 A 
HETATM    6  C   UNL     1      -4.691 -14.186 -41.865  1.00  0.00     0.143 A 
HETATM    7  N   UNL     1      -5.293 -14.313 -43.074  1.00  0.00    -0.242 NA
HETATM    8  C   UNL     1      -4.641 -14.959 -44.066  1.00  0.00     0.119 A 
HETATM    9  C   UNL     1      -3.377 -15.500 -43.932  1.00  0.00     0.020 A 
HETATM   10  C   UNL     1      -2.742 -15.366 -42.705  1.00  0.00     0.022 A 
BRANCH   6  11
HETATM   11  N   UNL     1      -5.332 -13.474 -40.822  1.00  0.00    -0.340 N 
HETATM   12  H   UNL     1      -4.650 -13.244 -40.095  1.00  0.00     0.167 HD
BRANCH  11  13
HETATM   13  C   UNL     1      -6.656 -13.520 -40.344  1.00  0.00     0.036 A 
HETATM   14  C   UNL     1      -7.502 -12.432 -40.606  1.00  0.00     0.071 A 
HETATM   15  C   UNL     1      -8.836 -12.455 -40.203  1.00  0.00     0.118 A 
HETATM   16  C   UNL     1      -9.370 -13.557 -39.552  1.00  0.00     0.042 A 
HETATM   17  F   UNL     1      -9.618 -11.397 -40.457  1.00  0.00    -0.206 F 
HETATM   18  C   UNL     1      -8.556 -14.658 -39.310  1.00  0.00     0.005 A 
HETATM   19  C   UNL     1      -7.215 -14.640 -39.714  1.00  0.00     0.029 A 
ENDBRANCH  11  13
ENDBRANCH   6  11
ENDBRANCH   1   5
BRANCH   2  20
HETATM   20  C   UNL     1      -0.979 -13.487 -38.997  1.00  0.00     0.142 C 
BRANCH  20  21
HETATM   21  C   UNL     1      -1.662 -12.464 -38.082  1.00  0.00     0.142 C 
BRANCH  21  22
HETATM   22  N   UNL     1      -2.611 -13.066 -37.164  1.00  0.00    -0.355 N 
HETATM   23  C   UNL     1      -3.959 -12.788 -37.248  1.00  0.00     0.251 C 
HETATM   24  O   UNL     1      -4.442 -12.057 -38.104  1.00  0.00    -0.268 OA
HETATM   25  H   UNL     1      -2.236 -13.541 -36.355  1.00  0.00     0.162 HD
BRANCH  23  26
HETATM   26  C   UNL     1      -4.835 -13.402 -36.212  1.00  0.00     0.033 A 
HETATM   27  C   UNL     1      -5.683 -14.447 -36.599  1.00  0.00     0.042 A 
HETATM   28  C   UNL     1      -6.523 -15.058 -35.662  1.00  0.00     0.056 A 
HETATM   29 CL   UNL     1      -7.551 -16.331 -36.213  1.00  0.00    -0.083 Cl
HETATM   30  C   UNL     1      -6.509 -14.631 -34.329  1.00  0.00     0.055 A 
HETATM   31 CL   UNL     1      -7.518 -15.336 -33.118  1.00  0.00    -0.083 Cl
HETATM   32  C   UNL     1      -5.650 -13.599 -33.939  1.00  0.00     0.026 A 
HETATM   33  C   UNL     1      -4.810 -12.987 -34.875  1.00  0.00     0.019 A 
ENDBRANCH  23  26
ENDBRANCH  21  22
ENDBRANCH  20  21
ENDBRANCH   2  20
TORSDOF 7
ENDMDL
MODEL 8
REMARK VINA RESULT:      -8.2      4.846      9.495
REMARK  7 active torsions:
REMARK  status: ('A' for Active; 'I' for Inactive)
REMARK    1  A    between atoms: C_6  and  N_7 
REMARK    2  A    between atoms: N_7  and  C_8 
REMARK    3  A    between atoms: C_13  and  C_14 
REMARK       I    between atoms: C_14  and  N_15 
REMARK    4  A    between atoms: N_15  and  C_16 
REMARK    5  A    between atoms: C_16  and  C_17 
REMARK    6  A    between atoms: C_17  and  N_18 
REMARK       I    between atoms: N_18  and  C_19 
REMARK    7  A    between atoms: C_19  and  C_20 
ROOT
HETATM    1  C   UNL     1      -4.978   4.313 -33.516  1.00  0.00     0.255 C 
HETATM    2  N   UNL     1      -3.620   4.523 -33.416  1.00  0.00    -0.355 N 
HETATM    3  O   UNL     1      -5.628   4.538 -34.533  1.00  0.00    -0.268 OA
HETATM    4  H   UNL     1      -3.115   4.217 -32.595  1.00  0.00     0.162 HD
ENDROOT
BRANCH   1   5
HETATM    5  C   UNL     1      -5.653   3.788 -32.306  1.00  0.00     0.077 A 
HETATM    6  C   UNL     1      -6.230   2.504 -32.313  1.00  0.00     0.143 A 
HETATM    7  N   UNL     1      -6.868   2.037 -31.212  1.00  0.00    -0.242 NA
HETATM    8  C   UNL     1      -6.965   2.832 -30.123  1.00  0.00     0.119 A 
HETATM    9  C   UNL     1      -6.440   4.107 -30.052  1.00  0.00     0.020 A 
HETATM   10  C   UNL     1      -5.772   4.596 -31.166  1.00  0.00     0.022 A 
BRANCH   6  11
HETATM   11  N   UNL     1      -6.073   1.676 -33.451  1.00  0.00    -0.340 N 
HETATM   12  H   UNL     1      -6.719   1.977 -34.185  1.00  0.00     0.167 HD
BRANCH  11  13
HETATM   13  C   UNL     1      -5.690   0.326 -33.571  1.00  0.00     0.036 A 
HETATM   14  C   UNL     1      -6.551  -0.559 -34.236  1.00  0.00     0.071 A 
HETATM   15  C   UNL     1      -6.189  -1.891 -34.430  1.00  0.00     0.118 A 
HETATM   16  C   UNL     1      -4.965  -2.374 -33.992  1.00  0.00     0.042 A 
HETATM   17  F   UNL     1      -7.037  -2.717 -35.058  1.00  0.00    -0.206 F 
HETATM   18  C   UNL     1      -4.084  -1.505 -33.358  1.00  0.00     0.005 A 
HETATM   19  C   UNL     1      -4.442  -0.165 -33.162  1.00  0.00     0.029 A 
ENDBRANCH  11  13
ENDBRANCH   6  11
ENDBRANCH   1   5
BRANCH   2  20
HETATM   20  C   UNL     1      -2.846   5.046 -34.527  1.00  0.00     0.142 C 
BRANCH  20  21
HETATM   21  C   UNL     1      -1.424   5.438 -34.108  1.00  0.00     0.142 C 
BRANCH  21  22
HETATM   22  N   UNL     1      -1.395   6.351 -32.980  1.00  0.00    -0.355 N 
HETATM   23  C   UNL     1      -0.718   6.033 -31.822  1.00  0.00     0.251 C 
HETATM   24  O   UNL     1      -0.082   4.996 -31.680  1.00  0.00    -0.268 OA
HETATM   25  H   UNL     1      -2.034   7.134 -33.001  1.00  0.00     0.162 HD
BRANCH  23  26
HETATM   26  C   UNL     1      -0.813   7.008 -30.701  1.00  0.00     0.033 A 
HETATM   27  C   UNL     1       0.244   7.066 -29.784  1.00  0.00     0.042 A 
HETATM   28  C   UNL     1       0.203   7.968 -28.716  1.00  0.00     0.056 A 
HETATM   29 CL   UNL     1       1.536   7.975 -27.618  1.00  0.00    -0.083 Cl
HETATM   30  C   UNL     1      -0.894   8.824 -28.567  1.00  0.00     0.055 A 
HETATM   31 CL   UNL     1      -1.016   9.961 -27.273  1.00  0.00    -0.083 Cl
HETATM   32  C   UNL     1      -1.942   8.778 -29.492  1.00  0.00     0.026 A 
HETATM   33  C   UNL     1      -1.903   7.877 -30.560  1.00  0.00     0.019 A 
ENDBRANCH  23  26
ENDBRANCH  21  22
ENDBRANCH  20  21
ENDBRANCH   2  20
TORSDOF 7
ENDMDL
MODEL 9
REMARK VINA RESULT:      -8.2     18.313     19.602
REMARK  7 active torsions:
REMARK  status: ('A' for Active; 'I' for Inactive)
REMARK    1  A    between atoms: C_6  and  N_7 
REMARK    2  A    between atoms: N_7  and  C_8 
REMARK    3  A    between atoms: C_13  and  C_14 
REMARK       I    between atoms: C_14  and  N_15 
REMARK    4  A    between atoms: N_15  and  C_16 
REMARK    5  A    between atoms: C_16  and  C_17 
REMARK    6  A    between atoms: C_17  and  N_18 
REMARK       I    between atoms: N_18  and  C_19 
REMARK    7  A    between atoms: C_19  and  C_20 
ROOT
HETATM    1  C   UNL     1      -3.708 -15.399 -36.395  1.00  0.00     0.255 C 
HETATM    2  N   UNL     1      -3.848 -15.049 -35.070  1.00  0.00    -0.355 N 
HETATM    3  O   UNL     1      -4.472 -16.160 -36.982  1.00  0.00    -0.268 OA
HETATM    4  H   UNL     1      -3.260 -14.332 -34.665  1.00  0.00     0.162 HD
ENDROOT
BRANCH   1   5
HETATM    5  C   UNL     1      -2.559 -14.800 -37.115  1.00  0.00     0.077 A 
HETATM    6  C   UNL     1      -2.762 -13.757 -38.036  1.00  0.00     0.143 A 
HETATM    7  N   UNL     1      -1.710 -13.229 -38.711  1.00  0.00    -0.242 NA
HETATM    8  C   UNL     1      -0.475 -13.740 -38.505  1.00  0.00     0.119 A 
HETATM    9  C   UNL     1      -0.207 -14.774 -37.631  1.00  0.00     0.020 A 
HETATM   10  C   UNL     1      -1.270 -15.317 -36.923  1.00  0.00     0.022 A 
BRANCH   6  11
HETATM   11  N   UNL     1      -4.058 -13.212 -38.198  1.00  0.00    -0.340 N 
HETATM   12  H   UNL     1      -4.556 -13.241 -37.305  1.00  0.00     0.167 HD
BRANCH  11  13
HETATM   13  C   UNL     1      -4.920 -13.181 -39.312  1.00  0.00     0.036 A 
HETATM   14  C   UNL     1      -5.300 -14.396 -39.900  1.00  0.00     0.071 A 
HETATM   15  C   UNL     1      -6.196 -14.420 -40.968  1.00  0.00     0.118 A 
HETATM   16  C   UNL     1      -6.752 -13.251 -41.464  1.00  0.00     0.042 A 
HETATM   17  F   UNL     1      -6.531 -15.595 -41.518  1.00  0.00    -0.206 F 
HETATM   18  C   UNL     1      -6.413 -12.038 -40.875  1.00  0.00     0.005 A 
HETATM   19  C   UNL     1      -5.513 -12.009 -39.801  1.00  0.00     0.029 A 
ENDBRANCH  11  13
ENDBRANCH   6  11
ENDBRANCH   1   5
BRANCH   2  20
HETATM   20  C   UNL     1      -4.926 -15.576 -34.252  1.00  0.00     0.142 C 
BRANCH  20  21
HETATM   21  C   UNL     1      -6.182 -14.699 -34.315  1.00  0.00     0.142 C 
BRANCH  21  22
HETATM   22  N   UNL     1      -6.999 -14.958 -35.485  1.00  0.00    -0.355 N 
HETATM   23  C   UNL     1      -7.160 -14.004 -36.468  1.00  0.00     0.251 C 
HETATM   24  O   UNL     1      -6.611 -12.910 -36.437  1.00  0.00    -0.268 OA
HETATM   25  H   UNL     1      -7.589 -15.778 -35.467  1.00  0.00     0.162 HD
BRANCH  23  26
HETATM   26  C   UNL     1      -8.077 -14.347 -37.590  1.00  0.00     0.033 A 
HETATM   27  C   UNL     1      -8.718 -13.299 -38.263  1.00  0.00     0.042 A 
HETATM   28  C   UNL     1      -9.587 -13.569 -39.326  1.00  0.00     0.056 A 
HETATM   29 CL   UNL     1     -10.352 -12.229 -40.099  1.00  0.00    -0.083 Cl
HETATM   30  C   UNL     1      -9.809 -14.892 -39.726  1.00  0.00     0.055 A 
HETATM   31 CL   UNL     1     -10.868 -15.302 -41.027  1.00  0.00    -0.083 Cl
HETATM   32  C   UNL     1      -9.156 -15.937 -39.066  1.00  0.00     0.026 A 
HETATM   33  C   UNL     1      -8.287 -15.668 -38.003  1.00  0.00     0.019 A 
ENDBRANCH  23  26
ENDBRANCH  21  22
ENDBRANCH  20  21
ENDBRANCH   2  20
TORSDOF 7
ENDMDL
MODEL 10
REMARK VINA RESULT:      -8.2      2.007      2.539
REMARK  7 active torsions:
REMARK  status: ('A' for Active; 'I' for Inactive)
REMARK    1  A    between atoms: C_6  and  N_7 
REMARK    2  A    between atoms: N_7  and  C_8 
REMARK    3  A    between atoms: C_13  and  C_14 
REMARK       I    between atoms: C_14  and  N_15 
REMARK    4  A    between atoms: N_15  and  C_16 
REMARK    5  A    between atoms: C_16  and  C_17 
REMARK    6  A    between atoms: C_17  and  N_18 
REMARK       I    between atoms: N_18  and  C_19 
REMARK    7  A    between atoms: C_19  and  C_20 
ROOT
HETATM    1  C   UNL     1      -5.047   5.257 -33.077  1.00  0.00     0.255 C 
HETATM    2  N   UNL     1      -5.265   3.993 -32.574  1.00  0.00    -0.355 N 
HETATM    3  O   UNL     1      -5.930   6.100 -33.203  1.00  0.00    -0.268 OA
HETATM    4  H   UNL     1      -4.485   3.377 -32.385  1.00  0.00     0.162 HD
ENDROOT
BRANCH   1   5
HETATM    5  C   UNL     1      -3.655   5.574 -33.477  1.00  0.00     0.077 A 
HETATM    6  C   UNL     1      -2.942   6.596 -32.824  1.00  0.00     0.143 A 
HETATM    7  N   UNL     1      -1.678   6.899 -33.210  1.00  0.00    -0.242 NA
HETATM    8  C   UNL     1      -1.129   6.226 -34.246  1.00  0.00     0.119 A 
HETATM    9  C   UNL     1      -1.776   5.226 -34.944  1.00  0.00     0.020 A 
HETATM   10  C   UNL     1      -3.066   4.894 -34.553  1.00  0.00     0.022 A 
BRANCH   6  11
HETATM   11  N   UNL     1      -3.525   7.252 -31.713  1.00  0.00    -0.340 N 
HETATM   12  H   UNL     1      -4.507   7.458 -31.913  1.00  0.00     0.167 HD
BRANCH  11  13
HETATM   13  C   UNL     1      -2.967   8.107 -30.743  1.00  0.00     0.036 A 
HETATM   14  C   UNL     1      -2.228   7.541 -29.695  1.00  0.00     0.071 A 
HETATM   15  C   UNL     1      -1.609   8.350 -28.743  1.00  0.00     0.118 A 
HETATM   16  C   UNL     1      -1.689   9.732 -28.814  1.00  0.00     0.042 A 
HETATM   17  F   UNL     1      -0.918   7.780 -27.746  1.00  0.00    -0.206 F 
HETATM   18  C   UNL     1      -2.392  10.315 -29.863  1.00  0.00     0.005 A 
HETATM   19  C   UNL     1      -3.015   9.506 -30.823  1.00  0.00     0.029 A 
ENDBRANCH  11  13
ENDBRANCH   6  11
ENDBRANCH   1   5
BRANCH   2  20
HETATM   20  C   UNL     1      -6.585   3.556 -32.157  1.00  0.00     0.142 C 
BRANCH  20  21
HETATM   21  C   UNL     1      -7.188   2.532 -33.125  1.00  0.00     0.142 C 
BRANCH  21  22
HETATM   22  N   UNL     1      -6.459   1.278 -33.153  1.00  0.00    -0.355 N 
HETATM   23  C   UNL     1      -6.498   0.454 -34.258  1.00  0.00     0.251 C 
HETATM   24  O   UNL     1      -7.110   0.734 -35.282  1.00  0.00    -0.268 OA
HETATM   25  H   UNL     1      -6.079   0.942 -32.279  1.00  0.00     0.162 HD
BRANCH  23  26
HETATM   26  C   UNL     1      -5.773  -0.842 -34.154  1.00  0.00     0.033 A 
HETATM   27  C   UNL     1      -6.319  -1.958 -34.800  1.00  0.00     0.042 A 
HETATM   28  C   UNL     1      -5.674  -3.198 -34.734  1.00  0.00     0.056 A 
HETATM   29 CL   UNL     1      -6.413  -4.533 -35.543  1.00  0.00    -0.083 Cl
HETATM   30  C   UNL     1      -4.471  -3.322 -34.029  1.00  0.00     0.055 A 
HETATM   31 CL   UNL     1      -3.620  -4.819 -33.902  1.00  0.00    -0.083 Cl
HETATM   32  C   UNL     1      -3.917  -2.203 -33.398  1.00  0.00     0.026 A 
HETATM   33  C   UNL     1      -4.561  -0.964 -33.463  1.00  0.00     0.019 A 
ENDBRANCH  23  26
ENDBRANCH  21  22
ENDBRANCH  20  21
ENDBRANCH   2  20
TORSDOF 7
ENDMDL
