MODEL 1
REMARK VINA RESULT:      -8.7      0.000      0.000
REMARK  3 active torsions:
REMARK  status: ('A' for Active; 'I' for Inactive)
REMARK    1  A    between atoms: C_9  and  C_10 
REMARK    2  A    between atoms: C_10  and  C_11 
REMARK       I    between atoms: C_11  and  N_12 
REMARK    3  A    between atoms: N_12  and  C_13 
ROOT
HETATM    1  C   UNL     1      -5.835   1.802 -32.090  1.00  0.00     0.165 C 
ENDROOT
BRANCH   1   2
HETATM    2  C   UNL     1      -4.992   0.538 -32.062  1.00  0.00     0.074 A 
HETATM    3  C   UNL     1      -5.257  -0.545 -33.053  1.00  0.00     0.006 A 
HETATM    4  C   UNL     1      -6.282  -0.495 -34.008  1.00  0.00     0.014 A 
HETATM    5  C   UNL     1      -4.439  -1.673 -33.000  1.00  0.00     0.046 A 
HETATM    6  C   UNL     1      -6.457  -1.550 -34.909  1.00  0.00     0.001 A 
HETATM    7  C   UNL     1      -5.620  -2.664 -34.860  1.00  0.00     0.001 A 
HETATM    8  C   UNL     1      -4.612  -2.730 -33.902  1.00  0.00     0.018 A 
HETATM    9  C   UNL     1      -3.402  -1.759 -31.961  1.00  0.00     0.272 A 
HETATM   10  O   UNL     1      -2.655  -2.726 -31.876  1.00  0.00    -0.266 OA
HETATM   11  N   UNL     1      -3.334  -0.703 -31.086  1.00  0.00    -0.243 N 
HETATM   12  N   UNL     1      -4.096   0.420 -31.124  1.00  0.00    -0.175 NA
HETATM   13  H   UNL     1      -2.629  -0.765 -30.357  1.00  0.00     0.192 HD
ENDBRANCH   1   2
BRANCH   1  14
HETATM   14  C   UNL     1      -5.139   3.144 -32.240  1.00  0.00     0.227 C 
HETATM   15  N   UNL     1      -3.872   3.099 -32.777  1.00  0.00    -0.327 N 
HETATM   16  H   UNL     1      -3.600   2.199 -33.172  1.00  0.00     0.169 HD
HETATM   17  O   UNL     1      -5.698   4.155 -31.817  1.00  0.00    -0.273 OA
BRANCH  15  18
HETATM   18  C   UNL     1      -2.958   4.159 -32.940  1.00  0.00     0.036 A 
HETATM   19  C   UNL     1      -1.919   4.441 -32.047  1.00  0.00     0.056 A 
HETATM   20  C   UNL     1      -1.049   5.507 -32.296  1.00  0.00     0.074 A 
HETATM   21 CL   UNL     1       0.231   5.834 -31.190  1.00  0.00    -0.081 Cl
HETATM   22  C   UNL     1      -1.214   6.292 -33.434  1.00  0.00     0.138 A 
HETATM   23  F   UNL     1      -0.388   7.317 -33.689  1.00  0.00    -0.204 F 
HETATM   24  C   UNL     1      -2.242   6.023 -34.330  1.00  0.00     0.046 A 
HETATM   25  C   UNL     1      -3.110   4.957 -34.084  1.00  0.00     0.032 A 
ENDBRANCH  15  18
ENDBRANCH   1  14
TORSDOF 3
ENDMDL
MODEL 2
REMARK VINA RESULT:      -8.5      5.979      7.305
REMARK  3 active torsions:
REMARK  status: ('A' for Active; 'I' for Inactive)
REMARK    1  A    between atoms: C_9  and  C_10 
REMARK    2  A    between atoms: C_10  and  C_11 
REMARK       I    between atoms: C_11  and  N_12 
REMARK    3  A    between atoms: N_12  and  C_13 
ROOT
HETATM    1  C   UNL     1      -7.106   0.042 -34.912  1.00  0.00     0.165 C 
ENDROOT
BRANCH   1   2
HETATM    2  C   UNL     1      -5.926  -0.514 -34.130  1.00  0.00     0.074 A 
HETATM    3  C   UNL     1      -5.577  -1.958 -34.256  1.00  0.00     0.006 A 
HETATM    4  C   UNL     1      -6.302  -2.873 -35.032  1.00  0.00     0.014 A 
HETATM    5  C   UNL     1      -4.471  -2.412 -33.536  1.00  0.00     0.046 A 
HETATM    6  C   UNL     1      -5.899  -4.211 -35.103  1.00  0.00     0.001 A 
HETATM    7  C   UNL     1      -4.780  -4.649 -34.396  1.00  0.00     0.001 A 
HETATM    8  C   UNL     1      -4.066  -3.751 -33.607  1.00  0.00     0.018 A 
HETATM    9  C   UNL     1      -3.743  -1.472 -32.671  1.00  0.00     0.272 A 
HETATM   10  O   UNL     1      -2.763  -1.820 -32.024  1.00  0.00    -0.266 OA
HETATM   11  N   UNL     1      -4.236  -0.192 -32.620  1.00  0.00    -0.243 N 
HETATM   12  N   UNL     1      -5.293   0.289 -33.324  1.00  0.00    -0.175 NA
HETATM   13  H   UNL     1      -3.746   0.458 -32.012  1.00  0.00     0.192 HD
ENDBRANCH   1   2
BRANCH   1  14
HETATM   14  C   UNL     1      -8.427   0.253 -34.193  1.00  0.00     0.227 C 
HETATM   15  N   UNL     1      -9.239   1.234 -34.719  1.00  0.00    -0.327 N 
HETATM   16  H   UNL     1      -8.948   1.598 -35.627  1.00  0.00     0.169 HD
HETATM   17  O   UNL     1      -8.660  -0.391 -33.171  1.00  0.00    -0.273 OA
BRANCH  15  18
HETATM   18  C   UNL     1     -10.462   1.716 -34.211  1.00  0.00     0.036 A 
HETATM   19  C   UNL     1     -11.711   1.176 -34.532  1.00  0.00     0.056 A 
HETATM   20  C   UNL     1     -12.873   1.711 -33.968  1.00  0.00     0.074 A 
HETATM   21 CL   UNL     1     -14.403   1.027 -34.369  1.00  0.00    -0.081 Cl
HETATM   22  C   UNL     1     -12.791   2.784 -33.086  1.00  0.00     0.138 A 
HETATM   23  F   UNL     1     -13.895   3.309 -32.535  1.00  0.00    -0.204 F 
HETATM   24  C   UNL     1     -11.556   3.331 -32.757  1.00  0.00     0.046 A 
HETATM   25  C   UNL     1     -10.394   2.796 -33.317  1.00  0.00     0.032 A 
ENDBRANCH  15  18
ENDBRANCH   1  14
TORSDOF 3
ENDMDL
MODEL 3
REMARK VINA RESULT:      -8.1      2.189      2.952
REMARK  3 active torsions:
REMARK  status: ('A' for Active; 'I' for Inactive)
REMARK    1  A    between atoms: C_9  and  C_10 
REMARK    2  A    between atoms: C_10  and  C_11 
REMARK       I    between atoms: C_11  and  N_12 
REMARK    3  A    between atoms: N_12  and  C_13 
ROOT
HETATM    1  C   UNL     1      -5.397   1.915 -30.479  1.00  0.00     0.165 C 
ENDROOT
BRANCH   1   2
HETATM    2  C   UNL     1      -6.656   1.349 -31.116  1.00  0.00     0.074 A 
HETATM    3  C   UNL     1      -6.538   0.377 -32.241  1.00  0.00     0.006 A 
HETATM    4  C   UNL     1      -5.317  -0.033 -32.794  1.00  0.00     0.014 A 
HETATM    5  C   UNL     1      -7.723  -0.129 -32.773  1.00  0.00     0.046 A 
HETATM    6  C   UNL     1      -5.294  -0.958 -33.843  1.00  0.00     0.001 A 
HETATM    7  C   UNL     1      -6.485  -1.474 -34.353  1.00  0.00     0.001 A 
HETATM    8  C   UNL     1      -7.703  -1.057 -33.822  1.00  0.00     0.018 A 
HETATM    9  C   UNL     1      -9.009   0.343 -32.239  1.00  0.00     0.272 A 
HETATM   10  O   UNL     1     -10.078  -0.076 -32.668  1.00  0.00    -0.266 OA
HETATM   11  N   UNL     1      -8.941   1.289 -31.247  1.00  0.00    -0.243 N 
HETATM   12  N   UNL     1      -7.806   1.786 -30.689  1.00  0.00    -0.175 NA
HETATM   13  H   UNL     1      -9.827   1.631 -30.885  1.00  0.00     0.192 HD
ENDBRANCH   1   2
BRANCH   1  14
HETATM   14  C   UNL     1      -4.802   3.195 -31.041  1.00  0.00     0.227 C 
HETATM   15  N   UNL     1      -3.566   3.065 -31.635  1.00  0.00    -0.327 N 
HETATM   16  H   UNL     1      -3.256   2.104 -31.786  1.00  0.00     0.169 HD
HETATM   17  O   UNL     1      -5.403   4.255 -30.874  1.00  0.00    -0.273 OA
BRANCH  15  18
HETATM   18  C   UNL     1      -2.735   4.081 -32.147  1.00  0.00     0.036 A 
HETATM   19  C   UNL     1      -1.686   4.668 -31.434  1.00  0.00     0.056 A 
HETATM   20  C   UNL     1      -0.903   5.663 -32.028  1.00  0.00     0.074 A 
HETATM   21 CL   UNL     1       0.392   6.369 -31.137  1.00  0.00    -0.081 Cl
HETATM   22  C   UNL     1      -1.166   6.072 -33.332  1.00  0.00     0.138 A 
HETATM   23  F   UNL     1      -0.424   7.024 -33.918  1.00  0.00    -0.204 F 
HETATM   24  C   UNL     1      -2.205   5.497 -34.053  1.00  0.00     0.046 A 
HETATM   25  C   UNL     1      -2.987   4.502 -33.462  1.00  0.00     0.032 A 
ENDBRANCH  15  18
ENDBRANCH   1  14
TORSDOF 3
ENDMDL
MODEL 4
REMARK VINA RESULT:      -7.9      1.767      2.341
REMARK  3 active torsions:
REMARK  status: ('A' for Active; 'I' for Inactive)
REMARK    1  A    between atoms: C_9  and  C_10 
REMARK    2  A    between atoms: C_10  and  C_11 
REMARK       I    between atoms: C_11  and  N_12 
REMARK    3  A    between atoms: N_12  and  C_13 
ROOT
HETATM    1  C   UNL     1      -4.448   1.139 -30.820  1.00  0.00     0.165 C 
ENDROOT
BRANCH   1   2
HETATM    2  C   UNL     1      -4.884   0.242 -31.967  1.00  0.00     0.074 A 
HETATM    3  C   UNL     1      -6.332   0.132 -32.305  1.00  0.00     0.006 A 
HETATM    4  C   UNL     1      -7.351   0.784 -31.597  1.00  0.00     0.014 A 
HETATM    5  C   UNL     1      -6.676  -0.685 -33.382  1.00  0.00     0.046 A 
HETATM    6  C   UNL     1      -8.686   0.636 -31.988  1.00  0.00     0.001 A 
HETATM    7  C   UNL     1      -9.016  -0.167 -33.078  1.00  0.00     0.001 A 
HETATM    8  C   UNL     1      -8.012  -0.834 -33.775  1.00  0.00     0.018 A 
HETATM    9  C   UNL     1      -5.618  -1.421 -34.091  1.00  0.00     0.272 A 
HETATM   10  O   UNL     1      -5.868  -2.147 -35.045  1.00  0.00    -0.266 OA
HETATM   11  N   UNL     1      -4.343  -1.259 -33.610  1.00  0.00    -0.243 N 
HETATM   12  N   UNL     1      -3.970  -0.453 -32.582  1.00  0.00    -0.175 NA
HETATM   13  H   UNL     1      -3.610  -1.777 -34.086  1.00  0.00     0.192 HD
ENDBRANCH   1   2
BRANCH   1  14
HETATM   14  C   UNL     1      -4.123   2.594 -31.110  1.00  0.00     0.227 C 
HETATM   15  N   UNL     1      -3.110   2.807 -32.018  1.00  0.00    -0.327 N 
HETATM   16  H   UNL     1      -2.799   1.977 -32.524  1.00  0.00     0.169 HD
HETATM   17  O   UNL     1      -4.713   3.473 -30.482  1.00  0.00    -0.273 OA
BRANCH  15  18
HETATM   18  C   UNL     1      -2.529   4.032 -32.403  1.00  0.00     0.036 A 
HETATM   19  C   UNL     1      -1.512   4.674 -31.690  1.00  0.00     0.056 A 
HETATM   20  C   UNL     1      -0.984   5.883 -32.155  1.00  0.00     0.074 A 
HETATM   21 CL   UNL     1       0.275   6.656 -31.268  1.00  0.00    -0.081 Cl
HETATM   22  C   UNL     1      -1.470   6.451 -33.329  1.00  0.00     0.138 A 
HETATM   23  F   UNL     1      -0.975   7.609 -33.790  1.00  0.00    -0.204 F 
HETATM   24  C   UNL     1      -2.480   5.824 -34.048  1.00  0.00     0.046 A 
HETATM   25  C   UNL     1      -3.007   4.615 -33.587  1.00  0.00     0.032 A 
ENDBRANCH  15  18
ENDBRANCH   1  14
TORSDOF 3
ENDMDL
MODEL 5
REMARK VINA RESULT:      -7.8      4.414      8.227
REMARK  3 active torsions:
REMARK  status: ('A' for Active; 'I' for Inactive)
REMARK    1  A    between atoms: C_9  and  C_10 
REMARK    2  A    between atoms: C_10  and  C_11 
REMARK       I    between atoms: C_11  and  N_12 
REMARK    3  A    between atoms: N_12  and  C_13 
ROOT
HETATM    1  C   UNL     1      -1.389   5.188 -32.319  1.00  0.00     0.165 C 
ENDROOT
BRANCH   1   2
HETATM    2  C   UNL     1      -0.875   5.567 -30.940  1.00  0.00     0.074 A 
HETATM    3  C   UNL     1      -1.208   6.906 -30.374  1.00  0.00     0.006 A 
HETATM    4  C   UNL     1      -1.947   7.881 -31.057  1.00  0.00     0.014 A 
HETATM    5  C   UNL     1      -0.731   7.193 -29.095  1.00  0.00     0.046 A 
HETATM    6  C   UNL     1      -2.224   9.110 -30.449  1.00  0.00     0.001 A 
HETATM    7  C   UNL     1      -1.761   9.379 -29.161  1.00  0.00     0.001 A 
HETATM    8  C   UNL     1      -1.009   8.423 -28.483  1.00  0.00     0.018 A 
HETATM    9  C   UNL     1       0.097   6.199 -28.397  1.00  0.00     0.272 A 
HETATM   10  O   UNL     1       0.534   6.402 -27.270  1.00  0.00    -0.266 OA
HETATM   11  N   UNL     1       0.363   5.043 -29.087  1.00  0.00    -0.243 N 
HETATM   12  N   UNL     1      -0.104   4.720 -30.320  1.00  0.00    -0.175 NA
HETATM   13  H   UNL     1       0.948   4.359 -28.615  1.00  0.00     0.192 HD
ENDBRANCH   1   2
BRANCH   1  14
HETATM   14  C   UNL     1      -2.549   4.213 -32.427  1.00  0.00     0.227 C 
HETATM   15  N   UNL     1      -2.781   3.440 -31.311  1.00  0.00    -0.327 N 
HETATM   16  H   UNL     1      -2.264   3.717 -30.476  1.00  0.00     0.169 HD
HETATM   17  O   UNL     1      -3.149   4.117 -33.496  1.00  0.00    -0.273 OA
BRANCH  15  18
HETATM   18  C   UNL     1      -3.710   2.392 -31.156  1.00  0.00     0.036 A 
HETATM   19  C   UNL     1      -3.508   1.090 -31.624  1.00  0.00     0.056 A 
HETATM   20  C   UNL     1      -4.481   0.108 -31.413  1.00  0.00     0.074 A 
HETATM   21 CL   UNL     1      -4.211  -1.492 -31.990  1.00  0.00    -0.081 Cl
HETATM   22  C   UNL     1      -5.655   0.424 -30.734  1.00  0.00     0.138 A 
HETATM   23  F   UNL     1      -6.598  -0.505 -30.521  1.00  0.00    -0.204 F 
HETATM   24  C   UNL     1      -5.869   1.713 -30.263  1.00  0.00     0.046 A 
HETATM   25  C   UNL     1      -4.897   2.695 -30.471  1.00  0.00     0.032 A 
ENDBRANCH  15  18
ENDBRANCH   1  14
TORSDOF 3
ENDMDL
MODEL 6
REMARK VINA RESULT:      -7.8      4.476      8.111
REMARK  3 active torsions:
REMARK  status: ('A' for Active; 'I' for Inactive)
REMARK    1  A    between atoms: C_9  and  C_10 
REMARK    2  A    between atoms: C_10  and  C_11 
REMARK       I    between atoms: C_11  and  N_12 
REMARK    3  A    between atoms: N_12  and  C_13 
ROOT
HETATM    1  C   UNL     1      -1.251   7.063 -33.775  1.00  0.00     0.165 C 
ENDROOT
BRANCH   1   2
HETATM    2  C   UNL     1      -1.355   7.643 -32.374  1.00  0.00     0.074 A 
HETATM    3  C   UNL     1      -0.673   6.954 -31.241  1.00  0.00     0.006 A 
HETATM    4  C   UNL     1       0.042   5.756 -31.372  1.00  0.00     0.014 A 
HETATM    5  C   UNL     1      -0.781   7.541 -29.981  1.00  0.00     0.046 A 
HETATM    6  C   UNL     1       0.662   5.180 -30.258  1.00  0.00     0.001 A 
HETATM    7  C   UNL     1       0.566   5.787 -29.007  1.00  0.00     0.001 A 
HETATM    8  C   UNL     1      -0.160   6.967 -28.864  1.00  0.00     0.018 A 
HETATM    9  C   UNL     1      -1.582   8.764 -29.824  1.00  0.00     0.272 A 
HETATM   10  O   UNL     1      -1.701   9.321 -28.739  1.00  0.00    -0.266 OA
HETATM   11  N   UNL     1      -2.197   9.233 -30.958  1.00  0.00    -0.243 N 
HETATM   12  N   UNL     1      -2.095   8.701 -32.204  1.00  0.00    -0.175 NA
HETATM   13  H   UNL     1      -2.764  10.069 -30.852  1.00  0.00     0.192 HD
ENDBRANCH   1   2
BRANCH   1  14
HETATM   14  C   UNL     1      -2.156   5.905 -34.159  1.00  0.00     0.227 C 
HETATM   15  N   UNL     1      -3.179   5.634 -33.277  1.00  0.00    -0.327 N 
HETATM   16  H   UNL     1      -3.325   6.336 -32.552  1.00  0.00     0.169 HD
HETATM   17  O   UNL     1      -1.889   5.247 -35.163  1.00  0.00    -0.273 OA
BRANCH  15  18
HETATM   18  C   UNL     1      -4.103   4.569 -33.317  1.00  0.00     0.036 A 
HETATM   19  C   UNL     1      -3.923   3.352 -32.654  1.00  0.00     0.056 A 
HETATM   20  C   UNL     1      -4.901   2.356 -32.737  1.00  0.00     0.074 A 
HETATM   21 CL   UNL     1      -4.666   0.864 -31.907  1.00  0.00    -0.081 Cl
HETATM   22  C   UNL     1      -6.057   2.573 -33.482  1.00  0.00     0.138 A 
HETATM   23  F   UNL     1      -7.005   1.630 -33.572  1.00  0.00    -0.204 F 
HETATM   24  C   UNL     1      -6.249   3.779 -34.146  1.00  0.00     0.046 A 
HETATM   25  C   UNL     1      -5.275   4.776 -34.061  1.00  0.00     0.032 A 
ENDBRANCH  15  18
ENDBRANCH   1  14
TORSDOF 3
ENDMDL
MODEL 7
REMARK VINA RESULT:      -7.8      6.331      8.506
REMARK  3 active torsions:
REMARK  status: ('A' for Active; 'I' for Inactive)
REMARK    1  A    between atoms: C_9  and  C_10 
REMARK    2  A    between atoms: C_10  and  C_11 
REMARK       I    between atoms: C_11  and  N_12 
REMARK    3  A    between atoms: N_12  and  C_13 
ROOT
HETATM    1  C   UNL     1     -10.316   1.508 -34.471  1.00  0.00     0.165 C 
ENDROOT
BRANCH   1   2
HETATM    2  C   UNL     1     -11.257   2.264 -33.548  1.00  0.00     0.074 A 
HETATM    3  C   UNL     1     -12.709   1.922 -33.537  1.00  0.00     0.006 A 
HETATM    4  C   UNL     1     -13.289   0.954 -34.367  1.00  0.00     0.014 A 
HETATM    5  C   UNL     1     -13.524   2.630 -32.654  1.00  0.00     0.046 A 
HETATM    6  C   UNL     1     -14.660   0.687 -34.286  1.00  0.00     0.001 A 
HETATM    7  C   UNL     1     -15.462   1.386 -33.385  1.00  0.00     0.001 A 
HETATM    8  C   UNL     1     -14.897   2.363 -32.570  1.00  0.00     0.018 A 
HETATM    9  C   UNL     1     -12.933   3.690 -31.824  1.00  0.00     0.272 A 
HETATM   10  O   UNL     1     -13.606   4.336 -31.029  1.00  0.00    -0.266 OA
HETATM   11  N   UNL     1     -11.592   3.922 -32.004  1.00  0.00    -0.243 N 
HETATM   12  N   UNL     1     -10.765   3.237 -32.835  1.00  0.00    -0.175 NA
HETATM   13  H   UNL     1     -11.182   4.663 -31.444  1.00  0.00     0.192 HD
ENDBRANCH   1   2
BRANCH   1  14
HETATM   14  C   UNL     1      -9.216   0.658 -33.860  1.00  0.00     0.227 C 
HETATM   15  N   UNL     1      -8.111   0.454 -34.657  1.00  0.00    -0.327 N 
HETATM   16  H   UNL     1      -8.072   1.028 -35.500  1.00  0.00     0.169 HD
HETATM   17  O   UNL     1      -9.398   0.153 -32.753  1.00  0.00    -0.273 OA
BRANCH  15  18
HETATM   18  C   UNL     1      -6.992  -0.364 -34.401  1.00  0.00     0.036 A 
HETATM   19  C   UNL     1      -5.802   0.094 -33.827  1.00  0.00     0.056 A 
HETATM   20  C   UNL     1      -4.747  -0.794 -33.596  1.00  0.00     0.074 A 
HETATM   21 CL   UNL     1      -3.291  -0.214 -32.881  1.00  0.00    -0.081 Cl
HETATM   22  C   UNL     1      -4.878  -2.137 -33.938  1.00  0.00     0.138 A 
HETATM   23  F   UNL     1      -3.876  -3.003 -33.723  1.00  0.00    -0.204 F 
HETATM   24  C   UNL     1      -6.054  -2.606 -34.509  1.00  0.00     0.046 A 
HETATM   25  C   UNL     1      -7.111  -1.721 -34.737  1.00  0.00     0.032 A 
ENDBRANCH  15  18
ENDBRANCH   1  14
TORSDOF 3
ENDMDL
MODEL 8
REMARK VINA RESULT:      -7.7      4.162      4.707
REMARK  3 active torsions:
REMARK  status: ('A' for Active; 'I' for Inactive)
REMARK    1  A    between atoms: C_9  and  C_10 
REMARK    2  A    between atoms: C_10  and  C_11 
REMARK       I    between atoms: C_11  and  N_12 
REMARK    3  A    between atoms: N_12  and  C_13 
ROOT
HETATM    1  C   UNL     1      -6.312  -0.039 -34.099  1.00  0.00     0.165 C 
ENDROOT
BRANCH   1   2
HETATM    2  C   UNL     1      -5.269  -0.928 -33.443  1.00  0.00     0.074 A 
HETATM    3  C   UNL     1      -5.174  -2.364 -33.836  1.00  0.00     0.006 A 
HETATM    4  C   UNL     1      -6.028  -2.977 -34.763  1.00  0.00     0.014 A 
HETATM    5  C   UNL     1      -4.184  -3.130 -33.221  1.00  0.00     0.046 A 
HETATM    6  C   UNL     1      -5.864  -4.329 -35.084  1.00  0.00     0.001 A 
HETATM    7  C   UNL     1      -4.858  -5.080 -34.479  1.00  0.00     0.001 A 
HETATM    8  C   UNL     1      -4.018  -4.483 -33.542  1.00  0.00     0.018 A 
HETATM    9  C   UNL     1      -3.325  -2.508 -32.202  1.00  0.00     0.272 A 
HETATM   10  O   UNL     1      -2.438  -3.137 -31.638  1.00  0.00    -0.266 OA
HETATM   11  N   UNL     1      -3.588  -1.193 -31.911  1.00  0.00    -0.243 N 
HETATM   12  N   UNL     1      -4.525  -0.411 -32.507  1.00  0.00    -0.175 NA
HETATM   13  H   UNL     1      -3.007  -0.763 -31.197  1.00  0.00     0.192 HD
ENDBRANCH   1   2
BRANCH   1  14
HETATM   14  C   UNL     1      -6.601   1.323 -33.492  1.00  0.00     0.227 C 
HETATM   15  N   UNL     1      -7.113   1.306 -32.213  1.00  0.00    -0.327 N 
HETATM   16  H   UNL     1      -7.087   0.398 -31.747  1.00  0.00     0.169 HD
HETATM   17  O   UNL     1      -6.439   2.330 -34.180  1.00  0.00    -0.273 OA
BRANCH  15  18
HETATM   18  C   UNL     1      -7.567   2.395 -31.443  1.00  0.00     0.036 A 
HETATM   19  C   UNL     1      -6.760   3.123 -30.563  1.00  0.00     0.056 A 
HETATM   20  C   UNL     1      -7.294   4.200 -29.849  1.00  0.00     0.074 A 
HETATM   21 CL   UNL     1      -6.282   5.090 -28.775  1.00  0.00    -0.081 Cl
HETATM   22  C   UNL     1      -8.631   4.551 -30.010  1.00  0.00     0.138 A 
HETATM   23  F   UNL     1      -9.159   5.582 -29.334  1.00  0.00    -0.204 F 
HETATM   24  C   UNL     1      -9.445   3.837 -30.881  1.00  0.00     0.046 A 
HETATM   25  C   UNL     1      -8.913   2.763 -31.598  1.00  0.00     0.032 A 
ENDBRANCH  15  18
ENDBRANCH   1  14
TORSDOF 3
ENDMDL
MODEL 9
REMARK VINA RESULT:      -7.7      5.414      6.648
REMARK  3 active torsions:
REMARK  status: ('A' for Active; 'I' for Inactive)
REMARK    1  A    between atoms: C_9  and  C_10 
REMARK    2  A    between atoms: C_10  and  C_11 
REMARK       I    between atoms: C_11  and  N_12 
REMARK    3  A    between atoms: N_12  and  C_13 
ROOT
HETATM    1  C   UNL     1      -8.373   0.108 -32.666  1.00  0.00     0.165 C 
ENDROOT
BRANCH   1   2
HETATM    2  C   UNL     1      -6.877  -0.155 -32.653  1.00  0.00     0.074 A 
HETATM    3  C   UNL     1      -6.326  -1.306 -33.425  1.00  0.00     0.006 A 
HETATM    4  C   UNL     1      -7.115  -2.211 -34.147  1.00  0.00     0.014 A 
HETATM    5  C   UNL     1      -4.943  -1.489 -33.399  1.00  0.00     0.046 A 
HETATM    6  C   UNL     1      -6.517  -3.260 -34.853  1.00  0.00     0.001 A 
HETATM    7  C   UNL     1      -5.132  -3.421 -34.838  1.00  0.00     0.001 A 
HETATM    8  C   UNL     1      -4.342  -2.538 -34.106  1.00  0.00     0.018 A 
HETATM    9  C   UNL     1      -4.115  -0.580 -32.592  1.00  0.00     0.272 A 
HETATM   10  O   UNL     1      -2.896  -0.695 -32.542  1.00  0.00    -0.266 OA
HETATM   11  N   UNL     1      -4.787   0.389 -31.891  1.00  0.00    -0.243 N 
HETATM   12  N   UNL     1      -6.127   0.610 -31.912  1.00  0.00    -0.175 NA
HETATM   13  H   UNL     1      -4.221   1.009 -31.320  1.00  0.00     0.192 HD
ENDBRANCH   1   2
BRANCH   1  14
HETATM   14  C   UNL     1      -8.944   1.048 -33.715  1.00  0.00     0.227 C 
HETATM   15  N   UNL     1      -9.903   1.928 -33.264  1.00  0.00    -0.327 N 
HETATM   16  H   UNL     1     -10.009   1.973 -32.250  1.00  0.00     0.169 HD
HETATM   17  O   UNL     1      -8.585   0.924 -34.885  1.00  0.00    -0.273 OA
BRANCH  15  18
HETATM   18  C   UNL     1     -10.673   2.836 -34.018  1.00  0.00     0.036 A 
HETATM   19  C   UNL     1     -10.246   4.120 -34.372  1.00  0.00     0.056 A 
HETATM   20  C   UNL     1     -11.073   4.949 -35.136  1.00  0.00     0.074 A 
HETATM   21 CL   UNL     1     -10.526   6.525 -35.570  1.00  0.00    -0.081 Cl
HETATM   22  C   UNL     1     -12.325   4.500 -35.545  1.00  0.00     0.138 A 
HETATM   23  F   UNL     1     -13.131   5.282 -36.279  1.00  0.00    -0.204 F 
HETATM   24  C   UNL     1     -12.763   3.227 -35.201  1.00  0.00     0.046 A 
HETATM   25  C   UNL     1     -11.937   2.396 -34.441  1.00  0.00     0.032 A 
ENDBRANCH  15  18
ENDBRANCH   1  14
TORSDOF 3
ENDMDL
MODEL 10
REMARK VINA RESULT:      -7.7     16.100     17.564
REMARK  3 active torsions:
REMARK  status: ('A' for Active; 'I' for Inactive)
REMARK    1  A    between atoms: C_9  and  C_10 
REMARK    2  A    between atoms: C_10  and  C_11 
REMARK       I    between atoms: C_11  and  N_12 
REMARK    3  A    between atoms: N_12  and  C_13 
ROOT
HETATM    1  C   UNL     1      -3.566 -12.082 -38.266  1.00  0.00     0.165 C 
ENDROOT
BRANCH   1   2
HETATM    2  C   UNL     1      -2.996 -13.129 -37.323  1.00  0.00     0.074 A 
HETATM    3  C   UNL     1      -1.695 -13.781 -37.648  1.00  0.00     0.006 A 
HETATM    4  C   UNL     1      -0.960 -13.520 -38.812  1.00  0.00     0.014 A 
HETATM    5  C   UNL     1      -1.206 -14.717 -36.737  1.00  0.00     0.046 A 
HETATM    6  C   UNL     1       0.258 -14.170 -39.037  1.00  0.00     0.001 A 
HETATM    7  C   UNL     1       0.749 -15.088 -38.109  1.00  0.00     0.001 A 
HETATM    8  C   UNL     1       0.015 -15.367 -36.959  1.00  0.00     0.018 A 
HETATM    9  C   UNL     1      -2.001 -15.042 -35.544  1.00  0.00     0.272 A 
HETATM   10  O   UNL     1      -1.612 -15.852 -34.712  1.00  0.00    -0.266 OA
HETATM   11  N   UNL     1      -3.208 -14.398 -35.428  1.00  0.00    -0.243 N 
HETATM   12  N   UNL     1      -3.703 -13.464 -36.281  1.00  0.00    -0.175 NA
HETATM   13  H   UNL     1      -3.768 -14.630 -34.614  1.00  0.00     0.192 HD
ENDBRANCH   1   2
BRANCH   1  14
HETATM   14  C   UNL     1      -4.839 -12.400 -39.031  1.00  0.00     0.227 C 
HETATM   15  N   UNL     1      -5.983 -12.491 -38.269  1.00  0.00    -0.327 N 
HETATM   16  H   UNL     1      -5.888 -12.172 -37.304  1.00  0.00     0.169 HD
HETATM   17  O   UNL     1      -4.768 -12.625 -40.238  1.00  0.00    -0.273 OA
BRANCH  15  18
HETATM   18  C   UNL     1      -7.276 -12.867 -38.683  1.00  0.00     0.036 A 
HETATM   19  C   UNL     1      -8.171 -12.012 -39.332  1.00  0.00     0.056 A 
HETATM   20  C   UNL     1      -9.431 -12.477 -39.720  1.00  0.00     0.074 A 
HETATM   21 CL   UNL     1     -10.519 -11.410 -40.525  1.00  0.00    -0.081 Cl
HETATM   22  C   UNL     1      -9.800 -13.794 -39.461  1.00  0.00     0.138 A 
HETATM   23  F   UNL     1     -11.004 -14.257 -39.827  1.00  0.00    -0.204 F 
HETATM   24  C   UNL     1      -8.920 -14.656 -38.818  1.00  0.00     0.046 A 
HETATM   25  C   UNL     1      -7.659 -14.194 -38.432  1.00  0.00     0.032 A 
ENDBRANCH  15  18
ENDBRANCH   1  14
TORSDOF 3
ENDMDL
