MODEL 1
REMARK VINA RESULT:      -8.3      0.000      0.000
REMARK  5 active torsions:
REMARK  status: ('A' for Active; 'I' for Inactive)
REMARK    1  A    between atoms: C_6  and  N_7 
REMARK       I    between atoms: N_7  and  C_8 
REMARK    2  A    between atoms: C_8  and  C_9 
REMARK    3  A    between atoms: C_9  and  O_10 
REMARK    4  A    between atoms: O_10  and  C_11 
REMARK    5  A    between atoms: C_19  and  C_20 
ROOT
HETATM    1  C   UNL     1      -6.785   5.448 -30.019  1.00  0.00     0.073 C 
HETATM    2  C   UNL     1      -6.494   3.994 -30.070  1.00  0.00     0.065 A 
HETATM    3  N   UNL     1      -7.213   3.143 -29.326  1.00  0.00    -0.177 NA
HETATM    4  N   UNL     1      -6.693   1.938 -29.620  1.00  0.00    -0.262 N 
HETATM    5  H   UNL     1      -7.066   1.104 -29.173  1.00  0.00     0.191 HD
HETATM    6  C   UNL     1      -5.658   1.985 -30.519  1.00  0.00     0.137 A 
HETATM    7  C   UNL     1      -5.508   3.319 -30.843  1.00  0.00     0.046 A 
ENDROOT
BRANCH   6   8
HETATM    8  N   UNL     1      -4.952   0.874 -30.942  1.00  0.00    -0.309 N 
HETATM    9  C   UNL     1      -5.462  -0.006 -31.890  1.00  0.00     0.252 C 
HETATM   10  O   UNL     1      -6.549   0.144 -32.448  1.00  0.00    -0.270 OA
HETATM   11  H   UNL     1      -4.053   0.697 -30.507  1.00  0.00     0.170 HD
BRANCH   9  12
HETATM   12  C   UNL     1      -4.502  -1.178 -32.199  1.00  0.00     0.217 C 
HETATM   13  C   UNL     1      -3.151  -0.865 -31.557  1.00  0.00     0.050 C 
BRANCH  12  14
HETATM   14  O   UNL     1      -4.261  -1.399 -33.587  1.00  0.00    -0.337 OA
BRANCH  14  15
HETATM   15  C   UNL     1      -4.852  -2.534 -34.075  1.00  0.00     0.070 A 
HETATM   16  C   UNL     1      -4.133  -3.721 -33.946  1.00  0.00     0.037 A 
HETATM   17  C   UNL     1      -4.679  -4.921 -34.399  1.00  0.00     0.003 A 
HETATM   18  C   UNL     1      -5.953  -4.936 -34.966  1.00  0.00     0.000 A 
HETATM   19  C   UNL     1      -6.685  -3.752 -35.066  1.00  0.00     0.003 A 
HETATM   20  C   UNL     1      -6.139  -2.550 -34.611  1.00  0.00     0.037 A 
ENDBRANCH  14  15
ENDBRANCH  12  14
ENDBRANCH   9  12
ENDBRANCH   6   8
BRANCH   7  21
HETATM   21  C   UNL     1      -4.518   3.840 -31.765  1.00  0.00    -0.020 A 
HETATM   22  C   UNL     1      -4.891   4.232 -33.058  1.00  0.00     0.014 A 
HETATM   23  C   UNL     1      -3.933   4.731 -33.945  1.00  0.00     0.020 A 
HETATM   24  C   UNL     1      -2.605   4.843 -33.537  1.00  0.00     0.011 A 
HETATM   25 BR   UNL     1      -1.310   5.519 -34.736  1.00  0.00    -0.051 Br
HETATM   26  C   UNL     1      -2.225   4.463 -32.251  1.00  0.00     0.020 A 
HETATM   27  C   UNL     1      -3.182   3.962 -31.364  1.00  0.00     0.014 A 
ENDBRANCH   7  21
TORSDOF 5
ENDMDL
MODEL 2
REMARK VINA RESULT:      -8.2      3.490      7.382
REMARK  5 active torsions:
REMARK  status: ('A' for Active; 'I' for Inactive)
REMARK    1  A    between atoms: C_6  and  N_7 
REMARK       I    between atoms: N_7  and  C_8 
REMARK    2  A    between atoms: C_8  and  C_9 
REMARK    3  A    between atoms: C_9  and  O_10 
REMARK    4  A    between atoms: O_10  and  C_11 
REMARK    5  A    between atoms: C_19  and  C_20 
ROOT
HETATM    1  C   UNL     1      -6.640  -3.299 -34.774  1.00  0.00     0.073 C 
HETATM    2  C   UNL     1      -5.804  -2.194 -34.241  1.00  0.00     0.065 A 
HETATM    3  N   UNL     1      -4.481  -2.364 -34.108  1.00  0.00    -0.177 NA
HETATM    4  N   UNL     1      -4.053  -1.188 -33.616  1.00  0.00    -0.262 N 
HETATM    5  H   UNL     1      -3.064  -1.055 -33.415  1.00  0.00     0.191 HD
HETATM    6  C   UNL     1      -5.054  -0.272 -33.419  1.00  0.00     0.137 A 
HETATM    7  C   UNL     1      -6.216  -0.896 -33.829  1.00  0.00     0.046 A 
ENDROOT
BRANCH   6   8
HETATM    8  N   UNL     1      -4.852   0.991 -32.891  1.00  0.00    -0.309 N 
HETATM    9  C   UNL     1      -4.250   1.183 -31.652  1.00  0.00     0.252 C 
HETATM   10  O   UNL     1      -3.823   0.267 -30.949  1.00  0.00    -0.270 OA
HETATM   11  H   UNL     1      -5.193   1.782 -33.425  1.00  0.00     0.170 HD
BRANCH   9  12
HETATM   12  C   UNL     1      -4.140   2.675 -31.264  1.00  0.00     0.217 C 
HETATM   13  C   UNL     1      -5.155   2.954 -30.156  1.00  0.00     0.050 C 
BRANCH  12  14
HETATM   14  O   UNL     1      -4.421   3.588 -32.323  1.00  0.00    -0.337 OA
BRANCH  14  15
HETATM   15  C   UNL     1      -3.315   4.241 -32.796  1.00  0.00     0.070 A 
HETATM   16  C   UNL     1      -3.372   4.702 -34.110  1.00  0.00     0.037 A 
HETATM   17  C   UNL     1      -2.292   5.396 -34.654  1.00  0.00     0.003 A 
HETATM   18  C   UNL     1      -1.161   5.644 -33.877  1.00  0.00     0.000 A 
HETATM   19  C   UNL     1      -1.117   5.210 -32.552  1.00  0.00     0.003 A 
HETATM   20  C   UNL     1      -2.199   4.516 -32.006  1.00  0.00     0.037 A 
ENDBRANCH  14  15
ENDBRANCH  12  14
ENDBRANCH   9  12
ENDBRANCH   6   8
BRANCH   7  21
HETATM   21  C   UNL     1      -7.535  -0.297 -33.792  1.00  0.00    -0.020 A 
HETATM   22  C   UNL     1      -8.354  -0.456 -32.666  1.00  0.00     0.014 A 
HETATM   23  C   UNL     1      -9.626   0.121 -32.635  1.00  0.00     0.020 A 
HETATM   24  C   UNL     1     -10.076   0.861 -33.726  1.00  0.00     0.011 A 
HETATM   25 BR   UNL     1     -11.797   1.642 -33.684  1.00  0.00    -0.051 Br
HETATM   26  C   UNL     1      -9.267   1.032 -34.848  1.00  0.00     0.020 A 
HETATM   27  C   UNL     1      -7.995   0.453 -34.881  1.00  0.00     0.014 A 
ENDBRANCH   7  21
TORSDOF 5
ENDMDL
MODEL 3
REMARK VINA RESULT:      -8.1      1.693      2.011
REMARK  5 active torsions:
REMARK  status: ('A' for Active; 'I' for Inactive)
REMARK    1  A    between atoms: C_6  and  N_7 
REMARK       I    between atoms: N_7  and  C_8 
REMARK    2  A    between atoms: C_8  and  C_9 
REMARK    3  A    between atoms: C_9  and  O_10 
REMARK    4  A    between atoms: O_10  and  C_11 
REMARK    5  A    between atoms: C_19  and  C_20 
ROOT
HETATM    1  C   UNL     1      -8.507   4.656 -32.930  1.00  0.00     0.073 C 
HETATM    2  C   UNL     1      -7.945   3.284 -32.864  1.00  0.00     0.065 A 
HETATM    3  N   UNL     1      -8.753   2.243 -32.617  1.00  0.00    -0.177 NA
HETATM    4  N   UNL     1      -7.928   1.182 -32.635  1.00  0.00    -0.262 N 
HETATM    5  H   UNL     1      -8.299   0.250 -32.465  1.00  0.00     0.191 HD
HETATM    6  C   UNL     1      -6.616   1.503 -32.873  1.00  0.00     0.137 A 
HETATM    7  C   UNL     1      -6.594   2.875 -33.039  1.00  0.00     0.046 A 
ENDROOT
BRANCH   6   8
HETATM    8  N   UNL     1      -5.587   0.579 -32.903  1.00  0.00    -0.309 N 
HETATM    9  C   UNL     1      -5.448  -0.399 -31.925  1.00  0.00     0.252 C 
HETATM   10  O   UNL     1      -6.232  -0.546 -30.987  1.00  0.00    -0.270 OA
HETATM   11  H   UNL     1      -4.907   0.660 -33.650  1.00  0.00     0.170 HD
BRANCH   9  12
HETATM   12  C   UNL     1      -4.222  -1.311 -32.159  1.00  0.00     0.217 C 
HETATM   13  C   UNL     1      -2.996  -0.619 -31.566  1.00  0.00     0.050 C 
BRANCH  12  14
HETATM   14  O   UNL     1      -3.928  -1.573 -33.529  1.00  0.00    -0.337 OA
BRANCH  14  15
HETATM   15  C   UNL     1      -4.606  -2.647 -34.043  1.00  0.00     0.070 A 
HETATM   16  C   UNL     1      -4.034  -3.902 -33.846  1.00  0.00     0.037 A 
HETATM   17  C   UNL     1      -4.676  -5.045 -34.320  1.00  0.00     0.003 A 
HETATM   18  C   UNL     1      -5.901  -4.932 -34.978  1.00  0.00     0.000 A 
HETATM   19  C   UNL     1      -6.488  -3.678 -35.148  1.00  0.00     0.003 A 
HETATM   20  C   UNL     1      -5.846  -2.533 -34.672  1.00  0.00     0.037 A 
ENDBRANCH  14  15
ENDBRANCH  12  14
ENDBRANCH   9  12
ENDBRANCH   6   8
BRANCH   7  21
HETATM   21  C   UNL     1      -5.403   3.656 -33.307  1.00  0.00    -0.020 A 
HETATM   22  C   UNL     1      -4.361   3.703 -32.371  1.00  0.00     0.014 A 
HETATM   23  C   UNL     1      -3.215   4.460 -32.631  1.00  0.00     0.020 A 
HETATM   24  C   UNL     1      -3.110   5.165 -33.828  1.00  0.00     0.011 A 
HETATM   25 BR   UNL     1      -1.560   6.188 -34.180  1.00  0.00    -0.051 Br
HETATM   26  C   UNL     1      -4.137   5.119 -34.769  1.00  0.00     0.020 A 
HETATM   27  C   UNL     1      -5.284   4.364 -34.509  1.00  0.00     0.014 A 
ENDBRANCH   7  21
TORSDOF 5
ENDMDL
MODEL 4
REMARK VINA RESULT:      -7.8      5.209      6.061
REMARK  5 active torsions:
REMARK  status: ('A' for Active; 'I' for Inactive)
REMARK    1  A    between atoms: C_6  and  N_7 
REMARK       I    between atoms: N_7  and  C_8 
REMARK    2  A    between atoms: C_8  and  C_9 
REMARK    3  A    between atoms: C_9  and  O_10 
REMARK    4  A    between atoms: O_10  and  C_11 
REMARK    5  A    between atoms: C_19  and  C_20 
ROOT
HETATM    1  C   UNL     1     -10.289   6.311 -34.303  1.00  0.00     0.073 C 
HETATM    2  C   UNL     1      -9.310   5.208 -34.131  1.00  0.00     0.065 A 
HETATM    3  N   UNL     1      -8.001   5.483 -34.057  1.00  0.00    -0.177 NA
HETATM    4  N   UNL     1      -7.426   4.278 -33.900  1.00  0.00    -0.262 N 
HETATM    5  H   UNL     1      -6.414   4.208 -33.823  1.00  0.00     0.191 HD
HETATM    6  C   UNL     1      -8.318   3.237 -33.880  1.00  0.00     0.137 A 
HETATM    7  C   UNL     1      -9.566   3.813 -34.019  1.00  0.00     0.046 A 
ENDROOT
BRANCH   6   8
HETATM    8  N   UNL     1      -7.951   1.908 -33.763  1.00  0.00    -0.309 N 
HETATM    9  C   UNL     1      -6.823   1.516 -33.050  1.00  0.00     0.252 C 
HETATM   10  O   UNL     1      -6.089   2.298 -32.446  1.00  0.00    -0.270 OA
HETATM   11  H   UNL     1      -8.517   1.221 -34.249  1.00  0.00     0.170 HD
BRANCH   9  12
HETATM   12  C   UNL     1      -6.607  -0.015 -33.064  1.00  0.00     0.217 C 
HETATM   13  C   UNL     1      -6.188  -0.447 -31.659  1.00  0.00     0.050 C 
BRANCH  12  14
HETATM   14  O   UNL     1      -5.591  -0.464 -33.957  1.00  0.00    -0.337 OA
BRANCH  14  15
HETATM   15  C   UNL     1      -5.659  -1.802 -34.241  1.00  0.00     0.070 A 
HETATM   16  C   UNL     1      -4.482  -2.535 -34.097  1.00  0.00     0.037 A 
HETATM   17  C   UNL     1      -4.479  -3.906 -34.347  1.00  0.00     0.003 A 
HETATM   18  C   UNL     1      -5.658  -4.548 -34.725  1.00  0.00     0.000 A 
HETATM   19  C   UNL     1      -6.842  -3.819 -34.839  1.00  0.00     0.003 A 
HETATM   20  C   UNL     1      -6.847  -2.446 -34.587  1.00  0.00     0.037 A 
ENDBRANCH  14  15
ENDBRANCH  12  14
ENDBRANCH   9  12
ENDBRANCH   6   8
BRANCH   7  21
HETATM   21  C   UNL     1     -10.815   3.080 -34.057  1.00  0.00    -0.020 A 
HETATM   22  C   UNL     1     -11.715   3.157 -32.985  1.00  0.00     0.014 A 
HETATM   23  C   UNL     1     -12.917   2.447 -33.024  1.00  0.00     0.020 A 
HETATM   24  C   UNL     1     -13.223   1.665 -34.136  1.00  0.00     0.011 A 
HETATM   25 BR   UNL     1     -14.850   0.705 -34.189  1.00  0.00    -0.051 Br
HETATM   26  C   UNL     1     -12.339   1.587 -35.211  1.00  0.00     0.020 A 
HETATM   27  C   UNL     1     -11.135   2.295 -35.172  1.00  0.00     0.014 A 
ENDBRANCH   7  21
TORSDOF 5
ENDMDL
MODEL 5
REMARK VINA RESULT:      -7.7      5.396      7.091
REMARK  5 active torsions:
REMARK  status: ('A' for Active; 'I' for Inactive)
REMARK    1  A    between atoms: C_6  and  N_7 
REMARK       I    between atoms: N_7  and  C_8 
REMARK    2  A    between atoms: C_8  and  C_9 
REMARK    3  A    between atoms: C_9  and  O_10 
REMARK    4  A    between atoms: O_10  and  C_11 
REMARK    5  A    between atoms: C_19  and  C_20 
ROOT
HETATM    1  C   UNL     1      -3.324   2.746 -32.500  1.00  0.00     0.073 C 
HETATM    2  C   UNL     1      -4.795   2.857 -32.336  1.00  0.00     0.065 A 
HETATM    3  N   UNL     1      -5.330   3.990 -31.862  1.00  0.00    -0.177 NA
HETATM    4  N   UNL     1      -6.652   3.744 -31.854  1.00  0.00    -0.262 N 
HETATM    5  H   UNL     1      -7.296   4.459 -31.524  1.00  0.00     0.191 HD
HETATM    6  C   UNL     1      -6.985   2.490 -32.295  1.00  0.00     0.137 A 
HETATM    7  C   UNL     1      -5.790   1.883 -32.630  1.00  0.00     0.046 A 
ENDROOT
BRANCH   6   8
HETATM    8  N   UNL     1      -8.281   2.006 -32.341  1.00  0.00    -0.309 N 
HETATM    9  C   UNL     1      -9.236   2.542 -33.198  1.00  0.00     0.252 C 
HETATM   10  O   UNL     1      -9.007   3.451 -33.996  1.00  0.00    -0.270 OA
HETATM   11  H   UNL     1      -8.526   1.262 -31.698  1.00  0.00     0.170 HD
BRANCH   9  12
HETATM   12  C   UNL     1     -10.613   1.850 -33.068  1.00  0.00     0.217 C 
HETATM   13  C   UNL     1     -10.381   0.340 -33.023  1.00  0.00     0.050 C 
BRANCH  12  14
HETATM   14  O   UNL     1     -11.508   2.100 -34.149  1.00  0.00    -0.337 OA
BRANCH  14  15
HETATM   15  C   UNL     1     -12.824   1.884 -33.836  1.00  0.00     0.070 A 
HETATM   16  C   UNL     1     -13.373   2.693 -32.842  1.00  0.00     0.037 A 
HETATM   17  C   UNL     1     -14.712   2.547 -32.484  1.00  0.00     0.003 A 
HETATM   18  C   UNL     1     -15.507   1.603 -33.134  1.00  0.00     0.000 A 
HETATM   19  C   UNL     1     -14.965   0.816 -34.150  1.00  0.00     0.003 A 
HETATM   20  C   UNL     1     -13.624   0.962 -34.510  1.00  0.00     0.037 A 
ENDBRANCH  14  15
ENDBRANCH  12  14
ENDBRANCH   9  12
ENDBRANCH   6   8
BRANCH   7  21
HETATM   21  C   UNL     1      -5.662   0.533 -33.143  1.00  0.00    -0.020 A 
HETATM   22  C   UNL     1      -6.399   0.128 -34.263  1.00  0.00     0.014 A 
HETATM   23  C   UNL     1      -6.276  -1.175 -34.753  1.00  0.00     0.020 A 
HETATM   24  C   UNL     1      -5.412  -2.070 -34.125  1.00  0.00     0.011 A 
HETATM   25 BR   UNL     1      -5.244  -3.832 -34.787  1.00  0.00    -0.051 Br
HETATM   26  C   UNL     1      -4.668  -1.675 -33.014  1.00  0.00     0.020 A 
HETATM   27  C   UNL     1      -4.793  -0.373 -32.523  1.00  0.00     0.014 A 
ENDBRANCH   7  21
TORSDOF 5
ENDMDL
MODEL 6
REMARK VINA RESULT:      -7.7      3.682      7.317
REMARK  5 active torsions:
REMARK  status: ('A' for Active; 'I' for Inactive)
REMARK    1  A    between atoms: C_6  and  N_7 
REMARK       I    between atoms: N_7  and  C_8 
REMARK    2  A    between atoms: C_8  and  C_9 
REMARK    3  A    between atoms: C_9  and  O_10 
REMARK    4  A    between atoms: O_10  and  C_11 
REMARK    5  A    between atoms: C_19  and  C_20 
ROOT
HETATM    1  C   UNL     1     -11.062   0.489 -33.484  1.00  0.00     0.073 C 
HETATM    2  C   UNL     1     -10.128   1.577 -33.102  1.00  0.00     0.065 A 
HETATM    3  N   UNL     1     -10.611   2.773 -32.737  1.00  0.00    -0.177 NA
HETATM    4  N   UNL     1      -9.511   3.494 -32.459  1.00  0.00    -0.262 N 
HETATM    5  H   UNL     1      -9.604   4.461 -32.158  1.00  0.00     0.191 HD
HETATM    6  C   UNL     1      -8.337   2.808 -32.641  1.00  0.00     0.137 A 
HETATM    7  C   UNL     1      -8.707   1.542 -33.053  1.00  0.00     0.046 A 
ENDROOT
BRANCH   6   8
HETATM    8  N   UNL     1      -7.083   3.358 -32.449  1.00  0.00    -0.309 N 
HETATM    9  C   UNL     1      -6.598   4.384 -33.252  1.00  0.00     0.252 C 
HETATM   10  O   UNL     1      -7.243   4.903 -34.163  1.00  0.00    -0.270 OA
HETATM   11  H   UNL     1      -6.505   2.961 -31.716  1.00  0.00     0.170 HD
BRANCH   9  12
HETATM   12  C   UNL     1      -5.172   4.832 -32.858  1.00  0.00     0.217 C 
HETATM   13  C   UNL     1      -5.144   5.045 -31.344  1.00  0.00     0.050 C 
BRANCH  12  14
HETATM   14  O   UNL     1      -4.744   6.053 -33.456  1.00  0.00    -0.337 OA
BRANCH  14  15
HETATM   15  C   UNL     1      -3.418   6.065 -33.797  1.00  0.00     0.070 A 
HETATM   16  C   UNL     1      -2.611   6.995 -33.145  1.00  0.00     0.037 A 
HETATM   17  C   UNL     1      -1.246   7.052 -33.423  1.00  0.00     0.003 A 
HETATM   18  C   UNL     1      -0.685   6.166 -34.342  1.00  0.00     0.000 A 
HETATM   19  C   UNL     1      -1.488   5.215 -34.971  1.00  0.00     0.003 A 
HETATM   20  C   UNL     1      -2.855   5.156 -34.693  1.00  0.00     0.037 A 
ENDBRANCH  14  15
ENDBRANCH  12  14
ENDBRANCH   9  12
ENDBRANCH   6   8
BRANCH   7  21
HETATM   21  C   UNL     1      -7.781   0.473 -33.371  1.00  0.00    -0.020 A 
HETATM   22  C   UNL     1      -7.732  -0.059 -34.667  1.00  0.00     0.014 A 
HETATM   23  C   UNL     1      -6.841  -1.092 -34.969  1.00  0.00     0.020 A 
HETATM   24  C   UNL     1      -5.996  -1.589 -33.978  1.00  0.00     0.011 A 
HETATM   25 BR   UNL     1      -4.791  -2.986 -34.387  1.00  0.00    -0.051 Br
HETATM   26  C   UNL     1      -6.032  -1.062 -32.688  1.00  0.00     0.020 A 
HETATM   27  C   UNL     1      -6.925  -0.030 -32.385  1.00  0.00     0.014 A 
ENDBRANCH   7  21
TORSDOF 5
ENDMDL
MODEL 7
REMARK VINA RESULT:      -7.7     15.788     16.857
REMARK  5 active torsions:
REMARK  status: ('A' for Active; 'I' for Inactive)
REMARK    1  A    between atoms: C_6  and  N_7 
REMARK       I    between atoms: N_7  and  C_8 
REMARK    2  A    between atoms: C_8  and  C_9 
REMARK    3  A    between atoms: C_9  and  O_10 
REMARK    4  A    between atoms: O_10  and  C_11 
REMARK    5  A    between atoms: C_19  and  C_20 
ROOT
HETATM    1  C   UNL     1      -7.521 -15.326 -33.168  1.00  0.00     0.073 C 
HETATM    2  C   UNL     1      -6.240 -15.194 -33.905  1.00  0.00     0.065 A 
HETATM    3  N   UNL     1      -5.078 -15.278 -33.243  1.00  0.00    -0.177 NA
HETATM    4  N   UNL     1      -4.148 -15.124 -34.202  1.00  0.00    -0.262 N 
HETATM    5  H   UNL     1      -3.161 -15.143 -33.956  1.00  0.00     0.191 HD
HETATM    6  C   UNL     1      -4.670 -14.934 -35.455  1.00  0.00     0.137 A 
HETATM    7  C   UNL     1      -6.042 -14.984 -35.298  1.00  0.00     0.046 A 
ENDROOT
BRANCH   6   8
HETATM    8  N   UNL     1      -3.904 -14.720 -36.588  1.00  0.00    -0.309 N 
HETATM    9  C   UNL     1      -3.641 -13.442 -37.068  1.00  0.00     0.252 C 
HETATM   10  O   UNL     1      -4.030 -12.411 -36.519  1.00  0.00    -0.270 OA
HETATM   11  H   UNL     1      -3.566 -15.537 -37.084  1.00  0.00     0.170 HD
BRANCH   9  12
HETATM   12  C   UNL     1      -2.774 -13.449 -38.348  1.00  0.00     0.217 C 
HETATM   13  C   UNL     1      -1.356 -13.031 -37.962  1.00  0.00     0.050 C 
BRANCH  12  14
HETATM   14  O   UNL     1      -3.209 -12.551 -39.366  1.00  0.00    -0.337 OA
BRANCH  14  15
HETATM   15  C   UNL     1      -4.387 -12.920 -39.960  1.00  0.00     0.070 A 
HETATM   16  C   UNL     1      -5.346 -11.923 -40.126  1.00  0.00     0.037 A 
HETATM   17  C   UNL     1      -6.561 -12.218 -40.742  1.00  0.00     0.003 A 
HETATM   18  C   UNL     1      -6.809 -13.508 -41.209  1.00  0.00     0.000 A 
HETATM   19  C   UNL     1      -5.837 -14.498 -41.071  1.00  0.00     0.003 A 
HETATM   20  C   UNL     1      -4.619 -14.204 -40.455  1.00  0.00     0.037 A 
ENDBRANCH  14  15
ENDBRANCH  12  14
ENDBRANCH   9  12
ENDBRANCH   6   8
BRANCH   7  21
HETATM   21  C   UNL     1      -7.004 -14.824 -36.370  1.00  0.00    -0.020 A 
HETATM   22  C   UNL     1      -7.454 -13.548 -36.733  1.00  0.00     0.014 A 
HETATM   23  C   UNL     1      -8.384 -13.398 -37.765  1.00  0.00     0.020 A 
HETATM   24  C   UNL     1      -8.859 -14.522 -38.438  1.00  0.00     0.011 A 
HETATM   25 BR   UNL     1     -10.116 -14.319 -39.834  1.00  0.00    -0.051 Br
HETATM   26  C   UNL     1      -8.412 -15.796 -38.090  1.00  0.00     0.020 A 
HETATM   27  C   UNL     1      -7.484 -15.947 -37.056  1.00  0.00     0.014 A 
ENDBRANCH   7  21
TORSDOF 5
ENDMDL
MODEL 8
REMARK VINA RESULT:      -7.4      2.891      3.280
REMARK  5 active torsions:
REMARK  status: ('A' for Active; 'I' for Inactive)
REMARK    1  A    between atoms: C_6  and  N_7 
REMARK       I    between atoms: N_7  and  C_8 
REMARK    2  A    between atoms: C_8  and  C_9 
REMARK    3  A    between atoms: C_9  and  O_10 
REMARK    4  A    between atoms: O_10  and  C_11 
REMARK    5  A    between atoms: C_19  and  C_20 
ROOT
HETATM    1  C   UNL     1     -11.139   3.603 -32.748  1.00  0.00     0.073 C 
HETATM    2  C   UNL     1     -10.253   2.441 -33.005  1.00  0.00     0.065 A 
HETATM    3  N   UNL     1     -10.787   1.245 -33.289  1.00  0.00    -0.177 NA
HETATM    4  N   UNL     1      -9.718   0.448 -33.465  1.00  0.00    -0.262 N 
HETATM    5  H   UNL     1      -9.853  -0.535 -33.690  1.00  0.00     0.191 HD
HETATM    6  C   UNL     1      -8.517   1.085 -33.294  1.00  0.00     0.137 A 
HETATM    7  C   UNL     1      -8.831   2.398 -33.000  1.00  0.00     0.046 A 
ENDROOT
BRANCH   6   8
HETATM    8  N   UNL     1      -7.288   0.458 -33.392  1.00  0.00    -0.309 N 
HETATM    9  C   UNL     1      -6.622  -0.036 -32.275  1.00  0.00     0.252 C 
HETATM   10  O   UNL     1      -7.075   0.012 -31.132  1.00  0.00    -0.270 OA
HETATM   11  H   UNL     1      -6.864   0.399 -34.311  1.00  0.00     0.170 HD
BRANCH   9  12
HETATM   12  C   UNL     1      -5.264  -0.686 -32.626  1.00  0.00     0.217 C 
HETATM   13  C   UNL     1      -4.160   0.323 -32.312  1.00  0.00     0.050 C 
BRANCH  12  14
HETATM   14  O   UNL     1      -5.115  -1.051 -33.996  1.00  0.00    -0.337 OA
BRANCH  14  15
HETATM   15  C   UNL     1      -5.136  -2.404 -34.211  1.00  0.00     0.070 A 
HETATM   16  C   UNL     1      -4.031  -3.127 -33.766  1.00  0.00     0.037 A 
HETATM   17  C   UNL     1      -3.990  -4.511 -33.929  1.00  0.00     0.003 A 
HETATM   18  C   UNL     1      -5.063  -5.173 -34.524  1.00  0.00     0.000 A 
HETATM   19  C   UNL     1      -6.182  -4.453 -34.941  1.00  0.00     0.003 A 
HETATM   20  C   UNL     1      -6.225  -3.067 -34.776  1.00  0.00     0.037 A 
ENDBRANCH  14  15
ENDBRANCH  12  14
ENDBRANCH   9  12
ENDBRANCH   6   8
BRANCH   7  21
HETATM   21  C   UNL     1      -7.861   3.442 -32.735  1.00  0.00    -0.020 A 
HETATM   22  C   UNL     1      -7.257   4.134 -33.793  1.00  0.00     0.014 A 
HETATM   23  C   UNL     1      -6.320   5.137 -33.534  1.00  0.00     0.020 A 
HETATM   24  C   UNL     1      -5.991   5.452 -32.216  1.00  0.00     0.011 A 
HETATM   25 BR   UNL     1      -4.724   6.810 -31.865  1.00  0.00    -0.051 Br
HETATM   26  C   UNL     1      -6.591   4.775 -31.156  1.00  0.00     0.020 A 
HETATM   27  C   UNL     1      -7.527   3.770 -31.415  1.00  0.00     0.014 A 
ENDBRANCH   7  21
TORSDOF 5
ENDMDL
MODEL 9
REMARK VINA RESULT:      -7.2      3.831      5.753
REMARK  5 active torsions:
REMARK  status: ('A' for Active; 'I' for Inactive)
REMARK    1  A    between atoms: C_6  and  N_7 
REMARK       I    between atoms: N_7  and  C_8 
REMARK    2  A    between atoms: C_8  and  C_9 
REMARK    3  A    between atoms: C_9  and  O_10 
REMARK    4  A    between atoms: O_10  and  C_11 
REMARK    5  A    between atoms: C_19  and  C_20 
ROOT
HETATM    1  C   UNL     1     -10.997   2.547 -34.811  1.00  0.00     0.073 C 
HETATM    2  C   UNL     1      -9.871   3.186 -34.085  1.00  0.00     0.065 A 
HETATM    3  N   UNL     1      -9.970   4.464 -33.693  1.00  0.00    -0.177 NA
HETATM    4  N   UNL     1      -8.800   4.704 -33.076  1.00  0.00    -0.262 N 
HETATM    5  H   UNL     1      -8.616   5.625 -32.684  1.00  0.00     0.191 HD
HETATM    6  C   UNL     1      -7.948   3.630 -33.066  1.00  0.00     0.137 A 
HETATM    7  C   UNL     1      -8.624   2.613 -33.711  1.00  0.00     0.046 A 
ENDROOT
BRANCH   6   8
HETATM    8  N   UNL     1      -6.679   3.656 -32.517  1.00  0.00    -0.309 N 
HETATM    9  C   UNL     1      -5.574   4.099 -33.237  1.00  0.00     0.252 C 
HETATM   10  O   UNL     1      -5.636   4.528 -34.389  1.00  0.00    -0.270 OA
HETATM   11  H   UNL     1      -6.570   3.305 -31.572  1.00  0.00     0.170 HD
BRANCH   9  12
HETATM   12  C   UNL     1      -4.261   4.029 -32.424  1.00  0.00     0.217 C 
HETATM   13  C   UNL     1      -3.488   5.327 -32.660  1.00  0.00     0.050 C 
BRANCH  12  14
HETATM   14  O   UNL     1      -3.393   2.958 -32.786  1.00  0.00    -0.337 OA
BRANCH  14  15
HETATM   15  C   UNL     1      -3.800   1.737 -32.318  1.00  0.00     0.070 A 
HETATM   16  C   UNL     1      -4.439   1.720 -31.080  1.00  0.00     0.037 A 
HETATM   17  C   UNL     1      -4.901   0.517 -30.548  1.00  0.00     0.003 A 
HETATM   18  C   UNL     1      -4.739  -0.668 -31.265  1.00  0.00     0.000 A 
HETATM   19  C   UNL     1      -4.127  -0.646 -32.519  1.00  0.00     0.003 A 
HETATM   20  C   UNL     1      -3.665   0.558 -33.052  1.00  0.00     0.037 A 
ENDBRANCH  14  15
ENDBRANCH  12  14
ENDBRANCH   9  12
ENDBRANCH   6   8
BRANCH   7  21
HETATM   21  C   UNL     1      -8.095   1.282 -33.939  1.00  0.00    -0.020 A 
HETATM   22  C   UNL     1      -7.276   1.026 -35.046  1.00  0.00     0.014 A 
HETATM   23  C   UNL     1      -6.771  -0.259 -35.265  1.00  0.00     0.020 A 
HETATM   24  C   UNL     1      -7.080  -1.284 -34.372  1.00  0.00     0.011 A 
HETATM   25 BR   UNL     1      -6.396  -3.021 -34.667  1.00  0.00    -0.051 Br
HETATM   26  C   UNL     1      -7.888  -1.038 -33.264  1.00  0.00     0.020 A 
HETATM   27  C   UNL     1      -8.395   0.246 -33.046  1.00  0.00     0.014 A 
ENDBRANCH   7  21
TORSDOF 5
ENDMDL
MODEL 10
REMARK VINA RESULT:      -7.1      4.971      7.856
REMARK  5 active torsions:
REMARK  status: ('A' for Active; 'I' for Inactive)
REMARK    1  A    between atoms: C_6  and  N_7 
REMARK       I    between atoms: N_7  and  C_8 
REMARK    2  A    between atoms: C_8  and  C_9 
REMARK    3  A    between atoms: C_9  and  O_10 
REMARK    4  A    between atoms: O_10  and  C_11 
REMARK    5  A    between atoms: C_19  and  C_20 
ROOT
HETATM    1  C   UNL     1      -1.302   5.266 -34.996  1.00  0.00     0.073 C 
HETATM    2  C   UNL     1      -1.845   6.132 -33.919  1.00  0.00     0.065 A 
HETATM    3  N   UNL     1      -1.475   7.418 -33.848  1.00  0.00    -0.177 NA
HETATM    4  N   UNL     1      -2.148   7.888 -32.783  1.00  0.00    -0.262 N 
HETATM    5  H   UNL     1      -2.036   8.860 -32.503  1.00  0.00     0.191 HD
HETATM    6  C   UNL     1      -2.928   6.948 -32.160  1.00  0.00     0.137 A 
HETATM    7  C   UNL     1      -2.761   5.785 -32.887  1.00  0.00     0.046 A 
ENDROOT
BRANCH   6   8
HETATM    8  N   UNL     1      -3.681   7.196 -31.026  1.00  0.00    -0.309 N 
HETATM    9  C   UNL     1      -3.113   7.222 -29.757  1.00  0.00     0.252 C 
HETATM   10  O   UNL     1      -1.911   7.063 -29.541  1.00  0.00    -0.270 OA
HETATM   11  H   UNL     1      -4.679   7.325 -31.146  1.00  0.00     0.170 HD
BRANCH   9  12
HETATM   12  C   UNL     1      -4.147   7.508 -28.644  1.00  0.00     0.217 C 
HETATM   13  C   UNL     1      -3.480   8.401 -27.597  1.00  0.00     0.050 C 
BRANCH  12  14
HETATM   14  O   UNL     1      -4.621   6.351 -27.960  1.00  0.00    -0.337 OA
BRANCH  14  15
HETATM   15  C   UNL     1      -5.759   5.818 -28.503  1.00  0.00     0.070 A 
HETATM   16  C   UNL     1      -6.950   6.502 -28.262  1.00  0.00     0.037 A 
HETATM   17  C   UNL     1      -8.146   6.032 -28.801  1.00  0.00     0.003 A 
HETATM   18  C   UNL     1      -8.150   4.887 -29.596  1.00  0.00     0.000 A 
HETATM   19  C   UNL     1      -6.954   4.220 -29.863  1.00  0.00     0.003 A 
HETATM   20  C   UNL     1      -5.754   4.690 -29.325  1.00  0.00     0.037 A 
ENDBRANCH  14  15
ENDBRANCH  12  14
ENDBRANCH   9  12
ENDBRANCH   6   8
BRANCH   7  21
HETATM   21  C   UNL     1      -3.399   4.520 -32.583  1.00  0.00    -0.020 A 
HETATM   22  C   UNL     1      -4.597   4.161 -33.215  1.00  0.00     0.014 A 
HETATM   23  C   UNL     1      -5.212   2.942 -32.918  1.00  0.00     0.020 A 
HETATM   24  C   UNL     1      -4.625   2.080 -31.993  1.00  0.00     0.011 A 
HETATM   25 BR   UNL     1      -5.456   0.431 -31.591  1.00  0.00    -0.051 Br
HETATM   26  C   UNL     1      -3.430   2.424 -31.364  1.00  0.00     0.020 A 
HETATM   27  C   UNL     1      -2.816   3.644 -31.659  1.00  0.00     0.014 A 
ENDBRANCH   7  21
TORSDOF 5
ENDMDL
