MODEL 1
REMARK VINA RESULT:     -10.2      0.000      0.000
REMARK  5 active torsions:
REMARK  status: ('A' for Active; 'I' for Inactive)
REMARK    1  A    between atoms: C_4  and  C_5 
REMARK    2  A    between atoms: C_5  and  N_6 
REMARK    3  A    between atoms: C_15  and  C_16 
REMARK    4  A    between atoms: C_16  and  N_17 
REMARK    5  A    between atoms: C_20  and  C_21 
REMARK       I    between atoms: C_21  and  N_22 
ROOT
HETATM    1  N   UNL     1      -7.831  -0.020 -32.322  1.00  0.00    -0.061 N 
HETATM    2  H   UNL     1      -7.882  -1.018 -32.090  1.00  0.00     0.280 HD
HETATM    3  C   UNL     1      -7.259   0.632 -31.081  1.00  0.00     0.276 C 
HETATM    4  C   UNL     1      -6.919   2.088 -31.216  1.00  0.00     0.002 A 
HETATM    5  C   UNL     1      -7.925   3.018 -31.474  1.00  0.00     0.076 A 
HETATM    6  O   UNL     1      -9.230   2.628 -31.588  1.00  0.00    -0.349 OA
HETATM    7  C   UNL     1      -9.462   1.893 -32.796  1.00  0.00     0.203 C 
HETATM    8  C   UNL     1      -9.275   0.386 -32.583  1.00  0.00     0.262 C 
HETATM    9  C   UNL     1      -5.599   2.549 -31.052  1.00  0.00     0.020 A 
HETATM   10  C   UNL     1      -5.287   3.920 -31.143  1.00  0.00    -0.032 A 
HETATM   11  C   UNL     1      -6.327   4.826 -31.404  1.00  0.00     0.011 A 
HETATM   12  C   UNL     1      -7.642   4.378 -31.547  1.00  0.00     0.038 A 
ENDROOT
BRANCH  10  13
HETATM   13  C   UNL     1      -3.853   4.388 -31.020  1.00  0.00     0.273 C 
BRANCH  13  14
HETATM   14  N   UNL     1      -3.242   4.965 -32.274  1.00  0.00    -0.066 N 
HETATM   15  H   UNL     1      -3.361   5.995 -32.214  1.00  0.00     0.280 HD
HETATM   16  C   UNL     1      -1.744   4.755 -32.383  1.00  0.00     0.249 C 
HETATM   17  C   UNL     1      -1.185   5.515 -33.591  1.00  0.00     0.103 C 
HETATM   18  C   UNL     1      -1.915   5.111 -34.875  1.00  0.00     0.017 C 
HETATM   19  C   UNL     1      -3.433   5.231 -34.738  1.00  0.00     0.029 C 
HETATM   20  C   UNL     1      -3.970   4.503 -33.512  1.00  0.00     0.235 C 
BRANCH  17  21
HETATM   21  C   UNL     1      -1.321   7.008 -33.344  1.00  0.00     0.221 C 
HETATM   22  N   UNL     1      -0.951   7.453 -32.117  1.00  0.00    -0.370 N 
HETATM   23  H   UNL     1      -0.655   6.856 -31.354  1.00  0.00     0.159 HD
HETATM   24  H   UNL     1      -1.010   8.447 -31.919  1.00  0.00     0.159 HD
HETATM   25  O   UNL     1      -1.672   7.773 -34.240  1.00  0.00    -0.273 OA
ENDBRANCH  17  21
ENDBRANCH  13  14
ENDBRANCH  10  13
BRANCH   1  26
HETATM   26  C   UNL     1      -6.959   0.050 -33.563  1.00  0.00     0.274 C 
BRANCH  26  27
HETATM   27  C   UNL     1      -6.137  -1.187 -33.852  1.00  0.00    -0.026 A 
HETATM   28  C   UNL     1      -6.726  -2.273 -34.534  1.00  0.00     0.016 A 
HETATM   29  C   UNL     1      -6.014  -3.453 -34.780  1.00  0.00    -0.061 A 
HETATM   30  C   UNL     1      -6.648  -4.592 -35.529  1.00  0.00     0.048 C 
HETATM   31  C   UNL     1      -4.678  -3.532 -34.391  1.00  0.00     0.007 A 
HETATM   32  C   UNL     1      -4.061  -2.450 -33.765  1.00  0.00     0.008 A 
HETATM   33  C   UNL     1      -4.770  -1.267 -33.502  1.00  0.00    -0.054 A 
HETATM   34  C   UNL     1      -4.020  -0.118 -32.877  1.00  0.00     0.049 C 
ENDBRANCH  26  27
ENDBRANCH   1  26
TORSDOF 5
ENDMDL
MODEL 2
REMARK VINA RESULT:     -10.2      2.295      2.978
REMARK  5 active torsions:
REMARK  status: ('A' for Active; 'I' for Inactive)
REMARK    1  A    between atoms: C_4  and  C_5 
REMARK    2  A    between atoms: C_5  and  N_6 
REMARK    3  A    between atoms: C_15  and  C_16 
REMARK    4  A    between atoms: C_16  and  N_17 
REMARK    5  A    between atoms: C_20  and  C_21 
REMARK       I    between atoms: C_21  and  N_22 
ROOT
HETATM    1  N   UNL     1      -5.780   0.033 -32.462  1.00  0.00    -0.061 N 
HETATM    2  H   UNL     1      -5.838  -0.728 -31.775  1.00  0.00     0.280 HD
HETATM    3  C   UNL     1      -5.365   1.244 -31.655  1.00  0.00     0.276 C 
HETATM    4  C   UNL     1      -5.039   2.471 -32.456  1.00  0.00     0.002 A 
HETATM    5  C   UNL     1      -6.027   3.084 -33.227  1.00  0.00     0.076 A 
HETATM    6  O   UNL     1      -7.303   2.595 -33.251  1.00  0.00    -0.349 OA
HETATM    7  C   UNL     1      -7.382   1.351 -33.958  1.00  0.00     0.203 C 
HETATM    8  C   UNL     1      -7.193   0.155 -33.017  1.00  0.00     0.262 C 
HETATM    9  C   UNL     1      -3.755   3.048 -32.422  1.00  0.00     0.020 A 
HETATM   10  C   UNL     1      -3.461   4.221 -33.145  1.00  0.00    -0.032 A 
HETATM   11  C   UNL     1      -4.482   4.808 -33.910  1.00  0.00     0.011 A 
HETATM   12  C   UNL     1      -5.763   4.254 -33.932  1.00  0.00     0.038 A 
ENDROOT
BRANCH  10  13
HETATM   13  C   UNL     1      -2.060   4.791 -33.140  1.00  0.00     0.273 C 
BRANCH  13  14
HETATM   14  N   UNL     1      -1.615   5.430 -31.847  1.00  0.00    -0.066 N 
HETATM   15  H   UNL     1      -1.530   4.663 -31.152  1.00  0.00     0.280 HD
HETATM   16  C   UNL     1      -0.233   6.052 -31.908  1.00  0.00     0.249 C 
HETATM   17  C   UNL     1       0.202   6.522 -30.516  1.00  0.00     0.103 C 
HETATM   18  C   UNL     1      -0.830   7.481 -29.917  1.00  0.00     0.017 C 
HETATM   19  C   UNL     1      -2.243   6.895 -29.939  1.00  0.00     0.029 C 
HETATM   20  C   UNL     1      -2.648   6.396 -31.320  1.00  0.00     0.235 C 
BRANCH  17  21
HETATM   21  C   UNL     1       0.393   5.311 -29.621  1.00  0.00     0.221 C 
HETATM   22  N   UNL     1       0.246   5.516 -28.288  1.00  0.00    -0.370 N 
HETATM   23  H   UNL     1       0.080   6.420 -27.860  1.00  0.00     0.159 HD
HETATM   24  H   UNL     1       0.347   4.727 -27.657  1.00  0.00     0.159 HD
HETATM   25  O   UNL     1       0.591   4.193 -30.093  1.00  0.00    -0.273 OA
ENDBRANCH  17  21
ENDBRANCH  13  14
ENDBRANCH  10  13
BRANCH   1  26
HETATM   26  C   UNL     1      -4.774  -0.447 -33.493  1.00  0.00     0.274 C 
BRANCH  26  27
HETATM   27  C   UNL     1      -4.633  -1.948 -33.617  1.00  0.00    -0.026 A 
HETATM   28  C   UNL     1      -5.410  -2.646 -34.565  1.00  0.00     0.016 A 
HETATM   29  C   UNL     1      -5.344  -4.040 -34.681  1.00  0.00    -0.061 A 
HETATM   30  C   UNL     1      -6.160  -4.766 -35.713  1.00  0.00     0.048 C 
HETATM   31  C   UNL     1      -4.448  -4.744 -33.878  1.00  0.00     0.007 A 
HETATM   32  C   UNL     1      -3.632  -4.068 -32.972  1.00  0.00     0.008 A 
HETATM   33  C   UNL     1      -3.700  -2.672 -32.840  1.00  0.00    -0.054 A 
HETATM   34  C   UNL     1      -2.745  -2.005 -31.884  1.00  0.00     0.049 C 
ENDBRANCH  26  27
ENDBRANCH   1  26
TORSDOF 5
ENDMDL
MODEL 3
REMARK VINA RESULT:      -9.9      1.744      2.237
REMARK  5 active torsions:
REMARK  status: ('A' for Active; 'I' for Inactive)
REMARK    1  A    between atoms: C_4  and  C_5 
REMARK    2  A    between atoms: C_5  and  N_6 
REMARK    3  A    between atoms: C_15  and  C_16 
REMARK    4  A    between atoms: C_16  and  N_17 
REMARK    5  A    between atoms: C_20  and  C_21 
REMARK       I    between atoms: C_21  and  N_22 
ROOT
HETATM    1  N   UNL     1      -9.308   0.152 -33.024  1.00  0.00    -0.061 N 
HETATM    2  H   UNL     1      -9.331  -0.869 -32.925  1.00  0.00     0.280 HD
HETATM    3  C   UNL     1      -9.018   0.664 -31.629  1.00  0.00     0.276 C 
HETATM    4  C   UNL     1      -8.760   2.139 -31.524  1.00  0.00     0.002 A 
HETATM    5  C   UNL     1      -9.765   3.048 -31.857  1.00  0.00     0.076 A 
HETATM    6  O   UNL     1     -10.997   2.617 -32.261  1.00  0.00    -0.349 OA
HETATM    7  C   UNL     1     -10.953   2.034 -33.570  1.00  0.00     0.203 C 
HETATM    8  C   UNL     1     -10.704   0.521 -33.505  1.00  0.00     0.262 C 
HETATM    9  C   UNL     1      -7.527   2.636 -31.059  1.00  0.00     0.020 A 
HETATM   10  C   UNL     1      -7.300   4.020 -30.927  1.00  0.00    -0.032 A 
HETATM   11  C   UNL     1      -8.335   4.903 -31.272  1.00  0.00     0.011 A 
HETATM   12  C   UNL     1      -9.567   4.418 -31.714  1.00  0.00     0.038 A 
ENDROOT
BRANCH  10  13
HETATM   13  C   UNL     1      -5.948   4.533 -30.480  1.00  0.00     0.273 C 
BRANCH  13  14
HETATM   14  N   UNL     1      -4.880   4.583 -31.546  1.00  0.00    -0.066 N 
HETATM   15  H   UNL     1      -5.302   4.181 -32.406  1.00  0.00     0.280 HD
HETATM   16  C   UNL     1      -4.465   5.988 -31.939  1.00  0.00     0.249 C 
HETATM   17  C   UNL     1      -3.510   5.947 -33.136  1.00  0.00     0.103 C 
HETATM   18  C   UNL     1      -2.301   5.055 -32.838  1.00  0.00     0.017 C 
HETATM   19  C   UNL     1      -2.715   3.666 -32.351  1.00  0.00     0.029 C 
HETATM   20  C   UNL     1      -3.695   3.723 -31.186  1.00  0.00     0.235 C 
BRANCH  17  21
HETATM   21  C   UNL     1      -4.262   5.442 -34.354  1.00  0.00     0.221 C 
HETATM   22  N   UNL     1      -3.546   5.325 -35.500  1.00  0.00    -0.370 N 
HETATM   23  H   UNL     1      -2.578   5.606 -35.605  1.00  0.00     0.159 HD
HETATM   24  H   UNL     1      -4.008   4.972 -36.333  1.00  0.00     0.159 HD
HETATM   25  O   UNL     1      -5.436   5.084 -34.276  1.00  0.00    -0.273 OA
ENDBRANCH  17  21
ENDBRANCH  13  14
ENDBRANCH  10  13
BRANCH   1  26
HETATM   26  C   UNL     1      -8.231   0.421 -34.060  1.00  0.00     0.274 C 
BRANCH  26  27
HETATM   27  C   UNL     1      -7.100  -0.583 -34.100  1.00  0.00    -0.026 A 
HETATM   28  C   UNL     1      -7.341  -1.886 -34.585  1.00  0.00     0.016 A 
HETATM   29  C   UNL     1      -6.334  -2.859 -34.596  1.00  0.00    -0.061 A 
HETATM   30  C   UNL     1      -6.600  -4.236 -35.138  1.00  0.00     0.048 C 
HETATM   31  C   UNL     1      -5.053  -2.513 -34.170  1.00  0.00     0.007 A 
HETATM   32  C   UNL     1      -4.780  -1.216 -33.738  1.00  0.00     0.008 A 
HETATM   33  C   UNL     1      -5.786  -0.237 -33.711  1.00  0.00    -0.054 A 
HETATM   34  C   UNL     1      -5.403   1.159 -33.290  1.00  0.00     0.049 C 
ENDBRANCH  26  27
ENDBRANCH   1  26
TORSDOF 5
ENDMDL
MODEL 4
REMARK VINA RESULT:      -9.9      1.488      2.063
REMARK  5 active torsions:
REMARK  status: ('A' for Active; 'I' for Inactive)
REMARK    1  A    between atoms: C_4  and  C_5 
REMARK    2  A    between atoms: C_5  and  N_6 
REMARK    3  A    between atoms: C_15  and  C_16 
REMARK    4  A    between atoms: C_16  and  N_17 
REMARK    5  A    between atoms: C_20  and  C_21 
REMARK       I    between atoms: C_21  and  N_22 
ROOT
HETATM    1  N   UNL     1      -6.931   0.372 -32.407  1.00  0.00    -0.061 N 
HETATM    2  H   UNL     1      -6.691  -0.462 -31.859  1.00  0.00     0.280 HD
HETATM    3  C   UNL     1      -6.144   1.492 -31.760  1.00  0.00     0.276 C 
HETATM    4  C   UNL     1      -6.182   2.807 -32.483  1.00  0.00     0.002 A 
HETATM    5  C   UNL     1      -7.392   3.485 -32.633  1.00  0.00     0.076 A 
HETATM    6  O   UNL     1      -8.550   2.980 -32.113  1.00  0.00    -0.349 OA
HETATM    7  C   UNL     1      -8.995   1.823 -32.832  1.00  0.00     0.203 C 
HETATM    8  C   UNL     1      -8.434   0.531 -32.223  1.00  0.00     0.262 C 
HETATM    9  C   UNL     1      -5.009   3.399 -32.989  1.00  0.00     0.020 A 
HETATM   10  C   UNL     1      -5.042   4.651 -33.635  1.00  0.00    -0.032 A 
HETATM   11  C   UNL     1      -6.278   5.303 -33.767  1.00  0.00     0.011 A 
HETATM   12  C   UNL     1      -7.442   4.732 -33.250  1.00  0.00     0.038 A 
ENDROOT
BRANCH  10  13
HETATM   13  C   UNL     1      -3.778   5.242 -34.222  1.00  0.00     0.273 C 
BRANCH  13  14
HETATM   14  N   UNL     1      -2.831   5.878 -33.234  1.00  0.00    -0.066 N 
HETATM   15  H   UNL     1      -3.413   6.225 -32.447  1.00  0.00     0.280 HD
HETATM   16  C   UNL     1      -1.857   4.906 -32.597  1.00  0.00     0.249 C 
HETATM   17  C   UNL     1      -1.055   5.601 -31.492  1.00  0.00     0.103 C 
HETATM   18  C   UNL     1      -0.347   6.846 -32.033  1.00  0.00     0.017 C 
HETATM   19  C   UNL     1      -1.310   7.786 -32.760  1.00  0.00     0.029 C 
HETATM   20  C   UNL     1      -2.128   7.074 -33.829  1.00  0.00     0.235 C 
BRANCH  17  21
HETATM   21  C   UNL     1      -1.992   5.968 -30.355  1.00  0.00     0.221 C 
HETATM   22  N   UNL     1      -1.418   6.508 -29.250  1.00  0.00    -0.370 N 
HETATM   23  H   UNL     1      -0.420   6.621 -29.118  1.00  0.00     0.159 HD
HETATM   24  H   UNL     1      -2.012   6.784 -28.475  1.00  0.00     0.159 HD
HETATM   25  O   UNL     1      -3.210   5.853 -30.470  1.00  0.00    -0.273 OA
ENDBRANCH  17  21
ENDBRANCH  13  14
ENDBRANCH  10  13
BRANCH   1  26
HETATM   26  C   UNL     1      -6.538   0.030 -33.833  1.00  0.00     0.274 C 
BRANCH  26  27
HETATM   27  C   UNL     1      -5.875  -1.317 -34.021  1.00  0.00    -0.026 A 
HETATM   28  C   UNL     1      -6.584  -2.362 -34.652  1.00  0.00     0.016 A 
HETATM   29  C   UNL     1      -6.025  -3.636 -34.805  1.00  0.00    -0.061 A 
HETATM   30  C   UNL     1      -6.783  -4.731 -35.500  1.00  0.00     0.048 C 
HETATM   31  C   UNL     1      -4.718  -3.858 -34.373  1.00  0.00     0.007 A 
HETATM   32  C   UNL     1      -3.981  -2.825 -33.796  1.00  0.00     0.008 A 
HETATM   33  C   UNL     1      -4.537  -1.547 -33.627  1.00  0.00    -0.054 A 
HETATM   34  C   UNL     1      -3.660  -0.464 -33.052  1.00  0.00     0.049 C 
ENDBRANCH  26  27
ENDBRANCH   1  26
TORSDOF 5
ENDMDL
MODEL 5
REMARK VINA RESULT:      -9.6      3.274      9.252
REMARK  5 active torsions:
REMARK  status: ('A' for Active; 'I' for Inactive)
REMARK    1  A    between atoms: C_4  and  C_5 
REMARK    2  A    between atoms: C_5  and  N_6 
REMARK    3  A    between atoms: C_15  and  C_16 
REMARK    4  A    between atoms: C_16  and  N_17 
REMARK    5  A    between atoms: C_20  and  C_21 
REMARK       I    between atoms: C_21  and  N_22 
ROOT
HETATM    1  N   UNL     1      -1.033   6.057 -31.674  1.00  0.00    -0.061 N 
HETATM    2  H   UNL     1      -0.152   5.915 -31.168  1.00  0.00     0.280 HD
HETATM    3  C   UNL     1      -1.339   4.711 -32.295  1.00  0.00     0.276 C 
HETATM    4  C   UNL     1      -2.681   4.598 -32.959  1.00  0.00     0.002 A 
HETATM    5  C   UNL     1      -2.981   5.392 -34.065  1.00  0.00     0.076 A 
HETATM    6  O   UNL     1      -2.061   6.266 -34.574  1.00  0.00    -0.349 OA
HETATM    7  C   UNL     1      -1.853   7.384 -33.702  1.00  0.00     0.203 C 
HETATM    8  C   UNL     1      -0.710   7.122 -32.713  1.00  0.00     0.262 C 
HETATM    9  C   UNL     1      -3.644   3.674 -32.510  1.00  0.00     0.020 A 
HETATM   10  C   UNL     1      -4.889   3.542 -33.156  1.00  0.00    -0.032 A 
HETATM   11  C   UNL     1      -5.154   4.359 -34.267  1.00  0.00     0.011 A 
HETATM   12  C   UNL     1      -4.197   5.263 -34.730  1.00  0.00     0.038 A 
ENDROOT
BRANCH  10  13
HETATM   13  C   UNL     1      -5.930   2.584 -32.622  1.00  0.00     0.273 C 
BRANCH  13  14
HETATM   14  N   UNL     1      -6.026   1.255 -33.332  1.00  0.00    -0.066 N 
HETATM   15  H   UNL     1      -5.094   1.078 -33.755  1.00  0.00     0.280 HD
HETATM   16  C   UNL     1      -6.261   0.077 -32.407  1.00  0.00     0.249 C 
HETATM   17  C   UNL     1      -6.174  -1.239 -33.186  1.00  0.00     0.103 C 
HETATM   18  C   UNL     1      -7.147  -1.237 -34.369  1.00  0.00     0.017 C 
HETATM   19  C   UNL     1      -6.978  -0.001 -35.253  1.00  0.00     0.029 C 
HETATM   20  C   UNL     1      -7.027   1.298 -34.459  1.00  0.00     0.235 C 
BRANCH  17  21
HETATM   21  C   UNL     1      -4.748  -1.439 -33.666  1.00  0.00     0.221 C 
HETATM   22  N   UNL     1      -4.508  -2.554 -34.400  1.00  0.00    -0.370 N 
HETATM   23  H   UNL     1      -5.194  -3.275 -34.591  1.00  0.00     0.159 HD
HETATM   24  H   UNL     1      -3.571  -2.715 -34.756  1.00  0.00     0.159 HD
HETATM   25  O   UNL     1      -3.882  -0.590 -33.463  1.00  0.00    -0.273 OA
ENDBRANCH  17  21
ENDBRANCH  13  14
ENDBRANCH  10  13
BRANCH   1  26
HETATM   26  C   UNL     1      -2.017   6.534 -30.619  1.00  0.00     0.274 C 
BRANCH  26  27
HETATM   27  C   UNL     1      -1.470   7.532 -29.623  1.00  0.00    -0.026 A 
HETATM   28  C   UNL     1      -0.338   7.197 -28.850  1.00  0.00     0.016 A 
HETATM   29  C   UNL     1       0.172   8.073 -27.885  1.00  0.00    -0.061 A 
HETATM   30  C   UNL     1       1.394   7.713 -27.086  1.00  0.00     0.048 C 
HETATM   31  C   UNL     1      -0.420   9.325 -27.724  1.00  0.00     0.007 A 
HETATM   32  C   UNL     1      -1.506   9.697 -28.515  1.00  0.00     0.008 A 
HETATM   33  C   UNL     1      -2.034   8.821 -29.477  1.00  0.00    -0.054 A 
HETATM   34  C   UNL     1      -3.169   9.314 -30.337  1.00  0.00     0.049 C 
ENDBRANCH  26  27
ENDBRANCH   1  26
TORSDOF 5
ENDMDL
MODEL 6
REMARK VINA RESULT:      -9.6      1.660      2.196
REMARK  5 active torsions:
REMARK  status: ('A' for Active; 'I' for Inactive)
REMARK    1  A    between atoms: C_4  and  C_5 
REMARK    2  A    between atoms: C_5  and  N_6 
REMARK    3  A    between atoms: C_15  and  C_16 
REMARK    4  A    between atoms: C_16  and  N_17 
REMARK    5  A    between atoms: C_20  and  C_21 
REMARK       I    between atoms: C_21  and  N_22 
ROOT
HETATM    1  N   UNL     1      -6.842  -0.303 -32.910  1.00  0.00    -0.061 N 
HETATM    2  H   UNL     1      -6.953  -1.203 -32.431  1.00  0.00     0.280 HD
HETATM    3  C   UNL     1      -7.107   0.734 -31.840  1.00  0.00     0.276 C 
HETATM    4  C   UNL     1      -6.840   2.156 -32.240  1.00  0.00     0.002 A 
HETATM    5  C   UNL     1      -7.584   2.743 -33.264  1.00  0.00     0.076 A 
HETATM    6  O   UNL     1      -8.573   2.049 -33.902  1.00  0.00    -0.349 OA
HETATM    7  C   UNL     1      -8.040   1.019 -34.744  1.00  0.00     0.203 C 
HETATM    8  C   UNL     1      -7.912  -0.312 -33.994  1.00  0.00     0.262 C 
HETATM    9  C   UNL     1      -5.872   2.934 -31.578  1.00  0.00     0.020 A 
HETATM   10  C   UNL     1      -5.648   4.280 -31.930  1.00  0.00    -0.032 A 
HETATM   11  C   UNL     1      -6.416   4.836 -32.966  1.00  0.00     0.011 A 
HETATM   12  C   UNL     1      -7.393   4.077 -33.613  1.00  0.00     0.038 A 
ENDROOT
BRANCH  10  13
HETATM   13  C   UNL     1      -4.563   5.080 -31.244  1.00  0.00     0.273 C 
BRANCH  13  14
HETATM   14  N   UNL     1      -3.313   5.323 -32.056  1.00  0.00    -0.066 N 
HETATM   15  H   UNL     1      -3.274   4.570 -32.771  1.00  0.00     0.280 HD
HETATM   16  C   UNL     1      -3.337   6.613 -32.853  1.00  0.00     0.249 C 
HETATM   17  C   UNL     1      -2.114   6.695 -33.772  1.00  0.00     0.103 C 
HETATM   18  C   UNL     1      -0.818   6.541 -32.970  1.00  0.00     0.017 C 
HETATM   19  C   UNL     1      -0.829   5.289 -32.091  1.00  0.00     0.029 C 
HETATM   20  C   UNL     1      -2.069   5.202 -31.212  1.00  0.00     0.235 C 
BRANCH  17  21
HETATM   21  C   UNL     1      -2.218   5.615 -34.834  1.00  0.00     0.221 C 
HETATM   22  N   UNL     1      -1.048   5.139 -35.328  1.00  0.00    -0.370 N 
HETATM   23  H   UNL     1      -0.132   5.496 -35.081  1.00  0.00     0.159 HD
HETATM   24  H   UNL     1      -1.074   4.403 -36.027  1.00  0.00     0.159 HD
HETATM   25  O   UNL     1      -3.306   5.147 -35.163  1.00  0.00    -0.273 OA
ENDBRANCH  17  21
ENDBRANCH  13  14
ENDBRANCH  10  13
BRANCH   1  26
HETATM   26  C   UNL     1      -5.430  -0.327 -33.469  1.00  0.00     0.274 C 
BRANCH  26  27
HETATM   27  C   UNL     1      -4.603  -1.537 -33.096  1.00  0.00    -0.026 A 
HETATM   28  C   UNL     1      -4.740  -2.731 -33.836  1.00  0.00     0.016 A 
HETATM   29  C   UNL     1      -4.028  -3.887 -33.497  1.00  0.00    -0.061 A 
HETATM   30  C   UNL     1      -4.167  -5.144 -34.310  1.00  0.00     0.048 C 
HETATM   31  C   UNL     1      -3.122  -3.839 -32.438  1.00  0.00     0.007 A 
HETATM   32  C   UNL     1      -2.932  -2.654 -31.727  1.00  0.00     0.008 A 
HETATM   33  C   UNL     1      -3.651  -1.493 -32.052  1.00  0.00    -0.054 A 
HETATM   34  C   UNL     1      -3.348  -0.234 -31.280  1.00  0.00     0.049 C 
ENDBRANCH  26  27
ENDBRANCH   1  26
TORSDOF 5
ENDMDL
MODEL 7
REMARK VINA RESULT:      -9.5      3.087      7.190
REMARK  5 active torsions:
REMARK  status: ('A' for Active; 'I' for Inactive)
REMARK    1  A    between atoms: C_4  and  C_5 
REMARK    2  A    between atoms: C_5  and  N_6 
REMARK    3  A    between atoms: C_15  and  C_16 
REMARK    4  A    between atoms: C_16  and  N_17 
REMARK    5  A    between atoms: C_20  and  C_21 
REMARK       I    between atoms: C_21  and  N_22 
ROOT
HETATM    1  N   UNL     1      -5.070   1.936 -32.263  1.00  0.00    -0.061 N 
HETATM    2  H   UNL     1      -4.200   1.589 -32.679  1.00  0.00     0.280 HD
HETATM    3  C   UNL     1      -5.578   2.971 -33.244  1.00  0.00     0.276 C 
HETATM    4  C   UNL     1      -6.945   3.518 -32.954  1.00  0.00     0.002 A 
HETATM    5  C   UNL     1      -7.173   4.239 -31.781  1.00  0.00     0.076 A 
HETATM    6  O   UNL     1      -6.162   4.474 -30.893  1.00  0.00    -0.349 OA
HETATM    7  C   UNL     1      -5.773   3.280 -30.202  1.00  0.00     0.203 C 
HETATM    8  C   UNL     1      -4.642   2.548 -30.936  1.00  0.00     0.262 C 
HETATM    9  C   UNL     1      -8.008   3.353 -33.862  1.00  0.00     0.020 A 
HETATM   10  C   UNL     1      -9.282   3.899 -33.605  1.00  0.00    -0.032 A 
HETATM   11  C   UNL     1      -9.472   4.617 -32.414  1.00  0.00     0.011 A 
HETATM   12  C   UNL     1      -8.418   4.803 -31.518  1.00  0.00     0.038 A 
ENDROOT
BRANCH  10  13
HETATM   13  C   UNL     1     -10.424   3.660 -34.567  1.00  0.00     0.273 C 
BRANCH  13  14
HETATM   14  N   UNL     1     -11.480   2.685 -34.104  1.00  0.00    -0.066 N 
HETATM   15  H   UNL     1     -11.690   2.925 -33.115  1.00  0.00     0.280 HD
HETATM   16  C   UNL     1     -12.807   2.823 -34.825  1.00  0.00     0.249 C 
HETATM   17  C   UNL     1     -13.862   1.920 -34.179  1.00  0.00     0.103 C 
HETATM   18  C   UNL     1     -13.382   0.466 -34.136  1.00  0.00     0.017 C 
HETATM   19  C   UNL     1     -12.001   0.333 -33.494  1.00  0.00     0.029 C 
HETATM   20  C   UNL     1     -10.972   1.265 -34.120  1.00  0.00     0.235 C 
BRANCH  17  21
HETATM   21  C   UNL     1     -14.160   2.427 -32.779  1.00  0.00     0.221 C 
HETATM   22  N   UNL     1     -15.088   1.736 -32.071  1.00  0.00    -0.370 N 
HETATM   23  H   UNL     1     -15.625   0.957 -32.434  1.00  0.00     0.159 HD
HETATM   24  H   UNL     1     -15.303   2.032 -31.124  1.00  0.00     0.159 HD
HETATM   25  O   UNL     1     -13.532   3.365 -32.294  1.00  0.00    -0.273 OA
ENDBRANCH  17  21
ENDBRANCH  13  14
ENDBRANCH  10  13
BRANCH   1  26
HETATM   26  C   UNL     1      -5.943   0.704 -32.096  1.00  0.00     0.274 C 
BRANCH  26  27
HETATM   27  C   UNL     1      -5.425  -0.555 -32.757  1.00  0.00    -0.026 A 
HETATM   28  C   UNL     1      -4.465  -1.348 -32.092  1.00  0.00     0.016 A 
HETATM   29  C   UNL     1      -3.927  -2.494 -32.688  1.00  0.00    -0.061 A 
HETATM   30  C   UNL     1      -2.923  -3.342 -31.957  1.00  0.00     0.048 C 
HETATM   31  C   UNL     1      -4.392  -2.889 -33.941  1.00  0.00     0.007 A 
HETATM   32  C   UNL     1      -5.379  -2.150 -34.591  1.00  0.00     0.008 A 
HETATM   33  C   UNL     1      -5.916  -0.991 -34.008  1.00  0.00    -0.054 A 
HETATM   34  C   UNL     1      -7.023  -0.278 -34.742  1.00  0.00     0.049 C 
ENDBRANCH  26  27
ENDBRANCH   1  26
TORSDOF 5
ENDMDL
MODEL 8
REMARK VINA RESULT:      -9.3      1.583      2.489
REMARK  5 active torsions:
REMARK  status: ('A' for Active; 'I' for Inactive)
REMARK    1  A    between atoms: C_4  and  C_5 
REMARK    2  A    between atoms: C_5  and  N_6 
REMARK    3  A    between atoms: C_15  and  C_16 
REMARK    4  A    between atoms: C_16  and  N_17 
REMARK    5  A    between atoms: C_20  and  C_21 
REMARK       I    between atoms: C_21  and  N_22 
ROOT
HETATM    1  N   UNL     1      -7.098   1.059 -31.432  1.00  0.00    -0.061 N 
HETATM    2  H   UNL     1      -7.038   0.094 -31.090  1.00  0.00     0.280 HD
HETATM    3  C   UNL     1      -6.788   1.913 -30.220  1.00  0.00     0.276 C 
HETATM    4  C   UNL     1      -6.640   3.382 -30.488  1.00  0.00     0.002 A 
HETATM    5  C   UNL     1      -7.725   4.117 -30.967  1.00  0.00     0.076 A 
HETATM    6  O   UNL     1      -8.937   3.522 -31.180  1.00  0.00    -0.349 OA
HETATM    7  C   UNL     1      -8.905   2.642 -32.311  1.00  0.00     0.203 C 
HETATM    8  C   UNL     1      -8.538   1.211 -31.901  1.00  0.00     0.262 C 
HETATM    9  C   UNL     1      -5.430   4.055 -30.232  1.00  0.00     0.020 A 
HETATM   10  C   UNL     1      -5.304   5.442 -30.448  1.00  0.00    -0.032 A 
HETATM   11  C   UNL     1      -6.418   6.146 -30.931  1.00  0.00     0.011 A 
HETATM   12  C   UNL     1      -7.627   5.490 -31.168  1.00  0.00     0.038 A 
ENDROOT
BRANCH  10  13
HETATM   13  C   UNL     1      -3.978   6.134 -30.221  1.00  0.00     0.273 C 
BRANCH  13  14
HETATM   14  N   UNL     1      -2.987   6.043 -31.357  1.00  0.00    -0.066 N 
HETATM   15  H   UNL     1      -3.127   5.113 -31.797  1.00  0.00     0.280 HD
HETATM   16  C   UNL     1      -3.233   7.041 -32.472  1.00  0.00     0.249 C 
HETATM   17  C   UNL     1      -2.293   6.767 -33.650  1.00  0.00     0.103 C 
HETATM   18  C   UNL     1      -0.831   6.768 -33.193  1.00  0.00     0.017 C 
HETATM   19  C   UNL     1      -0.597   5.833 -32.006  1.00  0.00     0.029 C 
HETATM   20  C   UNL     1      -1.564   6.091 -30.858  1.00  0.00     0.235 C 
BRANCH  17  21
HETATM   21  C   UNL     1      -2.658   5.432 -34.276  1.00  0.00     0.221 C 
HETATM   22  N   UNL     1      -1.797   4.945 -35.204  1.00  0.00    -0.370 N 
HETATM   23  H   UNL     1      -0.977   5.436 -35.542  1.00  0.00     0.159 HD
HETATM   24  H   UNL     1      -1.996   4.047 -35.633  1.00  0.00     0.159 HD
HETATM   25  O   UNL     1      -3.640   4.798 -33.897  1.00  0.00    -0.273 OA
ENDBRANCH  17  21
ENDBRANCH  13  14
ENDBRANCH  10  13
BRANCH   1  26
HETATM   26  C   UNL     1      -6.091   1.137 -32.566  1.00  0.00     0.274 C 
BRANCH  26  27
HETATM   27  C   UNL     1      -5.583  -0.193 -33.078  1.00  0.00    -0.026 A 
HETATM   28  C   UNL     1      -4.615  -0.903 -32.336  1.00  0.00     0.016 A 
HETATM   29  C   UNL     1      -4.085  -2.114 -32.796  1.00  0.00    -0.061 A 
HETATM   30  C   UNL     1      -3.073  -2.870 -31.982  1.00  0.00     0.048 C 
HETATM   31  C   UNL     1      -4.567  -2.655 -33.987  1.00  0.00     0.007 A 
HETATM   32  C   UNL     1      -5.562  -1.997 -34.708  1.00  0.00     0.008 A 
HETATM   33  C   UNL     1      -6.091  -0.775 -34.262  1.00  0.00    -0.054 A 
HETATM   34  C   UNL     1      -7.206  -0.153 -35.061  1.00  0.00     0.049 C 
ENDBRANCH  26  27
ENDBRANCH   1  26
TORSDOF 5
ENDMDL
MODEL 9
REMARK VINA RESULT:      -8.8      2.924      6.439
REMARK  5 active torsions:
REMARK  status: ('A' for Active; 'I' for Inactive)
REMARK    1  A    between atoms: C_4  and  C_5 
REMARK    2  A    between atoms: C_5  and  N_6 
REMARK    3  A    between atoms: C_15  and  C_16 
REMARK    4  A    between atoms: C_16  and  N_17 
REMARK    5  A    between atoms: C_20  and  C_21 
REMARK       I    between atoms: C_21  and  N_22 
ROOT
HETATM    1  N   UNL     1      -4.999   1.708 -33.037  1.00  0.00    -0.061 N 
HETATM    2  H   UNL     1      -4.622   1.352 -33.923  1.00  0.00     0.280 HD
HETATM    3  C   UNL     1      -5.890   2.864 -33.440  1.00  0.00     0.276 C 
HETATM    4  C   UNL     1      -6.709   3.463 -32.333  1.00  0.00     0.002 A 
HETATM    5  C   UNL     1      -6.076   4.076 -31.251  1.00  0.00     0.076 A 
HETATM    6  O   UNL     1      -4.714   4.160 -31.189  1.00  0.00    -0.349 OA
HETATM    7  C   UNL     1      -4.113   2.882 -30.944  1.00  0.00     0.203 C 
HETATM    8  C   UNL     1      -3.774   2.159 -32.253  1.00  0.00     0.262 C 
HETATM    9  C   UNL     1      -8.116   3.453 -32.376  1.00  0.00     0.020 A 
HETATM   10  C   UNL     1      -8.883   4.048 -31.354  1.00  0.00    -0.032 A 
HETATM   11  C   UNL     1      -8.210   4.655 -30.281  1.00  0.00     0.011 A 
HETATM   12  C   UNL     1      -6.815   4.686 -30.242  1.00  0.00     0.038 A 
ENDROOT
BRANCH  10  13
HETATM   13  C   UNL     1     -10.393   3.975 -31.391  1.00  0.00     0.273 C 
BRANCH  13  14
HETATM   14  N   UNL     1     -11.019   3.998 -32.765  1.00  0.00    -0.066 N 
HETATM   15  H   UNL     1     -10.426   3.396 -33.369  1.00  0.00     0.280 HD
HETATM   16  C   UNL     1     -12.398   3.372 -32.826  1.00  0.00     0.249 C 
HETATM   17  C   UNL     1     -12.881   3.285 -34.277  1.00  0.00     0.103 C 
HETATM   18  C   UNL     1     -12.848   4.663 -34.945  1.00  0.00     0.017 C 
HETATM   19  C   UNL     1     -11.485   5.340 -34.804  1.00  0.00     0.029 C 
HETATM   20  C   UNL     1     -11.000   5.384 -33.361  1.00  0.00     0.235 C 
BRANCH  17  21
HETATM   21  C   UNL     1     -12.006   2.302 -35.034  1.00  0.00     0.221 C 
HETATM   22  N   UNL     1     -12.132   2.296 -36.384  1.00  0.00    -0.370 N 
HETATM   23  H   UNL     1     -12.804   2.852 -36.901  1.00  0.00     0.159 HD
HETATM   24  H   UNL     1     -11.552   1.665 -36.928  1.00  0.00     0.159 HD
HETATM   25  O   UNL     1     -11.174   1.610 -34.451  1.00  0.00    -0.273 OA
ENDBRANCH  17  21
ENDBRANCH  13  14
ENDBRANCH  10  13
BRANCH   1  26
HETATM   26  C   UNL     1      -5.706   0.521 -32.407  1.00  0.00     0.274 C 
BRANCH  26  27
HETATM   27  C   UNL     1      -5.768  -0.728 -33.259  1.00  0.00    -0.026 A 
HETATM   28  C   UNL     1      -4.758  -1.706 -33.137  1.00  0.00     0.016 A 
HETATM   29  C   UNL     1      -4.753  -2.854 -33.938  1.00  0.00    -0.061 A 
HETATM   30  C   UNL     1      -3.684  -3.898 -33.780  1.00  0.00     0.048 C 
HETATM   31  C   UNL     1      -5.801  -3.058 -34.836  1.00  0.00     0.007 A 
HETATM   32  C   UNL     1      -6.836  -2.131 -34.933  1.00  0.00     0.008 A 
HETATM   33  C   UNL     1      -6.844  -0.970 -34.143  1.00  0.00    -0.054 A 
HETATM   34  C   UNL     1      -8.028  -0.044 -34.258  1.00  0.00     0.049 C 
ENDBRANCH  26  27
ENDBRANCH   1  26
TORSDOF 5
ENDMDL
MODEL 10
REMARK VINA RESULT:      -8.7      3.233      7.283
REMARK  5 active torsions:
REMARK  status: ('A' for Active; 'I' for Inactive)
REMARK    1  A    between atoms: C_4  and  C_5 
REMARK    2  A    between atoms: C_5  and  N_6 
REMARK    3  A    between atoms: C_15  and  C_16 
REMARK    4  A    between atoms: C_16  and  N_17 
REMARK    5  A    between atoms: C_20  and  C_21 
REMARK       I    between atoms: C_21  and  N_22 
ROOT
HETATM    1  N   UNL     1      -5.525   3.157 -31.118  1.00  0.00    -0.061 N 
HETATM    2  H   UNL     1      -4.562   2.881 -31.336  1.00  0.00     0.280 HD
HETATM    3  C   UNL     1      -5.956   4.002 -32.298  1.00  0.00     0.276 C 
HETATM    4  C   UNL     1      -7.404   4.398 -32.312  1.00  0.00     0.002 A 
HETATM    5  C   UNL     1      -7.915   5.209 -31.299  1.00  0.00     0.076 A 
HETATM    6  O   UNL     1      -7.112   5.671 -30.295  1.00  0.00    -0.349 OA
HETATM    7  C   UNL     1      -6.727   4.622 -29.398  1.00  0.00     0.203 C 
HETATM    8  C   UNL     1      -5.411   3.964 -29.832  1.00  0.00     0.262 C 
HETATM    9  C   UNL     1      -8.263   3.996 -33.354  1.00  0.00     0.020 A 
HETATM   10  C   UNL     1      -9.613   4.400 -33.385  1.00  0.00    -0.032 A 
HETATM   11  C   UNL     1     -10.090   5.216 -32.347  1.00  0.00     0.011 A 
HETATM   12  C   UNL     1      -9.240   5.635 -31.323  1.00  0.00     0.038 A 
ENDROOT
BRANCH  10  13
HETATM   13  C   UNL     1     -10.532   3.909 -34.482  1.00  0.00     0.273 C 
BRANCH  13  14
HETATM   14  N   UNL     1     -11.526   2.846 -34.080  1.00  0.00    -0.066 N 
HETATM   15  H   UNL     1     -11.778   3.037 -33.091  1.00  0.00     0.280 HD
HETATM   16  C   UNL     1     -12.840   2.912 -34.835  1.00  0.00     0.249 C 
HETATM   17  C   UNL     1     -13.843   1.914 -34.248  1.00  0.00     0.103 C 
HETATM   18  C   UNL     1     -13.260   0.498 -34.238  1.00  0.00     0.017 C 
HETATM   19  C   UNL     1     -11.890   0.444 -33.560  1.00  0.00     0.029 C 
HETATM   20  C   UNL     1     -10.915   1.467 -34.127  1.00  0.00     0.235 C 
BRANCH  17  21
HETATM   21  C   UNL     1     -14.214   2.352 -32.843  1.00  0.00     0.221 C 
HETATM   22  N   UNL     1     -15.128   1.588 -32.194  1.00  0.00    -0.370 N 
HETATM   23  H   UNL     1     -15.612   0.797 -32.604  1.00  0.00     0.159 HD
HETATM   24  H   UNL     1     -15.390   1.836 -31.245  1.00  0.00     0.159 HD
HETATM   25  O   UNL     1     -13.652   3.301 -32.301  1.00  0.00    -0.273 OA
ENDBRANCH  17  21
ENDBRANCH  13  14
ENDBRANCH  10  13
BRANCH   1  26
HETATM   26  C   UNL     1      -6.276   1.850 -30.936  1.00  0.00     0.274 C 
BRANCH  26  27
HETATM   27  C   UNL     1      -6.060   0.818 -32.021  1.00  0.00    -0.026 A 
HETATM   28  C   UNL     1      -6.954   0.755 -33.111  1.00  0.00     0.016 A 
HETATM   29  C   UNL     1      -6.817  -0.213 -34.113  1.00  0.00    -0.061 A 
HETATM   30  C   UNL     1      -7.763  -0.251 -35.281  1.00  0.00     0.048 C 
HETATM   31  C   UNL     1      -5.740  -1.097 -34.058  1.00  0.00     0.007 A 
HETATM   32  C   UNL     1      -4.815  -1.017 -33.019  1.00  0.00     0.008 A 
HETATM   33  C   UNL     1      -4.951  -0.058 -32.003  1.00  0.00    -0.054 A 
HETATM   34  C   UNL     1      -3.879   0.008 -30.945  1.00  0.00     0.049 C 
ENDBRANCH  26  27
ENDBRANCH   1  26
TORSDOF 5
ENDMDL
