MODEL 1
REMARK VINA RESULT:      -8.4      0.000      0.000
REMARK  6 active torsions:
REMARK  status: ('A' for Active; 'I' for Inactive)
REMARK    1  A    between atoms: C_2  and  C_3 
REMARK    2  A    between atoms: C_7  and  C_8 
REMARK       I    between atoms: C_8  and  N_9 
REMARK    3  A    between atoms: N_9  and  C_10 
REMARK    4  A    between atoms: C_10  and  C_11 
REMARK    5  A    between atoms: C_10  and  C_19 
REMARK    6  A    between atoms: C_14  and  O_15 
ROOT
HETATM    1  C   UNL     1      -6.849   0.616 -33.804  1.00  0.00     0.151 C 
ENDROOT
BRANCH   1   2
HETATM    2  N   UNL     1      -8.295   0.522 -33.913  1.00  0.00    -0.343 N 
HETATM    3  C   UNL     1      -9.093   1.600 -34.194  1.00  0.00     0.270 C 
HETATM    4  O   UNL     1      -8.653   2.731 -34.370  1.00  0.00    -0.266 OA
HETATM    5  H   UNL     1      -8.708  -0.385 -33.770  1.00  0.00     0.163 HD
BRANCH   3   6
HETATM    6  C   UNL     1     -10.502   1.314 -34.255  1.00  0.00     0.119 A 
HETATM    7  N   UNL     1     -11.278   1.773 -35.286  1.00  0.00    -0.273 N 
HETATM    8  N   UNL     1     -12.572   1.423 -35.199  1.00  0.00    -0.179 NA
HETATM    9  H   UNL     1     -10.972   2.333 -36.076  1.00  0.00     0.189 HD
HETATM   10  C   UNL     1     -12.636   0.703 -34.073  1.00  0.00     0.056 A 
HETATM   11  C   UNL     1     -11.371   0.611 -33.444  1.00  0.00     0.065 A 
BRANCH  10  12
HETATM   12  C   UNL     1     -13.929   0.111 -33.624  1.00  0.00     0.056 C 
HETATM   13  C   UNL     1     -15.124   0.716 -34.344  1.00  0.00     0.011 C 
ENDBRANCH  10  12
ENDBRANCH   3   6
ENDBRANCH   1   2
BRANCH   1  14
HETATM   14  C   UNL     1      -6.278  -0.785 -34.015  1.00  0.00    -0.031 A 
HETATM   15  C   UNL     1      -4.939  -1.085 -33.717  1.00  0.00     0.012 A 
HETATM   16  C   UNL     1      -4.438  -2.372 -33.925  1.00  0.00     0.037 A 
HETATM   17  C   UNL     1      -5.256  -3.382 -34.433  1.00  0.00     0.068 A 
HETATM   18  C   UNL     1      -6.594  -3.101 -34.710  1.00  0.00     0.037 A 
HETATM   19  C   UNL     1      -7.101  -1.813 -34.498  1.00  0.00     0.012 A 
BRANCH  17  20
HETATM   20  O   UNL     1      -4.636  -4.589 -34.603  1.00  0.00    -0.356 OA
HETATM   21  C   UNL     1      -3.533  -4.866 -33.749  1.00  0.00     0.210 C 
ENDBRANCH  17  20
ENDBRANCH   1  14
BRANCH   1  22
HETATM   22  C   UNL     1      -6.399   1.282 -32.499  1.00  0.00    -0.031 A 
HETATM   23  C   UNL     1      -6.780   0.736 -31.257  1.00  0.00     0.009 A 
HETATM   24  C   UNL     1      -6.355   1.306 -30.055  1.00  0.00     0.001 A 
HETATM   25  C   UNL     1      -5.522   2.421 -30.068  1.00  0.00     0.000 A 
HETATM   26  C   UNL     1      -5.107   2.959 -31.282  1.00  0.00     0.001 A 
HETATM   27  C   UNL     1      -5.535   2.392 -32.486  1.00  0.00     0.009 A 
ENDBRANCH   1  22
TORSDOF 6
ENDMDL
MODEL 2
REMARK VINA RESULT:      -8.2      2.963      6.340
REMARK  6 active torsions:
REMARK  status: ('A' for Active; 'I' for Inactive)
REMARK    1  A    between atoms: C_2  and  C_3 
REMARK    2  A    between atoms: C_7  and  C_8 
REMARK       I    between atoms: C_8  and  N_9 
REMARK    3  A    between atoms: N_9  and  C_10 
REMARK    4  A    between atoms: C_10  and  C_11 
REMARK    5  A    between atoms: C_10  and  C_19 
REMARK    6  A    between atoms: C_14  and  O_15 
ROOT
HETATM    1  C   UNL     1      -6.540   0.844 -32.750  1.00  0.00     0.151 C 
ENDROOT
BRANCH   1   2
HETATM    2  N   UNL     1      -5.749   1.952 -33.260  1.00  0.00    -0.343 N 
HETATM    3  C   UNL     1      -4.991   2.759 -32.455  1.00  0.00     0.270 C 
HETATM    4  O   UNL     1      -4.922   2.616 -31.238  1.00  0.00    -0.266 OA
HETATM    5  H   UNL     1      -5.778   2.116 -34.253  1.00  0.00     0.163 HD
BRANCH   3   6
HETATM    6  C   UNL     1      -4.282   3.808 -33.139  1.00  0.00     0.119 A 
HETATM    7  N   UNL     1      -4.913   4.626 -34.038  1.00  0.00    -0.273 N 
HETATM    8  N   UNL     1      -4.116   5.554 -34.591  1.00  0.00    -0.179 NA
HETATM    9  H   UNL     1      -5.890   4.589 -34.313  1.00  0.00     0.189 HD
HETATM   10  C   UNL     1      -2.925   5.337 -34.023  1.00  0.00     0.056 A 
HETATM   11  C   UNL     1      -2.975   4.254 -33.112  1.00  0.00     0.065 A 
BRANCH  10  12
HETATM   12  C   UNL     1      -1.751   6.187 -34.370  1.00  0.00     0.056 C 
HETATM   13  C   UNL     1      -1.601   7.376 -33.433  1.00  0.00     0.011 C 
ENDBRANCH  10  12
ENDBRANCH   3   6
ENDBRANCH   1   2
BRANCH   1  14
HETATM   14  C   UNL     1      -5.894  -0.449 -33.241  1.00  0.00    -0.031 A 
HETATM   15  C   UNL     1      -4.763  -0.992 -32.608  1.00  0.00     0.012 A 
HETATM   16  C   UNL     1      -4.184  -2.173 -33.080  1.00  0.00     0.037 A 
HETATM   17  C   UNL     1      -4.716  -2.833 -34.188  1.00  0.00     0.068 A 
HETATM   18  C   UNL     1      -5.852  -2.317 -34.810  1.00  0.00     0.037 A 
HETATM   19  C   UNL     1      -6.438  -1.136 -34.337  1.00  0.00     0.012 A 
BRANCH  17  20
HETATM   20  O   UNL     1      -4.045  -3.967 -34.554  1.00  0.00    -0.356 OA
HETATM   21  C   UNL     1      -3.455  -4.727 -33.507  1.00  0.00     0.210 C 
ENDBRANCH  17  20
ENDBRANCH   1  14
BRANCH   1  22
HETATM   22  C   UNL     1      -8.026   0.970 -33.103  1.00  0.00    -0.031 A 
HETATM   23  C   UNL     1      -8.451   1.918 -34.055  1.00  0.00     0.009 A 
HETATM   24  C   UNL     1      -9.795   2.029 -34.417  1.00  0.00     0.001 A 
HETATM   25  C   UNL     1     -10.741   1.179 -33.852  1.00  0.00     0.000 A 
HETATM   26  C   UNL     1     -10.342   0.215 -32.932  1.00  0.00     0.001 A 
HETATM   27  C   UNL     1      -8.997   0.105 -32.566  1.00  0.00     0.009 A 
ENDBRANCH   1  22
TORSDOF 6
ENDMDL
MODEL 3
REMARK VINA RESULT:      -8.0      2.259      4.859
REMARK  6 active torsions:
REMARK  status: ('A' for Active; 'I' for Inactive)
REMARK    1  A    between atoms: C_2  and  C_3 
REMARK    2  A    between atoms: C_7  and  C_8 
REMARK       I    between atoms: C_8  and  N_9 
REMARK    3  A    between atoms: N_9  and  C_10 
REMARK    4  A    between atoms: C_10  and  C_11 
REMARK    5  A    between atoms: C_10  and  C_19 
REMARK    6  A    between atoms: C_14  and  O_15 
ROOT
HETATM    1  C   UNL     1      -6.865  -0.204 -32.636  1.00  0.00     0.151 C 
ENDROOT
BRANCH   1   2
HETATM    2  N   UNL     1      -8.070   0.311 -33.265  1.00  0.00    -0.343 N 
HETATM    3  C   UNL     1      -9.233   0.535 -32.577  1.00  0.00     0.270 C 
HETATM    4  O   UNL     1      -9.353   0.314 -31.376  1.00  0.00    -0.266 OA
HETATM    5  H   UNL     1      -8.025   0.503 -34.252  1.00  0.00     0.163 HD
BRANCH   3   6
HETATM    6  C   UNL     1     -10.322   1.040 -33.370  1.00  0.00     0.119 A 
HETATM    7  N   UNL     1     -11.579   0.505 -33.279  1.00  0.00    -0.273 N 
HETATM    8  N   UNL     1     -12.484   1.085 -34.083  1.00  0.00    -0.179 NA
HETATM    9  H   UNL     1     -11.871  -0.264 -32.682  1.00  0.00     0.189 HD
HETATM   10  C   UNL     1     -11.791   2.038 -34.714  1.00  0.00     0.056 A 
HETATM   11  C   UNL     1     -10.434   2.048 -34.308  1.00  0.00     0.065 A 
BRANCH  10  12
HETATM   12  C   UNL     1     -12.457   2.933 -35.705  1.00  0.00     0.056 C 
HETATM   13  C   UNL     1     -12.269   4.405 -35.372  1.00  0.00     0.011 C 
ENDBRANCH  10  12
ENDBRANCH   3   6
ENDBRANCH   1   2
BRANCH   1  14
HETATM   14  C   UNL     1      -5.917   0.974 -32.421  1.00  0.00    -0.031 A 
HETATM   15  C   UNL     1      -5.036   1.017 -31.328  1.00  0.00     0.012 A 
HETATM   16  C   UNL     1      -4.183   2.109 -31.148  1.00  0.00     0.037 A 
HETATM   17  C   UNL     1      -4.191   3.176 -32.047  1.00  0.00     0.068 A 
HETATM   18  C   UNL     1      -5.046   3.133 -33.148  1.00  0.00     0.037 A 
HETATM   19  C   UNL     1      -5.899   2.038 -33.335  1.00  0.00     0.012 A 
BRANCH  17  20
HETATM   20  O   UNL     1      -3.320   4.185 -31.746  1.00  0.00    -0.356 OA
HETATM   21  C   UNL     1      -2.247   4.395 -32.655  1.00  0.00     0.210 C 
ENDBRANCH  17  20
ENDBRANCH   1  14
BRANCH   1  22
HETATM   22  C   UNL     1      -6.245  -1.368 -33.416  1.00  0.00    -0.031 A 
HETATM   23  C   UNL     1      -7.060  -2.215 -34.193  1.00  0.00     0.009 A 
HETATM   24  C   UNL     1      -6.514  -3.262 -34.938  1.00  0.00     0.001 A 
HETATM   25  C   UNL     1      -5.138  -3.471 -34.941  1.00  0.00     0.000 A 
HETATM   26  C   UNL     1      -4.310  -2.629 -34.206  1.00  0.00     0.001 A 
HETATM   27  C   UNL     1      -4.855  -1.583 -33.457  1.00  0.00     0.009 A 
ENDBRANCH   1  22
TORSDOF 6
ENDMDL
MODEL 4
REMARK VINA RESULT:      -7.9      2.276      4.897
REMARK  6 active torsions:
REMARK  status: ('A' for Active; 'I' for Inactive)
REMARK    1  A    between atoms: C_2  and  C_3 
REMARK    2  A    between atoms: C_7  and  C_8 
REMARK       I    between atoms: C_8  and  N_9 
REMARK    3  A    between atoms: N_9  and  C_10 
REMARK    4  A    between atoms: C_10  and  C_11 
REMARK    5  A    between atoms: C_10  and  C_19 
REMARK    6  A    between atoms: C_14  and  O_15 
ROOT
HETATM    1  C   UNL     1      -6.540   0.744 -32.699  1.00  0.00     0.151 C 
ENDROOT
BRANCH   1   2
HETATM    2  N   UNL     1      -7.928   0.938 -33.081  1.00  0.00    -0.343 N 
HETATM    3  C   UNL     1      -8.881   1.406 -32.215  1.00  0.00     0.270 C 
HETATM    4  O   UNL     1      -8.640   1.695 -31.047  1.00  0.00    -0.266 OA
HETATM    5  H   UNL     1      -8.179   0.710 -34.028  1.00  0.00     0.163 HD
BRANCH   3   6
HETATM    6  C   UNL     1     -10.203   1.526 -32.771  1.00  0.00     0.119 A 
HETATM    7  N   UNL     1     -10.983   2.625 -32.525  1.00  0.00    -0.273 N 
HETATM    8  N   UNL     1     -12.189   2.587 -33.115  1.00  0.00    -0.179 NA
HETATM    9  H   UNL     1     -10.737   3.430 -31.957  1.00  0.00     0.189 HD
HETATM   10  C   UNL     1     -12.189   1.424 -33.775  1.00  0.00     0.056 A 
HETATM   11  C   UNL     1     -10.973   0.721 -33.588  1.00  0.00     0.065 A 
BRANCH  10  12
HETATM   12  C   UNL     1     -13.371   1.009 -34.583  1.00  0.00     0.056 C 
HETATM   13  C   UNL     1     -14.620   0.834 -33.733  1.00  0.00     0.011 C 
ENDBRANCH  10  12
ENDBRANCH   3   6
ENDBRANCH   1   2
BRANCH   1  14
HETATM   14  C   UNL     1      -5.787   2.032 -33.025  1.00  0.00    -0.031 A 
HETATM   15  C   UNL     1      -4.595   2.373 -32.365  1.00  0.00     0.012 A 
HETATM   16  C   UNL     1      -3.927   3.561 -32.675  1.00  0.00     0.037 A 
HETATM   17  C   UNL     1      -4.432   4.430 -33.642  1.00  0.00     0.068 A 
HETATM   18  C   UNL     1      -5.603   4.090 -34.320  1.00  0.00     0.037 A 
HETATM   19  C   UNL     1      -6.272   2.898 -34.016  1.00  0.00     0.012 A 
BRANCH  17  20
HETATM   20  O   UNL     1      -3.691   5.562 -33.837  1.00  0.00    -0.356 OA
HETATM   21  C   UNL     1      -2.600   5.463 -34.743  1.00  0.00     0.210 C 
ENDBRANCH  17  20
ENDBRANCH   1  14
BRANCH   1  22
HETATM   22  C   UNL     1      -5.926  -0.512 -33.328  1.00  0.00    -0.031 A 
HETATM   23  C   UNL     1      -4.723  -1.042 -32.821  1.00  0.00     0.009 A 
HETATM   24  C   UNL     1      -4.162  -2.204 -33.356  1.00  0.00     0.001 A 
HETATM   25  C   UNL     1      -4.802  -2.873 -34.395  1.00  0.00     0.000 A 
HETATM   26  C   UNL     1      -6.007  -2.385 -34.891  1.00  0.00     0.001 A 
HETATM   27  C   UNL     1      -6.568  -1.220 -34.359  1.00  0.00     0.009 A 
ENDBRANCH   1  22
TORSDOF 6
ENDMDL
MODEL 5
REMARK VINA RESULT:      -7.7      2.666      5.284
REMARK  6 active torsions:
REMARK  status: ('A' for Active; 'I' for Inactive)
REMARK    1  A    between atoms: C_2  and  C_3 
REMARK    2  A    between atoms: C_7  and  C_8 
REMARK       I    between atoms: C_8  and  N_9 
REMARK    3  A    between atoms: N_9  and  C_10 
REMARK    4  A    between atoms: C_10  and  C_11 
REMARK    5  A    between atoms: C_10  and  C_19 
REMARK    6  A    between atoms: C_14  and  O_15 
ROOT
HETATM    1  C   UNL     1      -5.941   1.710 -32.367  1.00  0.00     0.151 C 
ENDROOT
BRANCH   1   2
HETATM    2  N   UNL     1      -7.268   1.700 -32.959  1.00  0.00    -0.343 N 
HETATM    3  C   UNL     1      -8.352   1.125 -32.349  1.00  0.00     0.270 C 
HETATM    4  O   UNL     1      -8.289   0.569 -31.257  1.00  0.00    -0.266 OA
HETATM    5  H   UNL     1      -7.372   2.139 -33.859  1.00  0.00     0.163 HD
BRANCH   3   6
HETATM    6  C   UNL     1      -9.582   1.208 -33.091  1.00  0.00     0.119 A 
HETATM    7  N   UNL     1     -10.660   0.424 -32.774  1.00  0.00    -0.273 N 
HETATM    8  N   UNL     1     -11.732   0.618 -33.559  1.00  0.00    -0.179 NA
HETATM    9  H   UNL     1     -10.713  -0.264 -32.028  1.00  0.00     0.189 HD
HETATM   10  C   UNL     1     -11.338   1.569 -34.413  1.00  0.00     0.056 A 
HETATM   11  C   UNL     1     -10.002   1.967 -34.166  1.00  0.00     0.065 A 
BRANCH  10  12
HETATM   12  C   UNL     1     -12.268   2.083 -35.459  1.00  0.00     0.056 C 
HETATM   13  C   UNL     1     -12.734   3.502 -35.172  1.00  0.00     0.011 C 
ENDBRANCH  10  12
ENDBRANCH   3   6
ENDBRANCH   1   2
BRANCH   1  14
HETATM   14  C   UNL     1      -5.177   2.889 -32.967  1.00  0.00    -0.031 A 
HETATM   15  C   UNL     1      -5.769   3.743 -33.913  1.00  0.00     0.012 A 
HETATM   16  C   UNL     1      -5.047   4.811 -34.453  1.00  0.00     0.037 A 
HETATM   17  C   UNL     1      -3.728   5.048 -34.065  1.00  0.00     0.068 A 
HETATM   18  C   UNL     1      -3.138   4.220 -33.110  1.00  0.00     0.037 A 
HETATM   19  C   UNL     1      -3.860   3.152 -32.563  1.00  0.00     0.012 A 
BRANCH  17  20
HETATM   20  O   UNL     1      -3.134   6.114 -34.682  1.00  0.00    -0.356 OA
HETATM   21  C   UNL     1      -2.207   6.864 -33.906  1.00  0.00     0.210 C 
ENDBRANCH  17  20
ENDBRANCH   1  14
BRANCH   1  22
HETATM   22  C   UNL     1      -5.221   0.365 -32.511  1.00  0.00    -0.031 A 
HETATM   23  C   UNL     1      -5.344  -0.381 -33.700  1.00  0.00     0.009 A 
HETATM   24  C   UNL     1      -4.672  -1.594 -33.867  1.00  0.00     0.001 A 
HETATM   25  C   UNL     1      -3.845  -2.077 -32.857  1.00  0.00     0.000 A 
HETATM   26  C   UNL     1      -3.684  -1.343 -31.686  1.00  0.00     0.001 A 
HETATM   27  C   UNL     1      -4.360  -0.131 -31.516  1.00  0.00     0.009 A 
ENDBRANCH   1  22
TORSDOF 6
ENDMDL
MODEL 6
REMARK VINA RESULT:      -7.5      3.951      7.633
REMARK  6 active torsions:
REMARK  status: ('A' for Active; 'I' for Inactive)
REMARK    1  A    between atoms: C_2  and  C_3 
REMARK    2  A    between atoms: C_7  and  C_8 
REMARK       I    between atoms: C_8  and  N_9 
REMARK    3  A    between atoms: N_9  and  C_10 
REMARK    4  A    between atoms: C_10  and  C_11 
REMARK    5  A    between atoms: C_10  and  C_19 
REMARK    6  A    between atoms: C_14  and  O_15 
ROOT
HETATM    1  C   UNL     1      -4.413   2.763 -31.740  1.00  0.00     0.151 C 
ENDROOT
BRANCH   1   2
HETATM    2  N   UNL     1      -4.386   1.372 -32.159  1.00  0.00    -0.343 N 
HETATM    3  C   UNL     1      -3.454   0.476 -31.708  1.00  0.00     0.270 C 
HETATM    4  O   UNL     1      -2.564   0.775 -30.918  1.00  0.00    -0.266 OA
HETATM    5  H   UNL     1      -5.093   1.076 -32.812  1.00  0.00     0.163 HD
BRANCH   3   6
HETATM    6  C   UNL     1      -3.583  -0.856 -32.240  1.00  0.00     0.119 A 
HETATM    7  N   UNL     1      -2.978  -1.926 -31.636  1.00  0.00    -0.273 N 
HETATM    8  N   UNL     1      -3.192  -3.099 -32.253  1.00  0.00    -0.179 NA
HETATM    9  H   UNL     1      -2.403  -1.907 -30.799  1.00  0.00     0.189 HD
HETATM   10  C   UNL     1      -3.972  -2.780 -33.291  1.00  0.00     0.056 A 
HETATM   11  C   UNL     1      -4.241  -1.390 -33.330  1.00  0.00     0.065 A 
BRANCH  10  12
HETATM   12  C   UNL     1      -4.451  -3.832 -34.233  1.00  0.00     0.056 C 
HETATM   13  C   UNL     1      -5.562  -3.331 -35.143  1.00  0.00     0.011 C 
ENDBRANCH  10  12
ENDBRANCH   3   6
ENDBRANCH   1   2
BRANCH   1  14
HETATM   14  C   UNL     1      -5.834   3.080 -31.280  1.00  0.00    -0.031 A 
HETATM   15  C   UNL     1      -6.944   2.392 -31.797  1.00  0.00     0.012 A 
HETATM   16  C   UNL     1      -8.236   2.704 -31.365  1.00  0.00     0.037 A 
HETATM   17  C   UNL     1      -8.448   3.704 -30.416  1.00  0.00     0.068 A 
HETATM   18  C   UNL     1      -7.351   4.378 -29.879  1.00  0.00     0.037 A 
HETATM   19  C   UNL     1      -6.054   4.065 -30.305  1.00  0.00     0.012 A 
BRANCH  17  20
HETATM   20  O   UNL     1      -9.759   3.919 -30.094  1.00  0.00    -0.356 OA
HETATM   21  C   UNL     1     -10.701   3.824 -31.156  1.00  0.00     0.210 C 
ENDBRANCH  17  20
ENDBRANCH   1  14
BRANCH   1  22
HETATM   22  C   UNL     1      -3.882   3.713 -32.819  1.00  0.00    -0.031 A 
HETATM   23  C   UNL     1      -2.502   3.978 -32.914  1.00  0.00     0.009 A 
HETATM   24  C   UNL     1      -1.991   4.814 -33.909  1.00  0.00     0.001 A 
HETATM   25  C   UNL     1      -2.847   5.387 -34.845  1.00  0.00     0.000 A 
HETATM   26  C   UNL     1      -4.210   5.116 -34.790  1.00  0.00     0.001 A 
HETATM   27  C   UNL     1      -4.724   4.282 -33.792  1.00  0.00     0.009 A 
ENDBRANCH   1  22
TORSDOF 6
ENDMDL
MODEL 7
REMARK VINA RESULT:      -7.5      4.689      7.745
REMARK  6 active torsions:
REMARK  status: ('A' for Active; 'I' for Inactive)
REMARK    1  A    between atoms: C_2  and  C_3 
REMARK    2  A    between atoms: C_7  and  C_8 
REMARK       I    between atoms: C_8  and  N_9 
REMARK    3  A    between atoms: N_9  and  C_10 
REMARK    4  A    between atoms: C_10  and  C_11 
REMARK    5  A    between atoms: C_10  and  C_19 
REMARK    6  A    between atoms: C_14  and  O_15 
ROOT
HETATM    1  C   UNL     1      -3.683   3.170 -31.591  1.00  0.00     0.151 C 
ENDROOT
BRANCH   1   2
HETATM    2  N   UNL     1      -4.190   1.974 -32.243  1.00  0.00    -0.343 N 
HETATM    3  C   UNL     1      -3.705   0.721 -31.983  1.00  0.00     0.270 C 
HETATM    4  O   UNL     1      -2.800   0.506 -31.182  1.00  0.00    -0.266 OA
HETATM    5  H   UNL     1      -4.929   2.098 -32.915  1.00  0.00     0.163 HD
BRANCH   3   6
HETATM    6  C   UNL     1      -4.326  -0.340 -32.731  1.00  0.00     0.119 A 
HETATM    7  N   UNL     1      -3.656  -1.501 -33.013  1.00  0.00    -0.273 N 
HETATM    8  N   UNL     1      -4.371  -2.392 -33.719  1.00  0.00    -0.179 NA
HETATM    9  H   UNL     1      -2.703  -1.733 -32.747  1.00  0.00     0.189 HD
HETATM   10  C   UNL     1      -5.552  -1.790 -33.895  1.00  0.00     0.056 A 
HETATM   11  C   UNL     1      -5.573  -0.505 -33.301  1.00  0.00     0.065 A 
BRANCH  10  12
HETATM   12  C   UNL     1      -6.650  -2.475 -34.636  1.00  0.00     0.056 C 
HETATM   13  C   UNL     1      -6.354  -3.947 -34.878  1.00  0.00     0.011 C 
ENDBRANCH  10  12
ENDBRANCH   3   6
ENDBRANCH   1   2
BRANCH   1  14
HETATM   14  C   UNL     1      -4.849   3.819 -30.847  1.00  0.00    -0.031 A 
HETATM   15  C   UNL     1      -5.997   3.089 -30.500  1.00  0.00     0.012 A 
HETATM   16  C   UNL     1      -7.054   3.706 -29.826  1.00  0.00     0.037 A 
HETATM   17  C   UNL     1      -6.989   5.058 -29.487  1.00  0.00     0.068 A 
HETATM   18  C   UNL     1      -5.844   5.788 -29.806  1.00  0.00     0.037 A 
HETATM   19  C   UNL     1      -4.781   5.171 -30.478  1.00  0.00     0.012 A 
BRANCH  17  20
HETATM   20  O   UNL     1      -8.096   5.540 -28.845  1.00  0.00    -0.356 OA
HETATM   21  C   UNL     1      -7.941   6.763 -28.136  1.00  0.00     0.210 C 
ENDBRANCH  17  20
ENDBRANCH   1  14
BRANCH   1  22
HETATM   22  C   UNL     1      -2.964   4.112 -32.562  1.00  0.00    -0.031 A 
HETATM   23  C   UNL     1      -3.594   4.514 -33.756  1.00  0.00     0.009 A 
HETATM   24  C   UNL     1      -2.971   5.397 -34.642  1.00  0.00     0.001 A 
HETATM   25  C   UNL     1      -1.715   5.914 -34.342  1.00  0.00     0.000 A 
HETATM   26  C   UNL     1      -1.086   5.555 -33.154  1.00  0.00     0.001 A 
HETATM   27  C   UNL     1      -1.706   4.668 -32.269  1.00  0.00     0.009 A 
ENDBRANCH   1  22
TORSDOF 6
ENDMDL
MODEL 8
REMARK VINA RESULT:      -7.2     14.285     16.438
REMARK  6 active torsions:
REMARK  status: ('A' for Active; 'I' for Inactive)
REMARK    1  A    between atoms: C_2  and  C_3 
REMARK    2  A    between atoms: C_7  and  C_8 
REMARK       I    between atoms: C_8  and  N_9 
REMARK    3  A    between atoms: N_9  and  C_10 
REMARK    4  A    between atoms: C_10  and  C_11 
REMARK    5  A    between atoms: C_10  and  C_19 
REMARK    6  A    between atoms: C_14  and  O_15 
ROOT
HETATM    1  C   UNL     1      -6.439 -13.129 -37.461  1.00  0.00     0.151 C 
ENDROOT
BRANCH   1   2
HETATM    2  N   UNL     1      -5.233 -13.503 -38.180  1.00  0.00    -0.343 N 
HETATM    3  C   UNL     1      -4.010 -12.939 -37.929  1.00  0.00     0.270 C 
HETATM    4  O   UNL     1      -3.835 -12.070 -37.081  1.00  0.00    -0.266 OA
HETATM    5  H   UNL     1      -5.324 -14.208 -38.892  1.00  0.00     0.163 HD
BRANCH   3   6
HETATM    6  C   UNL     1      -2.933 -13.432 -38.747  1.00  0.00     0.119 A 
HETATM    7  N   UNL     1      -3.112 -13.694 -40.078  1.00  0.00    -0.273 N 
HETATM    8  N   UNL     1      -2.013 -14.148 -40.702  1.00  0.00    -0.179 NA
HETATM    9  H   UNL     1      -3.970 -13.583 -40.611  1.00  0.00     0.189 HD
HETATM   10  C   UNL     1      -1.084 -14.173 -39.741  1.00  0.00     0.056 A 
HETATM   11  C   UNL     1      -1.609 -13.740 -38.500  1.00  0.00     0.065 A 
BRANCH  10  12
HETATM   12  C   UNL     1       0.308 -14.616 -40.041  1.00  0.00     0.056 C 
HETATM   13  C   UNL     1       1.205 -14.576 -38.813  1.00  0.00     0.011 C 
ENDBRANCH  10  12
ENDBRANCH   3   6
ENDBRANCH   1   2
BRANCH   1  14
HETATM   14  C   UNL     1      -6.632 -14.135 -36.328  1.00  0.00    -0.031 A 
HETATM   15  C   UNL     1      -6.936 -13.720 -35.021  1.00  0.00     0.012 A 
HETATM   16  C   UNL     1      -7.100 -14.659 -34.000  1.00  0.00     0.037 A 
HETATM   17  C   UNL     1      -6.965 -16.023 -34.257  1.00  0.00     0.068 A 
HETATM   18  C   UNL     1      -6.686 -16.448 -35.556  1.00  0.00     0.037 A 
HETATM   19  C   UNL     1      -6.525 -15.510 -36.584  1.00  0.00     0.012 A 
BRANCH  17  20
HETATM   20  O   UNL     1      -7.135 -16.831 -33.167  1.00  0.00    -0.356 OA
HETATM   21  C   UNL     1      -6.465 -16.444 -31.975  1.00  0.00     0.210 C 
ENDBRANCH  17  20
ENDBRANCH   1  14
BRANCH   1  22
HETATM   22  C   UNL     1      -7.655 -12.989 -38.383  1.00  0.00    -0.031 A 
HETATM   23  C   UNL     1      -7.538 -12.311 -39.612  1.00  0.00     0.009 A 
HETATM   24  C   UNL     1      -8.624 -12.198 -40.484  1.00  0.00     0.001 A 
HETATM   25  C   UNL     1      -9.844 -12.781 -40.155  1.00  0.00     0.000 A 
HETATM   26  C   UNL     1      -9.975 -13.482 -38.961  1.00  0.00     0.001 A 
HETATM   27  C   UNL     1      -8.891 -13.592 -38.086  1.00  0.00     0.009 A 
ENDBRANCH   1  22
TORSDOF 6
ENDMDL
MODEL 9
REMARK VINA RESULT:      -7.2      2.418      7.387
REMARK  6 active torsions:
REMARK  status: ('A' for Active; 'I' for Inactive)
REMARK    1  A    between atoms: C_2  and  C_3 
REMARK    2  A    between atoms: C_7  and  C_8 
REMARK       I    between atoms: C_8  and  N_9 
REMARK    3  A    between atoms: N_9  and  C_10 
REMARK    4  A    between atoms: C_10  and  C_11 
REMARK    5  A    between atoms: C_10  and  C_19 
REMARK    6  A    between atoms: C_14  and  O_15 
ROOT
HETATM    1  C   UNL     1      -8.772   1.586 -33.607  1.00  0.00     0.151 C 
ENDROOT
BRANCH   1   2
HETATM    2  N   UNL     1      -7.921   0.407 -33.629  1.00  0.00    -0.343 N 
HETATM    3  C   UNL     1      -7.168   0.051 -34.716  1.00  0.00     0.270 C 
HETATM    4  O   UNL     1      -7.154   0.694 -35.760  1.00  0.00    -0.266 OA
HETATM    5  H   UNL     1      -7.903  -0.160 -32.797  1.00  0.00     0.163 HD
BRANCH   3   6
HETATM    6  C   UNL     1      -6.395  -1.152 -34.553  1.00  0.00     0.119 A 
HETATM    7  N   UNL     1      -5.150  -1.128 -33.984  1.00  0.00    -0.273 N 
HETATM    8  N   UNL     1      -4.558  -2.330 -33.903  1.00  0.00    -0.179 NA
HETATM    9  H   UNL     1      -4.657  -0.311 -33.634  1.00  0.00     0.189 HD
HETATM   10  C   UNL     1      -5.455  -3.168 -34.433  1.00  0.00     0.056 A 
HETATM   11  C   UNL     1      -6.618  -2.481 -34.859  1.00  0.00     0.065 A 
BRANCH  10  12
HETATM   12  C   UNL     1      -5.173  -4.630 -34.517  1.00  0.00     0.056 C 
HETATM   13  C   UNL     1      -3.936  -5.026 -33.726  1.00  0.00     0.011 C 
ENDBRANCH  10  12
ENDBRANCH   3   6
ENDBRANCH   1   2
BRANCH   1  14
HETATM   14  C   UNL     1      -8.449   2.364 -32.333  1.00  0.00    -0.031 A 
HETATM   15  C   UNL     1      -7.130   2.711 -31.998  1.00  0.00     0.012 A 
HETATM   16  C   UNL     1      -6.859   3.417 -30.824  1.00  0.00     0.037 A 
HETATM   17  C   UNL     1      -7.892   3.789 -29.962  1.00  0.00     0.068 A 
HETATM   18  C   UNL     1      -9.208   3.470 -30.296  1.00  0.00     0.037 A 
HETATM   19  C   UNL     1      -9.484   2.767 -31.475  1.00  0.00     0.012 A 
BRANCH  17  20
HETATM   20  O   UNL     1      -7.488   4.461 -28.842  1.00  0.00    -0.356 OA
HETATM   21  C   UNL     1      -7.845   5.835 -28.758  1.00  0.00     0.210 C 
ENDBRANCH  17  20
ENDBRANCH   1  14
BRANCH   1  22
HETATM   22  C   UNL     1     -10.257   1.244 -33.769  1.00  0.00    -0.031 A 
HETATM   23  C   UNL     1     -11.073   2.016 -34.619  1.00  0.00     0.009 A 
HETATM   24  C   UNL     1     -12.422   1.705 -34.807  1.00  0.00     0.001 A 
HETATM   25  C   UNL     1     -12.977   0.601 -34.168  1.00  0.00     0.000 A 
HETATM   26  C   UNL     1     -12.184  -0.195 -33.348  1.00  0.00     0.001 A 
HETATM   27  C   UNL     1     -10.835   0.118 -33.155  1.00  0.00     0.009 A 
ENDBRANCH   1  22
TORSDOF 6
ENDMDL
MODEL 10
REMARK VINA RESULT:      -7.0      3.580      6.735
REMARK  6 active torsions:
REMARK  status: ('A' for Active; 'I' for Inactive)
REMARK    1  A    between atoms: C_2  and  C_3 
REMARK    2  A    between atoms: C_7  and  C_8 
REMARK       I    between atoms: C_8  and  N_9 
REMARK    3  A    between atoms: N_9  and  C_10 
REMARK    4  A    between atoms: C_10  and  C_11 
REMARK    5  A    between atoms: C_10  and  C_19 
REMARK    6  A    between atoms: C_14  and  O_15 
ROOT
HETATM    1  C   UNL     1      -6.196   3.095 -33.446  1.00  0.00     0.151 C 
ENDROOT
BRANCH   1   2
HETATM    2  N   UNL     1      -5.813   1.697 -33.553  1.00  0.00    -0.343 N 
HETATM    3  C   UNL     1      -6.521   0.785 -34.289  1.00  0.00     0.270 C 
HETATM    4  O   UNL     1      -7.538   1.072 -34.914  1.00  0.00    -0.266 OA
HETATM    5  H   UNL     1      -4.989   1.409 -33.053  1.00  0.00     0.163 HD
BRANCH   3   6
HETATM    6  C   UNL     1      -5.994  -0.554 -34.270  1.00  0.00     0.119 A 
HETATM    7  N   UNL     1      -4.749  -0.822 -33.765  1.00  0.00    -0.273 N 
HETATM    8  N   UNL     1      -4.401  -2.118 -33.819  1.00  0.00    -0.179 NA
HETATM    9  H   UNL     1      -4.094  -0.152 -33.373  1.00  0.00     0.189 HD
HETATM   10  C   UNL     1      -5.463  -2.714 -34.372  1.00  0.00     0.056 A 
HETATM   11  C   UNL     1      -6.482  -1.780 -34.677  1.00  0.00     0.065 A 
BRANCH  10  12
HETATM   12  C   UNL     1      -5.476  -4.189 -34.595  1.00  0.00     0.056 C 
HETATM   13  C   UNL     1      -6.611  -4.626 -35.508  1.00  0.00     0.011 C 
ENDBRANCH  10  12
ENDBRANCH   3   6
ENDBRANCH   1   2
BRANCH   1  14
HETATM   14  C   UNL     1      -4.920   3.909 -33.242  1.00  0.00    -0.031 A 
HETATM   15  C   UNL     1      -4.841   5.259 -33.621  1.00  0.00     0.012 A 
HETATM   16  C   UNL     1      -3.660   5.981 -33.431  1.00  0.00     0.037 A 
HETATM   17  C   UNL     1      -2.538   5.375 -32.863  1.00  0.00     0.068 A 
HETATM   18  C   UNL     1      -2.613   4.042 -32.462  1.00  0.00     0.037 A 
HETATM   19  C   UNL     1      -3.796   3.316 -32.646  1.00  0.00     0.012 A 
BRANCH  17  20
HETATM   20  O   UNL     1      -1.445   6.189 -32.749  1.00  0.00    -0.356 OA
HETATM   21  C   UNL     1      -0.473   5.819 -31.779  1.00  0.00     0.210 C 
ENDBRANCH  17  20
ENDBRANCH   1  14
BRANCH   1  22
HETATM   22  C   UNL     1      -7.265   3.334 -32.374  1.00  0.00    -0.031 A 
HETATM   23  C   UNL     1      -8.506   3.900 -32.724  1.00  0.00     0.009 A 
HETATM   24  C   UNL     1      -9.508   4.096 -31.770  1.00  0.00     0.001 A 
HETATM   25  C   UNL     1      -9.297   3.711 -30.450  1.00  0.00     0.000 A 
HETATM   26  C   UNL     1      -8.091   3.121 -30.086  1.00  0.00     0.001 A 
HETATM   27  C   UNL     1      -7.086   2.928 -31.039  1.00  0.00     0.009 A 
ENDBRANCH   1  22
TORSDOF 6
ENDMDL
