MODEL 1
REMARK VINA RESULT:      -8.8      0.000      0.000
REMARK  4 active torsions:
REMARK  status: ('A' for Active; 'I' for Inactive)
REMARK    1  A    between atoms: N_2  and  C_3 
REMARK    2  A    between atoms: C_5  and  C_6 
REMARK    3  A    between atoms: C_6  and  C_7 
REMARK    4  A    between atoms: C_14  and  O_15 
ROOT
HETATM    1  C   UNL     1      -4.425  -1.472 -33.522  1.00  0.00     0.113 A 
HETATM    2  N   UNL     1      -5.228  -0.398 -33.652  1.00  0.00    -0.223 NA
HETATM    3  C   UNL     1      -6.400  -0.539 -34.326  1.00  0.00     0.106 A 
HETATM    4  N   UNL     1      -6.794  -1.694 -34.888  1.00  0.00    -0.347 N 
HETATM    5  H   UNL     1      -7.662  -1.727 -35.426  1.00  0.00     0.167 HD
HETATM    6  C   UNL     1      -6.010  -2.758 -34.749  1.00  0.00     0.020 A 
HETATM    7  C   UNL     1      -4.812  -2.679 -34.060  1.00  0.00     0.005 A 
HETATM    8  C   UNL     1      -4.117  -4.003 -34.065  1.00  0.00     0.044 C 
HETATM    9  C   UNL     1      -5.266  -4.945 -34.470  1.00  0.00     0.011 C 
HETATM   10  C   UNL     1      -6.248  -4.120 -35.316  1.00  0.00     0.058 C 
ENDROOT
BRANCH   3  11
HETATM   11  C   UNL     1      -7.275   0.668 -34.495  1.00  0.00     0.085 C 
BRANCH  11  12
HETATM   12  C   UNL     1      -7.747   1.280 -33.154  1.00  0.00     0.021 C 
HETATM   13  C   UNL     1      -8.338   2.685 -33.293  1.00  0.00     0.181 C 
HETATM   14  O   UNL     1      -9.334   2.695 -34.327  1.00  0.00    -0.350 OA
HETATM   15  C   UNL     1     -10.354   1.805 -34.056  1.00  0.00     0.077 A 
HETATM   16  C   UNL     1     -10.173   0.680 -33.234  1.00  0.00    -0.024 A 
HETATM   17  C   UNL     1     -11.577   2.043 -34.689  1.00  0.00     0.074 A 
HETATM   18  C   UNL     1      -8.855   0.407 -32.553  1.00  0.00     0.048 C 
HETATM   19  C   UNL     1     -11.250  -0.187 -33.028  1.00  0.00     0.012 A 
HETATM   20  C   UNL     1     -12.473   0.059 -33.652  1.00  0.00     0.037 A 
HETATM   21  C   UNL     1     -12.646   1.171 -34.479  1.00  0.00     0.070 A 
BRANCH  21  22
HETATM   22  O   UNL     1     -13.894   1.281 -35.024  1.00  0.00    -0.356 OA
HETATM   23  C   UNL     1     -14.987   0.799 -34.255  1.00  0.00     0.210 C 
ENDBRANCH  21  22
ENDBRANCH  11  12
ENDBRANCH   3  11
BRANCH   1  24
HETATM   24  N   UNL     1      -3.253  -1.391 -32.778  1.00  0.00    -0.281 NA
HETATM   25  C   UNL     1      -3.266  -0.470 -31.651  1.00  0.00     0.114 C 
HETATM   26  H   UNL     1      -2.433  -1.257 -33.366  1.00  0.00     0.128 HD
ENDBRANCH   1  24
TORSDOF 4
ENDMDL
MODEL 2
REMARK VINA RESULT:      -8.5      3.189      7.774
REMARK  4 active torsions:
REMARK  status: ('A' for Active; 'I' for Inactive)
REMARK    1  A    between atoms: N_2  and  C_3 
REMARK    2  A    between atoms: C_5  and  C_6 
REMARK    3  A    between atoms: C_6  and  C_7 
REMARK    4  A    between atoms: C_14  and  O_15 
ROOT
HETATM    1  C   UNL     1     -11.803   2.958 -33.140  1.00  0.00     0.113 A 
HETATM    2  N   UNL     1     -10.499   2.626 -33.074  1.00  0.00    -0.223 NA
HETATM    3  C   UNL     1     -10.151   1.320 -33.222  1.00  0.00     0.106 A 
HETATM    4  N   UNL     1     -11.045   0.335 -33.413  1.00  0.00    -0.347 N 
HETATM    5  H   UNL     1     -10.727  -0.635 -33.467  1.00  0.00     0.167 HD
HETATM    6  C   UNL     1     -12.331   0.662 -33.491  1.00  0.00     0.020 A 
HETATM    7  C   UNL     1     -12.743   1.978 -33.364  1.00  0.00     0.005 A 
HETATM    8  C   UNL     1     -14.232   2.072 -33.471  1.00  0.00     0.044 C 
HETATM    9  C   UNL     1     -14.575   0.709 -34.104  1.00  0.00     0.011 C 
HETATM   10  C   UNL     1     -13.479  -0.277 -33.670  1.00  0.00     0.058 C 
ENDROOT
BRANCH   3  11
HETATM   11  C   UNL     1      -8.700   0.953 -33.117  1.00  0.00     0.085 C 
BRANCH  11  12
HETATM   12  C   UNL     1      -7.890   1.267 -34.397  1.00  0.00     0.021 C 
HETATM   13  C   UNL     1      -6.490   1.818 -34.120  1.00  0.00     0.181 C 
HETATM   14  O   UNL     1      -5.807   0.967 -33.186  1.00  0.00    -0.350 OA
HETATM   15  C   UNL     1      -5.694  -0.322 -33.665  1.00  0.00     0.077 A 
HETATM   16  C   UNL     1      -6.582  -0.854 -34.614  1.00  0.00    -0.024 A 
HETATM   17  C   UNL     1      -4.676  -1.107 -33.116  1.00  0.00     0.074 A 
HETATM   18  C   UNL     1      -7.691  -0.020 -35.208  1.00  0.00     0.048 C 
HETATM   19  C   UNL     1      -6.415  -2.177 -35.031  1.00  0.00     0.012 A 
HETATM   20  C   UNL     1      -5.392  -2.956 -34.489  1.00  0.00     0.037 A 
HETATM   21  C   UNL     1      -4.518  -2.428 -33.536  1.00  0.00     0.070 A 
BRANCH  21  22
HETATM   22  O   UNL     1      -3.569  -3.306 -33.093  1.00  0.00    -0.356 OA
HETATM   23  C   UNL     1      -3.547  -4.597 -33.685  1.00  0.00     0.210 C 
ENDBRANCH  21  22
ENDBRANCH  11  12
ENDBRANCH   3  11
BRANCH   1  24
HETATM   24  N   UNL     1     -12.197   4.289 -33.068  1.00  0.00    -0.281 NA
HETATM   25  C   UNL     1     -12.067   5.069 -34.290  1.00  0.00     0.114 C 
HETATM   26  H   UNL     1     -11.786   4.769 -32.269  1.00  0.00     0.128 HD
ENDBRANCH   1  24
TORSDOF 4
ENDMDL
MODEL 3
REMARK VINA RESULT:      -8.3      1.336      1.741
REMARK  4 active torsions:
REMARK  status: ('A' for Active; 'I' for Inactive)
REMARK    1  A    between atoms: N_2  and  C_3 
REMARK    2  A    between atoms: C_5  and  C_6 
REMARK    3  A    between atoms: C_6  and  C_7 
REMARK    4  A    between atoms: C_14  and  O_15 
ROOT
HETATM    1  C   UNL     1      -4.666  -1.365 -33.749  1.00  0.00     0.113 A 
HETATM    2  N   UNL     1      -5.697  -0.504 -33.850  1.00  0.00    -0.223 NA
HETATM    3  C   UNL     1      -6.886  -0.964 -34.320  1.00  0.00     0.106 A 
HETATM    4  N   UNL     1      -7.085  -2.235 -34.708  1.00  0.00    -0.347 N 
HETATM    5  H   UNL     1      -7.987  -2.512 -35.100  1.00  0.00     0.167 HD
HETATM    6  C   UNL     1      -6.073  -3.090 -34.596  1.00  0.00     0.020 A 
HETATM    7  C   UNL     1      -4.843  -2.682 -34.110  1.00  0.00     0.005 A 
HETATM    8  C   UNL     1      -3.878  -3.824 -34.103  1.00  0.00     0.044 C 
HETATM    9  C   UNL     1      -4.833  -5.026 -34.239  1.00  0.00     0.011 C 
HETATM   10  C   UNL     1      -6.076  -4.530 -34.994  1.00  0.00     0.058 C 
ENDROOT
BRANCH   3  11
HETATM   11  C   UNL     1      -8.022   0.007 -34.460  1.00  0.00     0.085 C 
BRANCH  11  12
HETATM   12  C   UNL     1      -8.591   0.490 -33.105  1.00  0.00     0.021 C 
HETATM   13  C   UNL     1      -8.316   1.966 -32.812  1.00  0.00     0.181 C 
HETATM   14  O   UNL     1      -8.713   2.768 -33.935  1.00  0.00    -0.350 OA
HETATM   15  C   UNL     1     -10.054   2.611 -34.221  1.00  0.00     0.077 A 
HETATM   16  C   UNL     1     -10.769   1.455 -33.868  1.00  0.00    -0.024 A 
HETATM   17  C   UNL     1     -10.665   3.643 -34.938  1.00  0.00     0.074 A 
HETATM   18  C   UNL     1     -10.117   0.330 -33.102  1.00  0.00     0.048 C 
HETATM   19  C   UNL     1     -12.119   1.362 -34.215  1.00  0.00     0.012 A 
HETATM   20  C   UNL     1     -12.731   2.398 -34.921  1.00  0.00     0.037 A 
HETATM   21  C   UNL     1     -12.014   3.540 -35.283  1.00  0.00     0.070 A 
BRANCH  21  22
HETATM   22  O   UNL     1     -12.741   4.469 -35.973  1.00  0.00    -0.356 OA
HETATM   23  C   UNL     1     -13.103   5.658 -35.286  1.00  0.00     0.210 C 
ENDBRANCH  21  22
ENDBRANCH  11  12
ENDBRANCH   3  11
BRANCH   1  24
HETATM   24  N   UNL     1      -3.454  -0.954 -33.205  1.00  0.00    -0.281 NA
HETATM   25  C   UNL     1      -3.362  -0.962 -31.753  1.00  0.00     0.114 C 
HETATM   26  H   UNL     1      -3.136  -0.071 -33.599  1.00  0.00     0.128 HD
ENDBRANCH   1  24
TORSDOF 4
ENDMDL
MODEL 4
REMARK VINA RESULT:      -7.8      4.720      7.267
REMARK  4 active torsions:
REMARK  status: ('A' for Active; 'I' for Inactive)
REMARK    1  A    between atoms: N_2  and  C_3 
REMARK    2  A    between atoms: C_5  and  C_6 
REMARK    3  A    between atoms: C_6  and  C_7 
REMARK    4  A    between atoms: C_14  and  O_15 
ROOT
HETATM    1  C   UNL     1      -2.733   5.196 -31.300  1.00  0.00     0.113 A 
HETATM    2  N   UNL     1      -3.752   4.347 -31.060  1.00  0.00    -0.223 NA
HETATM    3  C   UNL     1      -4.348   3.732 -32.115  1.00  0.00     0.106 A 
HETATM    4  N   UNL     1      -3.986   3.938 -33.392  1.00  0.00    -0.347 N 
HETATM    5  H   UNL     1      -4.505   3.485 -34.147  1.00  0.00     0.167 HD
HETATM    6  C   UNL     1      -2.972   4.765 -33.630  1.00  0.00     0.020 A 
HETATM    7  C   UNL     1      -2.317   5.409 -32.594  1.00  0.00     0.005 A 
HETATM    8  C   UNL     1      -1.234   6.291 -33.129  1.00  0.00     0.044 C 
HETATM    9  C   UNL     1      -1.075   5.739 -34.559  1.00  0.00     0.011 C 
HETATM   10  C   UNL     1      -2.434   5.152 -34.969  1.00  0.00     0.058 C 
ENDROOT
BRANCH   3  11
HETATM   11  C   UNL     1      -5.502   2.811 -31.844  1.00  0.00     0.085 C 
BRANCH  11  12
HETATM   12  C   UNL     1      -5.169   1.681 -30.841  1.00  0.00     0.021 C 
HETATM   13  C   UNL     1      -6.379   0.834 -30.443  1.00  0.00     0.181 C 
HETATM   14  O   UNL     1      -7.070   0.388 -31.621  1.00  0.00    -0.350 OA
HETATM   15  C   UNL     1      -6.248  -0.360 -32.438  1.00  0.00     0.077 A 
HETATM   16  C   UNL     1      -4.849  -0.226 -32.426  1.00  0.00    -0.024 A 
HETATM   17  C   UNL     1      -6.878  -1.229 -33.333  1.00  0.00     0.074 A 
HETATM   18  C   UNL     1      -4.158   0.716 -31.472  1.00  0.00     0.048 C 
HETATM   19  C   UNL     1      -4.088  -1.004 -33.302  1.00  0.00     0.012 A 
HETATM   20  C   UNL     1      -4.718  -1.879 -34.187  1.00  0.00     0.037 A 
HETATM   21  C   UNL     1      -6.110  -2.000 -34.206  1.00  0.00     0.070 A 
BRANCH  21  22
HETATM   22  O   UNL     1      -6.586  -2.892 -35.125  1.00  0.00    -0.356 OA
HETATM   23  C   UNL     1      -6.678  -4.253 -34.727  1.00  0.00     0.210 C 
ENDBRANCH  21  22
ENDBRANCH  11  12
ENDBRANCH   3  11
BRANCH   1  24
HETATM   24  N   UNL     1      -2.048   5.791 -30.246  1.00  0.00    -0.281 NA
HETATM   25  C   UNL     1      -2.641   6.997 -29.689  1.00  0.00     0.114 C 
HETATM   26  H   UNL     1      -1.059   5.916 -30.453  1.00  0.00     0.128 HD
ENDBRANCH   1  24
TORSDOF 4
ENDMDL
MODEL 5
REMARK VINA RESULT:      -7.8      4.859      7.939
REMARK  4 active torsions:
REMARK  status: ('A' for Active; 'I' for Inactive)
REMARK    1  A    between atoms: N_2  and  C_3 
REMARK    2  A    between atoms: C_5  and  C_6 
REMARK    3  A    between atoms: C_6  and  C_7 
REMARK    4  A    between atoms: C_14  and  O_15 
ROOT
HETATM    1  C   UNL     1      -7.691   0.845 -34.302  1.00  0.00     0.113 A 
HETATM    2  N   UNL     1      -7.300   2.047 -33.833  1.00  0.00    -0.223 NA
HETATM    3  C   UNL     1      -6.077   2.151 -33.249  1.00  0.00     0.106 A 
HETATM    4  N   UNL     1      -5.240   1.111 -33.098  1.00  0.00    -0.347 N 
HETATM    5  H   UNL     1      -4.353   1.240 -32.606  1.00  0.00     0.167 HD
HETATM    6  C   UNL     1      -5.618  -0.072 -33.572  1.00  0.00     0.020 A 
HETATM    7  C   UNL     1      -6.846  -0.235 -34.190  1.00  0.00     0.005 A 
HETATM    8  C   UNL     1      -7.033  -1.657 -34.613  1.00  0.00     0.044 C 
HETATM    9  C   UNL     1      -5.587  -2.185 -34.545  1.00  0.00     0.011 C 
HETATM   10  C   UNL     1      -4.853  -1.353 -33.482  1.00  0.00     0.058 C 
ENDROOT
BRANCH   3  11
HETATM   11  C   UNL     1      -5.660   3.484 -32.702  1.00  0.00     0.085 C 
BRANCH  11  12
HETATM   12  C   UNL     1      -5.919   4.660 -33.674  1.00  0.00     0.021 C 
HETATM   13  C   UNL     1      -6.048   6.017 -32.979  1.00  0.00     0.181 C 
HETATM   14  O   UNL     1      -4.934   6.220 -32.096  1.00  0.00    -0.350 OA
HETATM   15  C   UNL     1      -3.734   6.177 -32.776  1.00  0.00     0.077 A 
HETATM   16  C   UNL     1      -3.580   5.486 -33.989  1.00  0.00    -0.024 A 
HETATM   17  C   UNL     1      -2.647   6.812 -32.168  1.00  0.00     0.074 A 
HETATM   18  C   UNL     1      -4.742   4.788 -34.650  1.00  0.00     0.048 C 
HETATM   19  C   UNL     1      -2.325   5.470 -34.603  1.00  0.00     0.012 A 
HETATM   20  C   UNL     1      -1.244   6.114 -34.001  1.00  0.00     0.037 A 
HETATM   21  C   UNL     1      -1.398   6.789 -32.787  1.00  0.00     0.070 A 
BRANCH  21  22
HETATM   22  O   UNL     1      -0.254   7.369 -32.316  1.00  0.00    -0.356 OA
HETATM   23  C   UNL     1       0.397   6.735 -31.223  1.00  0.00     0.210 C 
ENDBRANCH  21  22
ENDBRANCH  11  12
ENDBRANCH   3  11
BRANCH   1  24
HETATM   24  N   UNL     1      -8.902   0.710 -34.972  1.00  0.00    -0.281 NA
HETATM   25  C   UNL     1     -10.088   1.162 -34.260  1.00  0.00     0.114 C 
HETATM   26  H   UNL     1      -9.026  -0.224 -35.356  1.00  0.00     0.128 HD
ENDBRANCH   1  24
TORSDOF 4
ENDMDL
MODEL 6
REMARK VINA RESULT:      -7.6      5.315      8.624
REMARK  4 active torsions:
REMARK  status: ('A' for Active; 'I' for Inactive)
REMARK    1  A    between atoms: N_2  and  C_3 
REMARK    2  A    between atoms: C_5  and  C_6 
REMARK    3  A    between atoms: C_6  and  C_7 
REMARK    4  A    between atoms: C_14  and  O_15 
ROOT
HETATM    1  C   UNL     1      -4.455  -0.494 -33.135  1.00  0.00     0.113 A 
HETATM    2  N   UNL     1      -3.879   0.559 -32.521  1.00  0.00    -0.223 NA
HETATM    3  C   UNL     1      -4.470   1.778 -32.628  1.00  0.00     0.106 A 
HETATM    4  N   UNL     1      -5.595   1.995 -33.331  1.00  0.00    -0.347 N 
HETATM    5  H   UNL     1      -5.965   2.943 -33.416  1.00  0.00     0.167 HD
HETATM    6  C   UNL     1      -6.172   0.956 -33.926  1.00  0.00     0.020 A 
HETATM    7  C   UNL     1      -5.624  -0.313 -33.839  1.00  0.00     0.005 A 
HETATM    8  C   UNL     1      -6.452  -1.293 -34.607  1.00  0.00     0.044 C 
HETATM    9  C   UNL     1      -7.766  -0.508 -34.781  1.00  0.00     0.011 C 
HETATM   10  C   UNL     1      -7.403   0.985 -34.773  1.00  0.00     0.058 C 
ENDROOT
BRANCH   3  11
HETATM   11  C   UNL     1      -3.807   2.952 -31.968  1.00  0.00     0.085 C 
BRANCH  11  12
HETATM   12  C   UNL     1      -3.712   4.199 -32.878  1.00  0.00     0.021 C 
HETATM   13  C   UNL     1      -4.279   5.470 -32.242  1.00  0.00     0.181 C 
HETATM   14  O   UNL     1      -3.716   5.653 -30.934  1.00  0.00    -0.350 OA
HETATM   15  C   UNL     1      -2.340   5.752 -30.984  1.00  0.00     0.077 A 
HETATM   16  C   UNL     1      -1.582   5.196 -32.027  1.00  0.00    -0.024 A 
HETATM   17  C   UNL     1      -1.719   6.390 -29.906  1.00  0.00     0.074 A 
HETATM   18  C   UNL     1      -2.240   4.496 -33.191  1.00  0.00     0.048 C 
HETATM   19  C   UNL     1      -0.191   5.318 -31.993  1.00  0.00     0.012 A 
HETATM   20  C   UNL     1       0.427   5.965 -30.922  1.00  0.00     0.037 A 
HETATM   21  C   UNL     1      -0.329   6.506 -29.879  1.00  0.00     0.070 A 
BRANCH  21  22
HETATM   22  O   UNL     1       0.410   7.106 -28.899  1.00  0.00    -0.356 OA
HETATM   23  C   UNL     1       0.189   6.681 -27.561  1.00  0.00     0.210 C 
ENDBRANCH  21  22
ENDBRANCH  11  12
ENDBRANCH   3  11
BRANCH   1  24
HETATM   24  N   UNL     1      -3.925  -1.771 -32.991  1.00  0.00    -0.281 NA
HETATM   25  C   UNL     1      -3.080  -1.993 -31.827  1.00  0.00     0.114 C 
HETATM   26  H   UNL     1      -3.484  -2.102 -33.846  1.00  0.00     0.128 HD
ENDBRANCH   1  24
TORSDOF 4
ENDMDL
MODEL 7
REMARK VINA RESULT:      -7.5      4.841      7.976
REMARK  4 active torsions:
REMARK  status: ('A' for Active; 'I' for Inactive)
REMARK    1  A    between atoms: N_2  and  C_3 
REMARK    2  A    between atoms: C_5  and  C_6 
REMARK    3  A    between atoms: C_6  and  C_7 
REMARK    4  A    between atoms: C_14  and  O_15 
ROOT
HETATM    1  C   UNL     1      -1.863   5.219 -31.598  1.00  0.00     0.113 A 
HETATM    2  N   UNL     1      -2.081   3.953 -32.003  1.00  0.00    -0.223 NA
HETATM    3  C   UNL     1      -3.304   3.402 -31.784  1.00  0.00     0.106 A 
HETATM    4  N   UNL     1      -4.307   4.049 -31.167  1.00  0.00    -0.347 N 
HETATM    5  H   UNL     1      -5.189   3.565 -30.986  1.00  0.00     0.167 HD
HETATM    6  C   UNL     1      -4.097   5.303 -30.778  1.00  0.00     0.020 A 
HETATM    7  C   UNL     1      -2.877   5.922 -30.988  1.00  0.00     0.005 A 
HETATM    8  C   UNL     1      -2.897   7.315 -30.444  1.00  0.00     0.044 C 
HETATM    9  C   UNL     1      -4.411   7.556 -30.288  1.00  0.00     0.011 C 
HETATM   10  C   UNL     1      -5.063   6.184 -30.054  1.00  0.00     0.058 C 
ENDROOT
BRANCH   3  11
HETATM   11  C   UNL     1      -3.532   1.981 -32.210  1.00  0.00     0.085 C 
BRANCH  11  12
HETATM   12  C   UNL     1      -4.295   1.137 -31.161  1.00  0.00     0.021 C 
HETATM   13  C   UNL     1      -5.785   0.973 -31.468  1.00  0.00     0.181 C 
HETATM   14  O   UNL     1      -5.957   0.524 -32.821  1.00  0.00    -0.350 OA
HETATM   15  C   UNL     1      -5.320  -0.680 -33.041  1.00  0.00     0.077 A 
HETATM   16  C   UNL     1      -4.224  -1.103 -32.272  1.00  0.00    -0.024 A 
HETATM   17  C   UNL     1      -5.783  -1.446 -34.114  1.00  0.00     0.074 A 
HETATM   18  C   UNL     1      -3.709  -0.280 -31.117  1.00  0.00     0.048 C 
HETATM   19  C   UNL     1      -3.618  -2.325 -32.573  1.00  0.00     0.012 A 
HETATM   20  C   UNL     1      -4.088  -3.094 -33.637  1.00  0.00     0.037 A 
HETATM   21  C   UNL     1      -5.170  -2.664 -34.409  1.00  0.00     0.070 A 
BRANCH  21  22
HETATM   22  O   UNL     1      -5.518  -3.517 -35.419  1.00  0.00    -0.356 OA
HETATM   23  C   UNL     1      -6.621  -4.384 -35.191  1.00  0.00     0.210 C 
ENDBRANCH  21  22
ENDBRANCH  11  12
ENDBRANCH   3  11
BRANCH   1  24
HETATM   24  N   UNL     1      -0.651   5.846 -31.867  1.00  0.00    -0.281 NA
HETATM   25  C   UNL     1       0.403   5.666 -30.879  1.00  0.00     0.114 C 
HETATM   26  H   UNL     1      -0.772   6.826 -32.115  1.00  0.00     0.128 HD
ENDBRANCH   1  24
TORSDOF 4
ENDMDL
MODEL 8
REMARK VINA RESULT:      -7.4      5.544      8.933
REMARK  4 active torsions:
REMARK  status: ('A' for Active; 'I' for Inactive)
REMARK    1  A    between atoms: N_2  and  C_3 
REMARK    2  A    between atoms: C_5  and  C_6 
REMARK    3  A    between atoms: C_6  and  C_7 
REMARK    4  A    between atoms: C_14  and  O_15 
ROOT
HETATM    1  C   UNL     1      -6.534   1.213 -32.559  1.00  0.00     0.113 A 
HETATM    2  N   UNL     1      -5.665   2.180 -32.202  1.00  0.00    -0.223 NA
HETATM    3  C   UNL     1      -4.333   1.928 -32.302  1.00  0.00     0.106 A 
HETATM    4  N   UNL     1      -3.833   0.754 -32.724  1.00  0.00    -0.347 N 
HETATM    5  H   UNL     1      -2.822   0.605 -32.731  1.00  0.00     0.167 HD
HETATM    6  C   UNL     1      -4.689  -0.196 -33.089  1.00  0.00     0.020 A 
HETATM    7  C   UNL     1      -6.056   0.009 -33.023  1.00  0.00     0.005 A 
HETATM    8  C   UNL     1      -6.790  -1.215 -33.470  1.00  0.00     0.044 C 
HETATM    9  C   UNL     1      -5.675  -1.984 -34.204  1.00  0.00     0.011 C 
HETATM   10  C   UNL     1      -4.343  -1.573 -33.557  1.00  0.00     0.058 C 
ENDROOT
BRANCH   3  11
HETATM   11  C   UNL     1      -3.371   2.997 -31.874  1.00  0.00     0.085 C 
BRANCH  11  12
HETATM   12  C   UNL     1      -3.318   4.203 -32.841  1.00  0.00     0.021 C 
HETATM   13  C   UNL     1      -4.051   5.442 -32.320  1.00  0.00     0.181 C 
HETATM   14  O   UNL     1      -3.616   5.740 -30.985  1.00  0.00    -0.350 OA
HETATM   15  C   UNL     1      -2.256   5.970 -30.934  1.00  0.00     0.077 A 
HETATM   16  C   UNL     1      -1.367   5.441 -31.885  1.00  0.00    -0.024 A 
HETATM   17  C   UNL     1      -1.787   6.715 -29.849  1.00  0.00     0.074 A 
HETATM   18  C   UNL     1      -1.860   4.627 -33.055  1.00  0.00     0.048 C 
HETATM   19  C   UNL     1      -0.001   5.700 -31.750  1.00  0.00     0.012 A 
HETATM   20  C   UNL     1       0.465   6.453 -30.672  1.00  0.00     0.037 A 
HETATM   21  C   UNL     1      -0.421   6.967 -29.721  1.00  0.00     0.070 A 
BRANCH  21  22
HETATM   22  O   UNL     1       0.177   7.681 -28.722  1.00  0.00    -0.356 OA
HETATM   23  C   UNL     1       0.806   6.947 -27.680  1.00  0.00     0.210 C 
ENDBRANCH  21  22
ENDBRANCH  11  12
ENDBRANCH   3  11
BRANCH   1  24
HETATM   24  N   UNL     1      -7.903   1.454 -32.541  1.00  0.00    -0.281 NA
HETATM   25  C   UNL     1      -8.448   2.169 -33.685  1.00  0.00     0.114 C 
HETATM   26  H   UNL     1      -8.210   1.860 -31.660  1.00  0.00     0.128 HD
ENDBRANCH   1  24
TORSDOF 4
ENDMDL
MODEL 9
REMARK VINA RESULT:      -7.4      2.236      3.418
REMARK  4 active torsions:
REMARK  status: ('A' for Active; 'I' for Inactive)
REMARK    1  A    between atoms: N_2  and  C_3 
REMARK    2  A    between atoms: C_5  and  C_6 
REMARK    3  A    between atoms: C_6  and  C_7 
REMARK    4  A    between atoms: C_14  and  O_15 
ROOT
HETATM    1  C   UNL     1      -4.338  -1.678 -33.291  1.00  0.00     0.113 A 
HETATM    2  N   UNL     1      -5.205  -0.665 -33.489  1.00  0.00    -0.223 NA
HETATM    3  C   UNL     1      -6.295  -0.885 -34.269  1.00  0.00     0.106 A 
HETATM    4  N   UNL     1      -6.548  -2.059 -34.871  1.00  0.00    -0.347 N 
HETATM    5  H   UNL     1      -7.359  -2.151 -35.487  1.00  0.00     0.167 HD
HETATM    6  C   UNL     1      -5.701  -3.064 -34.666  1.00  0.00     0.020 A 
HETATM    7  C   UNL     1      -4.581  -2.903 -33.868  1.00  0.00     0.005 A 
HETATM    8  C   UNL     1      -3.790  -4.171 -33.817  1.00  0.00     0.044 C 
HETATM    9  C   UNL     1      -4.823  -5.192 -34.331  1.00  0.00     0.011 C 
HETATM   10  C   UNL     1      -5.783  -4.433 -35.260  1.00  0.00     0.058 C 
ENDROOT
BRANCH   3  11
HETATM   11  C   UNL     1      -7.240   0.255 -34.511  1.00  0.00     0.085 C 
BRANCH  11  12
HETATM   12  C   UNL     1      -8.522   0.189 -33.646  1.00  0.00     0.021 C 
HETATM   13  C   UNL     1      -8.322   0.679 -32.210  1.00  0.00     0.181 C 
HETATM   14  O   UNL     1      -7.685   1.966 -32.219  1.00  0.00    -0.350 OA
HETATM   15  C   UNL     1      -8.433   2.897 -32.910  1.00  0.00     0.077 A 
HETATM   16  C   UNL     1      -9.347   2.535 -33.913  1.00  0.00    -0.024 A 
HETATM   17  C   UNL     1      -8.197   4.240 -32.604  1.00  0.00     0.074 A 
HETATM   18  C   UNL     1      -9.602   1.089 -34.259  1.00  0.00     0.048 C 
HETATM   19  C   UNL     1     -10.049   3.540 -34.583  1.00  0.00     0.012 A 
HETATM   20  C   UNL     1      -9.821   4.880 -34.269  1.00  0.00     0.037 A 
HETATM   21  C   UNL     1      -8.901   5.237 -33.280  1.00  0.00     0.070 A 
BRANCH  21  22
HETATM   22  O   UNL     1      -8.780   6.584 -33.082  1.00  0.00    -0.356 OA
HETATM   23  C   UNL     1      -8.268   7.017 -31.830  1.00  0.00     0.210 C 
ENDBRANCH  21  22
ENDBRANCH  11  12
ENDBRANCH   3  11
BRANCH   1  24
HETATM   24  N   UNL     1      -3.249  -1.518 -32.441  1.00  0.00    -0.281 NA
HETATM   25  C   UNL     1      -3.227  -0.303 -31.640  1.00  0.00     0.114 C 
HETATM   26  H   UNL     1      -2.363  -1.671 -32.919  1.00  0.00     0.128 HD
ENDBRANCH   1  24
TORSDOF 4
ENDMDL
MODEL 10
REMARK VINA RESULT:      -7.4      9.567     12.805
REMARK  4 active torsions:
REMARK  status: ('A' for Active; 'I' for Inactive)
REMARK    1  A    between atoms: N_2  and  C_3 
REMARK    2  A    between atoms: C_5  and  C_6 
REMARK    3  A    between atoms: C_6  and  C_7 
REMARK    4  A    between atoms: C_14  and  O_15 
ROOT
HETATM    1  C   UNL     1      -1.253   8.968 -26.223  1.00  0.00     0.113 A 
HETATM    2  N   UNL     1      -1.530   8.148 -27.256  1.00  0.00    -0.223 NA
HETATM    3  C   UNL     1      -0.519   7.415 -27.794  1.00  0.00     0.106 A 
HETATM    4  N   UNL     1       0.751   7.477 -27.359  1.00  0.00    -0.347 N 
HETATM    5  H   UNL     1       1.477   6.939 -27.836  1.00  0.00     0.167 HD
HETATM    6  C   UNL     1       1.023   8.275 -26.331  1.00  0.00     0.020 A 
HETATM    7  C   UNL     1       0.032   9.034 -25.733  1.00  0.00     0.005 A 
HETATM    8  C   UNL     1       0.601   9.853 -24.619  1.00  0.00     0.044 C 
HETATM    9  C   UNL     1       1.948   9.143 -24.381  1.00  0.00     0.011 C 
HETATM   10  C   UNL     1       2.365   8.509 -25.717  1.00  0.00     0.058 C 
ENDROOT
BRANCH   3  11
HETATM   11  C   UNL     1      -0.827   6.528 -28.964  1.00  0.00     0.085 C 
BRANCH  11  12
HETATM   12  C   UNL     1       0.393   6.266 -29.879  1.00  0.00     0.021 C 
HETATM   13  C   UNL     1       0.482   4.826 -30.389  1.00  0.00     0.181 C 
HETATM   14  O   UNL     1      -0.775   4.433 -30.960  1.00  0.00    -0.350 OA
HETATM   15  C   UNL     1      -1.136   5.257 -32.007  1.00  0.00     0.077 A 
HETATM   16  C   UNL     1      -0.669   6.577 -32.121  1.00  0.00    -0.024 A 
HETATM   17  C   UNL     1      -2.043   4.733 -32.931  1.00  0.00     0.074 A 
HETATM   18  C   UNL     1       0.304   7.157 -31.124  1.00  0.00     0.048 C 
HETATM   19  C   UNL     1      -1.100   7.356 -33.198  1.00  0.00     0.012 A 
HETATM   20  C   UNL     1      -1.998   6.828 -34.126  1.00  0.00     0.037 A 
HETATM   21  C   UNL     1      -2.470   5.519 -34.002  1.00  0.00     0.070 A 
BRANCH  21  22
HETATM   22  O   UNL     1      -3.345   5.140 -34.981  1.00  0.00    -0.356 OA
HETATM   23  C   UNL     1      -4.689   4.890 -34.595  1.00  0.00     0.210 C 
ENDBRANCH  21  22
ENDBRANCH  11  12
ENDBRANCH   3  11
BRANCH   1  24
HETATM   24  N   UNL     1      -2.269   9.680 -25.596  1.00  0.00    -0.281 NA
HETATM   25  C   UNL     1      -3.242   8.897 -24.849  1.00  0.00     0.114 C 
HETATM   26  H   UNL     1      -2.720  10.341 -26.225  1.00  0.00     0.128 HD
ENDBRANCH   1  24
TORSDOF 4
ENDMDL
