MODEL 1
REMARK VINA RESULT:      -8.5      0.000      0.000
REMARK  5 active torsions:
REMARK  status: ('A' for Active; 'I' for Inactive)
REMARK    1  A    between atoms: C_2  and  C_3 
REMARK    2  A    between atoms: N_4  and  C_5 
REMARK    3  A    between atoms: C_5  and  C_6 
REMARK    4  A    between atoms: C_11  and  N_12 
REMARK       I    between atoms: N_12  and  C_13 
REMARK       I    between atoms: C_13  and  N_14 
REMARK    5  A    between atoms: N_14  and  C_15 
ROOT
HETATM    1  N   UNL     1      -5.631   3.928 -33.209  1.00  0.00    -0.306 N 
HETATM    2  C   UNL     1      -5.814   2.585 -33.370  1.00  0.00     0.321 C 
HETATM    3  N   UNL     1      -5.513   1.798 -32.295  1.00  0.00    -0.333 N 
HETATM    4  O   UNL     1      -6.295   2.158 -34.416  1.00  0.00    -0.247 OA
HETATM    5  H   UNL     1      -6.056   4.469 -33.947  1.00  0.00     0.171 HD
HETATM    6  H   UNL     1      -5.653   2.268 -31.410  1.00  0.00     0.165 HD
ENDROOT
BRANCH   1   7
HETATM    7  C   UNL     1      -4.734   4.585 -32.387  1.00  0.00     0.080 A 
HETATM    8  C   UNL     1      -3.360   4.639 -32.572  1.00  0.00     0.058 A 
HETATM    9  N   UNL     1      -2.877   5.265 -31.434  1.00  0.00    -0.272 N 
HETATM   10  N   UNL     1      -3.844   5.719 -30.617  1.00  0.00    -0.182 NA
HETATM   11  C   UNL     1      -4.966   5.276 -31.178  1.00  0.00     0.170 A 
BRANCH   8  12
HETATM   12  C   UNL     1      -2.422   4.188 -33.656  1.00  0.00     0.057 C 
HETATM   13  C   UNL     1      -2.181   5.166 -34.792  1.00  0.00     0.011 C 
ENDBRANCH   8  12
BRANCH   9  14
HETATM   14  C   UNL     1      -1.494   5.457 -31.023  1.00  0.00     0.155 C 
BRANCH  14  15
HETATM   15  C   UNL     1      -1.101   6.937 -30.863  1.00  0.00    -0.003 C 
HETATM   16  C   UNL     1       0.301   7.103 -30.273  1.00  0.00     0.011 C 
HETATM   17  C   UNL     1      -1.176   7.643 -32.218  1.00  0.00     0.011 C 
ENDBRANCH  14  15
ENDBRANCH   9  14
ENDBRANCH   1   7
BRANCH   3  18
HETATM   18  C   UNL     1      -5.669   0.334 -32.305  1.00  0.00     0.039 C 
HETATM   19  C   UNL     1      -5.906  -0.161 -30.861  1.00  0.00     0.039 C 
HETATM   20  C   UNL     1      -6.888  -0.075 -33.192  1.00  0.00     0.070 C 
HETATM   21  C   UNL     1      -6.458  -1.393 -33.759  1.00  0.00    -0.049 A 
HETATM   22  C   UNL     1      -5.081  -1.577 -33.613  1.00  0.00    -0.049 A 
HETATM   23  C   UNL     1      -7.239  -2.342 -34.397  1.00  0.00     0.007 A 
HETATM   24  C   UNL     1      -4.446  -0.399 -32.940  1.00  0.00     0.070 C 
HETATM   25  C   UNL     1      -4.455  -2.715 -34.094  1.00  0.00     0.007 A 
HETATM   26  C   UNL     1      -5.236  -3.684 -34.726  1.00  0.00     0.001 A 
HETATM   27  C   UNL     1      -6.618  -3.498 -34.878  1.00  0.00     0.001 A 
ENDBRANCH   3  18
TORSDOF 5
ENDMDL
MODEL 2
REMARK VINA RESULT:      -8.2      1.306      1.898
REMARK  5 active torsions:
REMARK  status: ('A' for Active; 'I' for Inactive)
REMARK    1  A    between atoms: C_2  and  C_3 
REMARK    2  A    between atoms: N_4  and  C_5 
REMARK    3  A    between atoms: C_5  and  C_6 
REMARK    4  A    between atoms: C_11  and  N_12 
REMARK       I    between atoms: N_12  and  C_13 
REMARK       I    between atoms: C_13  and  N_14 
REMARK    5  A    between atoms: N_14  and  C_15 
ROOT
HETATM    1  N   UNL     1      -5.882   3.811 -33.600  1.00  0.00    -0.306 N 
HETATM    2  C   UNL     1      -6.286   2.513 -33.482  1.00  0.00     0.321 C 
HETATM    3  N   UNL     1      -5.329   1.609 -33.121  1.00  0.00    -0.333 N 
HETATM    4  O   UNL     1      -7.471   2.230 -33.631  1.00  0.00    -0.247 OA
HETATM    5  H   UNL     1      -6.655   4.456 -33.665  1.00  0.00     0.171 HD
HETATM    6  H   UNL     1      -4.604   2.012 -32.540  1.00  0.00     0.165 HD
ENDROOT
BRANCH   1   7
HETATM    7  C   UNL     1      -4.631   4.300 -33.930  1.00  0.00     0.080 A 
HETATM    8  C   UNL     1      -3.535   4.355 -33.080  1.00  0.00     0.058 A 
HETATM    9  N   UNL     1      -2.573   5.051 -33.793  1.00  0.00    -0.272 N 
HETATM   10  N   UNL     1      -2.931   5.321 -35.061  1.00  0.00    -0.182 NA
HETATM   11  C   UNL     1      -4.190   4.898 -35.131  1.00  0.00     0.170 A 
BRANCH   8  12
HETATM   12  C   UNL     1      -3.250   3.856 -31.692  1.00  0.00     0.057 C 
HETATM   13  C   UNL     1      -4.251   4.240 -30.616  1.00  0.00     0.011 C 
ENDBRANCH   8  12
BRANCH   9  14
HETATM   14  C   UNL     1      -1.276   5.529 -33.336  1.00  0.00     0.155 C 
BRANCH  14  15
HETATM   15  C   UNL     1      -1.368   6.558 -32.194  1.00  0.00    -0.003 C 
HETATM   16  C   UNL     1      -0.048   6.698 -31.433  1.00  0.00     0.011 C 
HETATM   17  C   UNL     1      -1.786   7.918 -32.754  1.00  0.00     0.011 C 
ENDBRANCH  14  15
ENDBRANCH   9  14
ENDBRANCH   1   7
BRANCH   3  18
HETATM   18  C   UNL     1      -5.608   0.175 -32.939  1.00  0.00     0.039 C 
HETATM   19  C   UNL     1      -6.214  -0.050 -31.536  1.00  0.00     0.039 C 
HETATM   20  C   UNL     1      -6.622  -0.321 -34.020  1.00  0.00     0.070 C 
HETATM   21  C   UNL     1      -6.192  -1.737 -34.253  1.00  0.00    -0.049 A 
HETATM   22  C   UNL     1      -4.908  -1.960 -33.751  1.00  0.00    -0.049 A 
HETATM   23  C   UNL     1      -6.887  -2.742 -34.904  1.00  0.00     0.007 A 
HETATM   24  C   UNL     1      -4.343  -0.716 -33.137  1.00  0.00     0.070 C 
HETATM   25  C   UNL     1      -4.292  -3.193 -33.883  1.00  0.00     0.007 A 
HETATM   26  C   UNL     1      -4.990  -4.217 -34.525  1.00  0.00     0.001 A 
HETATM   27  C   UNL     1      -6.278  -3.992 -35.034  1.00  0.00     0.001 A 
ENDBRANCH   3  18
TORSDOF 5
ENDMDL
MODEL 3
REMARK VINA RESULT:      -8.2      2.020      7.920
REMARK  5 active torsions:
REMARK  status: ('A' for Active; 'I' for Inactive)
REMARK    1  A    between atoms: C_2  and  C_3 
REMARK    2  A    between atoms: N_4  and  C_5 
REMARK    3  A    between atoms: C_5  and  C_6 
REMARK    4  A    between atoms: C_11  and  N_12 
REMARK       I    between atoms: N_12  and  C_13 
REMARK       I    between atoms: C_13  and  N_14 
REMARK    5  A    between atoms: N_14  and  C_15 
ROOT
HETATM    1  N   UNL     1      -6.640   0.724 -31.108  1.00  0.00    -0.306 N 
HETATM    2  C   UNL     1      -5.909   1.872 -31.008  1.00  0.00     0.321 C 
HETATM    3  N   UNL     1      -5.641   2.524 -32.177  1.00  0.00    -0.333 N 
HETATM    4  O   UNL     1      -5.592   2.296 -29.901  1.00  0.00    -0.247 OA
HETATM    5  H   UNL     1      -6.979   0.399 -30.215  1.00  0.00     0.171 HD
HETATM    6  H   UNL     1      -6.359   2.393 -32.878  1.00  0.00     0.165 HD
ENDROOT
BRANCH   1   7
HETATM    7  C   UNL     1      -6.714  -0.164 -32.166  1.00  0.00     0.080 A 
HETATM    8  C   UNL     1      -5.688  -0.993 -32.598  1.00  0.00     0.058 A 
HETATM    9  N   UNL     1      -6.171  -1.574 -33.759  1.00  0.00    -0.272 N 
HETATM   10  N   UNL     1      -7.457  -1.275 -34.017  1.00  0.00    -0.182 NA
HETATM   11  C   UNL     1      -7.773  -0.394 -33.071  1.00  0.00     0.170 A 
BRANCH   8  12
HETATM   12  C   UNL     1      -4.314  -1.324 -32.088  1.00  0.00     0.057 C 
HETATM   13  C   UNL     1      -3.230  -0.292 -32.346  1.00  0.00     0.011 C 
ENDBRANCH   8  12
BRANCH   9  14
HETATM   14  C   UNL     1      -5.465  -2.417 -34.711  1.00  0.00     0.155 C 
BRANCH  14  15
HETATM   15  C   UNL     1      -5.667  -3.924 -34.465  1.00  0.00    -0.003 C 
HETATM   16  C   UNL     1      -6.380  -4.611 -35.631  1.00  0.00     0.011 C 
HETATM   17  C   UNL     1      -4.314  -4.596 -34.221  1.00  0.00     0.011 C 
ENDBRANCH  14  15
ENDBRANCH   9  14
ENDBRANCH   1   7
BRANCH   3  18
HETATM   18  C   UNL     1      -4.876   3.782 -32.236  1.00  0.00     0.039 C 
HETATM   19  C   UNL     1      -5.622   4.868 -31.431  1.00  0.00     0.039 C 
HETATM   20  C   UNL     1      -3.452   3.579 -31.624  1.00  0.00     0.070 C 
HETATM   21  C   UNL     1      -2.608   4.513 -32.436  1.00  0.00    -0.049 A 
HETATM   22  C   UNL     1      -3.269   4.903 -33.603  1.00  0.00    -0.049 A 
HETATM   23  C   UNL     1      -1.322   4.951 -32.166  1.00  0.00     0.007 A 
HETATM   24  C   UNL     1      -4.621   4.265 -33.698  1.00  0.00     0.070 C 
HETATM   25  C   UNL     1      -2.663   5.743 -34.522  1.00  0.00     0.007 A 
HETATM   26  C   UNL     1      -1.373   6.201 -34.253  1.00  0.00     0.001 A 
HETATM   27  C   UNL     1      -0.706   5.806 -33.083  1.00  0.00     0.001 A 
ENDBRANCH   3  18
TORSDOF 5
ENDMDL
MODEL 4
REMARK VINA RESULT:      -8.2      2.499      4.117
REMARK  5 active torsions:
REMARK  status: ('A' for Active; 'I' for Inactive)
REMARK    1  A    between atoms: C_2  and  C_3 
REMARK    2  A    between atoms: N_4  and  C_5 
REMARK    3  A    between atoms: C_5  and  C_6 
REMARK    4  A    between atoms: C_11  and  N_12 
REMARK       I    between atoms: N_12  and  C_13 
REMARK       I    between atoms: C_13  and  N_14 
REMARK    5  A    between atoms: N_14  and  C_15 
ROOT
HETATM    1  N   UNL     1      -3.404   3.033 -32.234  1.00  0.00    -0.306 N 
HETATM    2  C   UNL     1      -3.674   1.713 -32.020  1.00  0.00     0.321 C 
HETATM    3  N   UNL     1      -4.672   1.167 -32.776  1.00  0.00    -0.333 N 
HETATM    4  O   UNL     1      -2.982   1.071 -31.235  1.00  0.00    -0.247 OA
HETATM    5  H   UNL     1      -2.538   3.328 -31.808  1.00  0.00     0.171 HD
HETATM    6  H   UNL     1      -4.766   1.605 -33.683  1.00  0.00     0.165 HD
ENDROOT
BRANCH   1   7
HETATM    7  C   UNL     1      -4.259   4.030 -32.668  1.00  0.00     0.080 A 
HETATM    8  C   UNL     1      -5.369   4.499 -31.979  1.00  0.00     0.058 A 
HETATM    9  N   UNL     1      -5.988   5.369 -32.861  1.00  0.00    -0.272 N 
HETATM   10  N   UNL     1      -5.289   5.580 -33.991  1.00  0.00    -0.182 NA
HETATM   11  C   UNL     1      -4.261   4.742 -33.887  1.00  0.00     0.170 A 
BRANCH   8  12
HETATM   12  C   UNL     1      -5.945   4.251 -30.614  1.00  0.00     0.057 C 
HETATM   13  C   UNL     1      -6.851   3.041 -30.471  1.00  0.00     0.011 C 
ENDBRANCH   8  12
BRANCH   9  14
HETATM   14  C   UNL     1      -7.274   6.036 -32.723  1.00  0.00     0.155 C 
BRANCH  14  15
HETATM   15  C   UNL     1      -8.332   5.545 -33.727  1.00  0.00    -0.003 C 
HETATM   16  C   UNL     1      -8.501   4.024 -33.695  1.00  0.00     0.011 C 
HETATM   17  C   UNL     1      -9.675   6.218 -33.437  1.00  0.00     0.011 C 
ENDBRANCH  14  15
ENDBRANCH   9  14
ENDBRANCH   1   7
BRANCH   3  18
HETATM   18  C   UNL     1      -5.073  -0.247 -32.673  1.00  0.00     0.039 C 
HETATM   19  C   UNL     1      -5.607  -0.520 -31.250  1.00  0.00     0.039 C 
HETATM   20  C   UNL     1      -6.195  -0.568 -33.712  1.00  0.00     0.070 C 
HETATM   21  C   UNL     1      -5.915  -1.995 -34.071  1.00  0.00    -0.049 A 
HETATM   22  C   UNL     1      -4.628  -2.369 -33.676  1.00  0.00    -0.049 A 
HETATM   23  C   UNL     1      -6.741  -2.883 -34.739  1.00  0.00     0.007 A 
HETATM   24  C   UNL     1      -3.912  -1.230 -33.019  1.00  0.00     0.070 C 
HETATM   25  C   UNL     1      -4.141  -3.639 -33.934  1.00  0.00     0.007 A 
HETATM   26  C   UNL     1      -4.970  -4.546 -34.595  1.00  0.00     0.001 A 
HETATM   27  C   UNL     1      -6.261  -4.170 -34.996  1.00  0.00     0.001 A 
ENDBRANCH   3  18
TORSDOF 5
ENDMDL
MODEL 5
REMARK VINA RESULT:      -8.0      1.214      2.328
REMARK  5 active torsions:
REMARK  status: ('A' for Active; 'I' for Inactive)
REMARK    1  A    between atoms: C_2  and  C_3 
REMARK    2  A    between atoms: N_4  and  C_5 
REMARK    3  A    between atoms: C_5  and  C_6 
REMARK    4  A    between atoms: C_11  and  N_12 
REMARK       I    between atoms: N_12  and  C_13 
REMARK       I    between atoms: C_13  and  N_14 
REMARK    5  A    between atoms: N_14  and  C_15 
ROOT
HETATM    1  N   UNL     1      -5.201   3.733 -33.092  1.00  0.00    -0.306 N 
HETATM    2  C   UNL     1      -5.506   2.404 -33.157  1.00  0.00     0.321 C 
HETATM    3  N   UNL     1      -4.832   1.585 -32.298  1.00  0.00    -0.333 N 
HETATM    4  O   UNL     1      -6.397   2.022 -33.910  1.00  0.00    -0.247 OA
HETATM    5  H   UNL     1      -5.862   4.309 -33.591  1.00  0.00     0.171 HD
HETATM    6  H   UNL     1      -4.570   2.044 -31.435  1.00  0.00     0.165 HD
ENDROOT
BRANCH   1   7
HETATM    7  C   UNL     1      -4.012   4.329 -32.715  1.00  0.00     0.080 A 
HETATM    8  C   UNL     1      -3.838   5.164 -31.620  1.00  0.00     0.058 A 
HETATM    9  N   UNL     1      -2.539   5.631 -31.737  1.00  0.00    -0.272 N 
HETATM   10  N   UNL     1      -1.848   5.058 -32.739  1.00  0.00    -0.182 NA
HETATM   11  C   UNL     1      -2.752   4.297 -33.351  1.00  0.00     0.170 A 
BRANCH   8  12
HETATM   12  C   UNL     1      -4.709   5.598 -30.476  1.00  0.00     0.057 C 
HETATM   13  C   UNL     1      -5.450   4.499 -29.734  1.00  0.00     0.011 C 
ENDBRANCH   8  12
BRANCH   9  14
HETATM   14  C   UNL     1      -1.869   6.652 -30.945  1.00  0.00     0.155 C 
BRANCH  14  15
HETATM   15  C   UNL     1      -0.542   6.176 -30.325  1.00  0.00    -0.003 C 
HETATM   16  C   UNL     1       0.676   6.779 -31.029  1.00  0.00     0.011 C 
HETATM   17  C   UNL     1      -0.507   6.532 -28.839  1.00  0.00     0.011 C 
ENDBRANCH  14  15
ENDBRANCH   9  14
ENDBRANCH   1   7
BRANCH   3  18
HETATM   18  C   UNL     1      -5.057   0.130 -32.236  1.00  0.00     0.039 C 
HETATM   19  C   UNL     1      -6.364  -0.148 -31.461  1.00  0.00     0.039 C 
HETATM   20  C   UNL     1      -5.180  -0.462 -33.677  1.00  0.00     0.070 C 
HETATM   21  C   UNL     1      -4.592  -1.831 -33.524  1.00  0.00    -0.049 A 
HETATM   22  C   UNL     1      -3.853  -1.930 -32.343  1.00  0.00    -0.049 A 
HETATM   23  C   UNL     1      -4.681  -2.898 -34.401  1.00  0.00     0.007 A 
HETATM   24  C   UNL     1      -3.864  -0.638 -31.587  1.00  0.00     0.070 C 
HETATM   25  C   UNL     1      -3.191  -3.100 -32.009  1.00  0.00     0.007 A 
HETATM   26  C   UNL     1      -3.286  -4.187 -32.880  1.00  0.00     0.001 A 
HETATM   27  C   UNL     1      -4.024  -4.086 -34.069  1.00  0.00     0.001 A 
ENDBRANCH   3  18
TORSDOF 5
ENDMDL
MODEL 6
REMARK VINA RESULT:      -7.9      1.892      8.348
REMARK  5 active torsions:
REMARK  status: ('A' for Active; 'I' for Inactive)
REMARK    1  A    between atoms: C_2  and  C_3 
REMARK    2  A    between atoms: N_4  and  C_5 
REMARK    3  A    between atoms: C_5  and  C_6 
REMARK    4  A    between atoms: C_11  and  N_12 
REMARK       I    between atoms: N_12  and  C_13 
REMARK       I    between atoms: C_13  and  N_14 
REMARK    5  A    between atoms: N_14  and  C_15 
ROOT
HETATM    1  N   UNL     1      -5.367   0.679 -31.382  1.00  0.00    -0.306 N 
HETATM    2  C   UNL     1      -4.997   1.991 -31.321  1.00  0.00     0.321 C 
HETATM    3  N   UNL     1      -4.374   2.498 -32.426  1.00  0.00    -0.333 N 
HETATM    4  O   UNL     1      -5.293   2.661 -30.336  1.00  0.00    -0.247 OA
HETATM    5  H   UNL     1      -5.994   0.417 -30.637  1.00  0.00     0.171 HD
HETATM    6  H   UNL     1      -4.668   2.052 -33.286  1.00  0.00     0.165 HD
ENDROOT
BRANCH   1   7
HETATM    7  C   UNL     1      -4.789  -0.349 -32.106  1.00  0.00     0.080 A 
HETATM    8  C   UNL     1      -5.201  -0.786 -33.358  1.00  0.00     0.058 A 
HETATM    9  N   UNL     1      -4.436  -1.914 -33.604  1.00  0.00    -0.272 N 
HETATM   10  N   UNL     1      -3.495  -2.143 -32.671  1.00  0.00    -0.182 NA
HETATM   11  C   UNL     1      -3.734  -1.215 -31.747  1.00  0.00     0.170 A 
BRANCH   8  12
HETATM   12  C   UNL     1      -6.209  -0.308 -34.363  1.00  0.00     0.057 C 
HETATM   13  C   UNL     1      -7.653  -0.707 -34.116  1.00  0.00     0.011 C 
ENDBRANCH   8  12
BRANCH   9  14
HETATM   14  C   UNL     1      -4.547  -2.861 -34.703  1.00  0.00     0.155 C 
BRANCH  14  15
HETATM   15  C   UNL     1      -5.369  -4.115 -34.353  1.00  0.00    -0.003 C 
HETATM   16  C   UNL     1      -6.390  -4.461 -35.440  1.00  0.00     0.011 C 
HETATM   17  C   UNL     1      -4.433  -5.304 -34.130  1.00  0.00     0.011 C 
ENDBRANCH  14  15
ENDBRANCH   9  14
ENDBRANCH   1   7
BRANCH   3  18
HETATM   18  C   UNL     1      -3.926   3.898 -32.522  1.00  0.00     0.039 C 
HETATM   19  C   UNL     1      -5.000   4.725 -33.262  1.00  0.00     0.039 C 
HETATM   20  C   UNL     1      -3.712   4.498 -31.095  1.00  0.00     0.070 C 
HETATM   21  C   UNL     1      -2.580   5.456 -31.304  1.00  0.00    -0.049 A 
HETATM   22  C   UNL     1      -1.924   5.200 -32.511  1.00  0.00    -0.049 A 
HETATM   23  C   UNL     1      -2.145   6.459 -30.455  1.00  0.00     0.007 A 
HETATM   24  C   UNL     1      -2.543   4.042 -33.230  1.00  0.00     0.070 C 
HETATM   25  C   UNL     1      -0.822   5.945 -32.898  1.00  0.00     0.007 A 
HETATM   26  C   UNL     1      -0.384   6.968 -32.055  1.00  0.00     0.001 A 
HETATM   27  C   UNL     1      -1.040   7.222 -30.841  1.00  0.00     0.001 A 
ENDBRANCH   3  18
TORSDOF 5
ENDMDL
MODEL 7
REMARK VINA RESULT:      -7.7      3.354      5.532
REMARK  5 active torsions:
REMARK  status: ('A' for Active; 'I' for Inactive)
REMARK    1  A    between atoms: C_2  and  C_3 
REMARK    2  A    between atoms: N_4  and  C_5 
REMARK    3  A    between atoms: C_5  and  C_6 
REMARK    4  A    between atoms: C_11  and  N_12 
REMARK       I    between atoms: N_12  and  C_13 
REMARK       I    between atoms: C_13  and  N_14 
REMARK    5  A    between atoms: N_14  and  C_15 
ROOT
HETATM    1  N   UNL     1      -5.846   3.676 -31.949  1.00  0.00    -0.306 N 
HETATM    2  C   UNL     1      -5.663   2.341 -31.728  1.00  0.00     0.321 C 
HETATM    3  N   UNL     1      -6.206   1.494 -32.651  1.00  0.00    -0.333 N 
HETATM    4  O   UNL     1      -4.980   1.971 -30.778  1.00  0.00    -0.247 OA
HETATM    5  H   UNL     1      -5.261   4.251 -31.362  1.00  0.00     0.171 HD
HETATM    6  H   UNL     1      -6.248   1.894 -33.580  1.00  0.00     0.165 HD
ENDROOT
BRANCH   1   7
HETATM    7  C   UNL     1      -6.883   4.308 -32.610  1.00  0.00     0.080 A 
HETATM    8  C   UNL     1      -8.206   4.344 -32.190  1.00  0.00     0.058 A 
HETATM    9  N   UNL     1      -8.889   4.946 -33.234  1.00  0.00    -0.272 N 
HETATM   10  N   UNL     1      -8.087   5.403 -34.211  1.00  0.00    -0.182 NA
HETATM   11  C   UNL     1      -6.877   4.985 -33.849  1.00  0.00     0.170 A 
BRANCH   8  12
HETATM   12  C   UNL     1      -8.933   3.895 -30.955  1.00  0.00     0.057 C 
HETATM   13  C   UNL     1      -9.250   2.413 -30.857  1.00  0.00     0.011 C 
ENDBRANCH   8  12
BRANCH   9  14
HETATM   14  C   UNL     1     -10.326   5.112 -33.400  1.00  0.00     0.155 C 
BRANCH  14  15
HETATM   15  C   UNL     1     -11.034   3.844 -33.913  1.00  0.00    -0.003 C 
HETATM   16  C   UNL     1     -12.229   3.455 -33.038  1.00  0.00     0.011 C 
HETATM   17  C   UNL     1     -11.500   4.057 -35.354  1.00  0.00     0.011 C 
ENDBRANCH  14  15
ENDBRANCH   9  14
ENDBRANCH   1   7
BRANCH   3  18
HETATM   18  C   UNL     1      -6.084   0.028 -32.562  1.00  0.00     0.039 C 
HETATM   19  C   UNL     1      -6.399  -0.420 -31.118  1.00  0.00     0.039 C 
HETATM   20  C   UNL     1      -7.089  -0.659 -33.542  1.00  0.00     0.070 C 
HETATM   21  C   UNL     1      -6.355  -1.898 -33.954  1.00  0.00    -0.049 A 
HETATM   22  C   UNL     1      -4.996  -1.802 -33.644  1.00  0.00    -0.049 A 
HETATM   23  C   UNL     1      -6.862  -3.015 -34.596  1.00  0.00     0.007 A 
HETATM   24  C   UNL     1      -4.679  -0.488 -33.000  1.00  0.00     0.070 C 
HETATM   25  C   UNL     1      -4.116  -2.822 -33.963  1.00  0.00     0.007 A 
HETATM   26  C   UNL     1      -4.619  -3.959 -34.598  1.00  0.00     0.001 A 
HETATM   27  C   UNL     1      -5.983  -4.053 -34.914  1.00  0.00     0.001 A 
ENDBRANCH   3  18
TORSDOF 5
ENDMDL
MODEL 8
REMARK VINA RESULT:      -7.7      3.384      4.660
REMARK  5 active torsions:
REMARK  status: ('A' for Active; 'I' for Inactive)
REMARK    1  A    between atoms: C_2  and  C_3 
REMARK    2  A    between atoms: N_4  and  C_5 
REMARK    3  A    between atoms: C_5  and  C_6 
REMARK    4  A    between atoms: C_11  and  N_12 
REMARK       I    between atoms: N_12  and  C_13 
REMARK       I    between atoms: C_13  and  N_14 
REMARK    5  A    between atoms: N_14  and  C_15 
ROOT
HETATM    1  N   UNL     1      -6.659   2.483 -30.802  1.00  0.00    -0.306 N 
HETATM    2  C   UNL     1      -7.763   2.203 -31.554  1.00  0.00     0.321 C 
HETATM    3  N   UNL     1      -7.549   1.509 -32.710  1.00  0.00    -0.333 N 
HETATM    4  O   UNL     1      -8.876   2.512 -31.138  1.00  0.00    -0.247 OA
HETATM    5  H   UNL     1      -6.892   2.808 -29.876  1.00  0.00     0.171 HD
HETATM    6  H   UNL     1      -6.751   0.889 -32.658  1.00  0.00     0.165 HD
ENDROOT
BRANCH   1   7
HETATM    7  C   UNL     1      -5.353   2.661 -31.218  1.00  0.00     0.080 A 
HETATM    8  C   UNL     1      -4.896   3.696 -32.023  1.00  0.00     0.058 A 
HETATM    9  N   UNL     1      -3.576   3.374 -32.294  1.00  0.00    -0.272 N 
HETATM   10  N   UNL     1      -3.136   2.295 -31.623  1.00  0.00    -0.182 NA
HETATM   11  C   UNL     1      -4.222   1.844 -31.000  1.00  0.00     0.170 A 
BRANCH   8  12
HETATM   12  C   UNL     1      -5.511   4.946 -32.584  1.00  0.00     0.057 C 
HETATM   13  C   UNL     1      -6.295   4.795 -33.876  1.00  0.00     0.011 C 
ENDBRANCH   8  12
BRANCH   9  14
HETATM   14  C   UNL     1      -2.653   4.029 -33.208  1.00  0.00     0.155 C 
BRANCH  14  15
HETATM   15  C   UNL     1      -2.104   5.364 -32.674  1.00  0.00    -0.003 C 
HETATM   16  C   UNL     1      -0.696   5.220 -32.091  1.00  0.00     0.011 C 
HETATM   17  C   UNL     1      -2.092   6.406 -33.793  1.00  0.00     0.011 C 
ENDBRANCH  14  15
ENDBRANCH   9  14
ENDBRANCH   1   7
BRANCH   3  18
HETATM   18  C   UNL     1      -8.637   1.118 -33.623  1.00  0.00     0.039 C 
HETATM   19  C   UNL     1      -8.053   0.273 -34.776  1.00  0.00     0.039 C 
HETATM   20  C   UNL     1      -9.708   0.272 -32.861  1.00  0.00     0.070 C 
HETATM   21  C   UNL     1     -10.982   0.651 -33.551  1.00  0.00    -0.049 A 
HETATM   22  C   UNL     1     -10.818   1.818 -34.302  1.00  0.00    -0.049 A 
HETATM   23  C   UNL     1     -12.211   0.018 -33.478  1.00  0.00     0.007 A 
HETATM   24  C   UNL     1      -9.421   2.344 -34.188  1.00  0.00     0.070 C 
HETATM   25  C   UNL     1     -11.877   2.372 -35.002  1.00  0.00     0.007 A 
HETATM   26  C   UNL     1     -13.116   1.733 -34.946  1.00  0.00     0.001 A 
HETATM   27  C   UNL     1     -13.282   0.565 -34.188  1.00  0.00     0.001 A 
ENDBRANCH   3  18
TORSDOF 5
ENDMDL
MODEL 9
REMARK VINA RESULT:      -7.7      1.547      2.182
REMARK  5 active torsions:
REMARK  status: ('A' for Active; 'I' for Inactive)
REMARK    1  A    between atoms: C_2  and  C_3 
REMARK    2  A    between atoms: N_4  and  C_5 
REMARK    3  A    between atoms: C_5  and  C_6 
REMARK    4  A    between atoms: C_11  and  N_12 
REMARK       I    between atoms: N_12  and  C_13 
REMARK       I    between atoms: C_13  and  N_14 
REMARK    5  A    between atoms: N_14  and  C_15 
ROOT
HETATM    1  N   UNL     1      -5.081   6.084 -33.101  1.00  0.00    -0.306 N 
HETATM    2  C   UNL     1      -5.779   4.940 -33.363  1.00  0.00     0.321 C 
HETATM    3  N   UNL     1      -5.648   3.928 -32.455  1.00  0.00    -0.333 N 
HETATM    4  O   UNL     1      -6.527   4.894 -34.335  1.00  0.00    -0.247 OA
HETATM    5  H   UNL     1      -5.370   6.857 -33.681  1.00  0.00     0.171 HD
HETATM    6  H   UNL     1      -5.475   4.260 -31.515  1.00  0.00     0.165 HD
ENDROOT
BRANCH   1   7
HETATM    7  C   UNL     1      -3.897   6.233 -32.403  1.00  0.00     0.080 A 
HETATM    8  C   UNL     1      -2.706   5.576 -32.684  1.00  0.00     0.058 A 
HETATM    9  N   UNL     1      -1.861   5.921 -31.642  1.00  0.00    -0.272 N 
HETATM   10  N   UNL     1      -2.381   6.837 -30.806  1.00  0.00    -0.182 NA
HETATM   11  C   UNL     1      -3.626   6.998 -31.248  1.00  0.00     0.170 A 
BRANCH   8  12
HETATM   12  C   UNL     1      -2.237   4.666 -33.783  1.00  0.00     0.057 C 
HETATM   13  C   UNL     1      -1.445   5.312 -34.905  1.00  0.00     0.011 C 
ENDBRANCH   8  12
BRANCH   9  14
HETATM   14  C   UNL     1      -0.533   5.405 -31.344  1.00  0.00     0.155 C 
BRANCH  14  15
HETATM   15  C   UNL     1      -0.057   5.724 -29.915  1.00  0.00    -0.003 C 
HETATM   16  C   UNL     1       0.958   4.701 -29.400  1.00  0.00     0.011 C 
HETATM   17  C   UNL     1       0.558   7.124 -29.873  1.00  0.00     0.011 C 
ENDBRANCH  14  15
ENDBRANCH   9  14
ENDBRANCH   1   7
BRANCH   3  18
HETATM   18  C   UNL     1      -6.345   2.638 -32.587  1.00  0.00     0.039 C 
HETATM   19  C   UNL     1      -7.660   2.686 -31.779  1.00  0.00     0.039 C 
HETATM   20  C   UNL     1      -6.678   2.352 -34.087  1.00  0.00     0.070 C 
HETATM   21  C   UNL     1      -6.579   0.860 -34.170  1.00  0.00    -0.049 A 
HETATM   22  C   UNL     1      -5.901   0.340 -33.065  1.00  0.00    -0.049 A 
HETATM   23  C   UNL     1      -7.030   0.032 -35.184  1.00  0.00     0.007 A 
HETATM   24  C   UNL     1      -5.469   1.429 -32.133  1.00  0.00     0.070 C 
HETATM   25  C   UNL     1      -5.664  -1.019 -32.946  1.00  0.00     0.007 A 
HETATM   26  C   UNL     1      -6.127  -1.865 -33.956  1.00  0.00     0.001 A 
HETATM   27  C   UNL     1      -6.804  -1.342 -35.068  1.00  0.00     0.001 A 
ENDBRANCH   3  18
TORSDOF 5
ENDMDL
MODEL 10
REMARK VINA RESULT:      -7.6      3.512      4.997
REMARK  5 active torsions:
REMARK  status: ('A' for Active; 'I' for Inactive)
REMARK    1  A    between atoms: C_2  and  C_3 
REMARK    2  A    between atoms: N_4  and  C_5 
REMARK    3  A    between atoms: C_5  and  C_6 
REMARK    4  A    between atoms: C_11  and  N_12 
REMARK       I    between atoms: N_12  and  C_13 
REMARK       I    between atoms: C_13  and  N_14 
REMARK    5  A    between atoms: N_14  and  C_15 
ROOT
HETATM    1  N   UNL     1      -7.333   1.885 -30.209  1.00  0.00    -0.306 N 
HETATM    2  C   UNL     1      -7.022   0.913 -31.116  1.00  0.00     0.321 C 
HETATM    3  N   UNL     1      -7.029   1.285 -32.430  1.00  0.00    -0.333 N 
HETATM    4  O   UNL     1      -6.689  -0.200 -30.722  1.00  0.00    -0.247 OA
HETATM    5  H   UNL     1      -7.115   1.617 -29.261  1.00  0.00     0.171 HD
HETATM    6  H   UNL     1      -6.790   2.259 -32.567  1.00  0.00     0.165 HD
ENDROOT
BRANCH   1   7
HETATM    7  C   UNL     1      -8.140   2.996 -30.375  1.00  0.00     0.080 A 
HETATM    8  C   UNL     1      -7.700   4.310 -30.448  1.00  0.00     0.058 A 
HETATM    9  N   UNL     1      -8.860   5.068 -30.459  1.00  0.00    -0.272 N 
HETATM   10  N   UNL     1      -9.984   4.333 -30.529  1.00  0.00    -0.182 NA
HETATM   11  C   UNL     1      -9.548   3.079 -30.443  1.00  0.00     0.170 A 
BRANCH   8  12
HETATM   12  C   UNL     1      -6.352   4.970 -30.504  1.00  0.00     0.057 C 
HETATM   13  C   UNL     1      -5.603   5.093 -29.189  1.00  0.00     0.011 C 
ENDBRANCH   8  12
BRANCH   9  14
HETATM   14  C   UNL     1      -8.997   6.515 -30.380  1.00  0.00     0.155 C 
BRANCH  14  15
HETATM   15  C   UNL     1      -9.407   7.017 -28.983  1.00  0.00    -0.003 C 
HETATM   16  C   UNL     1      -8.225   7.605 -28.209  1.00  0.00     0.011 C 
HETATM   17  C   UNL     1     -10.510   8.068 -29.113  1.00  0.00     0.011 C 
ENDBRANCH  14  15
ENDBRANCH   9  14
ENDBRANCH   1   7
BRANCH   3  18
HETATM   18  C   UNL     1      -6.703   0.358 -33.527  1.00  0.00     0.039 C 
HETATM   19  C   UNL     1      -6.738   1.125 -34.867  1.00  0.00     0.039 C 
HETATM   20  C   UNL     1      -5.276  -0.245 -33.320  1.00  0.00     0.070 C 
HETATM   21  C   UNL     1      -5.410  -1.619 -33.902  1.00  0.00    -0.049 A 
HETATM   22  C   UNL     1      -6.753  -1.972 -34.051  1.00  0.00    -0.049 A 
HETATM   23  C   UNL     1      -4.399  -2.504 -34.237  1.00  0.00     0.007 A 
HETATM   24  C   UNL     1      -7.657  -0.876 -33.578  1.00  0.00     0.070 C 
HETATM   25  C   UNL     1      -7.116  -3.215 -34.543  1.00  0.00     0.007 A 
HETATM   26  C   UNL     1      -6.104  -4.109 -34.896  1.00  0.00     0.001 A 
HETATM   27  C   UNL     1      -4.755  -3.757 -34.742  1.00  0.00     0.001 A 
ENDBRANCH   3  18
TORSDOF 5
ENDMDL
