MODEL 1
REMARK VINA RESULT:      -8.6      0.000      0.000
REMARK  8 active torsions:
REMARK  status: ('A' for Active; 'I' for Inactive)
REMARK    1  A    between atoms: C_2  and  O_3 
REMARK    2  A    between atoms: O_3  and  C_4 
REMARK    3  A    between atoms: C_4  and  C_5 
REMARK    4  A    between atoms: C_6  and  C_8 
REMARK    5  A    between atoms: C_6  and  O_7 
REMARK    6  A    between atoms: C_16  and  C_17 
REMARK    7  A    between atoms: C_18  and  C_19 
REMARK    8  A    between atoms: N_26  and  C_27 
ROOT
HETATM    1  C   UNL     1      -6.512   3.347 -31.890  1.00  0.00     0.177 C 
HETATM    2  C   UNL     1      -5.838   4.727 -31.679  1.00  0.00     0.250 C 
HETATM    3  N   UNL     1      -4.461   4.521 -31.280  1.00  0.00    -0.303 N 
HETATM    4  C   UNL     1      -3.657   3.610 -31.890  1.00  0.00     0.319 C 
HETATM    5  O   UNL     1      -2.442   3.651 -31.768  1.00  0.00    -0.247 OA
HETATM    6  N   UNL     1      -4.277   2.626 -32.593  1.00  0.00    -0.333 N 
HETATM    7  C   UNL     1      -5.685   2.604 -32.941  1.00  0.00     0.142 C 
HETATM    8  H   UNL     1      -3.970   5.296 -30.850  1.00  0.00     0.167 HD
HETATM    9  H   UNL     1      -3.630   2.006 -33.068  1.00  0.00     0.165 HD
ENDROOT
BRANCH   7  10
HETATM   10  C   UNL     1      -6.123   1.220 -33.350  1.00  0.00     0.015 A 
HETATM   11  C   UNL     1      -7.442   0.786 -33.712  1.00  0.00     0.097 A 
HETATM   12  N   UNL     1      -7.456  -0.510 -34.042  1.00  0.00    -0.167 NA
HETATM   13  N   UNL     1      -6.194  -0.953 -33.869  1.00  0.00    -0.244 N 
HETATM   14  C   UNL     1      -5.378   0.055 -33.402  1.00  0.00     0.130 A 
BRANCH  11  15
HETATM   15  C   UNL     1      -8.682   1.559 -33.778  1.00  0.00    -0.005 A 
HETATM   16  C   UNL     1      -9.873   1.003 -33.291  1.00  0.00     0.014 A 
HETATM   17  C   UNL     1     -11.070   1.721 -33.357  1.00  0.00     0.001 A 
HETATM   18  C   UNL     1     -11.085   3.001 -33.907  1.00  0.00     0.000 A 
HETATM   19  C   UNL     1      -9.904   3.569 -34.380  1.00  0.00     0.001 A 
HETATM   20  C   UNL     1      -8.705   2.856 -34.309  1.00  0.00     0.014 A 
ENDBRANCH  11  15
BRANCH  13  21
HETATM   21  C   UNL     1      -5.848  -2.303 -34.159  1.00  0.00     0.058 A 
HETATM   22  C   UNL     1      -4.544  -2.750 -33.894  1.00  0.00     0.031 A 
HETATM   23  C   UNL     1      -4.181  -4.071 -34.163  1.00  0.00     0.002 A 
HETATM   24  C   UNL     1      -5.117  -4.955 -34.695  1.00  0.00     0.000 A 
HETATM   25  C   UNL     1      -6.415  -4.521 -34.960  1.00  0.00     0.002 A 
HETATM   26  C   UNL     1      -6.785  -3.199 -34.695  1.00  0.00     0.031 A 
ENDBRANCH  13  21
ENDBRANCH   7  10
BRANCH   1  27
HETATM   27  C   UNL     1      -6.627   2.670 -30.537  1.00  0.00     0.270 C 
HETATM   28  O   UNL     1      -5.808   1.826 -30.179  1.00  0.00    -0.265 OA
BRANCH  27  29
HETATM   29  O   UNL     1      -7.707   3.028 -29.807  1.00  0.00    -0.321 OA
BRANCH  29  30
HETATM   30  C   UNL     1      -8.985   2.945 -30.459  1.00  0.00     0.174 C 
HETATM   31  C   UNL     1      -9.689   4.289 -30.415  1.00  0.00     0.034 C 
ENDBRANCH  29  30
ENDBRANCH  27  29
ENDBRANCH   1  27
BRANCH   2  32
HETATM   32  C   UNL     1      -5.949   5.617 -32.981  1.00  0.00     0.439 C 
HETATM   33  F   UNL     1      -7.194   5.542 -33.512  1.00  0.00    -0.166 F 
HETATM   34  F   UNL     1      -5.692   6.921 -32.717  1.00  0.00    -0.166 F 
HETATM   35  F   UNL     1      -5.084   5.246 -33.952  1.00  0.00    -0.166 F 
ENDBRANCH   2  32
BRANCH   2  36
HETATM   36  O   UNL     1      -6.427   5.477 -30.606  1.00  0.00    -0.363 OA
HETATM   37  H   UNL     1      -7.352   5.700 -30.830  1.00  0.00     0.213 HD
ENDBRANCH   2  36
TORSDOF 8
ENDMDL
MODEL 2
REMARK VINA RESULT:      -8.6      1.431      2.092
REMARK  8 active torsions:
REMARK  status: ('A' for Active; 'I' for Inactive)
REMARK    1  A    between atoms: C_2  and  O_3 
REMARK    2  A    between atoms: O_3  and  C_4 
REMARK    3  A    between atoms: C_4  and  C_5 
REMARK    4  A    between atoms: C_6  and  C_8 
REMARK    5  A    between atoms: C_6  and  O_7 
REMARK    6  A    between atoms: C_16  and  C_17 
REMARK    7  A    between atoms: C_18  and  C_19 
REMARK    8  A    between atoms: N_26  and  C_27 
ROOT
HETATM    1  C   UNL     1      -6.269   3.586 -32.179  1.00  0.00     0.177 C 
HETATM    2  C   UNL     1      -6.081   5.121 -32.280  1.00  0.00     0.250 C 
HETATM    3  N   UNL     1      -5.037   5.405 -33.241  1.00  0.00    -0.303 N 
HETATM    4  C   UNL     1      -4.961   4.767 -34.440  1.00  0.00     0.319 C 
HETATM    5  O   UNL     1      -4.285   5.213 -35.355  1.00  0.00    -0.247 OA
HETATM    6  N   UNL     1      -5.630   3.590 -34.546  1.00  0.00    -0.333 N 
HETATM    7  C   UNL     1      -6.594   3.083 -33.587  1.00  0.00     0.142 C 
HETATM    8  H   UNL     1      -4.614   6.325 -33.226  1.00  0.00     0.167 HD
HETATM    9  H   UNL     1      -5.581   3.184 -35.475  1.00  0.00     0.165 HD
ENDROOT
BRANCH   7  10
HETATM   10  C   UNL     1      -6.835   1.608 -33.783  1.00  0.00     0.015 A 
HETATM   11  C   UNL     1      -8.092   0.935 -33.938  1.00  0.00     0.097 A 
HETATM   12  N   UNL     1      -7.924  -0.380 -34.115  1.00  0.00    -0.167 NA
HETATM   13  N   UNL     1      -6.595  -0.599 -34.043  1.00  0.00    -0.244 N 
HETATM   14  C   UNL     1      -5.916   0.573 -33.791  1.00  0.00     0.130 A 
BRANCH  11  15
HETATM   15  C   UNL     1      -9.444   1.495 -33.945  1.00  0.00    -0.005 A 
HETATM   16  C   UNL     1     -10.530   0.691 -33.574  1.00  0.00     0.014 A 
HETATM   17  C   UNL     1     -11.830   1.204 -33.588  1.00  0.00     0.001 A 
HETATM   18  C   UNL     1     -12.053   2.526 -33.969  1.00  0.00     0.000 A 
HETATM   19  C   UNL     1     -10.978   3.338 -34.324  1.00  0.00     0.001 A 
HETATM   20  C   UNL     1      -9.677   2.829 -34.306  1.00  0.00     0.014 A 
ENDBRANCH  11  15
BRANCH  13  21
HETATM   21  C   UNL     1      -6.061  -1.907 -34.217  1.00  0.00     0.058 A 
HETATM   22  C   UNL     1      -6.898  -2.935 -34.678  1.00  0.00     0.031 A 
HETATM   23  C   UNL     1      -6.397  -4.225 -34.864  1.00  0.00     0.002 A 
HETATM   24  C   UNL     1      -5.058  -4.497 -34.594  1.00  0.00     0.000 A 
HETATM   25  C   UNL     1      -4.218  -3.482 -34.139  1.00  0.00     0.002 A 
HETATM   26  C   UNL     1      -4.713  -2.189 -33.948  1.00  0.00     0.031 A 
ENDBRANCH  13  21
ENDBRANCH   7  10
BRANCH   1  27
HETATM   27  C   UNL     1      -5.022   3.003 -31.539  1.00  0.00     0.270 C 
HETATM   28  O   UNL     1      -3.982   2.872 -32.180  1.00  0.00    -0.265 OA
BRANCH  27  29
HETATM   29  O   UNL     1      -5.170   2.603 -30.256  1.00  0.00    -0.321 OA
BRANCH  29  30
HETATM   30  C   UNL     1      -6.341   1.827 -29.951  1.00  0.00     0.174 C 
HETATM   31  C   UNL     1      -6.058   0.348 -30.138  1.00  0.00     0.034 C 
ENDBRANCH  29  30
ENDBRANCH  27  29
ENDBRANCH   1  27
BRANCH   2  32
HETATM   32  C   UNL     1      -7.441   5.835 -32.657  1.00  0.00     0.439 C 
HETATM   33  F   UNL     1      -8.462   5.357 -31.903  1.00  0.00    -0.166 F 
HETATM   34  F   UNL     1      -7.374   7.173 -32.457  1.00  0.00    -0.166 F 
HETATM   35  F   UNL     1      -7.792   5.658 -33.950  1.00  0.00    -0.166 F 
ENDBRANCH   2  32
BRANCH   2  36
HETATM   36  O   UNL     1      -5.626   5.709 -31.052  1.00  0.00    -0.363 OA
HETATM   37  H   UNL     1      -6.094   6.553 -30.897  1.00  0.00     0.213 HD
ENDBRANCH   2  36
TORSDOF 8
ENDMDL
MODEL 3
REMARK VINA RESULT:      -8.5      3.263      6.606
REMARK  8 active torsions:
REMARK  status: ('A' for Active; 'I' for Inactive)
REMARK    1  A    between atoms: C_2  and  O_3 
REMARK    2  A    between atoms: O_3  and  C_4 
REMARK    3  A    between atoms: C_4  and  C_5 
REMARK    4  A    between atoms: C_6  and  C_8 
REMARK    5  A    between atoms: C_6  and  O_7 
REMARK    6  A    between atoms: C_16  and  C_17 
REMARK    7  A    between atoms: C_18  and  C_19 
REMARK    8  A    between atoms: N_26  and  C_27 
ROOT
HETATM    1  C   UNL     1      -9.568   3.246 -32.681  1.00  0.00     0.177 C 
HETATM    2  C   UNL     1     -11.053   3.145 -33.115  1.00  0.00     0.250 C 
HETATM    3  N   UNL     1     -11.478   4.426 -33.639  1.00  0.00    -0.303 N 
HETATM    4  C   UNL     1     -10.709   5.152 -34.493  1.00  0.00     0.319 C 
HETATM    5  O   UNL     1     -11.183   6.059 -35.162  1.00  0.00    -0.247 OA
HETATM    6  N   UNL     1      -9.384   4.853 -34.524  1.00  0.00    -0.333 N 
HETATM    7  C   UNL     1      -8.773   3.688 -33.911  1.00  0.00     0.142 C 
HETATM    8  H   UNL     1     -12.472   4.603 -33.712  1.00  0.00     0.167 HD
HETATM    9  H   UNL     1      -8.868   5.389 -35.214  1.00  0.00     0.165 HD
ENDROOT
BRANCH   7  10
HETATM   10  C   UNL     1      -7.282   3.862 -33.776  1.00  0.00     0.015 A 
HETATM   11  C   UNL     1      -6.276   2.839 -33.741  1.00  0.00     0.097 A 
HETATM   12  N   UNL     1      -5.050   3.363 -33.635  1.00  0.00    -0.167 NA
HETATM   13  N   UNL     1      -5.220   4.698 -33.560  1.00  0.00    -0.244 N 
HETATM   14  C   UNL     1      -6.559   5.027 -33.589  1.00  0.00     0.130 A 
BRANCH  11  15
HETATM   15  C   UNL     1      -6.434   1.387 -33.825  1.00  0.00    -0.005 A 
HETATM   16  C   UNL     1      -6.128   0.590 -32.713  1.00  0.00     0.014 A 
HETATM   17  C   UNL     1      -6.259  -0.799 -32.779  1.00  0.00     0.001 A 
HETATM   18  C   UNL     1      -6.701  -1.403 -33.954  1.00  0.00     0.000 A 
HETATM   19  C   UNL     1      -7.023  -0.618 -35.060  1.00  0.00     0.001 A 
HETATM   20  C   UNL     1      -6.898   0.772 -34.995  1.00  0.00     0.014 A 
ENDBRANCH  11  15
BRANCH  13  21
HETATM   21  C   UNL     1      -4.101   5.572 -33.465  1.00  0.00     0.058 A 
HETATM   22  C   UNL     1      -3.080   5.488 -34.425  1.00  0.00     0.031 A 
HETATM   23  C   UNL     1      -1.975   6.338 -34.358  1.00  0.00     0.002 A 
HETATM   24  C   UNL     1      -1.881   7.279 -33.336  1.00  0.00     0.000 A 
HETATM   25  C   UNL     1      -2.891   7.372 -32.379  1.00  0.00     0.002 A 
HETATM   26  C   UNL     1      -4.000   6.523 -32.438  1.00  0.00     0.031 A 
ENDBRANCH  13  21
ENDBRANCH   7  10
BRANCH   1  27
HETATM   27  C   UNL     1      -9.494   4.169 -31.478  1.00  0.00     0.270 C 
HETATM   28  O   UNL     1      -9.641   5.383 -31.600  1.00  0.00    -0.265 OA
BRANCH  27  29
HETATM   29  O   UNL     1      -9.207   3.560 -30.306  1.00  0.00    -0.321 OA
BRANCH  29  30
HETATM   30  C   UNL     1      -7.998   2.784 -30.259  1.00  0.00     0.174 C 
HETATM   31  C   UNL     1      -6.796   3.688 -30.060  1.00  0.00     0.034 C 
ENDBRANCH  29  30
ENDBRANCH  27  29
ENDBRANCH   1  27
BRANCH   2  32
HETATM   32  C   UNL     1     -11.258   1.980 -34.165  1.00  0.00     0.439 C 
HETATM   33  F   UNL     1     -10.133   1.232 -34.282  1.00  0.00    -0.166 F 
HETATM   34  F   UNL     1     -12.266   1.152 -33.801  1.00  0.00    -0.166 F 
HETATM   35  F   UNL     1     -11.561   2.430 -35.403  1.00  0.00    -0.166 F 
ENDBRANCH   2  32
BRANCH   2  36
HETATM   36  O   UNL     1     -11.938   2.880 -32.016  1.00  0.00    -0.363 OA
HETATM   37  H   UNL     1     -11.490   2.307 -31.363  1.00  0.00     0.213 HD
ENDBRANCH   2  36
TORSDOF 8
ENDMDL
MODEL 4
REMARK VINA RESULT:      -8.3      2.260      5.376
REMARK  8 active torsions:
REMARK  status: ('A' for Active; 'I' for Inactive)
REMARK    1  A    between atoms: C_2  and  O_3 
REMARK    2  A    between atoms: O_3  and  C_4 
REMARK    3  A    between atoms: C_4  and  C_5 
REMARK    4  A    between atoms: C_6  and  C_8 
REMARK    5  A    between atoms: C_6  and  O_7 
REMARK    6  A    between atoms: C_16  and  C_17 
REMARK    7  A    between atoms: C_18  and  C_19 
REMARK    8  A    between atoms: N_26  and  C_27 
ROOT
HETATM    1  C   UNL     1      -5.680   3.146 -32.913  1.00  0.00     0.177 C 
HETATM    2  C   UNL     1      -4.554   3.671 -31.986  1.00  0.00     0.250 C 
HETATM    3  N   UNL     1      -5.153   4.349 -30.856  1.00  0.00    -0.303 N 
HETATM    4  C   UNL     1      -6.218   3.837 -30.183  1.00  0.00     0.319 C 
HETATM    5  O   UNL     1      -6.520   4.240 -29.070  1.00  0.00    -0.247 OA
HETATM    6  N   UNL     1      -6.953   2.897 -30.832  1.00  0.00    -0.333 N 
HETATM    7  C   UNL     1      -6.567   2.234 -32.064  1.00  0.00     0.142 C 
HETATM    8  H   UNL     1      -4.569   4.971 -30.309  1.00  0.00     0.167 HD
HETATM    9  H   UNL     1      -7.702   2.513 -30.266  1.00  0.00     0.165 HD
ENDROOT
BRANCH   7  10
HETATM   10  C   UNL     1      -7.751   1.573 -32.721  1.00  0.00     0.015 A 
HETATM   11  C   UNL     1      -7.790   0.307 -33.396  1.00  0.00     0.097 A 
HETATM   12  N   UNL     1      -9.021   0.026 -33.838  1.00  0.00    -0.167 NA
HETATM   13  N   UNL     1      -9.786   1.086 -33.508  1.00  0.00    -0.244 N 
HETATM   14  C   UNL     1      -9.037   2.058 -32.881  1.00  0.00     0.130 A 
BRANCH  11  15
HETATM   15  C   UNL     1      -6.709  -0.653 -33.619  1.00  0.00    -0.005 A 
HETATM   16  C   UNL     1      -5.576  -0.626 -32.795  1.00  0.00     0.014 A 
HETATM   17  C   UNL     1      -4.527  -1.526 -33.000  1.00  0.00     0.001 A 
HETATM   18  C   UNL     1      -4.604  -2.462 -34.029  1.00  0.00     0.000 A 
HETATM   19  C   UNL     1      -5.733  -2.508 -34.845  1.00  0.00     0.001 A 
HETATM   20  C   UNL     1      -6.785  -1.612 -34.637  1.00  0.00     0.014 A 
ENDBRANCH  11  15
BRANCH  13  21
HETATM   21  C   UNL     1     -11.176   1.105 -33.813  1.00  0.00     0.058 A 
HETATM   22  C   UNL     1     -11.707   2.187 -34.534  1.00  0.00     0.031 A 
HETATM   23  C   UNL     1     -13.066   2.226 -34.852  1.00  0.00     0.002 A 
HETATM   24  C   UNL     1     -13.904   1.187 -34.454  1.00  0.00     0.000 A 
HETATM   25  C   UNL     1     -13.386   0.108 -33.740  1.00  0.00     0.002 A 
HETATM   26  C   UNL     1     -12.027   0.062 -33.416  1.00  0.00     0.031 A 
ENDBRANCH  13  21
ENDBRANCH   7  10
BRANCH   1  27
HETATM   27  C   UNL     1      -6.370   4.346 -33.537  1.00  0.00     0.270 C 
HETATM   28  O   UNL     1      -5.970   4.829 -34.593  1.00  0.00    -0.265 OA
BRANCH  27  29
HETATM   29  O   UNL     1      -7.399   4.851 -32.820  1.00  0.00    -0.321 OA
BRANCH  29  30
HETATM   30  C   UNL     1      -7.499   6.283 -32.753  1.00  0.00     0.174 C 
HETATM   31  C   UNL     1      -8.111   6.710 -31.432  1.00  0.00     0.034 C 
ENDBRANCH  29  30
ENDBRANCH  27  29
ENDBRANCH   1  27
BRANCH   2  32
HETATM   32  C   UNL     1      -3.600   2.495 -31.531  1.00  0.00     0.439 C 
HETATM   33  F   UNL     1      -3.276   1.703 -32.583  1.00  0.00    -0.166 F 
HETATM   34  F   UNL     1      -2.446   2.966 -31.000  1.00  0.00    -0.166 F 
HETATM   35  F   UNL     1      -4.155   1.695 -30.593  1.00  0.00    -0.166 F 
ENDBRANCH   2  32
BRANCH   2  36
HETATM   36  O   UNL     1      -3.728   4.661 -32.618  1.00  0.00    -0.363 OA
HETATM   37  H   UNL     1      -4.157   4.973 -33.438  1.00  0.00     0.213 HD
ENDBRANCH   2  36
TORSDOF 8
ENDMDL
MODEL 5
REMARK VINA RESULT:      -8.0      2.892      6.679
REMARK  8 active torsions:
REMARK  status: ('A' for Active; 'I' for Inactive)
REMARK    1  A    between atoms: C_2  and  O_3 
REMARK    2  A    between atoms: O_3  and  C_4 
REMARK    3  A    between atoms: C_4  and  C_5 
REMARK    4  A    between atoms: C_6  and  C_8 
REMARK    5  A    between atoms: C_6  and  O_7 
REMARK    6  A    between atoms: C_16  and  C_17 
REMARK    7  A    between atoms: C_18  and  C_19 
REMARK    8  A    between atoms: N_26  and  C_27 
ROOT
HETATM    1  C   UNL     1      -5.559   1.288 -31.911  1.00  0.00     0.177 C 
HETATM    2  C   UNL     1      -4.768  -0.044 -31.858  1.00  0.00     0.250 C 
HETATM    3  N   UNL     1      -5.610  -1.112 -32.356  1.00  0.00    -0.303 N 
HETATM    4  C   UNL     1      -6.371  -0.975 -33.474  1.00  0.00     0.319 C 
HETATM    5  O   UNL     1      -6.828  -1.947 -34.056  1.00  0.00    -0.247 OA
HETATM    6  N   UNL     1      -6.637   0.295 -33.877  1.00  0.00    -0.333 N 
HETATM    7  C   UNL     1      -5.993   1.490 -33.364  1.00  0.00     0.142 C 
HETATM    8  H   UNL     1      -5.346  -2.065 -32.140  1.00  0.00     0.167 HD
HETATM    9  H   UNL     1      -7.164   0.339 -34.743  1.00  0.00     0.165 HD
ENDROOT
BRANCH   7  10
HETATM   10  C   UNL     1      -6.784   2.726 -33.709  1.00  0.00     0.015 A 
HETATM   11  C   UNL     1      -6.291   4.059 -33.910  1.00  0.00     0.097 A 
HETATM   12  N   UNL     1      -7.279   4.903 -34.227  1.00  0.00    -0.167 NA
HETATM   13  N   UNL     1      -8.413   4.174 -34.204  1.00  0.00    -0.244 N 
HETATM   14  C   UNL     1      -8.154   2.870 -33.843  1.00  0.00     0.130 A 
BRANCH  11  15
HETATM   15  C   UNL     1      -4.917   4.555 -33.832  1.00  0.00    -0.005 A 
HETATM   16  C   UNL     1      -4.256   4.957 -35.001  1.00  0.00     0.014 A 
HETATM   17  C   UNL     1      -2.940   5.422 -34.948  1.00  0.00     0.001 A 
HETATM   18  C   UNL     1      -2.274   5.491 -33.726  1.00  0.00     0.000 A 
HETATM   19  C   UNL     1      -2.927   5.109 -32.556  1.00  0.00     0.001 A 
HETATM   20  C   UNL     1      -4.245   4.650 -32.605  1.00  0.00     0.014 A 
ENDBRANCH  11  15
BRANCH  13  21
HETATM   21  C   UNL     1      -9.667   4.767 -34.525  1.00  0.00     0.058 A 
HETATM   22  C   UNL     1     -10.797   3.946 -34.672  1.00  0.00     0.031 A 
HETATM   23  C   UNL     1     -12.040   4.503 -34.980  1.00  0.00     0.002 A 
HETATM   24  C   UNL     1     -12.165   5.881 -35.141  1.00  0.00     0.000 A 
HETATM   25  C   UNL     1     -11.049   6.704 -34.995  1.00  0.00     0.002 A 
HETATM   26  C   UNL     1      -9.801   6.153 -34.689  1.00  0.00     0.031 A 
ENDBRANCH  13  21
ENDBRANCH   7  10
BRANCH   1  27
HETATM   27  C   UNL     1      -6.680   1.207 -30.891  1.00  0.00     0.270 C 
HETATM   28  O   UNL     1      -7.720   0.601 -31.137  1.00  0.00    -0.265 OA
BRANCH  27  29
HETATM   29  O   UNL     1      -6.459   1.886 -29.742  1.00  0.00    -0.321 OA
BRANCH  29  30
HETATM   30  C   UNL     1      -6.209   3.296 -29.863  1.00  0.00     0.174 C 
HETATM   31  C   UNL     1      -7.471   4.024 -30.285  1.00  0.00     0.034 C 
ENDBRANCH  29  30
ENDBRANCH  27  29
ENDBRANCH   1  27
BRANCH   2  32
HETATM   32  C   UNL     1      -3.415   0.068 -32.669  1.00  0.00     0.439 C 
HETATM   33  F   UNL     1      -2.392  -0.498 -31.982  1.00  0.00    -0.166 F 
HETATM   34  F   UNL     1      -3.500  -0.557 -33.868  1.00  0.00    -0.166 F 
HETATM   35  F   UNL     1      -3.056   1.345 -32.927  1.00  0.00    -0.166 F 
ENDBRANCH   2  32
BRANCH   2  36
HETATM   36  O   UNL     1      -4.424  -0.436 -30.520  1.00  0.00    -0.363 OA
HETATM   37  H   UNL     1      -4.283  -1.403 -30.486  1.00  0.00     0.213 HD
ENDBRANCH   2  36
TORSDOF 8
ENDMDL
MODEL 6
REMARK VINA RESULT:      -7.9      1.858      3.154
REMARK  8 active torsions:
REMARK  status: ('A' for Active; 'I' for Inactive)
REMARK    1  A    between atoms: C_2  and  O_3 
REMARK    2  A    between atoms: O_3  and  C_4 
REMARK    3  A    between atoms: C_4  and  C_5 
REMARK    4  A    between atoms: C_6  and  C_8 
REMARK    5  A    between atoms: C_6  and  O_7 
REMARK    6  A    between atoms: C_16  and  C_17 
REMARK    7  A    between atoms: C_18  and  C_19 
REMARK    8  A    between atoms: N_26  and  C_27 
ROOT
HETATM    1  C   UNL     1      -5.817   2.589 -31.031  1.00  0.00     0.177 C 
HETATM    2  C   UNL     1      -5.935   4.028 -30.466  1.00  0.00     0.250 C 
HETATM    3  N   UNL     1      -5.853   4.971 -31.561  1.00  0.00    -0.303 N 
HETATM    4  C   UNL     1      -6.524   4.789 -32.729  1.00  0.00     0.319 C 
HETATM    5  O   UNL     1      -6.700   5.709 -33.513  1.00  0.00    -0.247 OA
HETATM    6  N   UNL     1      -6.941   3.524 -33.000  1.00  0.00    -0.333 N 
HETATM    7  C   UNL     1      -6.939   2.421 -32.058  1.00  0.00     0.142 C 
HETATM    8  H   UNL     1      -5.646   5.938 -31.341  1.00  0.00     0.167 HD
HETATM    9  H   UNL     1      -7.479   3.455 -33.857  1.00  0.00     0.165 HD
ENDROOT
BRANCH   7  10
HETATM   10  C   UNL     1      -7.067   1.097 -32.768  1.00  0.00     0.015 A 
HETATM   11  C   UNL     1      -8.194   0.597 -33.502  1.00  0.00     0.097 A 
HETATM   12  N   UNL     1      -7.944  -0.610 -34.020  1.00  0.00    -0.167 NA
HETATM   13  N   UNL     1      -6.699  -0.938 -33.616  1.00  0.00    -0.244 N 
HETATM   14  C   UNL     1      -6.165   0.048 -32.816  1.00  0.00     0.130 A 
BRANCH  11  15
HETATM   15  C   UNL     1      -9.489   1.231 -33.747  1.00  0.00    -0.005 A 
HETATM   16  C   UNL     1      -9.546   2.454 -34.430  1.00  0.00     0.014 A 
HETATM   17  C   UNL     1     -10.772   3.081 -34.662  1.00  0.00     0.001 A 
HETATM   18  C   UNL     1     -11.952   2.490 -34.216  1.00  0.00     0.000 A 
HETATM   19  C   UNL     1     -11.909   1.266 -33.550  1.00  0.00     0.001 A 
HETATM   20  C   UNL     1     -10.684   0.635 -33.323  1.00  0.00     0.014 A 
ENDBRANCH  11  15
BRANCH  13  21
HETATM   21  C   UNL     1      -6.102  -2.167 -34.017  1.00  0.00     0.058 A 
HETATM   22  C   UNL     1      -6.903  -3.160 -34.604  1.00  0.00     0.031 A 
HETATM   23  C   UNL     1      -6.341  -4.371 -35.012  1.00  0.00     0.002 A 
HETATM   24  C   UNL     1      -4.977  -4.598 -34.841  1.00  0.00     0.000 A 
HETATM   25  C   UNL     1      -4.174  -3.617 -34.261  1.00  0.00     0.002 A 
HETATM   26  C   UNL     1      -4.730  -2.403 -33.848  1.00  0.00     0.031 A 
ENDBRANCH  13  21
ENDBRANCH   7  10
BRANCH   1  27
HETATM   27  C   UNL     1      -4.406   2.407 -31.558  1.00  0.00     0.270 C 
HETATM   28  O   UNL     1      -3.599   1.686 -30.975  1.00  0.00    -0.265 OA
BRANCH  27  29
HETATM   29  O   UNL     1      -4.108   3.130 -32.661  1.00  0.00    -0.321 OA
BRANCH  29  30
HETATM   30  C   UNL     1      -2.727   3.477 -32.855  1.00  0.00     0.174 C 
HETATM   31  C   UNL     1      -2.410   4.792 -32.167  1.00  0.00     0.034 C 
ENDBRANCH  29  30
ENDBRANCH  27  29
ENDBRANCH   1  27
BRANCH   2  32
HETATM   32  C   UNL     1      -7.269   4.202 -29.635  1.00  0.00     0.439 C 
HETATM   33  F   UNL     1      -7.031   4.855 -28.471  1.00  0.00    -0.166 F 
HETATM   34  F   UNL     1      -8.196   4.913 -30.322  1.00  0.00    -0.166 F 
HETATM   35  F   UNL     1      -7.852   3.026 -29.313  1.00  0.00    -0.166 F 
ENDBRANCH   2  32
BRANCH   2  36
HETATM   36  O   UNL     1      -4.849   4.375 -29.594  1.00  0.00    -0.363 OA
HETATM   37  H   UNL     1      -4.066   4.621 -30.125  1.00  0.00     0.213 HD
ENDBRANCH   2  36
TORSDOF 8
ENDMDL
MODEL 7
REMARK VINA RESULT:      -7.9      2.008      5.179
REMARK  8 active torsions:
REMARK  status: ('A' for Active; 'I' for Inactive)
REMARK    1  A    between atoms: C_2  and  O_3 
REMARK    2  A    between atoms: O_3  and  C_4 
REMARK    3  A    between atoms: C_4  and  C_5 
REMARK    4  A    between atoms: C_6  and  C_8 
REMARK    5  A    between atoms: C_6  and  O_7 
REMARK    6  A    between atoms: C_16  and  C_17 
REMARK    7  A    between atoms: C_18  and  C_19 
REMARK    8  A    between atoms: N_26  and  C_27 
ROOT
HETATM    1  C   UNL     1      -6.274   3.155 -31.516  1.00  0.00     0.177 C 
HETATM    2  C   UNL     1      -4.970   3.270 -30.684  1.00  0.00     0.250 C 
HETATM    3  N   UNL     1      -5.068   2.397 -29.534  1.00  0.00    -0.303 N 
HETATM    4  C   UNL     1      -5.546   1.127 -29.623  1.00  0.00     0.319 C 
HETATM    5  O   UNL     1      -5.344   0.307 -28.740  1.00  0.00    -0.247 OA
HETATM    6  N   UNL     1      -6.299   0.837 -30.716  1.00  0.00    -0.333 N 
HETATM    7  C   UNL     1      -6.435   1.680 -31.889  1.00  0.00     0.142 C 
HETATM    8  H   UNL     1      -4.430   2.553 -28.763  1.00  0.00     0.167 HD
HETATM    9  H   UNL     1      -6.586  -0.136 -30.758  1.00  0.00     0.165 HD
ENDROOT
BRANCH   7  10
HETATM   10  C   UNL     1      -7.630   1.277 -32.715  1.00  0.00     0.015 A 
HETATM   11  C   UNL     1      -7.748   0.156 -33.603  1.00  0.00     0.097 A 
HETATM   12  N   UNL     1      -8.967   0.095 -34.153  1.00  0.00    -0.167 NA
HETATM   13  N   UNL     1      -9.642   1.163 -33.683  1.00  0.00    -0.244 N 
HETATM   14  C   UNL     1      -8.845   1.924 -32.855  1.00  0.00     0.130 A 
BRANCH  11  15
HETATM   15  C   UNL     1      -6.757  -0.868 -33.933  1.00  0.00    -0.005 A 
HETATM   16  C   UNL     1      -7.180  -2.110 -34.426  1.00  0.00     0.014 A 
HETATM   17  C   UNL     1      -6.250  -3.105 -34.734  1.00  0.00     0.001 A 
HETATM   18  C   UNL     1      -4.889  -2.866 -34.556  1.00  0.00     0.000 A 
HETATM   19  C   UNL     1      -4.456  -1.629 -34.081  1.00  0.00     0.001 A 
HETATM   20  C   UNL     1      -5.385  -0.630 -33.778  1.00  0.00     0.014 A 
ENDBRANCH  11  15
BRANCH  13  21
HETATM   21  C   UNL     1     -10.998   1.390 -34.052  1.00  0.00     0.058 A 
HETATM   22  C   UNL     1     -11.320   2.518 -34.822  1.00  0.00     0.031 A 
HETATM   23  C   UNL     1     -12.641   2.760 -35.204  1.00  0.00     0.002 A 
HETATM   24  C   UNL     1     -13.648   1.876 -34.824  1.00  0.00     0.000 A 
HETATM   25  C   UNL     1     -13.337   0.751 -34.061  1.00  0.00     0.002 A 
HETATM   26  C   UNL     1     -12.017   0.504 -33.673  1.00  0.00     0.031 A 
ENDBRANCH  13  21
ENDBRANCH   7  10
BRANCH   1  27
HETATM   27  C   UNL     1      -7.403   3.758 -30.701  1.00  0.00     0.270 C 
HETATM   28  O   UNL     1      -7.946   3.122 -29.800  1.00  0.00    -0.265 OA
BRANCH  27  29
HETATM   29  O   UNL     1      -7.782   4.999 -31.079  1.00  0.00    -0.321 OA
BRANCH  29  30
HETATM   30  C   UNL     1      -9.169   5.335 -30.901  1.00  0.00     0.174 C 
HETATM   31  C   UNL     1      -9.859   5.463 -32.246  1.00  0.00     0.034 C 
ENDBRANCH  29  30
ENDBRANCH  27  29
ENDBRANCH   1  27
BRANCH   2  32
HETATM   32  C   UNL     1      -3.703   2.939 -31.570  1.00  0.00     0.439 C 
HETATM   33  F   UNL     1      -3.965   3.146 -32.885  1.00  0.00    -0.166 F 
HETATM   34  F   UNL     1      -2.645   3.716 -31.236  1.00  0.00    -0.166 F 
HETATM   35  F   UNL     1      -3.290   1.658 -31.449  1.00  0.00    -0.166 F 
ENDBRANCH   2  32
BRANCH   2  36
HETATM   36  O   UNL     1      -4.771   4.583 -30.139  1.00  0.00    -0.363 OA
HETATM   37  H   UNL     1      -5.636   5.007 -29.978  1.00  0.00     0.213 HD
ENDBRANCH   2  36
TORSDOF 8
ENDMDL
MODEL 8
REMARK VINA RESULT:      -7.9      2.159      5.344
REMARK  8 active torsions:
REMARK  status: ('A' for Active; 'I' for Inactive)
REMARK    1  A    between atoms: C_2  and  O_3 
REMARK    2  A    between atoms: O_3  and  C_4 
REMARK    3  A    between atoms: C_4  and  C_5 
REMARK    4  A    between atoms: C_6  and  C_8 
REMARK    5  A    between atoms: C_6  and  O_7 
REMARK    6  A    between atoms: C_16  and  C_17 
REMARK    7  A    between atoms: C_18  and  C_19 
REMARK    8  A    between atoms: N_26  and  C_27 
ROOT
HETATM    1  C   UNL     1      -6.609   4.130 -33.222  1.00  0.00     0.177 C 
HETATM    2  C   UNL     1      -5.397   4.786 -32.513  1.00  0.00     0.250 C 
HETATM    3  N   UNL     1      -5.753   5.073 -31.140  1.00  0.00    -0.303 N 
HETATM    4  C   UNL     1      -6.420   4.180 -30.361  1.00  0.00     0.319 C 
HETATM    5  O   UNL     1      -6.447   4.292 -29.145  1.00  0.00    -0.247 OA
HETATM    6  N   UNL     1      -7.095   3.194 -31.008  1.00  0.00    -0.333 N 
HETATM    7  C   UNL     1      -6.971   2.879 -32.419  1.00  0.00     0.142 C 
HETATM    8  H   UNL     1      -5.180   5.732 -30.628  1.00  0.00     0.167 HD
HETATM    9  H   UNL     1      -7.532   2.529 -30.379  1.00  0.00     0.165 HD
ENDROOT
BRANCH   7  10
HETATM   10  C   UNL     1      -8.125   2.033 -32.892  1.00  0.00     0.015 A 
HETATM   11  C   UNL     1      -8.092   0.670 -33.339  1.00  0.00     0.097 A 
HETATM   12  N   UNL     1      -9.313   0.231 -33.663  1.00  0.00    -0.167 NA
HETATM   13  N   UNL     1     -10.145   1.277 -33.480  1.00  0.00    -0.244 N 
HETATM   14  C   UNL     1      -9.450   2.393 -33.066  1.00  0.00     0.130 A 
BRANCH  11  15
HETATM   15  C   UNL     1      -6.949  -0.237 -33.450  1.00  0.00    -0.005 A 
HETATM   16  C   UNL     1      -6.826  -1.065 -34.574  1.00  0.00     0.014 A 
HETATM   17  C   UNL     1      -5.749  -1.947 -34.691  1.00  0.00     0.001 A 
HETATM   18  C   UNL     1      -4.785  -2.007 -33.687  1.00  0.00     0.000 A 
HETATM   19  C   UNL     1      -4.889  -1.177 -32.573  1.00  0.00     0.001 A 
HETATM   20  C   UNL     1      -5.962  -0.289 -32.457  1.00  0.00     0.014 A 
ENDBRANCH  11  15
BRANCH  13  21
HETATM   21  C   UNL     1     -11.543   1.146 -33.711  1.00  0.00     0.058 A 
HETATM   22  C   UNL     1     -12.175  -0.076 -33.430  1.00  0.00     0.031 A 
HETATM   23  C   UNL     1     -13.546  -0.228 -33.641  1.00  0.00     0.002 A 
HETATM   24  C   UNL     1     -14.297   0.837 -34.132  1.00  0.00     0.000 A 
HETATM   25  C   UNL     1     -13.679   2.055 -34.413  1.00  0.00     0.002 A 
HETATM   26  C   UNL     1     -12.306   2.214 -34.206  1.00  0.00     0.031 A 
ENDBRANCH  13  21
ENDBRANCH   7  10
BRANCH   1  27
HETATM   27  C   UNL     1      -7.702   5.176 -33.344  1.00  0.00     0.270 C 
HETATM   28  O   UNL     1      -7.990   5.906 -32.399  1.00  0.00    -0.265 OA
BRANCH  27  29
HETATM   29  O   UNL     1      -8.346   5.195 -34.533  1.00  0.00    -0.321 OA
BRANCH  29  30
HETATM   30  C   UNL     1      -9.653   5.793 -34.551  1.00  0.00     0.174 C 
HETATM   31  C   UNL     1     -10.544   5.087 -35.556  1.00  0.00     0.034 C 
ENDBRANCH  29  30
ENDBRANCH  27  29
ENDBRANCH   1  27
BRANCH   2  32
HETATM   32  C   UNL     1      -4.116   3.863 -32.611  1.00  0.00     0.439 C 
HETATM   33  F   UNL     1      -4.439   2.640 -33.100  1.00  0.00    -0.166 F 
HETATM   34  F   UNL     1      -3.177   4.397 -33.428  1.00  0.00    -0.166 F 
HETATM   35  F   UNL     1      -3.515   3.662 -31.417  1.00  0.00    -0.166 F 
ENDBRANCH   2  32
BRANCH   2  36
HETATM   36  O   UNL     1      -5.041   6.057 -33.078  1.00  0.00    -0.363 OA
HETATM   37  H   UNL     1      -5.743   6.352 -33.692  1.00  0.00     0.213 HD
ENDBRANCH   2  36
TORSDOF 8
ENDMDL
MODEL 9
REMARK VINA RESULT:      -7.8      2.684      4.771
REMARK  8 active torsions:
REMARK  status: ('A' for Active; 'I' for Inactive)
REMARK    1  A    between atoms: C_2  and  O_3 
REMARK    2  A    between atoms: O_3  and  C_4 
REMARK    3  A    between atoms: C_4  and  C_5 
REMARK    4  A    between atoms: C_6  and  C_8 
REMARK    5  A    between atoms: C_6  and  O_7 
REMARK    6  A    between atoms: C_16  and  C_17 
REMARK    7  A    between atoms: C_18  and  C_19 
REMARK    8  A    between atoms: N_26  and  C_27 
ROOT
HETATM    1  C   UNL     1     -10.193   2.081 -33.897  1.00  0.00     0.177 C 
HETATM    2  C   UNL     1     -11.096   3.263 -33.461  1.00  0.00     0.250 C 
HETATM    3  N   UNL     1     -11.127   3.323 -32.015  1.00  0.00    -0.303 N 
HETATM    4  C   UNL     1     -10.006   3.187 -31.258  1.00  0.00     0.319 C 
HETATM    5  O   UNL     1      -9.981   3.538 -30.088  1.00  0.00    -0.247 OA
HETATM    6  N   UNL     1      -8.937   2.597 -31.855  1.00  0.00    -0.333 N 
HETATM    7  C   UNL     1      -8.816   2.320 -33.274  1.00  0.00     0.142 C 
HETATM    8  H   UNL     1     -11.869   3.855 -31.576  1.00  0.00     0.167 HD
HETATM    9  H   UNL     1      -8.113   2.568 -31.263  1.00  0.00     0.165 HD
ENDROOT
BRANCH   7  10
HETATM   10  C   UNL     1      -7.724   1.316 -33.543  1.00  0.00     0.015 A 
HETATM   11  C   UNL     1      -6.308   1.544 -33.581  1.00  0.00     0.097 A 
HETATM   12  N   UNL     1      -5.637   0.413 -33.825  1.00  0.00    -0.167 NA
HETATM   13  N   UNL     1      -6.571  -0.546 -33.988  1.00  0.00    -0.244 N 
HETATM   14  C   UNL     1      -7.840  -0.022 -33.876  1.00  0.00     0.130 A 
BRANCH  11  15
HETATM   15  C   UNL     1      -5.569   2.790 -33.373  1.00  0.00    -0.005 A 
HETATM   16  C   UNL     1      -4.637   2.878 -32.329  1.00  0.00     0.014 A 
HETATM   17  C   UNL     1      -3.931   4.062 -32.107  1.00  0.00     0.001 A 
HETATM   18  C   UNL     1      -4.148   5.167 -32.927  1.00  0.00     0.000 A 
HETATM   19  C   UNL     1      -5.061   5.085 -33.977  1.00  0.00     0.001 A 
HETATM   20  C   UNL     1      -5.763   3.900 -34.205  1.00  0.00     0.014 A 
ENDBRANCH  11  15
BRANCH  13  21
HETATM   21  C   UNL     1      -6.194  -1.895 -34.241  1.00  0.00     0.058 A 
HETATM   22  C   UNL     1      -4.844  -2.264 -34.128  1.00  0.00     0.031 A 
HETATM   23  C   UNL     1      -4.448  -3.582 -34.363  1.00  0.00     0.002 A 
HETATM   24  C   UNL     1      -5.396  -4.541 -34.710  1.00  0.00     0.000 A 
HETATM   25  C   UNL     1      -6.740  -4.185 -34.823  1.00  0.00     0.002 A 
HETATM   26  C   UNL     1      -7.142  -2.867 -34.591  1.00  0.00     0.031 A 
ENDBRANCH  13  21
ENDBRANCH   7  10
BRANCH   1  27
HETATM   27  C   UNL     1     -10.884   0.791 -33.498  1.00  0.00     0.270 C 
HETATM   28  O   UNL     1     -10.445   0.090 -32.589  1.00  0.00    -0.265 OA
BRANCH  27  29
HETATM   29  O   UNL     1     -11.963   0.465 -34.245  1.00  0.00    -0.321 OA
BRANCH  29  30
HETATM   30  C   UNL     1     -12.999  -0.287 -33.591  1.00  0.00     0.174 C 
HETATM   31  C   UNL     1     -14.364   0.266 -33.954  1.00  0.00     0.034 C 
ENDBRANCH  29  30
ENDBRANCH  27  29
ENDBRANCH   1  27
BRANCH   2  32
HETATM   32  C   UNL     1     -10.598   4.622 -34.097  1.00  0.00     0.439 C 
HETATM   33  F   UNL     1     -11.629   5.491 -34.247  1.00  0.00    -0.166 F 
HETATM   34  F   UNL     1      -9.664   5.223 -33.322  1.00  0.00    -0.166 F 
HETATM   35  F   UNL     1     -10.038   4.463 -35.317  1.00  0.00    -0.166 F 
ENDBRANCH   2  32
BRANCH   2  36
HETATM   36  O   UNL     1     -12.466   3.092 -33.855  1.00  0.00    -0.363 OA
HETATM   37  H   UNL     1     -12.671   2.139 -33.928  1.00  0.00     0.213 HD
ENDBRANCH   2  36
TORSDOF 8
ENDMDL
MODEL 10
REMARK VINA RESULT:      -7.7      1.954      5.046
REMARK  8 active torsions:
REMARK  status: ('A' for Active; 'I' for Inactive)
REMARK    1  A    between atoms: C_2  and  O_3 
REMARK    2  A    between atoms: O_3  and  C_4 
REMARK    3  A    between atoms: C_4  and  C_5 
REMARK    4  A    between atoms: C_6  and  C_8 
REMARK    5  A    between atoms: C_6  and  O_7 
REMARK    6  A    between atoms: C_16  and  C_17 
REMARK    7  A    between atoms: C_18  and  C_19 
REMARK    8  A    between atoms: N_26  and  C_27 
ROOT
HETATM    1  C   UNL     1      -5.488   4.989 -33.117  1.00  0.00     0.177 C 
HETATM    2  C   UNL     1      -4.028   5.502 -33.018  1.00  0.00     0.250 C 
HETATM    3  N   UNL     1      -3.335   4.754 -31.991  1.00  0.00    -0.303 N 
HETATM    4  C   UNL     1      -3.447   3.404 -31.875  1.00  0.00     0.319 C 
HETATM    5  O   UNL     1      -2.643   2.753 -31.225  1.00  0.00    -0.247 OA
HETATM    6  N   UNL     1      -4.522   2.829 -32.475  1.00  0.00    -0.333 N 
HETATM    7  C   UNL     1      -5.414   3.489 -33.410  1.00  0.00     0.142 C 
HETATM    8  H   UNL     1      -2.474   5.139 -31.621  1.00  0.00     0.167 HD
HETATM    9  H   UNL     1      -4.527   1.817 -32.401  1.00  0.00     0.165 HD
ENDROOT
BRANCH   7  10
HETATM   10  C   UNL     1      -6.704   2.725 -33.565  1.00  0.00     0.015 A 
HETATM   11  C   UNL     1      -6.914   1.314 -33.415  1.00  0.00     0.097 A 
HETATM   12  N   UNL     1      -8.198   0.988 -33.604  1.00  0.00    -0.167 NA
HETATM   13  N   UNL     1      -8.832   2.137 -33.911  1.00  0.00    -0.244 N 
HETATM   14  C   UNL     1      -7.948   3.194 -33.948  1.00  0.00     0.130 A 
BRANCH  11  15
HETATM   15  C   UNL     1      -5.948   0.268 -33.080  1.00  0.00    -0.005 A 
HETATM   16  C   UNL     1      -5.532   0.106 -31.751  1.00  0.00     0.014 A 
HETATM   17  C   UNL     1      -4.600  -0.878 -31.414  1.00  0.00     0.001 A 
HETATM   18  C   UNL     1      -4.079  -1.711 -32.401  1.00  0.00     0.000 A 
HETATM   19  C   UNL     1      -4.497  -1.570 -33.723  1.00  0.00     0.001 A 
HETATM   20  C   UNL     1      -5.433  -0.590 -34.062  1.00  0.00     0.014 A 
ENDBRANCH  11  15
BRANCH  13  21
HETATM   21  C   UNL     1     -10.235   2.154 -34.151  1.00  0.00     0.058 A 
HETATM   22  C   UNL     1     -11.027   1.100 -33.668  1.00  0.00     0.031 A 
HETATM   23  C   UNL     1     -12.407   1.096 -33.884  1.00  0.00     0.002 A 
HETATM   24  C   UNL     1     -13.005   2.144 -34.580  1.00  0.00     0.000 A 
HETATM   25  C   UNL     1     -12.227   3.195 -35.062  1.00  0.00     0.002 A 
HETATM   26  C   UNL     1     -10.846   3.205 -34.851  1.00  0.00     0.031 A 
ENDBRANCH  13  21
ENDBRANCH   7  10
BRANCH   1  27
HETATM   27  C   UNL     1      -6.209   5.379 -31.840  1.00  0.00     0.270 C 
HETATM   28  O   UNL     1      -6.913   6.385 -31.791  1.00  0.00    -0.265 OA
BRANCH  27  29
HETATM   29  O   UNL     1      -5.972   4.575 -30.780  1.00  0.00    -0.321 OA
BRANCH  29  30
HETATM   30  C   UNL     1      -7.092   4.277 -29.930  1.00  0.00     0.174 C 
HETATM   31  C   UNL     1      -7.424   2.798 -29.990  1.00  0.00     0.034 C 
ENDBRANCH  29  30
ENDBRANCH  27  29
ENDBRANCH   1  27
BRANCH   2  32
HETATM   32  C   UNL     1      -3.297   5.402 -34.416  1.00  0.00     0.439 C 
HETATM   33  F   UNL     1      -2.406   4.379 -34.423  1.00  0.00    -0.166 F 
HETATM   34  F   UNL     1      -4.175   5.187 -35.425  1.00  0.00    -0.166 F 
HETATM   35  F   UNL     1      -2.611   6.522 -34.738  1.00  0.00    -0.166 F 
ENDBRANCH   2  32
BRANCH   2  36
HETATM   36  O   UNL     1      -3.947   6.873 -32.600  1.00  0.00    -0.363 OA
HETATM   37  H   UNL     1      -4.487   7.431 -33.193  1.00  0.00     0.213 HD
ENDBRANCH   2  36
TORSDOF 8
ENDMDL
