MODEL 1
REMARK VINA RESULT:     -10.5      0.000      0.000
REMARK  6 active torsions:
REMARK  status: ('A' for Active; 'I' for Inactive)
REMARK    1  A    between atoms: C_2  and  C_3 
REMARK    2  A    between atoms: N_6  and  C_8 
REMARK    3  A    between atoms: C_8  and  C_9 
REMARK    4  A    between atoms: C_12  and  C_13 
REMARK    5  A    between atoms: C_13  and  O_14 
REMARK    6  A    between atoms: N_24  and  C_25 
ROOT
HETATM    1  C   UNL     1      -5.922   0.457 -29.461  1.00  0.00     0.049 C 
HETATM    2  C   UNL     1      -6.361   1.330 -30.642  1.00  0.00     0.116 C 
HETATM    3  N   UNL     1      -7.607   0.843 -31.181  1.00  0.00    -0.324 N 
HETATM    4  C   UNL     1      -7.421   0.130 -32.350  1.00  0.00     0.326 C 
HETATM    5  O   UNL     1      -8.351  -0.438 -32.890  1.00  0.00    -0.247 OA
HETATM    6  N   UNL     1      -6.116   0.214 -32.720  1.00  0.00    -0.263 N 
HETATM    7  C   UNL     1      -5.437   1.006 -31.833  1.00  0.00     0.256 C 
HETATM    8  O   UNL     1      -4.284   1.400 -31.940  1.00  0.00    -0.270 OA
HETATM    9  H   UNL     1      -8.395   0.523 -30.626  1.00  0.00     0.165 HD
ENDROOT
BRANCH   2  10
HETATM   10  C   UNL     1      -6.365   2.853 -30.311  1.00  0.00     0.026 C 
HETATM   11  C   UNL     1      -7.705   3.388 -29.780  1.00  0.00     0.035 C 
HETATM   12  C   UNL     1      -8.766   3.604 -30.853  1.00  0.00     0.235 C 
HETATM   13  N   UNL     1      -8.240   4.484 -31.960  1.00  0.00    -0.067 N 
HETATM   14  H   UNL     1      -8.076   5.412 -31.548  1.00  0.00     0.280 HD
HETATM   15  C   UNL     1      -6.935   4.002 -32.545  1.00  0.00     0.235 C 
HETATM   16  C   UNL     1      -5.900   3.782 -31.452  1.00  0.00     0.035 C 
BRANCH  13  17
HETATM   17  C   UNL     1      -9.249   4.695 -33.082  1.00  0.00     0.273 C 
BRANCH  17  18
HETATM   18  C   UNL     1     -10.227   3.565 -33.261  1.00  0.00    -0.033 A 
HETATM   19  C   UNL     1      -9.881   2.416 -33.985  1.00  0.00     0.010 A 
HETATM   20  C   UNL     1     -10.820   1.399 -34.182  1.00  0.00     0.018 A 
HETATM   21  C   UNL     1     -12.118   1.512 -33.663  1.00  0.00     0.039 A 
HETATM   22  C   UNL     1     -12.461   2.653 -32.928  1.00  0.00     0.018 A 
HETATM   23  C   UNL     1     -11.523   3.669 -32.727  1.00  0.00     0.010 A 
BRANCH  21  24
HETATM   24  C   UNL     1     -13.083   0.409 -33.921  1.00  0.00     0.292 C 
HETATM   25  O   UNL     1     -13.007  -0.682 -33.383  1.00  0.00    -0.259 OA
BRANCH  24  26
HETATM   26  O   UNL     1     -14.007   0.791 -34.835  1.00  0.00    -0.323 OA
HETATM   27  C   UNL     1     -15.358   0.689 -34.376  1.00  0.00     0.213 C 
ENDBRANCH  24  26
ENDBRANCH  21  24
ENDBRANCH  17  18
ENDBRANCH  13  17
ENDBRANCH   2  10
BRANCH   6  28
HETATM   28  C   UNL     1      -5.515  -0.285 -33.963  1.00  0.00     0.106 C 
HETATM   29  C   UNL     1      -4.271  -1.183 -33.757  1.00  0.00     0.065 C 
HETATM   30  C   UNL     1      -4.787  -2.550 -34.079  1.00  0.00    -0.050 A 
HETATM   31  C   UNL     1      -6.049  -2.496 -34.675  1.00  0.00    -0.050 A 
HETATM   32  C   UNL     1      -4.133  -3.758 -33.900  1.00  0.00     0.007 A 
HETATM   33  C   UNL     1      -6.528  -1.088 -34.815  1.00  0.00     0.065 C 
HETATM   34  C   UNL     1      -6.679  -3.651 -35.113  1.00  0.00     0.007 A 
HETATM   35  C   UNL     1      -6.028  -4.873 -34.933  1.00  0.00     0.001 A 
HETATM   36  C   UNL     1      -4.764  -4.927 -34.329  1.00  0.00     0.001 A 
ENDBRANCH   6  28
TORSDOF 6
ENDMDL
MODEL 2
REMARK VINA RESULT:     -10.4      6.691     10.762
REMARK  6 active torsions:
REMARK  status: ('A' for Active; 'I' for Inactive)
REMARK    1  A    between atoms: C_2  and  C_3 
REMARK    2  A    between atoms: N_6  and  C_8 
REMARK    3  A    between atoms: C_8  and  C_9 
REMARK    4  A    between atoms: C_12  and  C_13 
REMARK    5  A    between atoms: C_13  and  O_14 
REMARK    6  A    between atoms: N_24  and  C_25 
ROOT
HETATM    1  C   UNL     1      -2.505   5.239 -35.007  1.00  0.00     0.049 C 
HETATM    2  C   UNL     1      -2.900   5.350 -33.529  1.00  0.00     0.116 C 
HETATM    3  N   UNL     1      -2.373   4.229 -32.792  1.00  0.00    -0.324 N 
HETATM    4  C   UNL     1      -3.345   3.284 -32.522  1.00  0.00     0.326 C 
HETATM    5  O   UNL     1      -3.058   2.227 -31.994  1.00  0.00    -0.247 OA
HETATM    6  N   UNL     1      -4.552   3.761 -32.923  1.00  0.00    -0.263 N 
HETATM    7  C   UNL     1      -4.404   5.028 -33.421  1.00  0.00     0.256 C 
HETATM    8  O   UNL     1      -5.300   5.796 -33.743  1.00  0.00    -0.270 OA
HETATM    9  H   UNL     1      -1.443   3.839 -32.912  1.00  0.00     0.165 HD
ENDROOT
BRANCH   2  10
HETATM   10  C   UNL     1      -2.560   6.738 -32.907  1.00  0.00     0.026 C 
HETATM   11  C   UNL     1      -1.063   7.090 -32.912  1.00  0.00     0.035 C 
HETATM   12  C   UNL     1      -0.248   6.389 -31.832  1.00  0.00     0.235 C 
HETATM   13  N   UNL     1      -0.847   6.624 -30.468  1.00  0.00    -0.067 N 
HETATM   14  H   UNL     1      -0.752   7.629 -30.271  1.00  0.00     0.280 HD
HETATM   15  C   UNL     1      -2.313   6.274 -30.385  1.00  0.00     0.235 C 
HETATM   16  C   UNL     1      -3.100   6.976 -31.481  1.00  0.00     0.035 C 
BRANCH  13  17
HETATM   17  C   UNL     1      -0.093   5.905 -29.355  1.00  0.00     0.273 C 
BRANCH  17  18
HETATM   18  C   UNL     1       0.481   6.816 -28.304  1.00  0.00    -0.033 A 
HETATM   19  C   UNL     1       0.317   6.539 -26.939  1.00  0.00     0.010 A 
HETATM   20  C   UNL     1       0.816   7.423 -25.977  1.00  0.00     0.018 A 
HETATM   21  C   UNL     1       1.482   8.596 -26.359  1.00  0.00     0.039 A 
HETATM   22  C   UNL     1       1.658   8.867 -27.720  1.00  0.00     0.018 A 
HETATM   23  C   UNL     1       1.164   7.984 -28.684  1.00  0.00     0.010 A 
BRANCH  21  24
HETATM   24  C   UNL     1       1.972   9.511 -25.293  1.00  0.00     0.292 C 
HETATM   25  O   UNL     1       1.680  10.694 -25.245  1.00  0.00    -0.259 OA
BRANCH  24  26
HETATM   26  O   UNL     1       2.783   8.849 -24.433  1.00  0.00    -0.323 OA
HETATM   27  C   UNL     1       3.998   9.538 -24.129  1.00  0.00     0.213 C 
ENDBRANCH  24  26
ENDBRANCH  21  24
ENDBRANCH  17  18
ENDBRANCH  13  17
ENDBRANCH   2  10
BRANCH   6  28
HETATM   28  C   UNL     1      -5.865   3.140 -32.707  1.00  0.00     0.106 C 
HETATM   29  C   UNL     1      -6.632   2.795 -34.007  1.00  0.00     0.065 C 
HETATM   30  C   UNL     1      -6.525   1.304 -34.073  1.00  0.00    -0.050 A 
HETATM   31  C   UNL     1      -6.041   0.769 -32.878  1.00  0.00    -0.050 A 
HETATM   32  C   UNL     1      -6.898   0.482 -35.124  1.00  0.00     0.007 A 
HETATM   33  C   UNL     1      -5.760   1.839 -31.874  1.00  0.00     0.065 C 
HETATM   34  C   UNL     1      -5.929  -0.602 -32.705  1.00  0.00     0.007 A 
HETATM   35  C   UNL     1      -6.300  -1.438 -33.761  1.00  0.00     0.001 A 
HETATM   36  C   UNL     1      -6.779  -0.900 -34.963  1.00  0.00     0.001 A 
ENDBRANCH   6  28
TORSDOF 6
ENDMDL
MODEL 3
REMARK VINA RESULT:      -9.8      2.281      7.602
REMARK  6 active torsions:
REMARK  status: ('A' for Active; 'I' for Inactive)
REMARK    1  A    between atoms: C_2  and  C_3 
REMARK    2  A    between atoms: N_6  and  C_8 
REMARK    3  A    between atoms: C_8  and  C_9 
REMARK    4  A    between atoms: C_12  and  C_13 
REMARK    5  A    between atoms: C_13  and  O_14 
REMARK    6  A    between atoms: N_24  and  C_25 
ROOT
HETATM    1  C   UNL     1      -6.681   1.400 -34.042  1.00  0.00     0.049 C 
HETATM    2  C   UNL     1      -7.644   1.839 -32.933  1.00  0.00     0.116 C 
HETATM    3  N   UNL     1      -8.565   0.772 -32.627  1.00  0.00    -0.324 N 
HETATM    4  C   UNL     1      -9.811   0.989 -33.185  1.00  0.00     0.326 C 
HETATM    5  O   UNL     1     -10.683   0.144 -33.112  1.00  0.00    -0.247 OA
HETATM    6  N   UNL     1      -9.836   2.223 -33.753  1.00  0.00    -0.263 N 
HETATM    7  C   UNL     1      -8.635   2.849 -33.547  1.00  0.00     0.256 C 
HETATM    8  O   UNL     1      -8.364   4.013 -33.805  1.00  0.00    -0.270 OA
HETATM    9  H   UNL     1      -8.314  -0.208 -32.552  1.00  0.00     0.165 HD
ENDROOT
BRANCH   2  10
HETATM   10  C   UNL     1      -6.917   2.428 -31.687  1.00  0.00     0.026 C 
HETATM   11  C   UNL     1      -5.618   3.186 -32.004  1.00  0.00     0.035 C 
HETATM   12  C   UNL     1      -4.421   2.289 -32.297  1.00  0.00     0.235 C 
HETATM   13  N   UNL     1      -4.204   1.301 -31.178  1.00  0.00    -0.067 N 
HETATM   14  H   UNL     1      -3.938   1.846 -30.348  1.00  0.00     0.280 HD
HETATM   15  C   UNL     1      -5.436   0.502 -30.831  1.00  0.00     0.235 C 
HETATM   16  C   UNL     1      -6.617   1.421 -30.557  1.00  0.00     0.035 C 
BRANCH  13  17
HETATM   17  C   UNL     1      -3.043   0.348 -31.443  1.00  0.00     0.273 C 
BRANCH  17  18
HETATM   18  C   UNL     1      -3.415  -0.884 -32.223  1.00  0.00    -0.033 A 
HETATM   19  C   UNL     1      -4.123  -0.791 -33.430  1.00  0.00     0.010 A 
HETATM   20  C   UNL     1      -4.501  -1.950 -34.115  1.00  0.00     0.018 A 
HETATM   21  C   UNL     1      -4.183  -3.217 -33.608  1.00  0.00     0.039 A 
HETATM   22  C   UNL     1      -3.465  -3.312 -32.411  1.00  0.00     0.018 A 
HETATM   23  C   UNL     1      -3.083  -2.156 -31.726  1.00  0.00     0.010 A 
BRANCH  21  24
HETATM   24  C   UNL     1      -4.630  -4.416 -34.367  1.00  0.00     0.292 C 
HETATM   25  O   UNL     1      -4.272  -5.550 -34.093  1.00  0.00    -0.259 OA
BRANCH  24  26
HETATM   26  O   UNL     1      -5.446  -4.056 -35.386  1.00  0.00    -0.323 OA
HETATM   27  C   UNL     1      -6.803  -4.478 -35.225  1.00  0.00     0.213 C 
ENDBRANCH  24  26
ENDBRANCH  21  24
ENDBRANCH  17  18
ENDBRANCH  13  17
ENDBRANCH   2  10
BRANCH   6  28
HETATM   28  C   UNL     1     -10.997   2.904 -34.339  1.00  0.00     0.106 C 
HETATM   29  C   UNL     1     -11.937   1.982 -35.152  1.00  0.00     0.065 C 
HETATM   30  C   UNL     1     -13.131   1.849 -34.259  1.00  0.00    -0.050 A 
HETATM   31  C   UNL     1     -13.089   2.762 -33.204  1.00  0.00    -0.050 A 
HETATM   32  C   UNL     1     -14.212   0.998 -34.425  1.00  0.00     0.007 A 
HETATM   33  C   UNL     1     -11.859   3.609 -33.263  1.00  0.00     0.065 C 
HETATM   34  C   UNL     1     -14.134   2.852 -32.297  1.00  0.00     0.007 A 
HETATM   35  C   UNL     1     -15.226   1.996 -32.455  1.00  0.00     0.001 A 
HETATM   36  C   UNL     1     -15.264   1.074 -33.511  1.00  0.00     0.001 A 
ENDBRANCH   6  28
TORSDOF 6
ENDMDL
MODEL 4
REMARK VINA RESULT:      -9.6      4.349      8.202
REMARK  6 active torsions:
REMARK  status: ('A' for Active; 'I' for Inactive)
REMARK    1  A    between atoms: C_2  and  C_3 
REMARK    2  A    between atoms: N_6  and  C_8 
REMARK    3  A    between atoms: C_8  and  C_9 
REMARK    4  A    between atoms: C_12  and  C_13 
REMARK    5  A    between atoms: C_13  and  O_14 
REMARK    6  A    between atoms: N_24  and  C_25 
ROOT
HETATM    1  C   UNL     1      -3.895   2.899 -32.276  1.00  0.00     0.049 C 
HETATM    2  C   UNL     1      -4.010   4.342 -32.782  1.00  0.00     0.116 C 
HETATM    3  N   UNL     1      -3.491   4.438 -34.124  1.00  0.00    -0.324 N 
HETATM    4  C   UNL     1      -2.228   4.998 -34.151  1.00  0.00     0.326 C 
HETATM    5  O   UNL     1      -1.597   5.066 -35.188  1.00  0.00    -0.247 OA
HETATM    6  N   UNL     1      -1.901   5.419 -32.901  1.00  0.00    -0.263 N 
HETATM    7  C   UNL     1      -2.946   5.182 -32.048  1.00  0.00     0.256 C 
HETATM    8  O   UNL     1      -3.041   5.556 -30.887  1.00  0.00    -0.270 OA
HETATM    9  H   UNL     1      -3.654   3.759 -34.860  1.00  0.00     0.165 HD
ENDROOT
BRANCH   2  10
HETATM   10  C   UNL     1      -5.439   4.941 -32.609  1.00  0.00     0.026 C 
HETATM   11  C   UNL     1      -6.076   4.686 -31.234  1.00  0.00     0.035 C 
HETATM   12  C   UNL     1      -6.627   3.277 -31.047  1.00  0.00     0.235 C 
HETATM   13  N   UNL     1      -7.589   2.925 -32.155  1.00  0.00    -0.067 N 
HETATM   14  H   UNL     1      -8.399   3.550 -32.055  1.00  0.00     0.280 HD
HETATM   15  C   UNL     1      -7.017   3.128 -33.537  1.00  0.00     0.235 C 
HETATM   16  C   UNL     1      -6.463   4.536 -33.691  1.00  0.00     0.035 C 
BRANCH  13  17
HETATM   17  C   UNL     1      -8.136   1.507 -32.039  1.00  0.00     0.273 C 
BRANCH  17  18
HETATM   18  C   UNL     1      -7.253   0.448 -32.643  1.00  0.00    -0.033 A 
HETATM   19  C   UNL     1      -7.593  -0.173 -33.853  1.00  0.00     0.010 A 
HETATM   20  C   UNL     1      -6.785  -1.190 -34.373  1.00  0.00     0.018 A 
HETATM   21  C   UNL     1      -5.631  -1.605 -33.695  1.00  0.00     0.039 A 
HETATM   22  C   UNL     1      -5.284  -0.977 -32.493  1.00  0.00     0.018 A 
HETATM   23  C   UNL     1      -6.087   0.041 -31.973  1.00  0.00     0.010 A 
BRANCH  21  24
HETATM   24  C   UNL     1      -4.821  -2.706 -34.283  1.00  0.00     0.292 C 
HETATM   25  O   UNL     1      -4.995  -3.130 -35.413  1.00  0.00    -0.259 OA
BRANCH  24  26
HETATM   26  O   UNL     1      -3.914  -3.161 -33.385  1.00  0.00    -0.323 OA
HETATM   27  C   UNL     1      -3.558  -4.535 -33.559  1.00  0.00     0.213 C 
ENDBRANCH  24  26
ENDBRANCH  21  24
ENDBRANCH  17  18
ENDBRANCH  13  17
ENDBRANCH   2  10
BRANCH   6  28
HETATM   28  C   UNL     1      -0.711   6.184 -32.507  1.00  0.00     0.106 C 
HETATM   29  C   UNL     1      -1.017   7.523 -31.794  1.00  0.00     0.065 C 
HETATM   30  C   UNL     1      -0.653   7.235 -30.372  1.00  0.00    -0.050 A 
HETATM   31  C   UNL     1       0.043   6.031 -30.251  1.00  0.00    -0.050 A 
HETATM   32  C   UNL     1      -0.885   8.040 -29.267  1.00  0.00     0.007 A 
HETATM   33  C   UNL     1       0.221   5.367 -31.578  1.00  0.00     0.065 C 
HETATM   34  C   UNL     1       0.532   5.611 -29.024  1.00  0.00     0.007 A 
HETATM   35  C   UNL     1       0.300   6.414 -27.905  1.00  0.00     0.001 A 
HETATM   36  C   UNL     1      -0.405   7.620 -28.026  1.00  0.00     0.001 A 
ENDBRANCH   6  28
TORSDOF 6
ENDMDL
MODEL 5
REMARK VINA RESULT:      -9.4      2.133      6.891
REMARK  6 active torsions:
REMARK  status: ('A' for Active; 'I' for Inactive)
REMARK    1  A    between atoms: C_2  and  C_3 
REMARK    2  A    between atoms: N_6  and  C_8 
REMARK    3  A    between atoms: C_8  and  C_9 
REMARK    4  A    between atoms: C_12  and  C_13 
REMARK    5  A    between atoms: C_13  and  O_14 
REMARK    6  A    between atoms: N_24  and  C_25 
ROOT
HETATM    1  C   UNL     1      -5.747   4.814 -34.150  1.00  0.00     0.049 C 
HETATM    2  C   UNL     1      -6.746   4.438 -33.050  1.00  0.00     0.116 C 
HETATM    3  N   UNL     1      -7.180   3.073 -33.223  1.00  0.00    -0.324 N 
HETATM    4  C   UNL     1      -8.443   3.000 -33.780  1.00  0.00     0.326 C 
HETATM    5  O   UNL     1      -8.928   1.928 -34.088  1.00  0.00    -0.247 OA
HETATM    6  N   UNL     1      -8.960   4.252 -33.878  1.00  0.00    -0.263 N 
HETATM    7  C   UNL     1      -8.074   5.158 -33.357  1.00  0.00     0.256 C 
HETATM    8  O   UNL     1      -8.275   6.349 -33.165  1.00  0.00    -0.270 OA
HETATM    9  H   UNL     1      -6.575   2.298 -33.474  1.00  0.00     0.165 HD
ENDROOT
BRANCH   2  10
HETATM   10  C   UNL     1      -6.231   4.763 -31.615  1.00  0.00     0.026 C 
HETATM   11  C   UNL     1      -4.805   4.268 -31.322  1.00  0.00     0.035 C 
HETATM   12  C   UNL     1      -4.703   2.775 -31.036  1.00  0.00     0.235 C 
HETATM   13  N   UNL     1      -5.646   2.374 -29.929  1.00  0.00    -0.067 N 
HETATM   14  H   UNL     1      -5.314   2.838 -29.073  1.00  0.00     0.280 HD
HETATM   15  C   UNL     1      -7.072   2.808 -30.165  1.00  0.00     0.235 C 
HETATM   16  C   UNL     1      -7.143   4.298 -30.461  1.00  0.00     0.035 C 
BRANCH  13  17
HETATM   17  C   UNL     1      -5.615   0.879 -29.633  1.00  0.00     0.273 C 
BRANCH  17  18
HETATM   18  C   UNL     1      -5.551   0.004 -30.856  1.00  0.00    -0.033 A 
HETATM   19  C   UNL     1      -4.363  -0.645 -31.219  1.00  0.00     0.010 A 
HETATM   20  C   UNL     1      -4.309  -1.415 -32.386  1.00  0.00     0.018 A 
HETATM   21  C   UNL     1      -5.437  -1.546 -33.208  1.00  0.00     0.039 A 
HETATM   22  C   UNL     1      -6.627  -0.909 -32.841  1.00  0.00     0.018 A 
HETATM   23  C   UNL     1      -6.684  -0.143 -31.674  1.00  0.00     0.010 A 
BRANCH  21  24
HETATM   24  C   UNL     1      -5.317  -2.359 -34.449  1.00  0.00     0.292 C 
HETATM   25  O   UNL     1      -4.246  -2.630 -34.967  1.00  0.00    -0.259 OA
BRANCH  24  26
HETATM   26  O   UNL     1      -6.542  -2.712 -34.907  1.00  0.00    -0.323 OA
HETATM   27  C   UNL     1      -6.741  -4.124 -35.013  1.00  0.00     0.213 C 
ENDBRANCH  24  26
ENDBRANCH  21  24
ENDBRANCH  17  18
ENDBRANCH  13  17
ENDBRANCH   2  10
BRANCH   6  28
HETATM   28  C   UNL     1     -10.321   4.618 -34.291  1.00  0.00     0.106 C 
HETATM   29  C   UNL     1     -10.879   3.783 -35.468  1.00  0.00     0.065 C 
HETATM   30  C   UNL     1     -11.886   2.898 -34.804  1.00  0.00    -0.050 A 
HETATM   31  C   UNL     1     -12.142   3.303 -33.492  1.00  0.00    -0.050 A 
HETATM   32  C   UNL     1     -12.570   1.833 -35.369  1.00  0.00     0.007 A 
HETATM   33  C   UNL     1     -11.331   4.503 -33.123  1.00  0.00     0.065 C 
HETATM   34  C   UNL     1     -13.095   2.658 -32.721  1.00  0.00     0.007 A 
HETATM   35  C   UNL     1     -13.787   1.581 -33.281  1.00  0.00     0.001 A 
HETATM   36  C   UNL     1     -13.524   1.170 -34.596  1.00  0.00     0.001 A 
ENDBRANCH   6  28
TORSDOF 6
ENDMDL
MODEL 6
REMARK VINA RESULT:      -9.4      4.910      8.790
REMARK  6 active torsions:
REMARK  status: ('A' for Active; 'I' for Inactive)
REMARK    1  A    between atoms: C_2  and  C_3 
REMARK    2  A    between atoms: N_6  and  C_8 
REMARK    3  A    between atoms: C_8  and  C_9 
REMARK    4  A    between atoms: C_12  and  C_13 
REMARK    5  A    between atoms: C_13  and  O_14 
REMARK    6  A    between atoms: N_24  and  C_25 
ROOT
HETATM    1  C   UNL     1      -2.365   3.638 -31.186  1.00  0.00     0.049 C 
HETATM    2  C   UNL     1      -3.717   3.484 -31.894  1.00  0.00     0.116 C 
HETATM    3  N   UNL     1      -4.788   3.830 -30.992  1.00  0.00    -0.324 N 
HETATM    4  C   UNL     1      -5.423   2.710 -30.491  1.00  0.00     0.326 C 
HETATM    5  O   UNL     1      -6.287   2.810 -29.640  1.00  0.00    -0.247 OA
HETATM    6  N   UNL     1      -4.929   1.604 -31.107  1.00  0.00    -0.263 N 
HETATM    7  C   UNL     1      -3.999   1.975 -32.041  1.00  0.00     0.256 C 
HETATM    8  O   UNL     1      -3.459   1.249 -32.863  1.00  0.00    -0.270 OA
HETATM    9  H   UNL     1      -4.777   4.617 -30.352  1.00  0.00     0.165 HD
ENDROOT
BRANCH   2  10
HETATM   10  C   UNL     1      -3.778   4.220 -33.265  1.00  0.00     0.026 C 
HETATM   11  C   UNL     1      -2.414   4.412 -33.949  1.00  0.00     0.035 C 
HETATM   12  C   UNL     1      -1.570   5.538 -33.365  1.00  0.00     0.235 C 
HETATM   13  N   UNL     1      -2.344   6.833 -33.344  1.00  0.00    -0.067 N 
HETATM   14  H   UNL     1      -2.509   7.097 -34.324  1.00  0.00     0.280 HD
HETATM   15  C   UNL     1      -3.686   6.723 -32.663  1.00  0.00     0.235 C 
HETATM   16  C   UNL     1      -4.501   5.584 -33.256  1.00  0.00     0.035 C 
BRANCH  13  17
HETATM   17  C   UNL     1      -1.558   7.985 -32.727  1.00  0.00     0.273 C 
BRANCH  17  18
HETATM   18  C   UNL     1      -1.068   7.725 -31.328  1.00  0.00    -0.033 A 
HETATM   19  C   UNL     1       0.062   6.929 -31.093  1.00  0.00     0.010 A 
HETATM   20  C   UNL     1       0.474   6.659 -29.784  1.00  0.00     0.018 A 
HETATM   21  C   UNL     1      -0.235   7.175 -28.691  1.00  0.00     0.039 A 
HETATM   22  C   UNL     1      -1.356   7.980 -28.923  1.00  0.00     0.018 A 
HETATM   23  C   UNL     1      -1.767   8.254 -30.230  1.00  0.00     0.010 A 
BRANCH  21  24
HETATM   24  C   UNL     1       0.234   6.837 -27.319  1.00  0.00     0.292 C 
HETATM   25  O   UNL     1      -0.485   6.329 -26.475  1.00  0.00    -0.259 OA
BRANCH  24  26
HETATM   26  O   UNL     1       1.531   7.194 -27.159  1.00  0.00    -0.323 OA
HETATM   27  C   UNL     1       1.717   8.557 -26.768  1.00  0.00     0.213 C 
ENDBRANCH  24  26
ENDBRANCH  21  24
ENDBRANCH  17  18
ENDBRANCH  13  17
ENDBRANCH   2  10
BRANCH   6  28
HETATM   28  C   UNL     1      -5.412   0.224 -30.969  1.00  0.00     0.106 C 
HETATM   29  C   UNL     1      -6.782  -0.044 -31.638  1.00  0.00     0.065 C 
HETATM   30  C   UNL     1      -6.414  -0.852 -32.842  1.00  0.00    -0.050 A 
HETATM   31  C   UNL     1      -5.086  -1.279 -32.790  1.00  0.00    -0.050 A 
HETATM   32  C   UNL     1      -7.244  -1.226 -33.887  1.00  0.00     0.007 A 
HETATM   33  C   UNL     1      -4.406  -0.801 -31.548  1.00  0.00     0.065 C 
HETATM   34  C   UNL     1      -4.562  -2.099 -33.778  1.00  0.00     0.007 A 
HETATM   35  C   UNL     1      -5.391  -2.478 -34.836  1.00  0.00     0.001 A 
HETATM   36  C   UNL     1      -6.723  -2.043 -34.891  1.00  0.00     0.001 A 
ENDBRANCH   6  28
TORSDOF 6
ENDMDL
MODEL 7
REMARK VINA RESULT:      -9.3      3.365      7.288
REMARK  6 active torsions:
REMARK  status: ('A' for Active; 'I' for Inactive)
REMARK    1  A    between atoms: C_2  and  C_3 
REMARK    2  A    between atoms: N_6  and  C_8 
REMARK    3  A    between atoms: C_8  and  C_9 
REMARK    4  A    between atoms: C_12  and  C_13 
REMARK    5  A    between atoms: C_13  and  O_14 
REMARK    6  A    between atoms: N_24  and  C_25 
ROOT
HETATM    1  C   UNL     1      -6.813   5.262 -30.340  1.00  0.00     0.049 C 
HETATM    2  C   UNL     1      -6.851   4.644 -31.743  1.00  0.00     0.116 C 
HETATM    3  N   UNL     1      -6.298   3.312 -31.711  1.00  0.00    -0.324 N 
HETATM    4  C   UNL     1      -5.011   3.276 -32.213  1.00  0.00     0.326 C 
HETATM    5  O   UNL     1      -4.354   2.253 -32.173  1.00  0.00    -0.247 OA
HETATM    6  N   UNL     1      -4.694   4.498 -32.716  1.00  0.00    -0.263 N 
HETATM    7  C   UNL     1      -5.767   5.339 -32.591  1.00  0.00     0.256 C 
HETATM    8  O   UNL     1      -5.872   6.464 -33.058  1.00  0.00    -0.270 OA
HETATM    9  H   UNL     1      -6.475   2.626 -30.984  1.00  0.00     0.165 HD
ENDROOT
BRANCH   2  10
HETATM   10  C   UNL     1      -8.255   4.732 -32.413  1.00  0.00     0.026 C 
HETATM   11  C   UNL     1      -9.402   4.145 -31.574  1.00  0.00     0.035 C 
HETATM   12  C   UNL     1      -9.476   2.623 -31.587  1.00  0.00     0.235 C 
HETATM   13  N   UNL     1      -9.526   2.099 -33.001  1.00  0.00    -0.067 N 
HETATM   14  H   UNL     1     -10.416   2.418 -33.404  1.00  0.00     0.280 HD
HETATM   15  C   UNL     1      -8.411   2.617 -33.876  1.00  0.00     0.235 C 
HETATM   16  C   UNL     1      -8.352   4.137 -33.834  1.00  0.00     0.035 C 
BRANCH  13  17
HETATM   17  C   UNL     1      -9.555   0.577 -33.070  1.00  0.00     0.273 C 
BRANCH  17  18
HETATM   18  C   UNL     1      -8.205  -0.065 -33.240  1.00  0.00    -0.033 A 
HETATM   19  C   UNL     1      -7.841  -0.677 -34.448  1.00  0.00     0.010 A 
HETATM   20  C   UNL     1      -6.600  -1.311 -34.570  1.00  0.00     0.018 A 
HETATM   21  C   UNL     1      -5.706  -1.348 -33.491  1.00  0.00     0.039 A 
HETATM   22  C   UNL     1      -6.063  -0.728 -32.289  1.00  0.00     0.018 A 
HETATM   23  C   UNL     1      -7.300  -0.090 -32.165  1.00  0.00     0.010 A 
BRANCH  21  24
HETATM   24  C   UNL     1      -4.410  -2.056 -33.670  1.00  0.00     0.292 C 
HETATM   25  O   UNL     1      -4.156  -2.745 -34.644  1.00  0.00    -0.259 OA
BRANCH  24  26
HETATM   26  O   UNL     1      -3.600  -1.841 -32.606  1.00  0.00    -0.323 OA
HETATM   27  C   UNL     1      -3.105  -3.037 -31.998  1.00  0.00     0.213 C 
ENDBRANCH  24  26
ENDBRANCH  21  24
ENDBRANCH  17  18
ENDBRANCH  13  17
ENDBRANCH   2  10
BRANCH   6  28
HETATM   28  C   UNL     1      -3.480   4.862 -33.457  1.00  0.00     0.106 C 
HETATM   29  C   UNL     1      -3.138   6.371 -33.425  1.00  0.00     0.065 C 
HETATM   30  C   UNL     1      -1.958   6.427 -32.506  1.00  0.00    -0.050 A 
HETATM   31  C   UNL     1      -1.451   5.154 -32.241  1.00  0.00    -0.050 A 
HETATM   32  C   UNL     1      -1.347   7.560 -31.993  1.00  0.00     0.007 A 
HETATM   33  C   UNL     1      -2.237   4.095 -32.945  1.00  0.00     0.065 C 
HETATM   34  C   UNL     1      -0.315   4.987 -31.465  1.00  0.00     0.007 A 
HETATM   35  C   UNL     1       0.305   6.123 -30.941  1.00  0.00     0.001 A 
HETATM   36  C   UNL     1      -0.208   7.401 -31.202  1.00  0.00     0.001 A 
ENDBRANCH   6  28
TORSDOF 6
ENDMDL
MODEL 8
REMARK VINA RESULT:      -9.2      4.422      8.445
REMARK  6 active torsions:
REMARK  status: ('A' for Active; 'I' for Inactive)
REMARK    1  A    between atoms: C_2  and  C_3 
REMARK    2  A    between atoms: N_6  and  C_8 
REMARK    3  A    between atoms: C_8  and  C_9 
REMARK    4  A    between atoms: C_12  and  C_13 
REMARK    5  A    between atoms: C_13  and  O_14 
REMARK    6  A    between atoms: N_24  and  C_25 
ROOT
HETATM    1  C   UNL     1      -8.953   4.925 -32.775  1.00  0.00     0.049 C 
HETATM    2  C   UNL     1      -7.816   4.423 -31.876  1.00  0.00     0.116 C 
HETATM    3  N   UNL     1      -6.679   4.049 -32.681  1.00  0.00    -0.324 N 
HETATM    4  C   UNL     1      -6.576   2.679 -32.825  1.00  0.00     0.326 C 
HETATM    5  O   UNL     1      -5.734   2.189 -33.553  1.00  0.00    -0.247 OA
HETATM    6  N   UNL     1      -7.512   2.078 -32.045  1.00  0.00    -0.263 N 
HETATM    7  C   UNL     1      -8.214   3.028 -31.353  1.00  0.00     0.256 C 
HETATM    8  O   UNL     1      -9.033   2.831 -30.467  1.00  0.00    -0.270 OA
HETATM    9  H   UNL     1      -6.335   4.573 -33.480  1.00  0.00     0.165 HD
ENDROOT
BRANCH   2  10
HETATM   10  C   UNL     1      -7.476   5.402 -30.713  1.00  0.00     0.026 C 
HETATM   11  C   UNL     1      -7.460   6.887 -31.111  1.00  0.00     0.035 C 
HETATM   12  C   UNL     1      -6.207   7.322 -31.863  1.00  0.00     0.235 C 
HETATM   13  N   UNL     1      -4.964   6.963 -31.089  1.00  0.00    -0.067 N 
HETATM   14  H   UNL     1      -4.975   7.527 -30.229  1.00  0.00     0.280 HD
HETATM   15  C   UNL     1      -4.903   5.510 -30.686  1.00  0.00     0.235 C 
HETATM   16  C   UNL     1      -6.169   5.099 -29.951  1.00  0.00     0.035 C 
BRANCH  13  17
HETATM   17  C   UNL     1      -3.680   7.338 -31.819  1.00  0.00     0.273 C 
BRANCH  17  18
HETATM   18  C   UNL     1      -2.472   7.468 -30.930  1.00  0.00    -0.033 A 
HETATM   19  C   UNL     1      -1.448   6.511 -30.956  1.00  0.00     0.010 A 
HETATM   20  C   UNL     1      -0.358   6.623 -30.087  1.00  0.00     0.018 A 
HETATM   21  C   UNL     1      -0.273   7.688 -29.180  1.00  0.00     0.039 A 
HETATM   22  C   UNL     1      -1.287   8.651 -29.162  1.00  0.00     0.018 A 
HETATM   23  C   UNL     1      -2.376   8.543 -30.031  1.00  0.00     0.010 A 
BRANCH  21  24
HETATM   24  C   UNL     1       0.898   7.745 -28.263  1.00  0.00     0.292 C 
HETATM   25  O   UNL     1       1.668   8.690 -28.225  1.00  0.00    -0.259 OA
BRANCH  24  26
HETATM   26  O   UNL     1       0.981   6.612 -27.527  1.00  0.00    -0.323 OA
HETATM   27  C   UNL     1       0.068   6.561 -26.427  1.00  0.00     0.213 C 
ENDBRANCH  24  26
ENDBRANCH  21  24
ENDBRANCH  17  18
ENDBRANCH  13  17
ENDBRANCH   2  10
BRANCH   6  28
HETATM   28  C   UNL     1      -7.667   0.638 -31.799  1.00  0.00     0.106 C 
HETATM   29  C   UNL     1      -8.213  -0.163 -33.006  1.00  0.00     0.065 C 
HETATM   30  C   UNL     1      -7.007  -0.911 -33.483  1.00  0.00    -0.050 A 
HETATM   31  C   UNL     1      -5.958  -0.835 -32.566  1.00  0.00    -0.050 A 
HETATM   32  C   UNL     1      -6.890  -1.660 -34.643  1.00  0.00     0.007 A 
HETATM   33  C   UNL     1      -6.334  -0.022 -31.370  1.00  0.00     0.065 C 
HETATM   34  C   UNL     1      -4.770  -1.517 -32.785  1.00  0.00     0.007 A 
HETATM   35  C   UNL     1      -4.642  -2.271 -33.953  1.00  0.00     0.001 A 
HETATM   36  C   UNL     1      -5.694  -2.341 -34.877  1.00  0.00     0.001 A 
ENDBRANCH   6  28
TORSDOF 6
ENDMDL
MODEL 9
REMARK VINA RESULT:      -9.1      2.435      6.254
REMARK  6 active torsions:
REMARK  status: ('A' for Active; 'I' for Inactive)
REMARK    1  A    between atoms: C_2  and  C_3 
REMARK    2  A    between atoms: N_6  and  C_8 
REMARK    3  A    between atoms: C_8  and  C_9 
REMARK    4  A    between atoms: C_12  and  C_13 
REMARK    5  A    between atoms: C_13  and  O_14 
REMARK    6  A    between atoms: N_24  and  C_25 
ROOT
HETATM    1  C   UNL     1     -10.487   4.509 -35.307  1.00  0.00     0.049 C 
HETATM    2  C   UNL     1     -10.099   4.185 -33.859  1.00  0.00     0.116 C 
HETATM    3  N   UNL     1      -8.667   4.253 -33.704  1.00  0.00    -0.324 N 
HETATM    4  C   UNL     1      -8.090   2.997 -33.672  1.00  0.00     0.326 C 
HETATM    5  O   UNL     1      -6.882   2.866 -33.645  1.00  0.00    -0.247 OA
HETATM    6  N   UNL     1      -9.072   2.057 -33.662  1.00  0.00    -0.263 N 
HETATM    7  C   UNL     1     -10.296   2.670 -33.648  1.00  0.00     0.256 C 
HETATM    8  O   UNL     1     -11.383   2.129 -33.503  1.00  0.00    -0.270 OA
HETATM    9  H   UNL     1      -8.071   4.967 -34.111  1.00  0.00     0.165 HD
ENDROOT
BRANCH   2  10
HETATM   10  C   UNL     1     -10.891   5.022 -32.810  1.00  0.00     0.026 C 
HETATM   11  C   UNL     1     -10.236   6.361 -32.434  1.00  0.00     0.035 C 
HETATM   12  C   UNL     1      -9.061   6.238 -31.470  1.00  0.00     0.235 C 
HETATM   13  N   UNL     1      -9.460   5.471 -30.233  1.00  0.00    -0.067 N 
HETATM   14  H   UNL     1     -10.157   6.045 -29.740  1.00  0.00     0.280 HD
HETATM   15  C   UNL     1     -10.089   4.132 -30.529  1.00  0.00     0.235 C 
HETATM   16  C   UNL     1     -11.248   4.283 -31.503  1.00  0.00     0.035 C 
BRANCH  13  17
HETATM   17  C   UNL     1      -8.306   5.281 -29.255  1.00  0.00     0.273 C 
BRANCH  17  18
HETATM   18  C   UNL     1      -7.039   4.762 -29.879  1.00  0.00    -0.033 A 
HETATM   19  C   UNL     1      -6.783   3.386 -29.960  1.00  0.00     0.010 A 
HETATM   20  C   UNL     1      -5.578   2.924 -30.499  1.00  0.00     0.018 A 
HETATM   21  C   UNL     1      -4.610   3.826 -30.962  1.00  0.00     0.039 A 
HETATM   22  C   UNL     1      -4.869   5.199 -30.894  1.00  0.00     0.018 A 
HETATM   23  C   UNL     1      -6.073   5.663 -30.359  1.00  0.00     0.010 A 
BRANCH  21  24
HETATM   24  C   UNL     1      -3.337   3.280 -31.505  1.00  0.00     0.292 C 
HETATM   25  O   UNL     1      -3.070   2.090 -31.509  1.00  0.00    -0.259 OA
BRANCH  24  26
HETATM   26  O   UNL     1      -2.543   4.282 -31.953  1.00  0.00    -0.323 OA
HETATM   27  C   UNL     1      -2.337   4.276 -33.368  1.00  0.00     0.213 C 
ENDBRANCH  24  26
ENDBRANCH  21  24
ENDBRANCH  17  18
ENDBRANCH  13  17
ENDBRANCH   2  10
BRANCH   6  28
HETATM   28  C   UNL     1      -8.906   0.607 -33.500  1.00  0.00     0.106 C 
HETATM   29  C   UNL     1      -7.974  -0.052 -34.545  1.00  0.00     0.065 C 
HETATM   30  C   UNL     1      -6.743  -0.355 -33.751  1.00  0.00    -0.050 A 
HETATM   31  C   UNL     1      -6.961  -0.196 -32.381  1.00  0.00    -0.050 A 
HETATM   32  C   UNL     1      -5.523  -0.804 -34.232  1.00  0.00     0.007 A 
HETATM   33  C   UNL     1      -8.362   0.240 -32.098  1.00  0.00     0.065 C 
HETATM   34  C   UNL     1      -5.966  -0.492 -31.462  1.00  0.00     0.007 A 
HETATM   35  C   UNL     1      -4.733  -0.941 -31.939  1.00  0.00     0.001 A 
HETATM   36  C   UNL     1      -4.512  -1.094 -33.315  1.00  0.00     0.001 A 
ENDBRANCH   6  28
TORSDOF 6
ENDMDL
MODEL 10
REMARK VINA RESULT:      -9.1      4.842      8.348
REMARK  6 active torsions:
REMARK  status: ('A' for Active; 'I' for Inactive)
REMARK    1  A    between atoms: C_2  and  C_3 
REMARK    2  A    between atoms: N_6  and  C_8 
REMARK    3  A    between atoms: C_8  and  C_9 
REMARK    4  A    between atoms: C_12  and  C_13 
REMARK    5  A    between atoms: C_13  and  O_14 
REMARK    6  A    between atoms: N_24  and  C_25 
ROOT
HETATM    1  C   UNL     1      -4.529   5.035 -31.670  1.00  0.00     0.049 C 
HETATM    2  C   UNL     1      -4.075   4.023 -32.729  1.00  0.00     0.116 C 
HETATM    3  N   UNL     1      -5.175   3.697 -33.603  1.00  0.00    -0.324 N 
HETATM    4  C   UNL     1      -5.727   2.466 -33.303  1.00  0.00     0.326 C 
HETATM    5  O   UNL     1      -6.725   2.073 -33.875  1.00  0.00    -0.247 OA
HETATM    6  N   UNL     1      -4.974   1.863 -32.345  1.00  0.00    -0.263 N 
HETATM    7  C   UNL     1      -3.906   2.659 -32.031  1.00  0.00     0.256 C 
HETATM    8  O   UNL     1      -2.962   2.364 -31.310  1.00  0.00    -0.270 OA
HETATM    9  H   UNL     1      -5.842   4.366 -33.973  1.00  0.00     0.165 HD
ENDROOT
BRANCH   2  10
HETATM   10  C   UNL     1      -2.777   4.456 -33.475  1.00  0.00     0.026 C 
HETATM   11  C   UNL     1      -1.518   4.499 -32.594  1.00  0.00     0.035 C 
HETATM   12  C   UNL     1      -1.425   5.722 -31.689  1.00  0.00     0.235 C 
HETATM   13  N   UNL     1      -1.561   6.994 -32.488  1.00  0.00    -0.067 N 
HETATM   14  H   UNL     1      -0.738   7.047 -33.104  1.00  0.00     0.280 HD
HETATM   15  C   UNL     1      -2.792   7.030 -33.360  1.00  0.00     0.235 C 
HETATM   16  C   UNL     1      -2.867   5.793 -34.241  1.00  0.00     0.035 C 
BRANCH  13  17
HETATM   17  C   UNL     1      -1.518   8.247 -31.623  1.00  0.00     0.273 C 
BRANCH  17  18
HETATM   18  C   UNL     1      -1.622   7.987 -30.144  1.00  0.00    -0.033 A 
HETATM   19  C   UNL     1      -0.478   7.761 -29.367  1.00  0.00     0.010 A 
HETATM   20  C   UNL     1      -0.598   7.473 -28.003  1.00  0.00     0.018 A 
HETATM   21  C   UNL     1      -1.859   7.402 -27.396  1.00  0.00     0.039 A 
HETATM   22  C   UNL     1      -3.002   7.640 -28.168  1.00  0.00     0.018 A 
HETATM   23  C   UNL     1      -2.884   7.932 -29.529  1.00  0.00     0.010 A 
BRANCH  21  24
HETATM   24  C   UNL     1      -1.930   7.069 -25.947  1.00  0.00     0.292 C 
HETATM   25  O   UNL     1      -1.983   5.925 -25.529  1.00  0.00    -0.259 OA
BRANCH  24  26
HETATM   26  O   UNL     1      -1.950   8.199 -25.200  1.00  0.00    -0.323 OA
HETATM   27  C   UNL     1      -3.169   8.400 -24.479  1.00  0.00     0.213 C 
ENDBRANCH  24  26
ENDBRANCH  21  24
ENDBRANCH  17  18
ENDBRANCH  13  17
ENDBRANCH   2  10
BRANCH   6  28
HETATM   28  C   UNL     1      -5.127   0.496 -31.830  1.00  0.00     0.106 C 
HETATM   29  C   UNL     1      -6.518  -0.133 -32.087  1.00  0.00     0.065 C 
HETATM   30  C   UNL     1      -6.239  -1.135 -33.163  1.00  0.00    -0.050 A 
HETATM   31  C   UNL     1      -4.869  -1.324 -33.347  1.00  0.00    -0.050 A 
HETATM   32  C   UNL     1      -7.166  -1.870 -33.885  1.00  0.00     0.007 A 
HETATM   33  C   UNL     1      -4.068  -0.467 -32.421  1.00  0.00     0.065 C 
HETATM   34  C   UNL     1      -4.395  -2.262 -34.251  1.00  0.00     0.007 A 
HETATM   35  C   UNL     1      -5.321  -3.005 -34.986  1.00  0.00     0.001 A 
HETATM   36  C   UNL     1      -6.698  -2.809 -34.806  1.00  0.00     0.001 A 
ENDBRANCH   6  28
TORSDOF 6
ENDMDL
