MODEL 1
REMARK VINA RESULT:      -8.1      0.000      0.000
REMARK  8 active torsions:
REMARK  status: ('A' for Active; 'I' for Inactive)
REMARK       I    between atoms: C_2  and  N_3 
REMARK    1  A    between atoms: N_3  and  C_4 
REMARK    2  A    between atoms: C_6  and  C_7 
REMARK    3  A    between atoms: C_7  and  N_8 
REMARK    4  A    between atoms: C_11  and  C_12 
REMARK    5  A    between atoms: C_14  and  S_15 
REMARK    6  A    between atoms: S_15  and  C_16 
REMARK    7  A    between atoms: C_16  and  C_17 
REMARK    8  A    between atoms: C_17  and  N_18 
ROOT
HETATM    1  N   UNL     1      -1.447   6.610 -32.048  1.00  0.00    -0.066 N 
HETATM    2  H   UNL     1      -0.570   6.141 -31.784  1.00  0.00     0.280 HD
HETATM    3  C   UNL     1      -2.574   5.603 -31.872  1.00  0.00     0.246 C 
HETATM    4  C   UNL     1      -2.370   4.406 -32.812  1.00  0.00     0.064 C 
HETATM    5  C   UNL     1      -2.212   4.863 -34.268  1.00  0.00     0.014 C 
HETATM    6  C   UNL     1      -1.088   5.886 -34.395  1.00  0.00     0.028 C 
HETATM    7  C   UNL     1      -1.305   7.080 -33.478  1.00  0.00     0.235 C 
ENDROOT
BRANCH   4   8
HETATM    8  C   UNL     1      -3.453   3.359 -32.662  1.00  0.00     0.044 A 
HETATM    9  N   UNL     1      -3.043   2.160 -32.200  1.00  0.00    -0.227 NA
HETATM   10  C   UNL     1      -3.958   1.179 -32.098  1.00  0.00     0.188 A 
HETATM   11  N   UNL     1      -5.251   1.307 -32.418  1.00  0.00    -0.235 NA
HETATM   12  C   UNL     1      -5.634   2.519 -32.859  1.00  0.00     0.121 A 
HETATM   13  C   UNL     1      -4.773   3.586 -33.005  1.00  0.00     0.047 A 
BRANCH  10  14
HETATM   14  S   UNL     1      -3.378  -0.388 -31.502  1.00  0.00    -0.088 SA
BRANCH  14  15
HETATM   15  C   UNL     1      -4.555  -1.500 -32.335  1.00  0.00     0.110 C 
BRANCH  15  16
HETATM   16  C   UNL     1      -3.781  -2.639 -33.005  1.00  0.00     0.245 C 
BRANCH  16  17
HETATM   17  N   UNL     1      -4.417  -3.047 -34.322  1.00  0.00    -0.070 N 
HETATM   18  H   UNL     1      -3.731  -2.878 -35.072  1.00  0.00     0.279 HD
HETATM   19  C   UNL     1      -5.646  -2.213 -34.671  1.00  0.00     0.235 C 
HETATM   20  C   UNL     1      -6.798  -3.194 -34.632  1.00  0.00     0.029 C 
HETATM   21  C   UNL     1      -6.168  -4.480 -35.121  1.00  0.00     0.029 C 
HETATM   22  C   UNL     1      -4.841  -4.506 -34.392  1.00  0.00     0.235 C 
ENDBRANCH  16  17
ENDBRANCH  15  16
ENDBRANCH  14  15
ENDBRANCH  10  14
ENDBRANCH   4   8
BRANCH   1  23
HETATM   23  C   UNL     1      -1.569   7.801 -31.107  1.00  0.00     0.280 C 
BRANCH  23  24
HETATM   24  C   UNL     1      -0.805   7.622 -29.838  1.00  0.00     0.010 A 
HETATM   25  S   UNL     1      -1.161   8.602 -28.474  1.00  0.00    -0.075 SA
HETATM   26  C   UNL     1       0.024   7.833 -27.533  1.00  0.00     0.076 A 
HETATM   27  C   UNL     1       0.698   6.859 -28.228  1.00  0.00     0.038 A 
HETATM   28  C   UNL     1       0.230   6.745 -29.571  1.00  0.00     0.019 A 
BRANCH  26  29
HETATM   29  N   UNL     1       0.125   8.307 -26.248  1.00  0.00    -0.322 N 
HETATM   30  C   UNL     1       0.634   9.556 -25.946  1.00  0.00     0.218 C 
HETATM   31  C   UNL     1       0.592   9.857 -24.470  1.00  0.00     0.117 C 
HETATM   32  O   UNL     1       1.122  10.347 -26.746  1.00  0.00    -0.274 OA
HETATM   33  H   UNL     1      -0.186   7.701 -25.501  1.00  0.00     0.169 HD
ENDBRANCH  26  29
ENDBRANCH  23  24
ENDBRANCH   1  23
TORSDOF 8
ENDMDL
MODEL 2
REMARK VINA RESULT:      -8.1      3.696     10.634
REMARK  8 active torsions:
REMARK  status: ('A' for Active; 'I' for Inactive)
REMARK       I    between atoms: C_2  and  N_3 
REMARK    1  A    between atoms: N_3  and  C_4 
REMARK    2  A    between atoms: C_6  and  C_7 
REMARK    3  A    between atoms: C_7  and  N_8 
REMARK    4  A    between atoms: C_11  and  C_12 
REMARK    5  A    between atoms: C_14  and  S_15 
REMARK    6  A    between atoms: S_15  and  C_16 
REMARK    7  A    between atoms: C_16  and  C_17 
REMARK    8  A    between atoms: C_17  and  N_18 
ROOT
HETATM    1  N   UNL     1      -5.074   2.500 -32.628  1.00  0.00    -0.066 N 
HETATM    2  H   UNL     1      -4.630   1.993 -33.406  1.00  0.00     0.280 HD
HETATM    3  C   UNL     1      -4.651   3.958 -32.734  1.00  0.00     0.246 C 
HETATM    4  C   UNL     1      -3.129   4.084 -32.580  1.00  0.00     0.064 C 
HETATM    5  C   UNL     1      -2.645   3.424 -31.283  1.00  0.00     0.014 C 
HETATM    6  C   UNL     1      -3.107   1.973 -31.208  1.00  0.00     0.028 C 
HETATM    7  C   UNL     1      -4.618   1.854 -31.340  1.00  0.00     0.235 C 
ENDROOT
BRANCH   4   8
HETATM    8  C   UNL     1      -2.650   5.515 -32.700  1.00  0.00     0.044 A 
HETATM    9  N   UNL     1      -3.287   6.409 -31.916  1.00  0.00    -0.227 NA
HETATM   10  C   UNL     1      -2.933   7.703 -32.022  1.00  0.00     0.188 A 
HETATM   11  N   UNL     1      -1.988   8.169 -32.847  1.00  0.00    -0.235 NA
HETATM   12  C   UNL     1      -1.357   7.251 -33.603  1.00  0.00     0.121 A 
HETATM   13  C   UNL     1      -1.651   5.904 -33.573  1.00  0.00     0.047 A 
BRANCH  10  14
HETATM   14  S   UNL     1      -3.804   8.851 -30.988  1.00  0.00    -0.088 SA
BRANCH  14  15
HETATM   15  C   UNL     1      -3.394   8.177 -29.347  1.00  0.00     0.110 C 
BRANCH  15  16
HETATM   16  C   UNL     1      -1.873   8.156 -29.180  1.00  0.00     0.245 C 
BRANCH  16  17
HETATM   17  N   UNL     1      -1.370   6.773 -28.805  1.00  0.00    -0.070 N 
HETATM   18  H   UNL     1      -2.183   6.143 -28.751  1.00  0.00     0.279 HD
HETATM   19  C   UNL     1      -0.710   6.734 -27.429  1.00  0.00     0.235 C 
HETATM   20  C   UNL     1       0.741   6.403 -27.712  1.00  0.00     0.029 C 
HETATM   21  C   UNL     1       0.655   5.489 -28.914  1.00  0.00     0.029 C 
HETATM   22  C   UNL     1      -0.375   6.175 -29.788  1.00  0.00     0.235 C 
ENDBRANCH  16  17
ENDBRANCH  15  16
ENDBRANCH  14  15
ENDBRANCH  10  14
ENDBRANCH   4   8
BRANCH   1  23
HETATM   23  C   UNL     1      -6.572   2.305 -32.820  1.00  0.00     0.280 C 
BRANCH  23  24
HETATM   24  C   UNL     1      -6.903   1.118 -33.661  1.00  0.00     0.010 A 
HETATM   25  S   UNL     1      -6.563  -0.464 -33.088  1.00  0.00    -0.075 SA
HETATM   26  C   UNL     1      -7.193  -1.177 -34.493  1.00  0.00     0.076 A 
HETATM   27  C   UNL     1      -7.644  -0.248 -35.399  1.00  0.00     0.038 A 
HETATM   28  C   UNL     1      -7.463   1.086 -34.925  1.00  0.00     0.019 A 
BRANCH  26  29
HETATM   29  N   UNL     1      -7.143  -2.549 -34.505  1.00  0.00    -0.322 N 
HETATM   30  C   UNL     1      -6.021  -3.257 -34.893  1.00  0.00     0.218 C 
HETATM   31  C   UNL     1      -6.205  -4.748 -34.770  1.00  0.00     0.117 C 
HETATM   32  O   UNL     1      -4.985  -2.776 -35.340  1.00  0.00    -0.274 OA
HETATM   33  H   UNL     1      -7.975  -3.050 -34.220  1.00  0.00     0.169 HD
ENDBRANCH  26  29
ENDBRANCH  23  24
ENDBRANCH   1  23
TORSDOF 8
ENDMDL
MODEL 3
REMARK VINA RESULT:      -8.1      3.808     10.905
REMARK  8 active torsions:
REMARK  status: ('A' for Active; 'I' for Inactive)
REMARK       I    between atoms: C_2  and  N_3 
REMARK    1  A    between atoms: N_3  and  C_4 
REMARK    2  A    between atoms: C_6  and  C_7 
REMARK    3  A    between atoms: C_7  and  N_8 
REMARK    4  A    between atoms: C_11  and  C_12 
REMARK    5  A    between atoms: C_14  and  S_15 
REMARK    6  A    between atoms: S_15  and  C_16 
REMARK    7  A    between atoms: C_16  and  C_17 
REMARK    8  A    between atoms: C_17  and  N_18 
ROOT
HETATM    1  N   UNL     1      -6.372   1.951 -31.916  1.00  0.00    -0.066 N 
HETATM    2  H   UNL     1      -5.933   1.182 -31.392  1.00  0.00     0.280 HD
HETATM    3  C   UNL     1      -5.258   2.726 -32.606  1.00  0.00     0.246 C 
HETATM    4  C   UNL     1      -4.311   3.337 -31.565  1.00  0.00     0.064 C 
HETATM    5  C   UNL     1      -5.079   4.192 -30.548  1.00  0.00     0.014 C 
HETATM    6  C   UNL     1      -6.197   3.384 -29.897  1.00  0.00     0.028 C 
HETATM    7  C   UNL     1      -7.145   2.797 -30.931  1.00  0.00     0.235 C 
ENDROOT
BRANCH   4   8
HETATM    8  C   UNL     1      -3.169   4.104 -32.197  1.00  0.00     0.044 A 
HETATM    9  N   UNL     1      -2.070   4.247 -31.429  1.00  0.00    -0.227 NA
HETATM   10  C   UNL     1      -1.045   4.965 -31.925  1.00  0.00     0.188 A 
HETATM   11  N   UNL     1      -1.034   5.544 -33.132  1.00  0.00    -0.235 NA
HETATM   12  C   UNL     1      -2.137   5.367 -33.883  1.00  0.00     0.121 A 
HETATM   13  C   UNL     1      -3.241   4.656 -33.462  1.00  0.00     0.047 A 
BRANCH  10  14
HETATM   14  S   UNL     1       0.376   5.147 -30.880  1.00  0.00    -0.088 SA
BRANCH  14  15
HETATM   15  C   UNL     1       0.175   6.882 -30.368  1.00  0.00     0.110 C 
BRANCH  15  16
HETATM   16  C   UNL     1      -1.006   6.985 -29.398  1.00  0.00     0.245 C 
BRANCH  16  17
HETATM   17  N   UNL     1      -0.554   7.404 -28.010  1.00  0.00    -0.070 N 
HETATM   18  H   UNL     1      -1.375   7.384 -27.389  1.00  0.00     0.279 HD
HETATM   19  C   UNL     1      -0.022   8.834 -27.967  1.00  0.00     0.235 C 
HETATM   20  C   UNL     1       1.444   8.685 -27.620  1.00  0.00     0.029 C 
HETATM   21  C   UNL     1       1.459   7.480 -26.705  1.00  0.00     0.029 C 
HETATM   22  C   UNL     1       0.519   6.516 -27.401  1.00  0.00     0.235 C 
ENDBRANCH  16  17
ENDBRANCH  15  16
ENDBRANCH  14  15
ENDBRANCH  10  14
ENDBRANCH   4   8
BRANCH   1  23
HETATM   23  C   UNL     1      -7.320   1.279 -32.901  1.00  0.00     0.280 C 
BRANCH  23  24
HETATM   24  C   UNL     1      -6.740   0.058 -33.529  1.00  0.00     0.010 A 
HETATM   25  S   UNL     1      -5.431  -0.759 -32.775  1.00  0.00    -0.075 SA
HETATM   26  C   UNL     1      -5.378  -1.935 -33.996  1.00  0.00     0.076 A 
HETATM   27  C   UNL     1      -6.318  -1.722 -34.975  1.00  0.00     0.038 A 
HETATM   28  C   UNL     1      -7.099  -0.557 -34.714  1.00  0.00     0.019 A 
BRANCH  26  29
HETATM   29  N   UNL     1      -4.412  -2.895 -33.819  1.00  0.00    -0.322 N 
HETATM   30  C   UNL     1      -4.597  -4.220 -34.165  1.00  0.00     0.218 C 
HETATM   31  C   UNL     1      -3.371  -5.060 -33.917  1.00  0.00     0.117 C 
HETATM   32  O   UNL     1      -5.638  -4.717 -34.584  1.00  0.00    -0.274 OA
HETATM   33  H   UNL     1      -3.533  -2.604 -33.411  1.00  0.00     0.169 HD
ENDBRANCH  26  29
ENDBRANCH  23  24
ENDBRANCH   1  23
TORSDOF 8
ENDMDL
MODEL 4
REMARK VINA RESULT:      -7.8      2.666      3.712
REMARK  8 active torsions:
REMARK  status: ('A' for Active; 'I' for Inactive)
REMARK       I    between atoms: C_2  and  N_3 
REMARK    1  A    between atoms: N_3  and  C_4 
REMARK    2  A    between atoms: C_6  and  C_7 
REMARK    3  A    between atoms: C_7  and  N_8 
REMARK    4  A    between atoms: C_11  and  C_12 
REMARK    5  A    between atoms: C_14  and  S_15 
REMARK    6  A    between atoms: S_15  and  C_16 
REMARK    7  A    between atoms: C_16  and  C_17 
REMARK    8  A    between atoms: C_17  and  N_18 
ROOT
HETATM    1  N   UNL     1      -3.616   4.781 -31.332  1.00  0.00    -0.066 N 
HETATM    2  H   UNL     1      -3.427   4.812 -30.320  1.00  0.00     0.280 HD
HETATM    3  C   UNL     1      -5.116   4.592 -31.509  1.00  0.00     0.246 C 
HETATM    4  C   UNL     1      -5.559   3.256 -30.899  1.00  0.00     0.064 C 
HETATM    5  C   UNL     1      -4.747   2.086 -31.470  1.00  0.00     0.014 C 
HETATM    6  C   UNL     1      -3.252   2.326 -31.290  1.00  0.00     0.028 C 
HETATM    7  C   UNL     1      -2.813   3.642 -31.914  1.00  0.00     0.235 C 
ENDROOT
BRANCH   4   8
HETATM    8  C   UNL     1      -7.051   3.025 -31.028  1.00  0.00     0.044 A 
HETATM    9  N   UNL     1      -7.429   2.227 -32.048  1.00  0.00    -0.227 NA
HETATM   10  C   UNL     1      -8.746   2.032 -32.238  1.00  0.00     0.188 A 
HETATM   11  N   UNL     1      -9.713   2.567 -31.482  1.00  0.00    -0.235 NA
HETATM   12  C   UNL     1      -9.304   3.343 -30.461  1.00  0.00     0.121 A 
HETATM   13  C   UNL     1      -7.979   3.610 -30.188  1.00  0.00     0.047 A 
BRANCH  10  14
HETATM   14  S   UNL     1      -9.207   0.992 -33.599  1.00  0.00    -0.088 SA
BRANCH  14  15
HETATM   15  C   UNL     1      -7.612   0.884 -34.471  1.00  0.00     0.110 C 
BRANCH  15  16
HETATM   16  C   UNL     1      -7.491  -0.494 -35.127  1.00  0.00     0.245 C 
BRANCH  16  17
HETATM   17  N   UNL     1      -6.796  -1.488 -34.215  1.00  0.00    -0.070 N 
HETATM   18  H   UNL     1      -7.515  -1.949 -33.639  1.00  0.00     0.279 HD
HETATM   19  C   UNL     1      -5.830  -0.822 -33.239  1.00  0.00     0.235 C 
HETATM   20  C   UNL     1      -4.463  -1.329 -33.649  1.00  0.00     0.029 C 
HETATM   21  C   UNL     1      -4.748  -2.737 -34.122  1.00  0.00     0.029 C 
HETATM   22  C   UNL     1      -6.011  -2.570 -34.942  1.00  0.00     0.235 C 
ENDBRANCH  16  17
ENDBRANCH  15  16
ENDBRANCH  14  15
ENDBRANCH  10  14
ENDBRANCH   4   8
BRANCH   1  23
HETATM   23  C   UNL     1      -3.121   6.115 -31.877  1.00  0.00     0.280 C 
BRANCH  23  24
HETATM   24  C   UNL     1      -1.789   6.508 -31.335  1.00  0.00     0.010 A 
HETATM   25  S   UNL     1      -1.659   7.137 -29.742  1.00  0.00    -0.075 SA
HETATM   26  C   UNL     1       0.024   7.305 -29.878  1.00  0.00     0.076 A 
HETATM   27  C   UNL     1       0.496   6.911 -31.106  1.00  0.00     0.038 A 
HETATM   28  C   UNL     1      -0.556   6.462 -31.959  1.00  0.00     0.019 A 
BRANCH  26  29
HETATM   29  N   UNL     1       0.636   7.809 -28.757  1.00  0.00    -0.322 N 
HETATM   30  C   UNL     1       0.890   7.047 -27.632  1.00  0.00     0.218 C 
HETATM   31  C   UNL     1       1.614   7.820 -26.560  1.00  0.00     0.117 C 
HETATM   32  O   UNL     1       0.543   5.884 -27.457  1.00  0.00    -0.274 OA
HETATM   33  H   UNL     1       0.902   8.785 -28.769  1.00  0.00     0.169 HD
ENDBRANCH  26  29
ENDBRANCH  23  24
ENDBRANCH   1  23
TORSDOF 8
ENDMDL
MODEL 5
REMARK VINA RESULT:      -7.8      4.533     10.904
REMARK  8 active torsions:
REMARK  status: ('A' for Active; 'I' for Inactive)
REMARK       I    between atoms: C_2  and  N_3 
REMARK    1  A    between atoms: N_3  and  C_4 
REMARK    2  A    between atoms: C_6  and  C_7 
REMARK    3  A    between atoms: C_7  and  N_8 
REMARK    4  A    between atoms: C_11  and  C_12 
REMARK    5  A    between atoms: C_14  and  S_15 
REMARK    6  A    between atoms: S_15  and  C_16 
REMARK    7  A    between atoms: C_16  and  C_17 
REMARK    8  A    between atoms: C_17  and  N_18 
ROOT
HETATM    1  N   UNL     1      -5.677   3.059 -32.106  1.00  0.00    -0.066 N 
HETATM    2  H   UNL     1      -5.632   2.493 -32.965  1.00  0.00     0.280 HD
HETATM    3  C   UNL     1      -4.943   4.363 -32.381  1.00  0.00     0.246 C 
HETATM    4  C   UNL     1      -3.466   4.086 -32.694  1.00  0.00     0.064 C 
HETATM    5  C   UNL     1      -2.806   3.263 -31.581  1.00  0.00     0.014 C 
HETATM    6  C   UNL     1      -3.585   1.977 -31.325  1.00  0.00     0.028 C 
HETATM    7  C   UNL     1      -5.043   2.256 -30.994  1.00  0.00     0.235 C 
ENDROOT
BRANCH   4   8
HETATM    8  C   UNL     1      -2.690   5.351 -32.997  1.00  0.00     0.044 A 
HETATM    9  N   UNL     1      -2.854   6.359 -32.117  1.00  0.00    -0.227 NA
HETATM   10  C   UNL     1      -2.226   7.522 -32.368  1.00  0.00     0.188 A 
HETATM   11  N   UNL     1      -1.443   7.751 -33.430  1.00  0.00    -0.235 NA
HETATM   12  C   UNL     1      -1.283   6.720 -34.280  1.00  0.00     0.121 A 
HETATM   13  C   UNL     1      -1.889   5.493 -34.115  1.00  0.00     0.047 A 
BRANCH  10  14
HETATM   14  S   UNL     1      -2.479   8.831 -31.198  1.00  0.00    -0.088 SA
BRANCH  14  15
HETATM   15  C   UNL     1      -3.313   7.910 -29.867  1.00  0.00     0.110 C 
BRANCH  15  16
HETATM   16  C   UNL     1      -2.422   7.910 -28.622  1.00  0.00     0.245 C 
BRANCH  16  17
HETATM   17  N   UNL     1      -0.950   7.979 -28.989  1.00  0.00    -0.070 N 
HETATM   18  H   UNL     1      -0.876   8.384 -29.934  1.00  0.00     0.279 HD
HETATM   19  C   UNL     1      -0.292   6.604 -29.062  1.00  0.00     0.235 C 
HETATM   20  C   UNL     1       0.723   6.606 -27.938  1.00  0.00     0.029 C 
HETATM   21  C   UNL     1       1.188   8.046 -27.900  1.00  0.00     0.029 C 
HETATM   22  C   UNL     1      -0.104   8.823 -28.048  1.00  0.00     0.235 C 
ENDBRANCH  16  17
ENDBRANCH  15  16
ENDBRANCH  14  15
ENDBRANCH  10  14
ENDBRANCH   4   8
BRANCH   1  23
HETATM   23  C   UNL     1      -7.162   3.264 -31.835  1.00  0.00     0.280 C 
BRANCH  23  24
HETATM   24  C   UNL     1      -8.020   2.216 -32.459  1.00  0.00     0.010 A 
HETATM   25  S   UNL     1      -9.672   2.079 -32.013  1.00  0.00    -0.075 SA
HETATM   26  C   UNL     1      -9.919   0.785 -33.082  1.00  0.00     0.076 A 
HETATM   27  C   UNL     1      -8.778   0.438 -33.763  1.00  0.00     0.038 A 
HETATM   28  C   UNL     1      -7.670   1.258 -33.392  1.00  0.00     0.019 A 
BRANCH  26  29
HETATM   29  N   UNL     1     -11.200   0.291 -33.090  1.00  0.00    -0.322 N 
HETATM   30  C   UNL     1     -12.188   0.777 -33.924  1.00  0.00     0.218 C 
HETATM   31  C   UNL     1     -13.491   0.035 -33.774  1.00  0.00     0.117 C 
HETATM   32  O   UNL     1     -12.082   1.735 -34.685  1.00  0.00    -0.274 OA
HETATM   33  H   UNL     1     -11.416  -0.459 -32.446  1.00  0.00     0.169 HD
ENDBRANCH  26  29
ENDBRANCH  23  24
ENDBRANCH   1  23
TORSDOF 8
ENDMDL
MODEL 6
REMARK VINA RESULT:      -7.7      2.525      3.366
REMARK  8 active torsions:
REMARK  status: ('A' for Active; 'I' for Inactive)
REMARK       I    between atoms: C_2  and  N_3 
REMARK    1  A    between atoms: N_3  and  C_4 
REMARK    2  A    between atoms: C_6  and  C_7 
REMARK    3  A    between atoms: C_7  and  N_8 
REMARK    4  A    between atoms: C_11  and  C_12 
REMARK    5  A    between atoms: C_14  and  S_15 
REMARK    6  A    between atoms: S_15  and  C_16 
REMARK    7  A    between atoms: C_16  and  C_17 
REMARK    8  A    between atoms: C_17  and  N_18 
ROOT
HETATM    1  N   UNL     1      -2.386   5.789 -33.212  1.00  0.00    -0.066 N 
HETATM    2  H   UNL     1      -1.753   5.004 -33.417  1.00  0.00     0.280 HD
HETATM    3  C   UNL     1      -3.454   5.276 -32.257  1.00  0.00     0.246 C 
HETATM    4  C   UNL     1      -4.273   4.162 -32.924  1.00  0.00     0.064 C 
HETATM    5  C   UNL     1      -4.857   4.628 -34.265  1.00  0.00     0.014 C 
HETATM    6  C   UNL     1      -3.757   5.154 -35.181  1.00  0.00     0.028 C 
HETATM    7  C   UNL     1      -2.961   6.271 -34.524  1.00  0.00     0.235 C 
ENDROOT
BRANCH   4   8
HETATM    8  C   UNL     1      -5.339   3.597 -32.009  1.00  0.00     0.044 A 
HETATM    9  N   UNL     1      -6.605   3.695 -32.463  1.00  0.00    -0.227 NA
HETATM   10  C   UNL     1      -7.595   3.255 -31.665  1.00  0.00     0.188 A 
HETATM   11  N   UNL     1      -7.414   2.719 -30.451  1.00  0.00    -0.235 NA
HETATM   12  C   UNL     1      -6.139   2.618 -30.034  1.00  0.00     0.121 A 
HETATM   13  C   UNL     1      -5.057   3.046 -30.774  1.00  0.00     0.047 A 
BRANCH  10  14
HETATM   14  S   UNL     1      -9.248   3.415 -32.287  1.00  0.00    -0.088 SA
BRANCH  14  15
HETATM   15  C   UNL     1      -9.095   2.479 -33.841  1.00  0.00     0.110 C 
BRANCH  15  16
HETATM   16  C   UNL     1      -8.751   1.023 -33.518  1.00  0.00     0.245 C 
BRANCH  16  17
HETATM   17  N   UNL     1      -7.297   0.710 -33.827  1.00  0.00    -0.070 N 
HETATM   18  H   UNL     1      -6.787   1.603 -33.895  1.00  0.00     0.279 HD
HETATM   19  C   UNL     1      -7.115   0.012 -35.172  1.00  0.00     0.235 C 
HETATM   20  C   UNL     1      -6.592  -1.365 -34.820  1.00  0.00     0.029 C 
HETATM   21  C   UNL     1      -5.745  -1.105 -33.594  1.00  0.00     0.029 C 
HETATM   22  C   UNL     1      -6.601  -0.152 -32.786  1.00  0.00     0.235 C 
ENDBRANCH  16  17
ENDBRANCH  15  16
ENDBRANCH  14  15
ENDBRANCH  10  14
ENDBRANCH   4   8
BRANCH   1  23
HETATM   23  C   UNL     1      -1.507   6.866 -32.589  1.00  0.00     0.280 C 
BRANCH  23  24
HETATM   24  C   UNL     1      -0.756   6.386 -31.392  1.00  0.00     0.010 A 
HETATM   25  S   UNL     1      -0.805   7.284 -29.930  1.00  0.00    -0.075 SA
HETATM   26  C   UNL     1       0.195   6.166 -29.137  1.00  0.00     0.076 A 
HETATM   27  C   UNL     1       0.582   5.132 -29.953  1.00  0.00     0.038 A 
HETATM   28  C   UNL     1       0.043   5.265 -31.268  1.00  0.00     0.019 A 
BRANCH  26  29
HETATM   29  N   UNL     1       0.463   6.475 -27.825  1.00  0.00    -0.322 N 
HETATM   30  C   UNL     1       1.148   7.614 -27.446  1.00  0.00     0.218 C 
HETATM   31  C   UNL     1       1.269   7.746 -25.950  1.00  0.00     0.117 C 
HETATM   32  O   UNL     1       1.661   8.432 -28.204  1.00  0.00    -0.274 OA
HETATM   33  H   UNL     1       0.144   5.826 -27.118  1.00  0.00     0.169 HD
ENDBRANCH  26  29
ENDBRANCH  23  24
ENDBRANCH   1  23
TORSDOF 8
ENDMDL
MODEL 7
REMARK VINA RESULT:      -7.7      3.816     10.549
REMARK  8 active torsions:
REMARK  status: ('A' for Active; 'I' for Inactive)
REMARK       I    between atoms: C_2  and  N_3 
REMARK    1  A    between atoms: N_3  and  C_4 
REMARK    2  A    between atoms: C_6  and  C_7 
REMARK    3  A    between atoms: C_7  and  N_8 
REMARK    4  A    between atoms: C_11  and  C_12 
REMARK    5  A    between atoms: C_14  and  S_15 
REMARK    6  A    between atoms: S_15  and  C_16 
REMARK    7  A    between atoms: C_16  and  C_17 
REMARK    8  A    between atoms: C_17  and  N_18 
ROOT
HETATM    1  N   UNL     1      -5.957   3.588 -32.777  1.00  0.00    -0.066 N 
HETATM    2  H   UNL     1      -5.819   2.930 -31.998  1.00  0.00     0.280 HD
HETATM    3  C   UNL     1      -4.624   4.276 -33.035  1.00  0.00     0.246 C 
HETATM    4  C   UNL     1      -4.193   5.080 -31.801  1.00  0.00     0.064 C 
HETATM    5  C   UNL     1      -5.288   6.063 -31.367  1.00  0.00     0.014 C 
HETATM    6  C   UNL     1      -6.609   5.336 -31.140  1.00  0.00     0.028 C 
HETATM    7  C   UNL     1      -7.044   4.557 -32.372  1.00  0.00     0.235 C 
ENDROOT
BRANCH   4   8
HETATM    8  C   UNL     1      -2.859   5.769 -31.993  1.00  0.00     0.044 A 
HETATM    9  N   UNL     1      -1.845   5.294 -31.241  1.00  0.00    -0.227 NA
HETATM   10  C   UNL     1      -0.650   5.906 -31.337  1.00  0.00     0.188 A 
HETATM   11  N   UNL     1      -0.392   6.952 -32.131  1.00  0.00    -0.235 NA
HETATM   12  C   UNL     1      -1.418   7.391 -32.884  1.00  0.00     0.121 A 
HETATM   13  C   UNL     1      -2.680   6.837 -32.852  1.00  0.00     0.047 A 
BRANCH  10  14
HETATM   14  S   UNL     1       0.654   5.266 -30.320  1.00  0.00    -0.088 SA
BRANCH  14  15
HETATM   15  C   UNL     1       0.197   5.999 -28.717  1.00  0.00     0.110 C 
BRANCH  15  16
HETATM   16  C   UNL     1       0.320   7.522 -28.809  1.00  0.00     0.245 C 
BRANCH  16  17
HETATM   17  N   UNL     1      -0.948   8.215 -28.343  1.00  0.00    -0.070 N 
HETATM   18  H   UNL     1      -0.687   8.910 -27.629  1.00  0.00     0.279 HD
HETATM   19  C   UNL     1      -1.932   7.261 -27.672  1.00  0.00     0.235 C 
HETATM   20  C   UNL     1      -3.134   7.241 -28.593  1.00  0.00     0.029 C 
HETATM   21  C   UNL     1      -3.170   8.653 -29.137  1.00  0.00     0.029 C 
HETATM   22  C   UNL     1      -1.714   8.936 -29.442  1.00  0.00     0.235 C 
ENDBRANCH  16  17
ENDBRANCH  15  16
ENDBRANCH  14  15
ENDBRANCH  10  14
ENDBRANCH   4   8
BRANCH   1  23
HETATM   23  C   UNL     1      -6.416   2.734 -33.952  1.00  0.00     0.280 C 
BRANCH  23  24
HETATM   24  C   UNL     1      -6.387   1.272 -33.657  1.00  0.00     0.010 A 
HETATM   25  S   UNL     1      -6.953   0.148 -34.824  1.00  0.00    -0.075 SA
HETATM   26  C   UNL     1      -6.598  -1.172 -33.818  1.00  0.00     0.076 A 
HETATM   27  C   UNL     1      -6.072  -0.787 -32.609  1.00  0.00     0.038 A 
HETATM   28  C   UNL     1      -5.963   0.633 -32.507  1.00  0.00     0.019 A 
BRANCH  26  29
HETATM   29  N   UNL     1      -6.897  -2.397 -34.361  1.00  0.00    -0.322 N 
HETATM   30  C   UNL     1      -5.931  -3.268 -34.828  1.00  0.00     0.218 C 
HETATM   31  C   UNL     1      -6.513  -4.565 -35.329  1.00  0.00     0.117 C 
HETATM   32  O   UNL     1      -4.727  -3.040 -34.893  1.00  0.00    -0.274 OA
HETATM   33  H   UNL     1      -7.873  -2.657 -34.421  1.00  0.00     0.169 HD
ENDBRANCH  26  29
ENDBRANCH  23  24
ENDBRANCH   1  23
TORSDOF 8
ENDMDL
MODEL 8
REMARK VINA RESULT:      -7.6      5.553      8.782
REMARK  8 active torsions:
REMARK  status: ('A' for Active; 'I' for Inactive)
REMARK       I    between atoms: C_2  and  N_3 
REMARK    1  A    between atoms: N_3  and  C_4 
REMARK    2  A    between atoms: C_6  and  C_7 
REMARK    3  A    between atoms: C_7  and  N_8 
REMARK    4  A    between atoms: C_11  and  C_12 
REMARK    5  A    between atoms: C_14  and  S_15 
REMARK    6  A    between atoms: S_15  and  C_16 
REMARK    7  A    between atoms: C_16  and  C_17 
REMARK    8  A    between atoms: C_17  and  N_18 
ROOT
HETATM    1  N   UNL     1      -8.983   2.688 -33.692  1.00  0.00    -0.066 N 
HETATM    2  H   UNL     1      -8.782   3.269 -34.519  1.00  0.00     0.280 HD
HETATM    3  C   UNL     1      -7.727   2.672 -32.833  1.00  0.00     0.246 C 
HETATM    4  C   UNL     1      -6.565   2.027 -33.600  1.00  0.00     0.064 C 
HETATM    5  C   UNL     1      -6.943   0.632 -34.114  1.00  0.00     0.014 C 
HETATM    6  C   UNL     1      -8.216   0.692 -34.952  1.00  0.00     0.028 C 
HETATM    7  C   UNL     1      -9.371   1.312 -34.181  1.00  0.00     0.235 C 
ENDROOT
BRANCH   4   8
HETATM    8  C   UNL     1      -5.281   2.004 -32.798  1.00  0.00     0.044 A 
HETATM    9  N   UNL     1      -4.680   0.801 -32.698  1.00  0.00    -0.227 NA
HETATM   10  C   UNL     1      -3.562   0.716 -31.952  1.00  0.00     0.188 A 
HETATM   11  N   UNL     1      -2.999   1.743 -31.305  1.00  0.00    -0.235 NA
HETATM   12  C   UNL     1      -3.611   2.934 -31.439  1.00  0.00     0.121 A 
HETATM   13  C   UNL     1      -4.762   3.123 -32.173  1.00  0.00     0.047 A 
BRANCH  10  14
HETATM   14  S   UNL     1      -2.809  -0.885 -31.830  1.00  0.00    -0.088 SA
BRANCH  14  15
HETATM   15  C   UNL     1      -4.181  -1.928 -32.418  1.00  0.00     0.110 C 
BRANCH  15  16
HETATM   16  C   UNL     1      -3.611  -3.221 -33.007  1.00  0.00     0.245 C 
BRANCH  16  17
HETATM   17  N   UNL     1      -4.263  -3.566 -34.334  1.00  0.00    -0.070 N 
HETATM   18  H   UNL     1      -3.536  -3.540 -35.063  1.00  0.00     0.279 HD
HETATM   19  C   UNL     1      -5.325  -2.553 -34.754  1.00  0.00     0.235 C 
HETATM   20  C   UNL     1      -6.625  -3.330 -34.727  1.00  0.00     0.029 C 
HETATM   21  C   UNL     1      -6.203  -4.718 -35.154  1.00  0.00     0.029 C 
HETATM   22  C   UNL     1      -4.921  -4.937 -34.376  1.00  0.00     0.235 C 
ENDBRANCH  16  17
ENDBRANCH  15  16
ENDBRANCH  14  15
ENDBRANCH  10  14
ENDBRANCH   4   8
BRANCH   1  23
HETATM   23  C   UNL     1     -10.162   3.360 -33.001  1.00  0.00     0.280 C 
BRANCH  23  24
HETATM   24  C   UNL     1     -10.885   4.321 -33.883  1.00  0.00     0.010 A 
HETATM   25  S   UNL     1     -10.385   5.962 -33.960  1.00  0.00    -0.075 SA
HETATM   26  C   UNL     1     -11.593   6.344 -35.089  1.00  0.00     0.076 A 
HETATM   27  C   UNL     1     -12.381   5.264 -35.403  1.00  0.00     0.038 A 
HETATM   28  C   UNL     1     -11.981   4.092 -34.694  1.00  0.00     0.019 A 
BRANCH  26  29
HETATM   29  N   UNL     1     -11.597   7.656 -35.495  1.00  0.00    -0.322 N 
HETATM   30  C   UNL     1     -10.750   8.141 -36.474  1.00  0.00     0.218 C 
HETATM   31  C   UNL     1     -10.986   9.600 -36.772  1.00  0.00     0.117 C 
HETATM   32  O   UNL     1      -9.859   7.510 -37.034  1.00  0.00    -0.274 OA
HETATM   33  H   UNL     1     -12.250   8.283 -35.044  1.00  0.00     0.169 HD
ENDBRANCH  26  29
ENDBRANCH  23  24
ENDBRANCH   1  23
TORSDOF 8
ENDMDL
MODEL 9
REMARK VINA RESULT:      -7.5      1.869      2.280
REMARK  8 active torsions:
REMARK  status: ('A' for Active; 'I' for Inactive)
REMARK       I    between atoms: C_2  and  N_3 
REMARK    1  A    between atoms: N_3  and  C_4 
REMARK    2  A    between atoms: C_6  and  C_7 
REMARK    3  A    between atoms: C_7  and  N_8 
REMARK    4  A    between atoms: C_11  and  C_12 
REMARK    5  A    between atoms: C_14  and  S_15 
REMARK    6  A    between atoms: S_15  and  C_16 
REMARK    7  A    between atoms: C_16  and  C_17 
REMARK    8  A    between atoms: C_17  and  N_18 
ROOT
HETATM    1  N   UNL     1      -0.725   6.147 -32.191  1.00  0.00    -0.066 N 
HETATM    2  H   UNL     1       0.075   5.529 -32.384  1.00  0.00     0.280 HD
HETATM    3  C   UNL     1      -1.783   5.314 -31.483  1.00  0.00     0.246 C 
HETATM    4  C   UNL     1      -2.265   4.178 -32.394  1.00  0.00     0.064 C 
HETATM    5  C   UNL     1      -2.749   4.716 -33.747  1.00  0.00     0.014 C 
HETATM    6  C   UNL     1      -1.667   5.561 -34.411  1.00  0.00     0.028 C 
HETATM    7  C   UNL     1      -1.208   6.699 -33.513  1.00  0.00     0.235 C 
ENDROOT
BRANCH   4   8
HETATM    8  C   UNL     1      -3.306   3.301 -31.730  1.00  0.00     0.044 A 
HETATM    9  N   UNL     1      -3.060   1.975 -31.770  1.00  0.00    -0.227 NA
HETATM   10  C   UNL     1      -3.980   1.149 -31.240  1.00  0.00     0.188 A 
HETATM   11  N   UNL     1      -5.123   1.548 -30.668  1.00  0.00    -0.235 NA
HETATM   12  C   UNL     1      -5.331   2.877 -30.626  1.00  0.00     0.121 A 
HETATM   13  C   UNL     1      -4.454   3.804 -31.148  1.00  0.00     0.047 A 
BRANCH  10  14
HETATM   14  S   UNL     1      -3.631  -0.588 -31.326  1.00  0.00    -0.088 SA
BRANCH  14  15
HETATM   15  C   UNL     1      -5.076  -1.156 -32.276  1.00  0.00     0.110 C 
BRANCH  15  16
HETATM   16  C   UNL     1      -4.921  -0.717 -33.734  1.00  0.00     0.245 C 
BRANCH  16  17
HETATM   17  N   UNL     1      -6.236  -0.222 -34.312  1.00  0.00    -0.070 N 
HETATM   18  H   UNL     1      -6.190  -0.320 -35.336  1.00  0.00     0.279 HD
HETATM   19  C   UNL     1      -6.484   1.258 -34.035  1.00  0.00     0.235 C 
HETATM   20  C   UNL     1      -7.696   1.280 -33.129  1.00  0.00     0.029 C 
HETATM   21  C   UNL     1      -8.511   0.103 -33.619  1.00  0.00     0.029 C 
HETATM   22  C   UNL     1      -7.463  -0.973 -33.820  1.00  0.00     0.235 C 
ENDBRANCH  16  17
ENDBRANCH  15  16
ENDBRANCH  14  15
ENDBRANCH  10  14
ENDBRANCH   4   8
BRANCH   1  23
HETATM   23  C   UNL     1      -0.172   7.265 -31.317  1.00  0.00     0.280 C 
BRANCH  23  24
HETATM   24  C   UNL     1      -0.325   6.996 -29.858  1.00  0.00     0.010 A 
HETATM   25  S   UNL     1      -1.568   7.774 -28.965  1.00  0.00    -0.075 SA
HETATM   26  C   UNL     1      -1.113   6.992 -27.530  1.00  0.00     0.076 A 
HETATM   27  C   UNL     1      -0.032   6.163 -27.701  1.00  0.00     0.038 A 
HETATM   28  C   UNL     1       0.437   6.175 -29.049  1.00  0.00     0.019 A 
BRANCH  26  29
HETATM   29  N   UNL     1      -1.881   7.316 -26.438  1.00  0.00    -0.322 N 
HETATM   30  C   UNL     1      -1.538   8.315 -25.547  1.00  0.00     0.218 C 
HETATM   31  C   UNL     1      -2.570   8.507 -24.466  1.00  0.00     0.117 C 
HETATM   32  O   UNL     1      -0.500   8.969 -25.563  1.00  0.00    -0.274 OA
HETATM   33  H   UNL     1      -2.730   6.786 -26.291  1.00  0.00     0.169 HD
ENDBRANCH  26  29
ENDBRANCH  23  24
ENDBRANCH   1  23
TORSDOF 8
ENDMDL
MODEL 10
REMARK VINA RESULT:      -7.5      4.914     10.837
REMARK  8 active torsions:
REMARK  status: ('A' for Active; 'I' for Inactive)
REMARK       I    between atoms: C_2  and  N_3 
REMARK    1  A    between atoms: N_3  and  C_4 
REMARK    2  A    between atoms: C_6  and  C_7 
REMARK    3  A    between atoms: C_7  and  N_8 
REMARK    4  A    between atoms: C_11  and  C_12 
REMARK    5  A    between atoms: C_14  and  S_15 
REMARK    6  A    between atoms: S_15  and  C_16 
REMARK    7  A    between atoms: C_16  and  C_17 
REMARK    8  A    between atoms: C_17  and  N_18 
ROOT
HETATM    1  N   UNL     1      -5.839  -0.214 -33.217  1.00  0.00    -0.066 N 
HETATM    2  H   UNL     1      -5.579  -0.006 -34.191  1.00  0.00     0.280 HD
HETATM    3  C   UNL     1      -5.928   1.112 -32.476  1.00  0.00     0.246 C 
HETATM    4  C   UNL     1      -4.562   1.811 -32.468  1.00  0.00     0.064 C 
HETATM    5  C   UNL     1      -3.471   0.893 -31.902  1.00  0.00     0.014 C 
HETATM    6  C   UNL     1      -3.430  -0.431 -32.658  1.00  0.00     0.028 C 
HETATM    7  C   UNL     1      -4.781  -1.130 -32.646  1.00  0.00     0.235 C 
ENDROOT
BRANCH   4   8
HETATM    8  C   UNL     1      -4.597   3.149 -31.761  1.00  0.00     0.044 A 
HETATM    9  N   UNL     1      -3.804   4.105 -32.286  1.00  0.00    -0.227 NA
HETATM   10  C   UNL     1      -3.760   5.298 -31.664  1.00  0.00     0.188 A 
HETATM   11  N   UNL     1      -4.453   5.607 -30.561  1.00  0.00    -0.235 NA
HETATM   12  C   UNL     1      -5.249   4.639 -30.072  1.00  0.00     0.121 A 
HETATM   13  C   UNL     1      -5.359   3.384 -30.631  1.00  0.00     0.047 A 
BRANCH  10  14
HETATM   14  S   UNL     1      -2.693   6.524 -32.373  1.00  0.00    -0.088 SA
BRANCH  14  15
HETATM   15  C   UNL     1      -1.099   5.650 -32.283  1.00  0.00     0.110 C 
BRANCH  15  16
HETATM   16  C   UNL     1      -0.853   5.204 -30.839  1.00  0.00     0.245 C 
BRANCH  16  17
HETATM   17  N   UNL     1       0.333   5.928 -30.225  1.00  0.00    -0.070 N 
HETATM   18  H   UNL     1       1.121   5.865 -30.885  1.00  0.00     0.279 HD
HETATM   19  C   UNL     1       0.812   5.285 -28.926  1.00  0.00     0.235 C 
HETATM   20  C   UNL     1       0.537   6.325 -27.861  1.00  0.00     0.029 C 
HETATM   21  C   UNL     1       0.767   7.631 -28.590  1.00  0.00     0.029 C 
HETATM   22  C   UNL     1       0.087   7.398 -29.923  1.00  0.00     0.235 C 
ENDBRANCH  16  17
ENDBRANCH  15  16
ENDBRANCH  14  15
ENDBRANCH  10  14
ENDBRANCH   4   8
BRANCH   1  23
HETATM   23  C   UNL     1      -7.178  -0.934 -33.301  1.00  0.00     0.280 C 
BRANCH  23  24
HETATM   24  C   UNL     1      -8.316  -0.019 -33.604  1.00  0.00     0.010 A 
HETATM   25  S   UNL     1      -9.668   0.053 -32.549  1.00  0.00    -0.075 SA
HETATM   26  C   UNL     1     -10.432   1.228 -33.505  1.00  0.00     0.076 A 
HETATM   27  C   UNL     1      -9.698   1.563 -34.616  1.00  0.00     0.038 A 
HETATM   28  C   UNL     1      -8.475   0.830 -34.684  1.00  0.00     0.019 A 
BRANCH  26  29
HETATM   29  N   UNL     1     -11.650   1.645 -33.026  1.00  0.00    -0.322 N 
HETATM   30  C   UNL     1     -12.842   1.384 -33.677  1.00  0.00     0.218 C 
HETATM   31  C   UNL     1     -14.039   1.904 -32.924  1.00  0.00     0.117 C 
HETATM   32  O   UNL     1     -12.961   0.837 -34.769  1.00  0.00    -0.274 OA
HETATM   33  H   UNL     1     -11.659   2.170 -32.162  1.00  0.00     0.169 HD
ENDBRANCH  26  29
ENDBRANCH  23  24
ENDBRANCH   1  23
TORSDOF 8
ENDMDL
