MODEL 1
REMARK VINA RESULT:      -8.5      0.000      0.000
REMARK  8 active torsions:
REMARK  status: ('A' for Active; 'I' for Inactive)
REMARK    1  A    between atoms: C_2  and  O_3 
REMARK    2  A    between atoms: O_3  and  C_4 
REMARK    3  A    between atoms: C_7  and  N_8 
REMARK       I    between atoms: N_8  and  C_9 
REMARK    4  A    between atoms: C_9  and  C_10 
REMARK    5  A    between atoms: C_10  and  N_11 
REMARK    6  A    between atoms: C_14  and  C_15 
REMARK       I    between atoms: C_15  and  N_16 
REMARK    7  A    between atoms: N_16  and  C_17 
REMARK    8  A    between atoms: C_25  and  N_26 
ROOT
HETATM    1  N   UNL     1      -3.792   3.387 -32.380  1.00  0.00    -0.248 N 
HETATM    2  N   UNL     1      -2.871   2.870 -31.536  1.00  0.00     0.007 NA
HETATM    3  N   UNL     1      -3.151   1.585 -31.382  1.00  0.00    -0.150 NA
HETATM    4  C   UNL     1      -4.283   1.295 -32.117  1.00  0.00     0.187 A 
HETATM    5  C   UNL     1      -4.739   2.455 -32.722  1.00  0.00     0.151 A 
ENDROOT
BRANCH   1   6
HETATM    6  C   UNL     1      -3.600   4.717 -32.902  1.00  0.00     0.251 C 
BRANCH   6   7
HETATM    7  C   UNL     1      -2.330   5.353 -32.393  1.00  0.00     0.241 C 
HETATM    8  N   UNL     1      -2.449   5.907 -31.128  1.00  0.00    -0.326 N 
HETATM    9  H   UNL     1      -3.395   6.062 -30.783  1.00  0.00     0.169 HD
HETATM   10  O   UNL     1      -1.301   5.292 -33.062  1.00  0.00    -0.271 OA
BRANCH   8  11
HETATM   11  C   UNL     1      -1.405   6.349 -30.290  1.00  0.00     0.034 A 
HETATM   12  C   UNL     1      -0.362   5.533 -29.854  1.00  0.00     0.032 A 
HETATM   13  C   UNL     1       0.607   6.035 -28.977  1.00  0.00     0.039 A 
HETATM   14  C   UNL     1       0.557   7.355 -28.530  1.00  0.00     0.068 A 
HETATM   15  C   UNL     1      -0.479   8.176 -28.968  1.00  0.00     0.039 A 
HETATM   16  C   UNL     1      -1.457   7.673 -29.838  1.00  0.00     0.032 A 
BRANCH  14  17
HETATM   17  O   UNL     1       1.559   7.705 -27.671  1.00  0.00    -0.352 OA
BRANCH  17  18
HETATM   18  C   UNL     1       1.304   7.555 -26.276  1.00  0.00     0.171 C 
HETATM   19  C   UNL     1       2.093   8.624 -25.539  1.00  0.00     0.034 C 
ENDBRANCH  17  18
ENDBRANCH  14  17
ENDBRANCH   8  11
ENDBRANCH   6   7
ENDBRANCH   1   6
BRANCH   5  20
HETATM   20  N   UNL     1      -5.798   2.715 -33.524  1.00  0.00    -0.382 N 
HETATM   21  H   UNL     1      -5.908   3.673 -33.873  1.00  0.00     0.157 HD
HETATM   22  H   UNL     1      -6.172   2.029 -34.179  1.00  0.00     0.157 HD
ENDBRANCH   5  20
BRANCH   4  23
HETATM   23  C   UNL     1      -4.848  -0.046 -32.211  1.00  0.00     0.280 C 
HETATM   24  N   UNL     1      -4.537  -0.660 -33.410  1.00  0.00    -0.320 N 
HETATM   25  H   UNL     1      -3.745  -0.253 -33.896  1.00  0.00     0.169 HD
HETATM   26  O   UNL     1      -5.469  -0.554 -31.283  1.00  0.00    -0.265 OA
BRANCH  24  27
HETATM   27  C   UNL     1      -5.024  -1.899 -33.883  1.00  0.00     0.057 A 
HETATM   28  C   UNL     1      -6.291  -2.126 -34.452  1.00  0.00     0.060 A 
HETATM   29 CL   UNL     1      -7.391  -0.862 -34.886  1.00  0.00    -0.082 Cl
HETATM   30  C   UNL     1      -6.652  -3.415 -34.868  1.00  0.00     0.026 A 
HETATM   31  C   UNL     1      -5.756  -4.477 -34.755  1.00  0.00     0.002 A 
HETATM   32  C   UNL     1      -4.483  -4.251 -34.245  1.00  0.00     0.002 A 
HETATM   33  C   UNL     1      -4.117  -2.970 -33.823  1.00  0.00     0.031 A 
ENDBRANCH  24  27
ENDBRANCH   4  23
TORSDOF 8
ENDMDL
MODEL 2
REMARK VINA RESULT:      -8.1      3.146     10.181
REMARK  8 active torsions:
REMARK  status: ('A' for Active; 'I' for Inactive)
REMARK    1  A    between atoms: C_2  and  O_3 
REMARK    2  A    between atoms: O_3  and  C_4 
REMARK    3  A    between atoms: C_7  and  N_8 
REMARK       I    between atoms: N_8  and  C_9 
REMARK    4  A    between atoms: C_9  and  C_10 
REMARK    5  A    between atoms: C_10  and  N_11 
REMARK    6  A    between atoms: C_14  and  C_15 
REMARK       I    between atoms: C_15  and  N_16 
REMARK    7  A    between atoms: N_16  and  C_17 
REMARK    8  A    between atoms: C_25  and  N_26 
ROOT
HETATM    1  N   UNL     1      -5.802   5.602 -33.505  1.00  0.00    -0.248 N 
HETATM    2  N   UNL     1      -5.011   5.194 -34.523  1.00  0.00     0.007 NA
HETATM    3  N   UNL     1      -3.788   5.639 -34.277  1.00  0.00    -0.150 NA
HETATM    4  C   UNL     1      -3.817   6.364 -33.102  1.00  0.00     0.187 A 
HETATM    5  C   UNL     1      -5.115   6.394 -32.621  1.00  0.00     0.151 A 
ENDROOT
BRANCH   1   6
HETATM    6  C   UNL     1      -7.139   5.072 -33.398  1.00  0.00     0.251 C 
BRANCH   6   7
HETATM    7  C   UNL     1      -7.145   3.592 -33.107  1.00  0.00     0.241 C 
HETATM    8  N   UNL     1      -6.845   2.803 -34.206  1.00  0.00    -0.326 N 
HETATM    9  H   UNL     1      -6.902   3.250 -35.120  1.00  0.00     0.169 HD
HETATM   10  O   UNL     1      -7.343   3.192 -31.961  1.00  0.00    -0.271 OA
BRANCH   8  11
HETATM   11  C   UNL     1      -6.536   1.428 -34.209  1.00  0.00     0.034 A 
HETATM   12  C   UNL     1      -7.217   0.481 -34.971  1.00  0.00     0.032 A 
HETATM   13  C   UNL     1      -6.884  -0.876 -34.875  1.00  0.00     0.039 A 
HETATM   14  C   UNL     1      -5.863  -1.306 -34.027  1.00  0.00     0.068 A 
HETATM   15  C   UNL     1      -5.174  -0.363 -33.269  1.00  0.00     0.039 A 
HETATM   16  C   UNL     1      -5.513   0.995 -33.356  1.00  0.00     0.032 A 
BRANCH  14  17
HETATM   17  O   UNL     1      -5.654  -2.655 -34.025  1.00  0.00    -0.352 OA
BRANCH  17  18
HETATM   18  C   UNL     1      -5.464  -3.288 -35.289  1.00  0.00     0.171 C 
HETATM   19  C   UNL     1      -6.287  -4.565 -35.300  1.00  0.00     0.034 C 
ENDBRANCH  17  18
ENDBRANCH  14  17
ENDBRANCH   8  11
ENDBRANCH   6   7
ENDBRANCH   1   6
BRANCH   5  20
HETATM   20  N   UNL     1      -5.675   6.970 -31.531  1.00  0.00    -0.382 N 
HETATM   21  H   UNL     1      -5.790   6.391 -30.693  1.00  0.00     0.157 HD
HETATM   22  H   UNL     1      -5.537   7.952 -31.297  1.00  0.00     0.157 HD
ENDBRANCH   5  20
BRANCH   4  23
HETATM   23  C   UNL     1      -2.626   6.961 -32.508  1.00  0.00     0.280 C 
HETATM   24  N   UNL     1      -2.441   6.562 -31.197  1.00  0.00    -0.320 N 
HETATM   25  H   UNL     1      -2.938   5.715 -30.943  1.00  0.00     0.169 HD
HETATM   26  O   UNL     1      -1.872   7.682 -33.154  1.00  0.00    -0.265 OA
BRANCH  24  27
HETATM   27  C   UNL     1      -1.471   7.045 -30.290  1.00  0.00     0.057 A 
HETATM   28  C   UNL     1      -0.183   6.514 -30.098  1.00  0.00     0.060 A 
HETATM   29 CL   UNL     1       0.524   5.310 -31.120  1.00  0.00    -0.082 Cl
HETATM   30  C   UNL     1       0.677   7.086 -29.149  1.00  0.00     0.026 A 
HETATM   31  C   UNL     1       0.281   8.199 -28.409  1.00  0.00     0.002 A 
HETATM   32  C   UNL     1      -0.970   8.763 -28.632  1.00  0.00     0.002 A 
HETATM   33  C   UNL     1      -1.834   8.197 -29.573  1.00  0.00     0.031 A 
ENDBRANCH  24  27
ENDBRANCH   4  23
TORSDOF 8
ENDMDL
MODEL 3
REMARK VINA RESULT:      -8.1      3.001      9.879
REMARK  8 active torsions:
REMARK  status: ('A' for Active; 'I' for Inactive)
REMARK    1  A    between atoms: C_2  and  O_3 
REMARK    2  A    between atoms: O_3  and  C_4 
REMARK    3  A    between atoms: C_7  and  N_8 
REMARK       I    between atoms: N_8  and  C_9 
REMARK    4  A    between atoms: C_9  and  C_10 
REMARK    5  A    between atoms: C_10  and  N_11 
REMARK    6  A    between atoms: C_14  and  C_15 
REMARK       I    between atoms: C_15  and  N_16 
REMARK    7  A    between atoms: N_16  and  C_17 
REMARK    8  A    between atoms: C_25  and  N_26 
ROOT
HETATM    1  N   UNL     1      -6.611   3.767 -31.675  1.00  0.00    -0.248 N 
HETATM    2  N   UNL     1      -6.335   4.374 -32.851  1.00  0.00     0.007 NA
HETATM    3  N   UNL     1      -5.058   4.729 -32.824  1.00  0.00    -0.150 NA
HETATM    4  C   UNL     1      -4.532   4.366 -31.601  1.00  0.00     0.187 A 
HETATM    5  C   UNL     1      -5.531   3.795 -30.830  1.00  0.00     0.151 A 
ENDROOT
BRANCH   1   6
HETATM    6  C   UNL     1      -7.868   3.080 -31.517  1.00  0.00     0.251 C 
BRANCH   6   7
HETATM    7  C   UNL     1      -7.771   1.618 -31.877  1.00  0.00     0.241 C 
HETATM    8  N   UNL     1      -6.926   1.359 -32.945  1.00  0.00    -0.326 N 
HETATM    9  H   UNL     1      -6.667   2.153 -33.527  1.00  0.00     0.169 HD
HETATM   10  O   UNL     1      -8.362   0.778 -31.201  1.00  0.00    -0.271 OA
BRANCH   8  11
HETATM   11  C   UNL     1      -6.439   0.103 -33.360  1.00  0.00     0.034 A 
HETATM   12  C   UNL     1      -5.195  -0.407 -32.993  1.00  0.00     0.032 A 
HETATM   13  C   UNL     1      -4.762  -1.640 -33.494  1.00  0.00     0.039 A 
HETATM   14  C   UNL     1      -5.564  -2.386 -34.357  1.00  0.00     0.068 A 
HETATM   15  C   UNL     1      -6.811  -1.885 -34.722  1.00  0.00     0.039 A 
HETATM   16  C   UNL     1      -7.242  -0.645 -34.230  1.00  0.00     0.032 A 
BRANCH  14  17
HETATM   17  O   UNL     1      -5.012  -3.563 -34.776  1.00  0.00    -0.352 OA
BRANCH  17  18
HETATM   18  C   UNL     1      -3.770  -3.947 -34.188  1.00  0.00     0.171 C 
HETATM   19  C   UNL     1      -3.975  -5.284 -33.497  1.00  0.00     0.034 C 
ENDBRANCH  17  18
ENDBRANCH  14  17
ENDBRANCH   8  11
ENDBRANCH   6   7
ENDBRANCH   1   6
BRANCH   5  20
HETATM   20  N   UNL     1      -5.544   3.291 -29.573  1.00  0.00    -0.382 N 
HETATM   21  H   UNL     1      -5.461   2.275 -29.466  1.00  0.00     0.157 HD
HETATM   22  H   UNL     1      -5.145   3.789 -28.779  1.00  0.00     0.157 HD
ENDBRANCH   5  20
BRANCH   4  23
HETATM   23  C   UNL     1      -3.132   4.568 -31.247  1.00  0.00     0.280 C 
HETATM   24  N   UNL     1      -2.916   5.795 -30.647  1.00  0.00    -0.320 N 
HETATM   25  H   UNL     1      -3.752   6.226 -30.264  1.00  0.00     0.169 HD
HETATM   26  O   UNL     1      -2.287   3.697 -31.426  1.00  0.00    -0.265 OA
BRANCH  24  27
HETATM   27  C   UNL     1      -1.672   6.366 -30.299  1.00  0.00     0.057 A 
HETATM   28  C   UNL     1      -0.630   6.680 -31.189  1.00  0.00     0.060 A 
HETATM   29 CL   UNL     1      -0.789   6.636 -32.912  1.00  0.00    -0.082 Cl
HETATM   30  C   UNL     1       0.565   7.232 -30.704  1.00  0.00     0.026 A 
HETATM   31  C   UNL     1       0.723   7.504 -29.346  1.00  0.00     0.002 A 
HETATM   32  C   UNL     1      -0.322   7.247 -28.467  1.00  0.00     0.002 A 
HETATM   33  C   UNL     1      -1.514   6.693 -28.942  1.00  0.00     0.031 A 
ENDBRANCH  24  27
ENDBRANCH   4  23
TORSDOF 8
ENDMDL
MODEL 4
REMARK VINA RESULT:      -8.1      1.707      2.292
REMARK  8 active torsions:
REMARK  status: ('A' for Active; 'I' for Inactive)
REMARK    1  A    between atoms: C_2  and  O_3 
REMARK    2  A    between atoms: O_3  and  C_4 
REMARK    3  A    between atoms: C_7  and  N_8 
REMARK       I    between atoms: N_8  and  C_9 
REMARK    4  A    between atoms: C_9  and  C_10 
REMARK    5  A    between atoms: C_10  and  N_11 
REMARK    6  A    between atoms: C_14  and  C_15 
REMARK       I    between atoms: C_15  and  N_16 
REMARK    7  A    between atoms: N_16  and  C_17 
REMARK    8  A    between atoms: C_25  and  N_26 
ROOT
HETATM    1  N   UNL     1      -3.252   4.782 -31.302  1.00  0.00    -0.248 N 
HETATM    2  N   UNL     1      -2.206   3.928 -31.366  1.00  0.00     0.007 NA
HETATM    3  N   UNL     1      -2.695   2.717 -31.588  1.00  0.00    -0.150 NA
HETATM    4  C   UNL     1      -4.072   2.807 -31.635  1.00  0.00     0.187 A 
HETATM    5  C   UNL     1      -4.448   4.119 -31.400  1.00  0.00     0.151 A 
ENDROOT
BRANCH   1   6
HETATM    6  C   UNL     1      -3.000   6.201 -31.291  1.00  0.00     0.251 C 
BRANCH   6   7
HETATM    7  C   UNL     1      -2.497   6.683 -29.953  1.00  0.00     0.241 C 
HETATM    8  N   UNL     1      -1.169   6.371 -29.709  1.00  0.00    -0.326 N 
HETATM    9  H   UNL     1      -0.749   5.659 -30.302  1.00  0.00     0.169 HD
HETATM   10  O   UNL     1      -3.233   7.343 -29.221  1.00  0.00    -0.271 OA
BRANCH   8  11
HETATM   11  C   UNL     1      -0.350   6.881 -28.681  1.00  0.00     0.034 A 
HETATM   12  C   UNL     1       0.620   7.863 -28.876  1.00  0.00     0.032 A 
HETATM   13  C   UNL     1       1.431   8.276 -27.812  1.00  0.00     0.039 A 
HETATM   14  C   UNL     1       1.281   7.726 -26.540  1.00  0.00     0.068 A 
HETATM   15  C   UNL     1       0.309   6.749 -26.337  1.00  0.00     0.039 A 
HETATM   16  C   UNL     1      -0.497   6.327 -27.403  1.00  0.00     0.032 A 
BRANCH  14  17
HETATM   17  O   UNL     1       2.145   8.214 -25.601  1.00  0.00    -0.352 OA
BRANCH  17  18
HETATM   18  C   UNL     1       2.013   9.588 -25.244  1.00  0.00     0.171 C 
HETATM   19  C   UNL     1       0.742   9.736 -24.425  1.00  0.00     0.034 C 
ENDBRANCH  17  18
ENDBRANCH  14  17
ENDBRANCH   8  11
ENDBRANCH   6   7
ENDBRANCH   1   6
BRANCH   5  20
HETATM   20  N   UNL     1      -5.656   4.727 -31.328  1.00  0.00    -0.382 N 
HETATM   21  H   UNL     1      -6.340   4.350 -30.664  1.00  0.00     0.157 HD
HETATM   22  H   UNL     1      -5.775   5.729 -31.465  1.00  0.00     0.157 HD
ENDBRANCH   5  20
BRANCH   4  23
HETATM   23  C   UNL     1      -4.933   1.662 -31.910  1.00  0.00     0.280 C 
HETATM   24  N   UNL     1      -4.434   0.865 -32.923  1.00  0.00    -0.320 N 
HETATM   25  H   UNL     1      -3.444   0.992 -33.107  1.00  0.00     0.169 HD
HETATM   26  O   UNL     1      -5.944   1.439 -31.251  1.00  0.00    -0.265 OA
BRANCH  24  27
HETATM   27  C   UNL     1      -5.071  -0.242 -33.528  1.00  0.00     0.057 A 
HETATM   28  C   UNL     1      -6.273  -0.205 -34.257  1.00  0.00     0.060 A 
HETATM   29 CL   UNL     1      -7.062   1.258 -34.741  1.00  0.00    -0.082 Cl
HETATM   30  C   UNL     1      -6.804  -1.387 -34.794  1.00  0.00     0.026 A 
HETATM   31  C   UNL     1      -6.137  -2.601 -34.640  1.00  0.00     0.002 A 
HETATM   32  C   UNL     1      -4.921  -2.637 -33.967  1.00  0.00     0.002 A 
HETATM   33  C   UNL     1      -4.387  -1.464 -33.426  1.00  0.00     0.031 A 
ENDBRANCH  24  27
ENDBRANCH   4  23
TORSDOF 8
ENDMDL
MODEL 5
REMARK VINA RESULT:      -8.0      3.064     10.483
REMARK  8 active torsions:
REMARK  status: ('A' for Active; 'I' for Inactive)
REMARK    1  A    between atoms: C_2  and  O_3 
REMARK    2  A    between atoms: O_3  and  C_4 
REMARK    3  A    between atoms: C_7  and  N_8 
REMARK       I    between atoms: N_8  and  C_9 
REMARK    4  A    between atoms: C_9  and  C_10 
REMARK    5  A    between atoms: C_10  and  N_11 
REMARK    6  A    between atoms: C_14  and  C_15 
REMARK       I    between atoms: C_15  and  N_16 
REMARK    7  A    between atoms: N_16  and  C_17 
REMARK    8  A    between atoms: C_25  and  N_26 
ROOT
HETATM    1  N   UNL     1      -4.612   4.805 -32.131  1.00  0.00    -0.248 N 
HETATM    2  N   UNL     1      -4.024   3.610 -31.904  1.00  0.00     0.007 NA
HETATM    3  N   UNL     1      -2.815   3.848 -31.417  1.00  0.00    -0.150 NA
HETATM    4  C   UNL     1      -2.630   5.215 -31.366  1.00  0.00     0.187 A 
HETATM    5  C   UNL     1      -3.756   5.844 -31.871  1.00  0.00     0.151 A 
ENDROOT
BRANCH   1   6
HETATM    6  C   UNL     1      -6.017   4.848 -32.453  1.00  0.00     0.251 C 
BRANCH   6   7
HETATM    7  C   UNL     1      -6.619   3.469 -32.573  1.00  0.00     0.241 C 
HETATM    8  N   UNL     1      -6.164   2.754 -33.670  1.00  0.00    -0.326 N 
HETATM    9  H   UNL     1      -5.694   3.285 -34.401  1.00  0.00     0.169 HD
HETATM   10  O   UNL     1      -7.386   3.056 -31.706  1.00  0.00    -0.271 OA
BRANCH   8  11
HETATM   11  C   UNL     1      -6.342   1.378 -33.922  1.00  0.00     0.034 A 
HETATM   12  C   UNL     1      -7.203   0.873 -34.895  1.00  0.00     0.032 A 
HETATM   13  C   UNL     1      -7.364  -0.510 -35.045  1.00  0.00     0.039 A 
HETATM   14  C   UNL     1      -6.664  -1.406 -34.238  1.00  0.00     0.068 A 
HETATM   15  C   UNL     1      -5.796  -0.907 -33.270  1.00  0.00     0.039 A 
HETATM   16  C   UNL     1      -5.642   0.478 -33.110  1.00  0.00     0.032 A 
BRANCH  14  17
HETATM   17  O   UNL     1      -6.926  -2.724 -34.487  1.00  0.00    -0.352 OA
BRANCH  17  18
HETATM   18  C   UNL     1      -5.824  -3.548 -34.863  1.00  0.00     0.171 C 
HETATM   19  C   UNL     1      -6.378  -4.766 -35.582  1.00  0.00     0.034 C 
ENDBRANCH  17  18
ENDBRANCH  14  17
ENDBRANCH   8  11
ENDBRANCH   6   7
ENDBRANCH   1   6
BRANCH   5  20
HETATM   20  N   UNL     1      -4.074   7.148 -32.051  1.00  0.00    -0.382 N 
HETATM   21  H   UNL     1      -5.017   7.366 -32.391  1.00  0.00     0.157 HD
HETATM   22  H   UNL     1      -3.706   7.890 -31.457  1.00  0.00     0.157 HD
ENDBRANCH   5  20
BRANCH   4  23
HETATM   23  C   UNL     1      -1.420   5.833 -30.835  1.00  0.00     0.280 C 
HETATM   24  N   UNL     1      -1.572   6.232 -29.519  1.00  0.00    -0.320 N 
HETATM   25  H   UNL     1      -2.340   5.783 -29.032  1.00  0.00     0.169 HD
HETATM   26  O   UNL     1      -0.390   5.913 -31.496  1.00  0.00    -0.265 OA
BRANCH  24  27
HETATM   27  C   UNL     1      -0.654   6.975 -28.744  1.00  0.00     0.057 A 
HETATM   28  C   UNL     1      -0.588   8.377 -28.660  1.00  0.00     0.060 A 
HETATM   29 CL   UNL     1      -1.786   9.438 -29.319  1.00  0.00    -0.082 Cl
HETATM   30  C   UNL     1       0.388   8.987 -27.858  1.00  0.00     0.026 A 
HETATM   31  C   UNL     1       1.280   8.217 -27.115  1.00  0.00     0.002 A 
HETATM   32  C   UNL     1       1.187   6.830 -27.150  1.00  0.00     0.002 A 
HETATM   33  C   UNL     1       0.220   6.215 -27.949  1.00  0.00     0.031 A 
ENDBRANCH  24  27
ENDBRANCH   4  23
TORSDOF 8
ENDMDL
MODEL 6
REMARK VINA RESULT:      -7.9      3.684      9.719
REMARK  8 active torsions:
REMARK  status: ('A' for Active; 'I' for Inactive)
REMARK    1  A    between atoms: C_2  and  O_3 
REMARK    2  A    between atoms: O_3  and  C_4 
REMARK    3  A    between atoms: C_7  and  N_8 
REMARK       I    between atoms: N_8  and  C_9 
REMARK    4  A    between atoms: C_9  and  C_10 
REMARK    5  A    between atoms: C_10  and  N_11 
REMARK    6  A    between atoms: C_14  and  C_15 
REMARK       I    between atoms: C_15  and  N_16 
REMARK    7  A    between atoms: N_16  and  C_17 
REMARK    8  A    between atoms: C_25  and  N_26 
ROOT
HETATM    1  N   UNL     1      -8.459   3.240 -31.363  1.00  0.00    -0.248 N 
HETATM    2  N   UNL     1      -8.460   3.982 -32.493  1.00  0.00     0.007 NA
HETATM    3  N   UNL     1      -7.389   4.762 -32.456  1.00  0.00    -0.150 NA
HETATM    4  C   UNL     1      -6.721   4.527 -31.271  1.00  0.00     0.187 A 
HETATM    5  C   UNL     1      -7.425   3.589 -30.533  1.00  0.00     0.151 A 
ENDROOT
BRANCH   1   6
HETATM    6  C   UNL     1      -9.389   2.145 -31.241  1.00  0.00     0.251 C 
BRANCH   6   7
HETATM    7  C   UNL     1      -8.977   0.949 -32.065  1.00  0.00     0.241 C 
HETATM    8  N   UNL     1      -7.723   1.073 -32.642  1.00  0.00    -0.326 N 
HETATM    9  H   UNL     1      -7.324   2.009 -32.676  1.00  0.00     0.169 HD
HETATM   10  O   UNL     1      -9.706  -0.038 -32.123  1.00  0.00    -0.271 OA
BRANCH   8  11
HETATM   11  C   UNL     1      -6.963   0.055 -33.254  1.00  0.00     0.034 A 
HETATM   12  C   UNL     1      -7.291  -0.531 -34.475  1.00  0.00     0.032 A 
HETATM   13  C   UNL     1      -6.514  -1.576 -34.988  1.00  0.00     0.039 A 
HETATM   14  C   UNL     1      -5.396  -2.045 -34.299  1.00  0.00     0.068 A 
HETATM   15  C   UNL     1      -5.059  -1.458 -33.082  1.00  0.00     0.039 A 
HETATM   16  C   UNL     1      -5.842  -0.419 -32.561  1.00  0.00     0.032 A 
BRANCH  14  17
HETATM   17  O   UNL     1      -4.738  -3.074 -34.910  1.00  0.00    -0.352 OA
BRANCH  17  18
HETATM   18  C   UNL     1      -4.874  -4.370 -34.332  1.00  0.00     0.171 C 
HETATM   19  C   UNL     1      -3.520  -4.779 -33.778  1.00  0.00     0.034 C 
ENDBRANCH  17  18
ENDBRANCH  14  17
ENDBRANCH   8  11
ENDBRANCH   6   7
ENDBRANCH   1   6
BRANCH   5  20
HETATM   20  N   UNL     1      -7.210   3.031 -29.318  1.00  0.00    -0.382 N 
HETATM   21  H   UNL     1      -7.976   2.493 -28.899  1.00  0.00     0.157 HD
HETATM   22  H   UNL     1      -6.299   2.680 -29.029  1.00  0.00     0.157 HD
ENDBRANCH   5  20
BRANCH   4  23
HETATM   23  C   UNL     1      -5.467   5.185 -30.923  1.00  0.00     0.280 C 
HETATM   24  N   UNL     1      -4.799   5.659 -32.038  1.00  0.00    -0.320 N 
HETATM   25  H   UNL     1      -5.383   5.766 -32.861  1.00  0.00     0.169 HD
HETATM   26  O   UNL     1      -5.115   5.332 -29.757  1.00  0.00    -0.265 OA
BRANCH  24  27
HETATM   27  C   UNL     1      -3.506   6.226 -32.077  1.00  0.00     0.057 A 
HETATM   28  C   UNL     1      -2.326   5.565 -32.461  1.00  0.00     0.060 A 
HETATM   29 CL   UNL     1      -2.294   3.992 -33.182  1.00  0.00    -0.082 Cl
HETATM   30  C   UNL     1      -1.101   6.249 -32.441  1.00  0.00     0.026 A 
HETATM   31  C   UNL     1      -1.042   7.591 -32.072  1.00  0.00     0.002 A 
HETATM   32  C   UNL     1      -2.211   8.267 -31.743  1.00  0.00     0.002 A 
HETATM   33  C   UNL     1      -3.435   7.592 -31.757  1.00  0.00     0.031 A 
ENDBRANCH  24  27
ENDBRANCH   4  23
TORSDOF 8
ENDMDL
MODEL 7
REMARK VINA RESULT:      -7.9      1.798      2.413
REMARK  8 active torsions:
REMARK  status: ('A' for Active; 'I' for Inactive)
REMARK    1  A    between atoms: C_2  and  O_3 
REMARK    2  A    between atoms: O_3  and  C_4 
REMARK    3  A    between atoms: C_7  and  N_8 
REMARK       I    between atoms: N_8  and  C_9 
REMARK    4  A    between atoms: C_9  and  C_10 
REMARK    5  A    between atoms: C_10  and  N_11 
REMARK    6  A    between atoms: C_14  and  C_15 
REMARK       I    between atoms: C_15  and  N_16 
REMARK    7  A    between atoms: N_16  and  C_17 
REMARK    8  A    between atoms: C_25  and  N_26 
ROOT
HETATM    1  N   UNL     1      -5.059   3.424 -33.214  1.00  0.00    -0.248 N 
HETATM    2  N   UNL     1      -3.887   3.169 -32.591  1.00  0.00     0.007 NA
HETATM    3  N   UNL     1      -3.850   1.870 -32.332  1.00  0.00    -0.150 NA
HETATM    4  C   UNL     1      -5.030   1.305 -32.773  1.00  0.00     0.187 A 
HETATM    5  C   UNL     1      -5.841   2.300 -33.294  1.00  0.00     0.151 A 
ENDROOT
BRANCH   1   6
HETATM    6  C   UNL     1      -5.271   4.719 -33.811  1.00  0.00     0.251 C 
BRANCH   6   7
HETATM    7  C   UNL     1      -4.308   5.755 -33.285  1.00  0.00     0.241 C 
HETATM    8  N   UNL     1      -4.462   6.028 -31.935  1.00  0.00    -0.326 N 
HETATM    9  H   UNL     1      -5.330   5.720 -31.501  1.00  0.00     0.169 HD
HETATM   10  O   UNL     1      -3.448   6.226 -34.026  1.00  0.00    -0.271 OA
BRANCH   8  11
HETATM   11  C   UNL     1      -3.578   6.750 -31.107  1.00  0.00     0.034 A 
HETATM   12  C   UNL     1      -3.792   8.068 -30.706  1.00  0.00     0.032 A 
HETATM   13  C   UNL     1      -2.838   8.733 -29.927  1.00  0.00     0.039 A 
HETATM   14  C   UNL     1      -1.664   8.093 -29.528  1.00  0.00     0.068 A 
HETATM   15  C   UNL     1      -1.448   6.774 -29.920  1.00  0.00     0.039 A 
HETATM   16  C   UNL     1      -2.398   6.110 -30.709  1.00  0.00     0.032 A 
BRANCH  14  17
HETATM   17  O   UNL     1      -0.819   8.863 -28.782  1.00  0.00    -0.352 OA
BRANCH  17  18
HETATM   18  C   UNL     1      -0.070   8.208 -27.760  1.00  0.00     0.171 C 
HETATM   19  C   UNL     1       1.401   8.507 -27.996  1.00  0.00     0.034 C 
ENDBRANCH  17  18
ENDBRANCH  14  17
ENDBRANCH   8  11
ENDBRANCH   6   7
ENDBRANCH   1   6
BRANCH   5  20
HETATM   20  N   UNL     1      -7.082   2.280 -33.835  1.00  0.00    -0.382 N 
HETATM   21  H   UNL     1      -7.534   1.368 -33.958  1.00  0.00     0.157 HD
HETATM   22  H   UNL     1      -7.763   3.021 -33.674  1.00  0.00     0.157 HD
ENDBRANCH   5  20
BRANCH   4  23
HETATM   23  C   UNL     1      -5.307  -0.124 -32.687  1.00  0.00     0.280 C 
HETATM   24  N   UNL     1      -4.540  -0.859 -33.574  1.00  0.00    -0.320 N 
HETATM   25  H   UNL     1      -3.715  -0.376 -33.913  1.00  0.00     0.169 HD
HETATM   26  O   UNL     1      -6.093  -0.583 -31.865  1.00  0.00    -0.265 OA
BRANCH  24  27
HETATM   27  C   UNL     1      -4.644  -2.241 -33.846  1.00  0.00     0.057 A 
HETATM   28  C   UNL     1      -3.899  -3.262 -33.228  1.00  0.00     0.060 A 
HETATM   29 CL   UNL     1      -2.884  -3.014 -31.849  1.00  0.00    -0.082 Cl
HETATM   30  C   UNL     1      -4.094  -4.599 -33.606  1.00  0.00     0.026 A 
HETATM   31  C   UNL     1      -5.043  -4.934 -34.570  1.00  0.00     0.002 A 
HETATM   32  C   UNL     1      -5.822  -3.937 -35.145  1.00  0.00     0.002 A 
HETATM   33  C   UNL     1      -5.631  -2.602 -34.777  1.00  0.00     0.031 A 
ENDBRANCH  24  27
ENDBRANCH   4  23
TORSDOF 8
ENDMDL
MODEL 8
REMARK VINA RESULT:      -7.7      5.248      9.190
REMARK  8 active torsions:
REMARK  status: ('A' for Active; 'I' for Inactive)
REMARK    1  A    between atoms: C_2  and  O_3 
REMARK    2  A    between atoms: O_3  and  C_4 
REMARK    3  A    between atoms: C_7  and  N_8 
REMARK       I    between atoms: N_8  and  C_9 
REMARK    4  A    between atoms: C_9  and  C_10 
REMARK    5  A    between atoms: C_10  and  N_11 
REMARK    6  A    between atoms: C_14  and  C_15 
REMARK       I    between atoms: C_15  and  N_16 
REMARK    7  A    between atoms: N_16  and  C_17 
REMARK    8  A    between atoms: C_25  and  N_26 
ROOT
HETATM    1  N   UNL     1      -7.457   3.898 -31.624  1.00  0.00    -0.248 N 
HETATM    2  N   UNL     1      -8.086   3.338 -30.567  1.00  0.00     0.007 NA
HETATM    3  N   UNL     1      -9.340   3.108 -30.929  1.00  0.00    -0.150 NA
HETATM    4  C   UNL     1      -9.508   3.558 -32.223  1.00  0.00     0.187 A 
HETATM    5  C   UNL     1      -8.321   4.117 -32.666  1.00  0.00     0.151 A 
ENDROOT
BRANCH   1   6
HETATM    6  C   UNL     1      -6.023   4.050 -31.588  1.00  0.00     0.251 C 
BRANCH   6   7
HETATM    7  C   UNL     1      -5.311   2.929 -32.305  1.00  0.00     0.241 C 
HETATM    8  N   UNL     1      -5.809   1.670 -32.009  1.00  0.00    -0.326 N 
HETATM    9  H   UNL     1      -6.401   1.593 -31.184  1.00  0.00     0.169 HD
HETATM   10  O   UNL     1      -4.422   3.184 -33.113  1.00  0.00    -0.271 OA
BRANCH   8  11
HETATM   11  C   UNL     1      -5.531   0.464 -32.684  1.00  0.00     0.034 A 
HETATM   12  C   UNL     1      -4.253  -0.078 -32.809  1.00  0.00     0.032 A 
HETATM   13  C   UNL     1      -4.053  -1.253 -33.544  1.00  0.00     0.039 A 
HETATM   14  C   UNL     1      -5.122  -1.908 -34.156  1.00  0.00     0.068 A 
HETATM   15  C   UNL     1      -6.402  -1.375 -34.028  1.00  0.00     0.039 A 
HETATM   16  C   UNL     1      -6.603  -0.192 -33.301  1.00  0.00     0.032 A 
BRANCH  14  17
HETATM   17  O   UNL     1      -4.781  -3.034 -34.848  1.00  0.00    -0.352 OA
BRANCH  17  18
HETATM   18  C   UNL     1      -5.424  -4.251 -34.474  1.00  0.00     0.171 C 
HETATM   19  C   UNL     1      -6.519  -4.531 -35.489  1.00  0.00     0.034 C 
ENDBRANCH  17  18
ENDBRANCH  14  17
ENDBRANCH   8  11
ENDBRANCH   6   7
ENDBRANCH   1   6
BRANCH   5  20
HETATM   20  N   UNL     1      -7.963   4.702 -33.833  1.00  0.00    -0.382 N 
HETATM   21  H   UNL     1      -8.039   5.723 -33.898  1.00  0.00     0.157 HD
HETATM   22  H   UNL     1      -7.213   4.341 -34.420  1.00  0.00     0.157 HD
ENDBRANCH   5  20
BRANCH   4  23
HETATM   23  C   UNL     1     -10.762   3.420 -32.955  1.00  0.00     0.280 C 
HETATM   24  N   UNL     1     -11.578   2.443 -32.413  1.00  0.00    -0.320 N 
HETATM   25  H   UNL     1     -11.354   2.195 -31.455  1.00  0.00     0.169 HD
HETATM   26  O   UNL     1     -11.044   4.149 -33.900  1.00  0.00    -0.265 OA
BRANCH  24  27
HETATM   27  C   UNL     1     -12.795   1.961 -32.943  1.00  0.00     0.057 A 
HETATM   28  C   UNL     1     -14.082   2.409 -32.595  1.00  0.00     0.060 A 
HETATM   29 CL   UNL     1     -14.385   3.805 -31.619  1.00  0.00    -0.082 Cl
HETATM   30  C   UNL     1     -15.212   1.829 -33.192  1.00  0.00     0.026 A 
HETATM   31  C   UNL     1     -15.074   0.830 -34.154  1.00  0.00     0.002 A 
HETATM   32  C   UNL     1     -13.804   0.420 -34.543  1.00  0.00     0.002 A 
HETATM   33  C   UNL     1     -12.674   0.989 -33.951  1.00  0.00     0.031 A 
ENDBRANCH  24  27
ENDBRANCH   4  23
TORSDOF 8
ENDMDL
MODEL 9
REMARK VINA RESULT:      -7.5      3.408     10.628
REMARK  8 active torsions:
REMARK  status: ('A' for Active; 'I' for Inactive)
REMARK    1  A    between atoms: C_2  and  O_3 
REMARK    2  A    between atoms: O_3  and  C_4 
REMARK    3  A    between atoms: C_7  and  N_8 
REMARK       I    between atoms: N_8  and  C_9 
REMARK    4  A    between atoms: C_9  and  C_10 
REMARK    5  A    between atoms: C_10  and  N_11 
REMARK    6  A    between atoms: C_14  and  C_15 
REMARK       I    between atoms: C_15  and  N_16 
REMARK    7  A    between atoms: N_16  and  C_17 
REMARK    8  A    between atoms: C_25  and  N_26 
ROOT
HETATM    1  N   UNL     1      -5.436   5.166 -30.648  1.00  0.00    -0.248 N 
HETATM    2  N   UNL     1      -4.436   4.874 -31.508  1.00  0.00     0.007 NA
HETATM    3  N   UNL     1      -3.379   5.585 -31.143  1.00  0.00    -0.150 NA
HETATM    4  C   UNL     1      -3.731   6.359 -30.055  1.00  0.00     0.187 A 
HETATM    5  C   UNL     1      -5.066   6.140 -29.757  1.00  0.00     0.151 A 
ENDROOT
BRANCH   1   6
HETATM    6  C   UNL     1      -6.638   4.369 -30.672  1.00  0.00     0.251 C 
BRANCH   6   7
HETATM    7  C   UNL     1      -6.708   3.475 -31.885  1.00  0.00     0.241 C 
HETATM    8  N   UNL     1      -6.193   2.205 -31.676  1.00  0.00    -0.326 N 
HETATM    9  H   UNL     1      -5.608   2.078 -30.852  1.00  0.00     0.169 HD
HETATM   10  O   UNL     1      -7.244   3.878 -32.915  1.00  0.00    -0.271 OA
BRANCH   8  11
HETATM   11  C   UNL     1      -6.331   1.081 -32.516  1.00  0.00     0.034 A 
HETATM   12  C   UNL     1      -7.558   0.513 -32.856  1.00  0.00     0.032 A 
HETATM   13  C   UNL     1      -7.606  -0.637 -33.652  1.00  0.00     0.039 A 
HETATM   14  C   UNL     1      -6.437  -1.231 -34.127  1.00  0.00     0.068 A 
HETATM   15  C   UNL     1      -5.209  -0.664 -33.796  1.00  0.00     0.039 A 
HETATM   16  C   UNL     1      -5.158   0.482 -32.990  1.00  0.00     0.032 A 
BRANCH  14  17
HETATM   17  O   UNL     1      -6.632  -2.353 -34.882  1.00  0.00    -0.352 OA
BRANCH  17  18
HETATM   18  C   UNL     1      -5.628  -3.364 -34.819  1.00  0.00     0.171 C 
HETATM   19  C   UNL     1      -6.292  -4.699 -35.112  1.00  0.00     0.034 C 
ENDBRANCH  17  18
ENDBRANCH  14  17
ENDBRANCH   8  11
ENDBRANCH   6   7
ENDBRANCH   1   6
BRANCH   5  20
HETATM   20  N   UNL     1      -5.888   6.649 -28.809  1.00  0.00    -0.382 N 
HETATM   21  H   UNL     1      -6.762   6.148 -28.619  1.00  0.00     0.157 HD
HETATM   22  H   UNL     1      -5.540   7.130 -27.982  1.00  0.00     0.157 HD
ENDBRANCH   5  20
BRANCH   4  23
HETATM   23  C   UNL     1      -2.790   7.234 -29.365  1.00  0.00     0.280 C 
HETATM   24  N   UNL     1      -1.650   6.561 -28.963  1.00  0.00    -0.320 N 
HETATM   25  H   UNL     1      -1.487   5.686 -29.451  1.00  0.00     0.169 HD
HETATM   26  O   UNL     1      -3.000   8.435 -29.233  1.00  0.00    -0.265 OA
BRANCH  24  27
HETATM   27  C   UNL     1      -0.601   7.066 -28.163  1.00  0.00     0.057 A 
HETATM   28  C   UNL     1      -0.443   6.858 -26.781  1.00  0.00     0.060 A 
HETATM   29 CL   UNL     1      -1.390   5.740 -25.861  1.00  0.00    -0.082 Cl
HETATM   30  C   UNL     1       0.643   7.433 -26.105  1.00  0.00     0.026 A 
HETATM   31  C   UNL     1       1.591   8.188 -26.794  1.00  0.00     0.002 A 
HETATM   32  C   UNL     1       1.471   8.354 -28.169  1.00  0.00     0.002 A 
HETATM   33  C   UNL     1       0.390   7.787 -28.849  1.00  0.00     0.031 A 
ENDBRANCH  24  27
ENDBRANCH   4  23
TORSDOF 8
ENDMDL
MODEL 10
REMARK VINA RESULT:      -7.5      8.520     14.353
REMARK  8 active torsions:
REMARK  status: ('A' for Active; 'I' for Inactive)
REMARK    1  A    between atoms: C_2  and  O_3 
REMARK    2  A    between atoms: O_3  and  C_4 
REMARK    3  A    between atoms: C_7  and  N_8 
REMARK       I    between atoms: N_8  and  C_9 
REMARK    4  A    between atoms: C_9  and  C_10 
REMARK    5  A    between atoms: C_10  and  N_11 
REMARK    6  A    between atoms: C_14  and  C_15 
REMARK       I    between atoms: C_15  and  N_16 
REMARK    7  A    between atoms: N_16  and  C_17 
REMARK    8  A    between atoms: C_25  and  N_26 
ROOT
HETATM    1  N   UNL     1       3.478   9.236 -22.888  1.00  0.00    -0.248 N 
HETATM    2  N   UNL     1       3.094   8.296 -21.996  1.00  0.00     0.007 NA
HETATM    3  N   UNL     1       4.158   7.559 -21.713  1.00  0.00    -0.150 NA
HETATM    4  C   UNL     1       5.220   8.025 -22.462  1.00  0.00     0.187 A 
HETATM    5  C   UNL     1       4.787   9.069 -23.262  1.00  0.00     0.151 A 
ENDROOT
BRANCH   1   6
HETATM    6  C   UNL     1       2.576  10.316 -23.203  1.00  0.00     0.251 C 
BRANCH   6   7
HETATM    7  C   UNL     1       1.716  10.010 -24.404  1.00  0.00     0.241 C 
HETATM    8  N   UNL     1       2.154   8.923 -25.145  1.00  0.00    -0.326 N 
HETATM    9  H   UNL     1       3.107   8.608 -24.976  1.00  0.00     0.169 HD
HETATM   10  O   UNL     1       0.696  10.664 -24.612  1.00  0.00    -0.271 OA
BRANCH   8  11
HETATM   11  C   UNL     1       1.450   8.245 -26.161  1.00  0.00     0.034 A 
HETATM   12  C   UNL     1       0.586   7.177 -25.925  1.00  0.00     0.032 A 
HETATM   13  C   UNL     1      -0.033   6.521 -26.996  1.00  0.00     0.039 A 
HETATM   14  C   UNL     1       0.190   6.925 -28.312  1.00  0.00     0.068 A 
HETATM   15  C   UNL     1       1.046   7.997 -28.552  1.00  0.00     0.039 A 
HETATM   16  C   UNL     1       1.676   8.649 -27.482  1.00  0.00     0.032 A 
BRANCH  14  17
HETATM   17  O   UNL     1      -0.470   6.190 -29.255  1.00  0.00    -0.352 OA
BRANCH  17  18
HETATM   18  C   UNL     1       0.302   5.266 -30.019  1.00  0.00     0.171 C 
HETATM   19  C   UNL     1      -0.149   5.365 -31.466  1.00  0.00     0.034 C 
ENDBRANCH  17  18
ENDBRANCH  14  17
ENDBRANCH   8  11
ENDBRANCH   6   7
ENDBRANCH   1   6
BRANCH   5  20
HETATM   20  N   UNL     1       5.417   9.849 -24.172  1.00  0.00    -0.382 N 
HETATM   21  H   UNL     1       5.979   9.382 -24.891  1.00  0.00     0.157 HD
HETATM   22  H   UNL     1       5.024  10.726 -24.509  1.00  0.00     0.157 HD
ENDBRANCH   5  20
BRANCH   4  23
HETATM   23  C   UNL     1       6.565   7.469 -22.364  1.00  0.00     0.280 C 
HETATM   24  N   UNL     1       6.642   6.450 -21.431  1.00  0.00    -0.320 N 
HETATM   25  H   UNL     1       5.748   6.035 -21.190  1.00  0.00     0.169 HD
HETATM   26  O   UNL     1       7.479   7.851 -23.088  1.00  0.00    -0.265 OA
BRANCH  24  27
HETATM   27  C   UNL     1       7.808   5.785 -20.991  1.00  0.00     0.057 A 
HETATM   28  C   UNL     1       8.501   4.782 -21.693  1.00  0.00     0.060 A 
HETATM   29 CL   UNL     1       8.170   4.353 -23.336  1.00  0.00    -0.082 Cl
HETATM   30  C   UNL     1       9.643   4.194 -21.130  1.00  0.00     0.026 A 
HETATM   31  C   UNL     1      10.122   4.614 -19.890  1.00  0.00     0.002 A 
HETATM   32  C   UNL     1       9.475   5.643 -19.215  1.00  0.00     0.002 A 
HETATM   33  C   UNL     1       8.334   6.231 -19.767  1.00  0.00     0.031 A 
ENDBRANCH  24  27
ENDBRANCH   4  23
TORSDOF 8
ENDMDL
