MODEL 1
REMARK VINA RESULT:      -8.6      0.000      0.000
REMARK  5 active torsions:
REMARK  status: ('A' for Active; 'I' for Inactive)
REMARK    1  A    between atoms: C_2  and  C_3 
REMARK    2  A    between atoms: C_3  and  O_4 
REMARK    3  A    between atoms: O_4  and  C_5 
REMARK    4  A    between atoms: C_8  and  C_9 
REMARK    5  A    between atoms: C_15  and  C_16 
ROOT
HETATM    1  C   UNL     1      -5.392   2.665 -32.795  1.00  0.00     0.066 C 
HETATM    2  C   UNL     1      -6.153   2.934 -31.544  1.00  0.00     0.028 A 
HETATM    3  C   UNL     1      -5.576   3.491 -30.432  1.00  0.00     0.133 A 
HETATM    4  N   UNL     1      -6.538   3.577 -29.478  1.00  0.00    -0.261 N 
HETATM    5  H   UNL     1      -6.473   3.939 -28.532  1.00  0.00     0.191 HD
HETATM    6  N   UNL     1      -7.713   3.083 -29.885  1.00  0.00    -0.172 NA
HETATM    7  C   UNL     1      -7.502   2.664 -31.149  1.00  0.00     0.098 A 
HETATM    8  N   UNL     1      -4.243   3.807 -30.365  1.00  0.00    -0.312 N 
HETATM    9  C   UNL     1      -3.420   3.663 -31.523  1.00  0.00     0.224 C 
HETATM   10  O   UNL     1      -2.226   3.850 -31.356  1.00  0.00    -0.273 OA
HETATM   11  C   UNL     1      -4.080   3.454 -32.862  1.00  0.00     0.117 C 
HETATM   12  H   UNL     1      -3.791   4.096 -29.506  1.00  0.00     0.170 HD
ENDROOT
BRANCH   1  13
HETATM   13  C   UNL     1      -5.165   1.167 -32.909  1.00  0.00    -0.049 A 
HETATM   14  C   UNL     1      -5.900   0.459 -33.878  1.00  0.00     0.010 A 
HETATM   15  C   UNL     1      -5.695  -0.909 -34.091  1.00  0.00     0.037 A 
HETATM   16  C   UNL     1      -4.742  -1.594 -33.344  1.00  0.00     0.069 A 
HETATM   17  C   UNL     1      -4.026  -0.912 -32.361  1.00  0.00     0.037 A 
HETATM   18  C   UNL     1      -4.220   0.457 -32.154  1.00  0.00     0.010 A 
BRANCH  16  19
HETATM   19  O   UNL     1      -4.438  -2.920 -33.471  1.00  0.00    -0.348 OA
BRANCH  19  20
HETATM   20  C   UNL     1      -4.513  -3.457 -34.791  1.00  0.00     0.202 C 
BRANCH  20  21
HETATM   21  C   UNL     1      -5.528  -4.561 -34.768  1.00  0.00    -0.011 C 
HETATM   22  C   UNL     1      -6.774  -4.461 -35.249  1.00  0.00     0.009 C 
ENDBRANCH  20  21
ENDBRANCH  19  20
ENDBRANCH  16  19
ENDBRANCH   1  13
BRANCH   7  23
HETATM   23  C   UNL     1      -8.567   1.977 -31.881  1.00  0.00    -0.005 A 
HETATM   24  C   UNL     1      -9.436   2.660 -32.741  1.00  0.00     0.014 A 
HETATM   25  C   UNL     1     -10.419   1.966 -33.454  1.00  0.00     0.001 A 
HETATM   26  C   UNL     1     -10.553   0.587 -33.304  1.00  0.00     0.000 A 
HETATM   27  C   UNL     1      -9.711  -0.101 -32.434  1.00  0.00     0.001 A 
HETATM   28  C   UNL     1      -8.726   0.590 -31.727  1.00  0.00     0.014 A 
ENDBRANCH   7  23
TORSDOF 5
ENDMDL
MODEL 2
REMARK VINA RESULT:      -8.4      1.055      1.332
REMARK  5 active torsions:
REMARK  status: ('A' for Active; 'I' for Inactive)
REMARK    1  A    between atoms: C_2  and  C_3 
REMARK    2  A    between atoms: C_3  and  O_4 
REMARK    3  A    between atoms: O_4  and  C_5 
REMARK    4  A    between atoms: C_8  and  C_9 
REMARK    5  A    between atoms: C_15  and  C_16 
ROOT
HETATM    1  C   UNL     1      -5.949   2.607 -32.958  1.00  0.00     0.066 C 
HETATM    2  C   UNL     1      -6.709   2.797 -31.692  1.00  0.00     0.028 A 
HETATM    3  C   UNL     1      -6.093   3.015 -30.486  1.00  0.00     0.133 A 
HETATM    4  N   UNL     1      -7.068   3.124 -29.549  1.00  0.00    -0.261 N 
HETATM    5  H   UNL     1      -6.984   3.289 -28.551  1.00  0.00     0.191 HD
HETATM    6  N   UNL     1      -8.294   2.963 -30.060  1.00  0.00    -0.172 NA
HETATM    7  C   UNL     1      -8.104   2.744 -31.376  1.00  0.00     0.098 A 
HETATM    8  N   UNL     1      -4.729   3.033 -30.340  1.00  0.00    -0.312 N 
HETATM    9  C   UNL     1      -3.890   2.933 -31.491  1.00  0.00     0.224 C 
HETATM   10  O   UNL     1      -2.693   2.838 -31.272  1.00  0.00    -0.273 OA
HETATM   11  C   UNL     1      -4.505   3.109 -32.856  1.00  0.00     0.117 C 
HETATM   12  H   UNL     1      -4.275   3.064 -29.434  1.00  0.00     0.170 HD
ENDROOT
BRANCH   1  13
HETATM   13  C   UNL     1      -6.019   1.140 -33.347  1.00  0.00    -0.049 A 
HETATM   14  C   UNL     1      -6.689   0.803 -34.538  1.00  0.00     0.010 A 
HETATM   15  C   UNL     1      -6.734  -0.518 -34.999  1.00  0.00     0.037 A 
HETATM   16  C   UNL     1      -6.102  -1.527 -34.279  1.00  0.00     0.069 A 
HETATM   17  C   UNL     1      -5.459  -1.212 -33.083  1.00  0.00     0.037 A 
HETATM   18  C   UNL     1      -5.402   0.108 -32.626  1.00  0.00     0.010 A 
BRANCH  16  19
HETATM   19  O   UNL     1      -6.059  -2.847 -34.633  1.00  0.00    -0.348 OA
BRANCH  19  20
HETATM   20  C   UNL     1      -4.779  -3.356 -35.004  1.00  0.00     0.202 C 
BRANCH  20  21
HETATM   21  C   UNL     1      -4.566  -4.629 -34.243  1.00  0.00    -0.011 C 
HETATM   22  C   UNL     1      -3.551  -4.852 -33.397  1.00  0.00     0.009 C 
ENDBRANCH  20  21
ENDBRANCH  19  20
ENDBRANCH  16  19
ENDBRANCH   1  13
BRANCH   7  23
HETATM   23  C   UNL     1      -9.243   2.434 -32.241  1.00  0.00    -0.005 A 
HETATM   24  C   UNL     1      -9.996   3.436 -32.863  1.00  0.00     0.014 A 
HETATM   25  C   UNL     1     -11.055   3.103 -33.713  1.00  0.00     0.001 A 
HETATM   26  C   UNL     1     -11.382   1.767 -33.938  1.00  0.00     0.000 A 
HETATM   27  C   UNL     1     -10.655   0.760 -33.307  1.00  0.00     0.001 A 
HETATM   28  C   UNL     1      -9.594   1.092 -32.463  1.00  0.00     0.014 A 
ENDBRANCH   7  23
TORSDOF 5
ENDMDL
MODEL 3
REMARK VINA RESULT:      -8.3      2.583      5.620
REMARK  5 active torsions:
REMARK  status: ('A' for Active; 'I' for Inactive)
REMARK    1  A    between atoms: C_2  and  C_3 
REMARK    2  A    between atoms: C_3  and  O_4 
REMARK    3  A    between atoms: O_4  and  C_5 
REMARK    4  A    between atoms: C_8  and  C_9 
REMARK    5  A    between atoms: C_15  and  C_16 
ROOT
HETATM    1  C   UNL     1      -6.323  -0.039 -31.274  1.00  0.00     0.066 C 
HETATM    2  C   UNL     1      -5.038  -0.025 -32.024  1.00  0.00     0.028 A 
HETATM    3  C   UNL     1      -4.110   0.975 -31.884  1.00  0.00     0.133 A 
HETATM    4  N   UNL     1      -3.078   0.689 -32.718  1.00  0.00    -0.261 N 
HETATM    5  H   UNL     1      -2.219   1.204 -32.876  1.00  0.00     0.191 HD
HETATM    6  N   UNL     1      -3.282  -0.430 -33.424  1.00  0.00    -0.172 NA
HETATM    7  C   UNL     1      -4.488  -0.883 -33.030  1.00  0.00     0.098 A 
HETATM    8  N   UNL     1      -4.308   2.065 -31.075  1.00  0.00    -0.312 N 
HETATM    9  C   UNL     1      -5.470   2.134 -30.248  1.00  0.00     0.224 C 
HETATM   10  O   UNL     1      -5.636   3.183 -29.647  1.00  0.00    -0.273 OA
HETATM   11  C   UNL     1      -6.299   0.891 -30.056  1.00  0.00     0.117 C 
HETATM   12  H   UNL     1      -3.685   2.864 -31.070  1.00  0.00     0.170 HD
ENDROOT
BRANCH   1  13
HETATM   13  C   UNL     1      -7.447   0.308 -32.235  1.00  0.00    -0.049 A 
HETATM   14  C   UNL     1      -8.725  -0.222 -31.977  1.00  0.00     0.010 A 
HETATM   15  C   UNL     1      -9.825   0.109 -32.776  1.00  0.00     0.037 A 
HETATM   16  C   UNL     1      -9.669   0.984 -33.847  1.00  0.00     0.069 A 
HETATM   17  C   UNL     1      -8.404   1.494 -34.131  1.00  0.00     0.037 A 
HETATM   18  C   UNL     1      -7.305   1.175 -33.328  1.00  0.00     0.010 A 
BRANCH  16  19
HETATM   19  O   UNL     1     -10.666   1.396 -34.686  1.00  0.00    -0.348 OA
BRANCH  19  20
HETATM   20  C   UNL     1     -11.802   1.995 -34.063  1.00  0.00     0.202 C 
BRANCH  20  21
HETATM   21  C   UNL     1     -13.004   1.189 -34.457  1.00  0.00    -0.011 C 
HETATM   22  C   UNL     1     -13.393   0.057 -33.857  1.00  0.00     0.009 C 
ENDBRANCH  20  21
ENDBRANCH  19  20
ENDBRANCH  16  19
ENDBRANCH   1  13
BRANCH   7  23
HETATM   23  C   UNL     1      -5.077  -2.060 -33.672  1.00  0.00    -0.005 A 
HETATM   24  C   UNL     1      -6.373  -2.047 -34.199  1.00  0.00     0.014 A 
HETATM   25  C   UNL     1      -6.890  -3.177 -34.839  1.00  0.00     0.001 A 
HETATM   26  C   UNL     1      -6.123  -4.336 -34.944  1.00  0.00     0.000 A 
HETATM   27  C   UNL     1      -4.841  -4.371 -34.404  1.00  0.00     0.001 A 
HETATM   28  C   UNL     1      -4.322  -3.240 -33.770  1.00  0.00     0.014 A 
ENDBRANCH   7  23
TORSDOF 5
ENDMDL
MODEL 4
REMARK VINA RESULT:      -8.1      2.467      4.893
REMARK  5 active torsions:
REMARK  status: ('A' for Active; 'I' for Inactive)
REMARK    1  A    between atoms: C_2  and  C_3 
REMARK    2  A    between atoms: C_3  and  O_4 
REMARK    3  A    between atoms: O_4  and  C_5 
REMARK    4  A    between atoms: C_8  and  C_9 
REMARK    5  A    between atoms: C_15  and  C_16 
ROOT
HETATM    1  C   UNL     1      -8.096   1.201 -32.273  1.00  0.00     0.066 C 
HETATM    2  C   UNL     1      -8.058   2.497 -33.005  1.00  0.00     0.028 A 
HETATM    3  C   UNL     1      -9.113   2.956 -33.751  1.00  0.00     0.133 A 
HETATM    4  N   UNL     1      -8.738   4.143 -34.291  1.00  0.00    -0.261 N 
HETATM    5  H   UNL     1      -9.262   4.768 -34.896  1.00  0.00     0.191 HD
HETATM    6  N   UNL     1      -7.484   4.483 -33.970  1.00  0.00    -0.172 NA
HETATM    7  C   UNL     1      -7.034   3.479 -33.191  1.00  0.00     0.098 A 
HETATM    8  N   UNL     1     -10.272   2.243 -33.919  1.00  0.00    -0.312 N 
HETATM    9  C   UNL     1     -10.460   1.017 -33.211  1.00  0.00     0.224 C 
HETATM   10  O   UNL     1     -11.461   0.382 -33.500  1.00  0.00    -0.273 OA
HETATM   11  C   UNL     1      -9.525   0.682 -32.078  1.00  0.00     0.117 C 
HETATM   12  H   UNL     1     -10.996   2.520 -34.570  1.00  0.00     0.170 HD
ENDROOT
BRANCH   1  13
HETATM   13  C   UNL     1      -7.221   0.203 -33.012  1.00  0.00    -0.049 A 
HETATM   14  C   UNL     1      -6.065  -0.270 -32.364  1.00  0.00     0.010 A 
HETATM   15  C   UNL     1      -5.248  -1.243 -32.951  1.00  0.00     0.037 A 
HETATM   16  C   UNL     1      -5.577  -1.768 -34.197  1.00  0.00     0.069 A 
HETATM   17  C   UNL     1      -6.703  -1.289 -34.863  1.00  0.00     0.037 A 
HETATM   18  C   UNL     1      -7.528  -0.326 -34.275  1.00  0.00     0.010 A 
BRANCH  16  19
HETATM   19  O   UNL     1      -4.872  -2.731 -34.863  1.00  0.00    -0.348 OA
BRANCH  19  20
HETATM   20  C   UNL     1      -5.517  -3.996 -35.003  1.00  0.00     0.202 C 
BRANCH  20  21
HETATM   21  C   UNL     1      -4.721  -4.993 -34.216  1.00  0.00    -0.011 C 
HETATM   22  C   UNL     1      -3.491  -4.775 -33.730  1.00  0.00     0.009 C 
ENDBRANCH  20  21
ENDBRANCH  19  20
ENDBRANCH  16  19
ENDBRANCH   1  13
BRANCH   7  23
HETATM   23  C   UNL     1      -5.646   3.478 -32.725  1.00  0.00    -0.005 A 
HETATM   24  C   UNL     1      -4.588   3.891 -33.542  1.00  0.00     0.014 A 
HETATM   25  C   UNL     1      -3.279   3.912 -33.052  1.00  0.00     0.001 A 
HETATM   26  C   UNL     1      -3.012   3.506 -31.746  1.00  0.00     0.000 A 
HETATM   27  C   UNL     1      -4.052   3.070 -30.929  1.00  0.00     0.001 A 
HETATM   28  C   UNL     1      -5.360   3.055 -31.416  1.00  0.00     0.014 A 
ENDBRANCH   7  23
TORSDOF 5
ENDMDL
MODEL 5
REMARK VINA RESULT:      -7.8      2.499      5.931
REMARK  5 active torsions:
REMARK  status: ('A' for Active; 'I' for Inactive)
REMARK    1  A    between atoms: C_2  and  C_3 
REMARK    2  A    between atoms: C_3  and  O_4 
REMARK    3  A    between atoms: O_4  and  C_5 
REMARK    4  A    between atoms: C_8  and  C_9 
REMARK    5  A    between atoms: C_15  and  C_16 
ROOT
HETATM    1  C   UNL     1      -7.239   3.248 -33.414  1.00  0.00     0.066 C 
HETATM    2  C   UNL     1      -7.958   2.278 -32.543  1.00  0.00     0.028 A 
HETATM    3  C   UNL     1      -8.918   2.663 -31.643  1.00  0.00     0.133 A 
HETATM    4  N   UNL     1      -9.348   1.543 -31.008  1.00  0.00    -0.261 N 
HETATM    5  H   UNL     1     -10.052   1.446 -30.283  1.00  0.00     0.191 HD
HETATM    6  N   UNL     1      -8.709   0.441 -31.417  1.00  0.00    -0.172 NA
HETATM    7  C   UNL     1      -7.834   0.865 -32.351  1.00  0.00     0.098 A 
HETATM    8  N   UNL     1      -9.264   3.975 -31.440  1.00  0.00    -0.312 N 
HETATM    9  C   UNL     1      -8.697   4.994 -32.264  1.00  0.00     0.224 C 
HETATM   10  O   UNL     1      -8.961   6.143 -31.948  1.00  0.00    -0.273 OA
HETATM   11  C   UNL     1      -7.968   4.591 -33.519  1.00  0.00     0.117 C 
HETATM   12  H   UNL     1      -9.876   4.270 -30.688  1.00  0.00     0.170 HD
ENDROOT
BRANCH   1  13
HETATM   13  C   UNL     1      -5.821   3.406 -32.893  1.00  0.00    -0.049 A 
HETATM   14  C   UNL     1      -4.866   3.997 -33.742  1.00  0.00     0.010 A 
HETATM   15  C   UNL     1      -3.558   4.241 -33.308  1.00  0.00     0.037 A 
HETATM   16  C   UNL     1      -3.182   3.905 -32.011  1.00  0.00     0.069 A 
HETATM   17  C   UNL     1      -4.109   3.293 -31.168  1.00  0.00     0.037 A 
HETATM   18  C   UNL     1      -5.419   3.059 -31.595  1.00  0.00     0.010 A 
BRANCH  16  19
HETATM   19  O   UNL     1      -1.945   4.109 -31.466  1.00  0.00    -0.348 OA
BRANCH  19  20
HETATM   20  C   UNL     1      -1.094   5.016 -32.166  1.00  0.00     0.202 C 
BRANCH  20  21
HETATM   21  C   UNL     1       0.012   5.402 -31.230  1.00  0.00    -0.011 C 
HETATM   22  C   UNL     1       0.472   6.650 -31.067  1.00  0.00     0.009 C 
ENDBRANCH  20  21
ENDBRANCH  19  20
ENDBRANCH  16  19
ENDBRANCH   1  13
BRANCH   7  23
HETATM   23  C   UNL     1      -6.892  -0.078 -32.956  1.00  0.00    -0.005 A 
HETATM   24  C   UNL     1      -5.695  -0.438 -32.327  1.00  0.00     0.014 A 
HETATM   25  C   UNL     1      -4.835  -1.370 -32.917  1.00  0.00     0.001 A 
HETATM   26  C   UNL     1      -5.156  -1.939 -34.148  1.00  0.00     0.000 A 
HETATM   27  C   UNL     1      -6.333  -1.573 -34.796  1.00  0.00     0.001 A 
HETATM   28  C   UNL     1      -7.194  -0.647 -34.204  1.00  0.00     0.014 A 
ENDBRANCH   7  23
TORSDOF 5
ENDMDL
MODEL 6
REMARK VINA RESULT:      -7.7      2.424      5.457
REMARK  5 active torsions:
REMARK  status: ('A' for Active; 'I' for Inactive)
REMARK    1  A    between atoms: C_2  and  C_3 
REMARK    2  A    between atoms: C_3  and  O_4 
REMARK    3  A    between atoms: O_4  and  C_5 
REMARK    4  A    between atoms: C_8  and  C_9 
REMARK    5  A    between atoms: C_15  and  C_16 
ROOT
HETATM    1  C   UNL     1      -6.891   1.747 -30.889  1.00  0.00     0.066 C 
HETATM    2  C   UNL     1      -5.606   2.127 -31.539  1.00  0.00     0.028 A 
HETATM    3  C   UNL     1      -5.041   3.368 -31.390  1.00  0.00     0.133 A 
HETATM    4  N   UNL     1      -3.899   3.381 -32.123  1.00  0.00    -0.261 N 
HETATM    5  H   UNL     1      -3.224   4.129 -32.246  1.00  0.00     0.191 HD
HETATM    6  N   UNL     1      -3.690   2.230 -32.772  1.00  0.00    -0.172 NA
HETATM    7  C   UNL     1      -4.734   1.444 -32.444  1.00  0.00     0.098 A 
HETATM    8  N   UNL     1      -5.632   4.373 -30.667  1.00  0.00    -0.312 N 
HETATM    9  C   UNL     1      -6.832   4.112 -29.938  1.00  0.00     0.224 C 
HETATM   10  O   UNL     1      -7.360   5.081 -29.417  1.00  0.00    -0.273 OA
HETATM   11  C   UNL     1      -7.261   2.682 -29.733  1.00  0.00     0.117 C 
HETATM   12  H   UNL     1      -5.282   5.323 -30.663  1.00  0.00     0.170 HD
ENDROOT
BRANCH   1  13
HETATM   13  C   UNL     1      -7.974   1.699 -31.954  1.00  0.00    -0.049 A 
HETATM   14  C   UNL     1      -8.835   0.586 -31.972  1.00  0.00     0.010 A 
HETATM   15  C   UNL     1      -9.900   0.503 -32.876  1.00  0.00     0.037 A 
HETATM   16  C   UNL     1     -10.129   1.539 -33.776  1.00  0.00     0.069 A 
HETATM   17  C   UNL     1      -9.268   2.635 -33.789  1.00  0.00     0.037 A 
HETATM   18  C   UNL     1      -8.210   2.726 -32.880  1.00  0.00     0.010 A 
BRANCH  16  19
HETATM   19  O   UNL     1     -11.142   1.584 -34.692  1.00  0.00    -0.348 OA
BRANCH  19  20
HETATM   20  C   UNL     1     -12.430   1.934 -34.187  1.00  0.00     0.202 C 
BRANCH  20  21
HETATM   21  C   UNL     1     -13.344   0.774 -34.446  1.00  0.00    -0.011 C 
HETATM   22  C   UNL     1     -13.496  -0.275 -33.626  1.00  0.00     0.009 C 
ENDBRANCH  20  21
ENDBRANCH  19  20
ENDBRANCH  16  19
ENDBRANCH   1  13
BRANCH   7  23
HETATM   23  C   UNL     1      -4.878   0.121 -33.056  1.00  0.00    -0.005 A 
HETATM   24  C   UNL     1      -4.035  -0.946 -32.724  1.00  0.00     0.014 A 
HETATM   25  C   UNL     1      -4.224  -2.205 -33.300  1.00  0.00     0.001 A 
HETATM   26  C   UNL     1      -5.247  -2.408 -34.224  1.00  0.00     0.000 A 
HETATM   27  C   UNL     1      -6.079  -1.350 -34.581  1.00  0.00     0.001 A 
HETATM   28  C   UNL     1      -5.894  -0.093 -34.002  1.00  0.00     0.014 A 
ENDBRANCH   7  23
TORSDOF 5
ENDMDL
MODEL 7
REMARK VINA RESULT:      -7.5      2.736      5.702
REMARK  5 active torsions:
REMARK  status: ('A' for Active; 'I' for Inactive)
REMARK    1  A    between atoms: C_2  and  C_3 
REMARK    2  A    between atoms: C_3  and  O_4 
REMARK    3  A    between atoms: O_4  and  C_5 
REMARK    4  A    between atoms: C_8  and  C_9 
REMARK    5  A    between atoms: C_15  and  C_16 
ROOT
HETATM    1  C   UNL     1      -4.389  -0.593 -33.850  1.00  0.00     0.066 C 
HETATM    2  C   UNL     1      -3.691  -0.028 -32.662  1.00  0.00     0.028 A 
HETATM    3  C   UNL     1      -3.091  -0.815 -31.713  1.00  0.00     0.133 A 
HETATM    4  N   UNL     1      -2.574   0.013 -30.770  1.00  0.00    -0.261 N 
HETATM    5  H   UNL     1      -2.060  -0.216 -29.925  1.00  0.00     0.191 HD
HETATM    6  N   UNL     1      -2.821   1.303 -31.026  1.00  0.00    -0.172 NA
HETATM    7  C   UNL     1      -3.522   1.308 -32.177  1.00  0.00     0.098 A 
HETATM    8  N   UNL     1      -3.121  -2.186 -31.756  1.00  0.00    -0.312 N 
HETATM    9  C   UNL     1      -3.698  -2.849 -32.881  1.00  0.00     0.224 C 
HETATM   10  O   UNL     1      -3.794  -4.062 -32.794  1.00  0.00    -0.273 OA
HETATM   11  C   UNL     1      -3.992  -2.048 -34.123  1.00  0.00     0.117 C 
HETATM   12  H   UNL     1      -2.793  -2.765 -30.992  1.00  0.00     0.170 HD
ENDROOT
BRANCH   1  13
HETATM   13  C   UNL     1      -5.887  -0.437 -33.649  1.00  0.00    -0.049 A 
HETATM   14  C   UNL     1      -6.385  -0.476 -32.333  1.00  0.00     0.010 A 
HETATM   15  C   UNL     1      -7.742  -0.269 -32.062  1.00  0.00     0.037 A 
HETATM   16  C   UNL     1      -8.628  -0.012 -33.104  1.00  0.00     0.069 A 
HETATM   17  C   UNL     1      -8.154   0.001 -34.415  1.00  0.00     0.037 A 
HETATM   18  C   UNL     1      -6.797  -0.193 -34.688  1.00  0.00     0.010 A 
BRANCH  16  19
HETATM   19  O   UNL     1      -9.967   0.223 -32.966  1.00  0.00    -0.348 OA
BRANCH  19  20
HETATM   20  C   UNL     1     -10.468   1.394 -33.610  1.00  0.00     0.202 C 
BRANCH  20  21
HETATM   21  C   UNL     1     -11.902   1.135 -33.959  1.00  0.00    -0.011 C 
HETATM   22  C   UNL     1     -12.498   1.538 -35.089  1.00  0.00     0.009 C 
ENDBRANCH  20  21
ENDBRANCH  19  20
ENDBRANCH  16  19
ENDBRANCH   1  13
BRANCH   7  23
HETATM   23  C   UNL     1      -4.045   2.566 -32.713  1.00  0.00    -0.005 A 
HETATM   24  C   UNL     1      -5.416   2.785 -32.891  1.00  0.00     0.014 A 
HETATM   25  C   UNL     1      -5.883   4.011 -33.371  1.00  0.00     0.001 A 
HETATM   26  C   UNL     1      -4.984   5.027 -33.693  1.00  0.00     0.000 A 
HETATM   27  C   UNL     1      -3.616   4.815 -33.544  1.00  0.00     0.001 A 
HETATM   28  C   UNL     1      -3.150   3.592 -33.058  1.00  0.00     0.014 A 
ENDBRANCH   7  23
TORSDOF 5
ENDMDL
MODEL 8
REMARK VINA RESULT:      -7.5      3.019      5.785
REMARK  5 active torsions:
REMARK  status: ('A' for Active; 'I' for Inactive)
REMARK    1  A    between atoms: C_2  and  C_3 
REMARK    2  A    between atoms: C_3  and  O_4 
REMARK    3  A    between atoms: O_4  and  C_5 
REMARK    4  A    between atoms: C_8  and  C_9 
REMARK    5  A    between atoms: C_15  and  C_16 
ROOT
HETATM    1  C   UNL     1      -4.992   0.323 -31.604  1.00  0.00     0.066 C 
HETATM    2  C   UNL     1      -5.408  -0.606 -32.690  1.00  0.00     0.028 A 
HETATM    3  C   UNL     1      -4.561  -1.541 -33.228  1.00  0.00     0.133 A 
HETATM    4  N   UNL     1      -5.248  -2.198 -34.196  1.00  0.00    -0.261 N 
HETATM    5  H   UNL     1      -4.942  -2.953 -34.802  1.00  0.00     0.191 HD
HETATM    6  N   UNL     1      -6.493  -1.733 -34.351  1.00  0.00    -0.172 NA
HETATM    7  C   UNL     1      -6.615  -0.740 -33.447  1.00  0.00     0.098 A 
HETATM    8  N   UNL     1      -3.251  -1.669 -32.841  1.00  0.00    -0.312 N 
HETATM    9  C   UNL     1      -2.750  -0.883 -31.758  1.00  0.00     0.224 C 
HETATM   10  O   UNL     1      -1.551  -0.965 -31.550  1.00  0.00    -0.273 OA
HETATM   11  C   UNL     1      -3.731  -0.155 -30.875  1.00  0.00     0.117 C 
HETATM   12  H   UNL     1      -2.593  -2.267 -33.325  1.00  0.00     0.170 HD
ENDROOT
BRANCH   1  13
HETATM   13  C   UNL     1      -4.817   1.711 -32.197  1.00  0.00    -0.049 A 
HETATM   14  C   UNL     1      -3.514   2.238 -32.275  1.00  0.00     0.010 A 
HETATM   15  C   UNL     1      -3.265   3.478 -32.873  1.00  0.00     0.037 A 
HETATM   16  C   UNL     1      -4.316   4.214 -33.412  1.00  0.00     0.069 A 
HETATM   17  C   UNL     1      -5.615   3.718 -33.317  1.00  0.00     0.037 A 
HETATM   18  C   UNL     1      -5.866   2.474 -32.731  1.00  0.00     0.010 A 
BRANCH  16  19
HETATM   19  O   UNL     1      -4.199   5.424 -34.035  1.00  0.00    -0.348 OA
BRANCH  19  20
HETATM   20  C   UNL     1      -2.972   5.659 -34.725  1.00  0.00     0.202 C 
BRANCH  20  21
HETATM   21  C   UNL     1      -2.298   6.820 -34.058  1.00  0.00    -0.011 C 
HETATM   22  C   UNL     1      -1.065   6.790 -33.535  1.00  0.00     0.009 C 
ENDBRANCH  20  21
ENDBRANCH  19  20
ENDBRANCH  16  19
ENDBRANCH   1  13
BRANCH   7  23
HETATM   23  C   UNL     1      -7.838   0.062 -33.398  1.00  0.00    -0.005 A 
HETATM   24  C   UNL     1      -8.558   0.246 -32.211  1.00  0.00     0.014 A 
HETATM   25  C   UNL     1      -9.702   1.048 -32.192  1.00  0.00     0.001 A 
HETATM   26  C   UNL     1     -10.148   1.663 -33.361  1.00  0.00     0.000 A 
HETATM   27  C   UNL     1      -9.455   1.470 -34.553  1.00  0.00     0.001 A 
HETATM   28  C   UNL     1      -8.309   0.673 -34.571  1.00  0.00     0.014 A 
ENDBRANCH   7  23
TORSDOF 5
ENDMDL
MODEL 9
REMARK VINA RESULT:      -7.3      3.025      6.201
REMARK  5 active torsions:
REMARK  status: ('A' for Active; 'I' for Inactive)
REMARK    1  A    between atoms: C_2  and  C_3 
REMARK    2  A    between atoms: C_3  and  O_4 
REMARK    3  A    between atoms: O_4  and  C_5 
REMARK    4  A    between atoms: C_8  and  C_9 
REMARK    5  A    between atoms: C_15  and  C_16 
ROOT
HETATM    1  C   UNL     1      -6.874   0.762 -34.461  1.00  0.00     0.066 C 
HETATM    2  C   UNL     1      -6.021   0.822 -33.242  1.00  0.00     0.028 A 
HETATM    3  C   UNL     1      -5.551  -0.301 -32.612  1.00  0.00     0.133 A 
HETATM    4  N   UNL     1      -4.832   0.110 -31.537  1.00  0.00    -0.261 N 
HETATM    5  H   UNL     1      -4.338  -0.444 -30.845  1.00  0.00     0.191 HD
HETATM    6  N   UNL     1      -4.823   1.441 -31.401  1.00  0.00    -0.172 NA
HETATM    7  C   UNL     1      -5.562   1.906 -32.428  1.00  0.00     0.098 A 
HETATM    8  N   UNL     1      -5.861  -1.572 -33.027  1.00  0.00    -0.312 N 
HETATM    9  C   UNL     1      -6.613  -1.764 -34.226  1.00  0.00     0.224 C 
HETATM   10  O   UNL     1      -6.949  -2.912 -34.467  1.00  0.00    -0.273 OA
HETATM   11  C   UNL     1      -6.795  -0.598 -35.163  1.00  0.00     0.117 C 
HETATM   12  H   UNL     1      -5.622  -2.397 -32.490  1.00  0.00     0.170 HD
ENDROOT
BRANCH   1  13
HETATM   13  C   UNL     1      -8.298   1.122 -34.072  1.00  0.00    -0.049 A 
HETATM   14  C   UNL     1      -8.762   2.414 -34.386  1.00  0.00     0.010 A 
HETATM   15  C   UNL     1     -10.082   2.796 -34.124  1.00  0.00     0.037 A 
HETATM   16  C   UNL     1     -10.968   1.890 -33.549  1.00  0.00     0.069 A 
HETATM   17  C   UNL     1     -10.514   0.617 -33.207  1.00  0.00     0.037 A 
HETATM   18  C   UNL     1      -9.199   0.227 -33.478  1.00  0.00     0.010 A 
BRANCH  16  19
HETATM   19  O   UNL     1     -12.281   2.137 -33.263  1.00  0.00    -0.348 OA
BRANCH  19  20
HETATM   20  C   UNL     1     -13.156   2.256 -34.384  1.00  0.00     0.202 C 
BRANCH  20  21
HETATM   21  C   UNL     1     -14.259   1.258 -34.198  1.00  0.00    -0.011 C 
HETATM   22  C   UNL     1     -14.086   0.001 -33.766  1.00  0.00     0.009 C 
ENDBRANCH  20  21
ENDBRANCH  19  20
ENDBRANCH  16  19
ENDBRANCH   1  13
BRANCH   7  23
HETATM   23  C   UNL     1      -5.841   3.339 -32.542  1.00  0.00    -0.005 A 
HETATM   24  C   UNL     1      -6.719   3.995 -31.670  1.00  0.00     0.014 A 
HETATM   25  C   UNL     1      -6.935   5.371 -31.784  1.00  0.00     0.001 A 
HETATM   26  C   UNL     1      -6.288   6.103 -32.778  1.00  0.00     0.000 A 
HETATM   27  C   UNL     1      -5.431   5.459 -33.667  1.00  0.00     0.001 A 
HETATM   28  C   UNL     1      -5.211   4.086 -33.550  1.00  0.00     0.014 A 
ENDBRANCH   7  23
TORSDOF 5
ENDMDL
MODEL 10
REMARK VINA RESULT:      -7.1      2.810      5.950
REMARK  5 active torsions:
REMARK  status: ('A' for Active; 'I' for Inactive)
REMARK    1  A    between atoms: C_2  and  C_3 
REMARK    2  A    between atoms: C_3  and  O_4 
REMARK    3  A    between atoms: O_4  and  C_5 
REMARK    4  A    between atoms: C_8  and  C_9 
REMARK    5  A    between atoms: C_15  and  C_16 
ROOT
HETATM    1  C   UNL     1      -7.143   2.353 -31.009  1.00  0.00     0.066 C 
HETATM    2  C   UNL     1      -5.721   2.213 -31.426  1.00  0.00     0.028 A 
HETATM    3  C   UNL     1      -4.729   3.037 -30.959  1.00  0.00     0.133 A 
HETATM    4  N   UNL     1      -3.571   2.650 -31.551  1.00  0.00    -0.261 N 
HETATM    5  H   UNL     1      -2.636   3.029 -31.442  1.00  0.00     0.191 HD
HETATM    6  N   UNL     1      -3.743   1.633 -32.405  1.00  0.00    -0.172 NA
HETATM    7  C   UNL     1      -5.060   1.354 -32.361  1.00  0.00     0.098 A 
HETATM    8  N   UNL     1      -4.971   4.083 -30.105  1.00  0.00    -0.312 N 
HETATM    9  C   UNL     1      -6.283   4.278 -29.576  1.00  0.00     0.224 C 
HETATM   10  O   UNL     1      -6.447   5.293 -28.919  1.00  0.00    -0.273 OA
HETATM   11  C   UNL     1      -7.298   3.174 -29.725  1.00  0.00     0.117 C 
HETATM   12  H   UNL     1      -4.265   4.767 -29.863  1.00  0.00     0.170 HD
ENDROOT
BRANCH   1  13
HETATM   13  C   UNL     1      -7.929   2.946 -32.166  1.00  0.00    -0.049 A 
HETATM   14  C   UNL     1      -9.150   2.340 -32.515  1.00  0.00     0.010 A 
HETATM   15  C   UNL     1      -9.965   2.870 -33.522  1.00  0.00     0.037 A 
HETATM   16  C   UNL     1      -9.576   4.025 -34.194  1.00  0.00     0.069 A 
HETATM   17  C   UNL     1      -8.356   4.620 -33.878  1.00  0.00     0.037 A 
HETATM   18  C   UNL     1      -7.546   4.100 -32.865  1.00  0.00     0.010 A 
BRANCH  16  19
HETATM   19  O   UNL     1     -10.290   4.647 -35.179  1.00  0.00    -0.348 OA
BRANCH  19  20
HETATM   20  C   UNL     1     -11.472   3.977 -35.616  1.00  0.00     0.202 C 
BRANCH  20  21
HETATM   21  C   UNL     1     -12.635   4.867 -35.295  1.00  0.00    -0.011 C 
HETATM   22  C   UNL     1     -12.606   6.206 -35.337  1.00  0.00     0.009 C 
ENDBRANCH  20  21
ENDBRANCH  19  20
ENDBRANCH  16  19
ENDBRANCH   1  13
BRANCH   7  23
HETATM   23  C   UNL     1      -5.625   0.338 -33.251  1.00  0.00    -0.005 A 
HETATM   24  C   UNL     1      -5.407  -1.030 -33.049  1.00  0.00     0.014 A 
HETATM   25  C   UNL     1      -5.992  -1.975 -33.897  1.00  0.00     0.001 A 
HETATM   26  C   UNL     1      -6.788  -1.562 -34.964  1.00  0.00     0.000 A 
HETATM   27  C   UNL     1      -6.995  -0.204 -35.191  1.00  0.00     0.001 A 
HETATM   28  C   UNL     1      -6.416   0.740 -34.341  1.00  0.00     0.014 A 
ENDBRANCH   7  23
TORSDOF 5
ENDMDL
