MODEL 1
REMARK VINA RESULT:      -9.3      0.000      0.000
REMARK  6 active torsions:
REMARK  status: ('A' for Active; 'I' for Inactive)
REMARK    1  A    between atoms: C_4  and  C_5 
REMARK    2  A    between atoms: C_5  and  C_6 
REMARK    3  A    between atoms: C_10  and  C_11 
REMARK    4  A    between atoms: C_10  and  C_15 
REMARK    5  A    between atoms: N_19  and  C_20 
REMARK    6  A    between atoms: C_20  and  C_21 
ROOT
HETATM    1  C   UNL     1      -3.851   1.054 -31.715  1.00  0.00     0.084 C 
HETATM    2  N   UNL     1      -3.394   2.094 -32.379  1.00  0.00    -0.331 N 
HETATM    3  C   UNL     1      -4.118   3.251 -32.553  1.00  0.00     0.128 C 
HETATM    4  C   UNL     1      -5.389   3.292 -32.129  1.00  0.00     0.100 C 
HETATM    5  C   UNL     1      -6.108   2.135 -31.479  1.00  0.00     0.264 C 
HETATM    6  N   UNL     1      -3.517   4.345 -33.158  1.00  0.00    -0.278 N 
HETATM    7  C   UNL     1      -4.224   5.507 -33.432  1.00  0.00     0.331 C 
HETATM    8  O   UNL     1      -3.743   6.500 -33.966  1.00  0.00    -0.246 OA
HETATM    9  N   UNL     1      -5.531   5.510 -33.047  1.00  0.00    -0.275 N 
HETATM   10  C   UNL     1      -6.141   4.534 -32.337  1.00  0.00     0.262 C 
HETATM   11  O   UNL     1      -7.263   4.651 -31.874  1.00  0.00    -0.267 OA
HETATM   12  N   UNL     1      -5.069   1.029 -31.220  1.00  0.00    -0.351 N 
HETATM   13  H   UNL     1      -5.373   0.205 -30.692  1.00  0.00     0.162 HD
HETATM   14  H   UNL     1      -2.470   2.005 -32.805  1.00  0.00     0.168 HD
HETATM   15  H   UNL     1      -6.038   6.375 -33.195  1.00  0.00     0.173 HD
ENDROOT
BRANCH   5  16
HETATM   16  C   UNL     1      -7.188   1.533 -32.384  1.00  0.00     0.426 C 
HETATM   17  F   UNL     1      -6.701   1.445 -33.652  1.00  0.00    -0.168 F 
HETATM   18  F   UNL     1      -7.468   0.265 -32.002  1.00  0.00    -0.168 F 
HETATM   19  F   UNL     1      -8.334   2.220 -32.446  1.00  0.00    -0.168 F 
ENDBRANCH   5  16
BRANCH   5  20
HETATM   20  C   UNL     1      -6.792   2.423 -30.137  1.00  0.00     0.426 C 
HETATM   21  F   UNL     1      -6.157   3.440 -29.504  1.00  0.00    -0.168 F 
HETATM   22  F   UNL     1      -8.099   2.695 -30.183  1.00  0.00    -0.168 F 
HETATM   23  F   UNL     1      -6.641   1.333 -29.332  1.00  0.00    -0.168 F 
ENDBRANCH   5  20
BRANCH   1  24
HETATM   24  C   UNL     1      -2.956  -0.123 -31.502  1.00  0.00     0.114 C 
BRANCH  24  25
HETATM   25  C   UNL     1      -3.364  -1.383 -32.231  1.00  0.00    -0.051 A 
HETATM   26  C   UNL     1      -4.086  -1.270 -33.431  1.00  0.00     0.007 A 
HETATM   27  C   UNL     1      -4.421  -2.406 -34.171  1.00  0.00     0.001 A 
HETATM   28  C   UNL     1      -4.032  -3.666 -33.727  1.00  0.00     0.000 A 
HETATM   29  C   UNL     1      -3.307  -3.792 -32.546  1.00  0.00     0.001 A 
HETATM   30  C   UNL     1      -2.968  -2.659 -31.804  1.00  0.00     0.007 A 
ENDBRANCH  24  25
ENDBRANCH   1  24
BRANCH   6  31
HETATM   31  C   UNL     1      -2.097   4.354 -33.526  1.00  0.00     0.200 C 
BRANCH  31  32
HETATM   32  C   UNL     1      -1.307   5.023 -32.461  1.00  0.00     0.070 A 
HETATM   33  O   UNL     1      -1.145   4.320 -31.298  1.00  0.00    -0.325 OA
HETATM   34  C   UNL     1      -0.395   5.100 -30.473  1.00  0.00     0.142 A 
HETATM   35  C   UNL     1      -0.073   6.284 -31.091  1.00  0.00     0.027 A 
HETATM   36  C   UNL     1      -0.661   6.237 -32.377  1.00  0.00     0.036 A 
ENDBRANCH  31  32
ENDBRANCH   6  31
TORSDOF 6
ENDMDL
MODEL 2
REMARK VINA RESULT:      -9.2      3.569      6.469
REMARK  6 active torsions:
REMARK  status: ('A' for Active; 'I' for Inactive)
REMARK    1  A    between atoms: C_4  and  C_5 
REMARK    2  A    between atoms: C_5  and  C_6 
REMARK    3  A    between atoms: C_10  and  C_11 
REMARK    4  A    between atoms: C_10  and  C_15 
REMARK    5  A    between atoms: N_19  and  C_20 
REMARK    6  A    between atoms: C_20  and  C_21 
ROOT
HETATM    1  C   UNL     1      -6.941   0.205 -34.005  1.00  0.00     0.084 C 
HETATM    2  N   UNL     1      -8.115   0.798 -33.994  1.00  0.00    -0.331 N 
HETATM    3  C   UNL     1      -8.510   1.663 -33.000  1.00  0.00     0.128 C 
HETATM    4  C   UNL     1      -7.717   1.831 -31.931  1.00  0.00     0.100 C 
HETATM    5  C   UNL     1      -6.405   1.113 -31.723  1.00  0.00     0.264 C 
HETATM    6  N   UNL     1      -9.712   2.342 -33.127  1.00  0.00    -0.278 N 
HETATM    7  C   UNL     1     -10.198   3.162 -32.119  1.00  0.00     0.331 C 
HETATM    8  O   UNL     1     -11.254   3.782 -32.179  1.00  0.00    -0.246 OA
HETATM    9  N   UNL     1      -9.407   3.275 -31.016  1.00  0.00    -0.275 N 
HETATM   10  C   UNL     1      -8.168   2.751 -30.882  1.00  0.00     0.262 C 
HETATM   11  O   UNL     1      -7.432   3.014 -29.946  1.00  0.00    -0.267 OA
HETATM   12  N   UNL     1      -6.080   0.354 -33.022  1.00  0.00    -0.351 N 
HETATM   13  H   UNL     1      -5.169  -0.111 -33.085  1.00  0.00     0.162 HD
HETATM   14  H   UNL     1      -8.761   0.565 -34.751  1.00  0.00     0.168 HD
HETATM   15  H   UNL     1      -9.730   3.916 -30.299  1.00  0.00     0.173 HD
ENDROOT
BRANCH   5  16
HETATM   16  C   UNL     1      -6.480   0.072 -30.602  1.00  0.00     0.426 C 
HETATM   17  F   UNL     1      -7.750  -0.412 -30.533  1.00  0.00    -0.168 F 
HETATM   18  F   UNL     1      -5.690  -0.988 -30.892  1.00  0.00    -0.168 F 
HETATM   19  F   UNL     1      -6.159   0.518 -29.382  1.00  0.00    -0.168 F 
ENDBRANCH   5  16
BRANCH   5  20
HETATM   20  C   UNL     1      -5.189   1.992 -31.407  1.00  0.00     0.426 C 
HETATM   21  F   UNL     1      -5.245   3.137 -32.131  1.00  0.00    -0.168 F 
HETATM   22  F   UNL     1      -5.003   2.306 -30.121  1.00  0.00    -0.168 F 
HETATM   23  F   UNL     1      -4.066   1.342 -31.824  1.00  0.00    -0.168 F 
ENDBRANCH   5  20
BRANCH   1  24
HETATM   24  C   UNL     1      -6.568  -0.648 -35.174  1.00  0.00     0.114 C 
BRANCH  24  25
HETATM   25  C   UNL     1      -6.061  -2.029 -34.827  1.00  0.00    -0.051 A 
HETATM   26  C   UNL     1      -6.919  -3.129 -34.993  1.00  0.00     0.007 A 
HETATM   27  C   UNL     1      -6.467  -4.429 -34.752  1.00  0.00     0.001 A 
HETATM   28  C   UNL     1      -5.152  -4.646 -34.352  1.00  0.00     0.000 A 
HETATM   29  C   UNL     1      -4.288  -3.567 -34.194  1.00  0.00     0.001 A 
HETATM   30  C   UNL     1      -4.735  -2.266 -34.437  1.00  0.00     0.007 A 
ENDBRANCH  24  25
ENDBRANCH   1  24
BRANCH   6  31
HETATM   31  C   UNL     1     -10.537   2.254 -34.338  1.00  0.00     0.200 C 
BRANCH  31  32
HETATM   32  C   UNL     1     -11.709   1.378 -34.083  1.00  0.00     0.070 A 
HETATM   33  O   UNL     1     -12.922   1.856 -34.500  1.00  0.00    -0.325 OA
HETATM   34  C   UNL     1     -13.845   0.909 -34.182  1.00  0.00     0.142 A 
HETATM   35  C   UNL     1     -13.241  -0.167 -33.576  1.00  0.00     0.027 A 
HETATM   36  C   UNL     1     -11.860   0.134 -33.511  1.00  0.00     0.036 A 
ENDBRANCH  31  32
ENDBRANCH   6  31
TORSDOF 6
ENDMDL
MODEL 3
REMARK VINA RESULT:      -9.2      3.312      5.785
REMARK  6 active torsions:
REMARK  status: ('A' for Active; 'I' for Inactive)
REMARK    1  A    between atoms: C_4  and  C_5 
REMARK    2  A    between atoms: C_5  and  C_6 
REMARK    3  A    between atoms: C_10  and  C_11 
REMARK    4  A    between atoms: C_10  and  C_15 
REMARK    5  A    between atoms: N_19  and  C_20 
REMARK    6  A    between atoms: C_20  and  C_21 
ROOT
HETATM    1  C   UNL     1      -6.716   0.106 -33.719  1.00  0.00     0.084 C 
HETATM    2  N   UNL     1      -7.878   0.601 -33.353  1.00  0.00    -0.331 N 
HETATM    3  C   UNL     1      -8.025   1.477 -32.302  1.00  0.00     0.128 C 
HETATM    4  C   UNL     1      -6.960   1.758 -31.537  1.00  0.00     0.100 C 
HETATM    5  C   UNL     1      -5.588   1.160 -31.735  1.00  0.00     0.264 C 
HETATM    6  N   UNL     1      -9.265   2.048 -32.061  1.00  0.00    -0.278 N 
HETATM    7  C   UNL     1      -9.489   2.872 -30.967  1.00  0.00     0.331 C 
HETATM    8  O   UNL     1     -10.564   3.399 -30.706  1.00  0.00    -0.246 OA
HETATM    9  N   UNL     1      -8.410   3.100 -30.168  1.00  0.00    -0.275 N 
HETATM   10  C   UNL     1      -7.147   2.686 -30.418  1.00  0.00     0.262 C 
HETATM   11  O   UNL     1      -6.185   3.051 -29.762  1.00  0.00    -0.267 OA
HETATM   12  N   UNL     1      -5.611   0.370 -33.056  1.00  0.00    -0.351 N 
HETATM   13  H   UNL     1      -4.725  -0.021 -33.391  1.00  0.00     0.162 HD
HETATM   14  H   UNL     1      -8.703   0.282 -33.867  1.00  0.00     0.168 HD
HETATM   15  H   UNL     1      -8.553   3.745 -29.398  1.00  0.00     0.173 HD
ENDROOT
BRANCH   5  16
HETATM   16  C   UNL     1      -5.216   0.170 -30.627  1.00  0.00     0.426 C 
HETATM   17  F   UNL     1      -6.062  -0.895 -30.685  1.00  0.00    -0.168 F 
HETATM   18  F   UNL     1      -3.975  -0.327 -30.838  1.00  0.00    -0.168 F 
HETATM   19  F   UNL     1      -5.273   0.654 -29.381  1.00  0.00    -0.168 F 
ENDBRANCH   5  16
BRANCH   5  20
HETATM   20  C   UNL     1      -4.420   2.149 -31.830  1.00  0.00     0.426 C 
HETATM   21  F   UNL     1      -4.832   3.296 -32.423  1.00  0.00    -0.168 F 
HETATM   22  F   UNL     1      -3.807   2.455 -30.683  1.00  0.00    -0.168 F 
HETATM   23  F   UNL     1      -3.473   1.621 -32.658  1.00  0.00    -0.168 F 
ENDBRANCH   5  20
BRANCH   1  24
HETATM   24  C   UNL     1      -6.645  -0.767 -34.930  1.00  0.00     0.114 C 
BRANCH  24  25
HETATM   25  C   UNL     1      -6.083  -2.150 -34.694  1.00  0.00    -0.051 A 
HETATM   26  C   UNL     1      -6.910  -3.265 -34.908  1.00  0.00     0.007 A 
HETATM   27  C   UNL     1      -6.410  -4.562 -34.771  1.00  0.00     0.001 A 
HETATM   28  C   UNL     1      -5.076  -4.761 -34.427  1.00  0.00     0.000 A 
HETATM   29  C   UNL     1      -4.242  -3.666 -34.223  1.00  0.00     0.001 A 
HETATM   30  C   UNL     1      -4.738  -2.367 -34.362  1.00  0.00     0.007 A 
ENDBRANCH  24  25
ENDBRANCH   1  24
BRANCH   6  31
HETATM   31  C   UNL     1     -10.411   1.837 -32.952  1.00  0.00     0.200 C 
BRANCH  31  32
HETATM   32  C   UNL     1     -10.525   2.975 -33.900  1.00  0.00     0.070 A 
HETATM   33  O   UNL     1     -11.755   3.167 -34.470  1.00  0.00    -0.325 OA
HETATM   34  C   UNL     1     -11.643   4.249 -35.285  1.00  0.00     0.142 A 
HETATM   35  C   UNL     1     -10.366   4.755 -35.241  1.00  0.00     0.027 A 
HETATM   36  C   UNL     1      -9.641   3.933 -34.346  1.00  0.00     0.036 A 
ENDBRANCH  31  32
ENDBRANCH   6  31
TORSDOF 6
ENDMDL
MODEL 4
REMARK VINA RESULT:      -9.1      1.972      2.904
REMARK  6 active torsions:
REMARK  status: ('A' for Active; 'I' for Inactive)
REMARK    1  A    between atoms: C_4  and  C_5 
REMARK    2  A    between atoms: C_5  and  C_6 
REMARK    3  A    between atoms: C_10  and  C_11 
REMARK    4  A    between atoms: C_10  and  C_15 
REMARK    5  A    between atoms: N_19  and  C_20 
REMARK    6  A    between atoms: C_20  and  C_21 
ROOT
HETATM    1  C   UNL     1      -5.008  -0.221 -33.235  1.00  0.00     0.084 C 
HETATM    2  N   UNL     1      -4.524   0.867 -32.675  1.00  0.00    -0.331 N 
HETATM    3  C   UNL     1      -5.314   1.915 -32.263  1.00  0.00     0.128 C 
HETATM    4  C   UNL     1      -6.625   1.889 -32.540  1.00  0.00     0.100 C 
HETATM    5  C   UNL     1      -7.312   0.781 -33.303  1.00  0.00     0.264 C 
HETATM    6  N   UNL     1      -4.737   2.969 -31.571  1.00  0.00    -0.278 N 
HETATM    7  C   UNL     1      -5.470   4.089 -31.204  1.00  0.00     0.331 C 
HETATM    8  O   UNL     1      -5.011   5.048 -30.594  1.00  0.00    -0.246 OA
HETATM    9  N   UNL     1      -6.789   4.071 -31.545  1.00  0.00    -0.275 N 
HETATM   10  C   UNL     1      -7.442   3.024 -32.099  1.00  0.00     0.262 C 
HETATM   11  O   UNL     1      -8.653   2.992 -32.236  1.00  0.00    -0.267 OA
HETATM   12  N   UNL     1      -6.290  -0.353 -33.497  1.00  0.00    -0.351 N 
HETATM   13  H   UNL     1      -6.624  -1.228 -33.914  1.00  0.00     0.162 HD
HETATM   14  H   UNL     1      -3.508   0.929 -32.582  1.00  0.00     0.168 HD
HETATM   15  H   UNL     1      -7.342   4.861 -31.232  1.00  0.00     0.173 HD
ENDROOT
BRANCH   5  16
HETATM   16  C   UNL     1      -7.761   1.224 -34.699  1.00  0.00     0.426 C 
HETATM   17  F   UNL     1      -6.732   1.873 -35.308  1.00  0.00    -0.168 F 
HETATM   18  F   UNL     1      -8.031   0.144 -35.470  1.00  0.00    -0.168 F 
HETATM   19  F   UNL     1      -8.820   2.041 -34.730  1.00  0.00    -0.168 F 
ENDBRANCH   5  16
BRANCH   5  20
HETATM   20  C   UNL     1      -8.545   0.158 -32.638  1.00  0.00     0.426 C 
HETATM   21  F   UNL     1      -8.382   0.132 -31.292  1.00  0.00    -0.168 F 
HETATM   22  F   UNL     1      -9.721   0.727 -32.917  1.00  0.00    -0.168 F 
HETATM   23  F   UNL     1      -8.633  -1.146 -33.027  1.00  0.00    -0.168 F 
ENDBRANCH   5  20
BRANCH   1  24
HETATM   24  C   UNL     1      -4.079  -1.344 -33.567  1.00  0.00     0.114 C 
BRANCH  24  25
HETATM   25  C   UNL     1      -4.741  -2.583 -34.123  1.00  0.00    -0.051 A 
HETATM   26  C   UNL     1      -4.129  -3.831 -33.918  1.00  0.00     0.007 A 
HETATM   27  C   UNL     1      -4.742  -5.007 -34.353  1.00  0.00     0.001 A 
HETATM   28  C   UNL     1      -5.978  -4.953 -34.992  1.00  0.00     0.000 A 
HETATM   29  C   UNL     1      -6.601  -3.725 -35.193  1.00  0.00     0.001 A 
HETATM   30  C   UNL     1      -5.992  -2.547 -34.756  1.00  0.00     0.007 A 
ENDBRANCH  24  25
ENDBRANCH   1  24
BRANCH   6  31
HETATM   31  C   UNL     1      -3.328   2.961 -31.163  1.00  0.00     0.200 C 
BRANCH  31  32
HETATM   32  C   UNL     1      -2.547   3.867 -32.044  1.00  0.00     0.070 A 
HETATM   33  O   UNL     1      -1.484   4.506 -31.464  1.00  0.00    -0.325 OA
HETATM   34  C   UNL     1      -0.910   5.268 -32.434  1.00  0.00     0.142 A 
HETATM   35  C   UNL     1      -1.585   5.123 -33.622  1.00  0.00     0.027 A 
HETATM   36  C   UNL     1      -2.644   4.217 -33.374  1.00  0.00     0.036 A 
ENDBRANCH  31  32
ENDBRANCH   6  31
TORSDOF 6
ENDMDL
MODEL 5
REMARK VINA RESULT:      -8.5      3.205      6.005
REMARK  6 active torsions:
REMARK  status: ('A' for Active; 'I' for Inactive)
REMARK    1  A    between atoms: C_4  and  C_5 
REMARK    2  A    between atoms: C_5  and  C_6 
REMARK    3  A    between atoms: C_10  and  C_11 
REMARK    4  A    between atoms: C_10  and  C_15 
REMARK    5  A    between atoms: N_19  and  C_20 
REMARK    6  A    between atoms: C_20  and  C_21 
ROOT
HETATM    1  C   UNL     1      -7.818   3.250 -33.695  1.00  0.00     0.084 C 
HETATM    2  N   UNL     1      -6.701   3.396 -33.016  1.00  0.00    -0.331 N 
HETATM    3  C   UNL     1      -5.823   2.362 -32.785  1.00  0.00     0.128 C 
HETATM    4  C   UNL     1      -6.163   1.122 -33.165  1.00  0.00     0.100 C 
HETATM    5  C   UNL     1      -7.473   0.764 -33.826  1.00  0.00     0.264 C 
HETATM    6  N   UNL     1      -4.609   2.626 -32.169  1.00  0.00    -0.278 N 
HETATM    7  C   UNL     1      -3.722   1.612 -31.837  1.00  0.00     0.331 C 
HETATM    8  O   UNL     1      -2.640   1.789 -31.290  1.00  0.00    -0.246 OA
HETATM    9  N   UNL     1      -4.111   0.351 -32.179  1.00  0.00    -0.275 N 
HETATM   10  C   UNL     1      -5.213   0.038 -32.897  1.00  0.00     0.262 C 
HETATM   11  O   UNL     1      -5.435  -1.084 -33.319  1.00  0.00    -0.267 OA
HETATM   12  N   UNL     1      -8.205   2.078 -34.150  1.00  0.00    -0.351 N 
HETATM   13  H   UNL     1      -9.072   2.018 -34.693  1.00  0.00     0.162 HD
HETATM   14  H   UNL     1      -6.512   4.320 -32.623  1.00  0.00     0.168 HD
HETATM   15  H   UNL     1      -3.444  -0.388 -31.989  1.00  0.00     0.173 HD
ENDROOT
BRANCH   5  16
HETATM   16  C   UNL     1      -8.391  -0.045 -32.904  1.00  0.00     0.426 C 
HETATM   17  F   UNL     1      -8.027   0.179 -31.612  1.00  0.00    -0.168 F 
HETATM   18  F   UNL     1      -9.668   0.390 -33.013  1.00  0.00    -0.168 F 
HETATM   19  F   UNL     1      -8.376  -1.369 -33.096  1.00  0.00    -0.168 F 
ENDBRANCH   5  16
BRANCH   5  20
HETATM   20  C   UNL     1      -7.383  -0.028 -35.136  1.00  0.00     0.426 C 
HETATM   21  F   UNL     1      -6.570   0.616 -36.010  1.00  0.00    -0.168 F 
HETATM   22  F   UNL     1      -6.982  -1.299 -35.034  1.00  0.00    -0.168 F 
HETATM   23  F   UNL     1      -8.616  -0.045 -35.717  1.00  0.00    -0.168 F 
ENDBRANCH   5  20
BRANCH   1  24
HETATM   24  C   UNL     1      -8.663   4.451 -33.971  1.00  0.00     0.114 C 
BRANCH  24  25
HETATM   25  C   UNL     1     -10.146   4.184 -34.083  1.00  0.00    -0.051 A 
HETATM   26  C   UNL     1     -10.758   4.264 -35.345  1.00  0.00     0.007 A 
HETATM   27  C   UNL     1     -12.111   3.955 -35.502  1.00  0.00     0.001 A 
HETATM   28  C   UNL     1     -12.866   3.553 -34.405  1.00  0.00     0.000 A 
HETATM   29  C   UNL     1     -12.271   3.459 -33.151  1.00  0.00     0.001 A 
HETATM   30  C   UNL     1     -10.918   3.764 -32.989  1.00  0.00     0.007 A 
ENDBRANCH  24  25
ENDBRANCH   1  24
BRANCH   6  31
HETATM   31  C   UNL     1      -4.175   3.990 -31.847  1.00  0.00     0.200 C 
BRANCH  31  32
HETATM   32  C   UNL     1      -3.441   4.568 -33.001  1.00  0.00     0.070 A 
HETATM   33  O   UNL     1      -4.209   5.032 -34.035  1.00  0.00    -0.325 OA
HETATM   34  C   UNL     1      -3.351   5.519 -34.971  1.00  0.00     0.142 A 
HETATM   35  C   UNL     1      -2.050   5.380 -34.550  1.00  0.00     0.027 A 
HETATM   36  C   UNL     1      -2.105   4.765 -33.277  1.00  0.00     0.036 A 
ENDBRANCH  31  32
ENDBRANCH   6  31
TORSDOF 6
ENDMDL
MODEL 6
REMARK VINA RESULT:      -8.4      4.122      6.203
REMARK  6 active torsions:
REMARK  status: ('A' for Active; 'I' for Inactive)
REMARK    1  A    between atoms: C_4  and  C_5 
REMARK    2  A    between atoms: C_5  and  C_6 
REMARK    3  A    between atoms: C_10  and  C_11 
REMARK    4  A    between atoms: C_10  and  C_15 
REMARK    5  A    between atoms: N_19  and  C_20 
REMARK    6  A    between atoms: C_20  and  C_21 
ROOT
HETATM    1  C   UNL     1      -3.074   3.865 -31.462  1.00  0.00     0.084 C 
HETATM    2  N   UNL     1      -3.912   4.661 -30.834  1.00  0.00    -0.331 N 
HETATM    3  C   UNL     1      -3.872   6.032 -30.945  1.00  0.00     0.128 C 
HETATM    4  C   UNL     1      -2.868   6.600 -31.630  1.00  0.00     0.100 C 
HETATM    5  C   UNL     1      -1.745   5.833 -32.287  1.00  0.00     0.264 C 
HETATM    6  N   UNL     1      -4.867   6.792 -30.351  1.00  0.00    -0.278 N 
HETATM    7  C   UNL     1      -4.832   8.179 -30.361  1.00  0.00     0.331 C 
HETATM    8  O   UNL     1      -5.683   8.898 -29.849  1.00  0.00    -0.246 OA
HETATM    9  N   UNL     1      -3.774   8.739 -31.011  1.00  0.00    -0.275 N 
HETATM   10  C   UNL     1      -2.844   8.063 -31.723  1.00  0.00     0.262 C 
HETATM   11  O   UNL     1      -2.011   8.614 -32.423  1.00  0.00    -0.267 OA
HETATM   12  N   UNL     1      -2.090   4.335 -32.197  1.00  0.00    -0.351 N 
HETATM   13  H   UNL     1      -1.475   3.676 -32.684  1.00  0.00     0.162 HD
HETATM   14  H   UNL     1      -4.596   4.222 -30.215  1.00  0.00     0.168 HD
HETATM   15  H   UNL     1      -3.770   9.751 -31.070  1.00  0.00     0.173 HD
ENDROOT
BRANCH   5  16
HETATM   16  C   UNL     1      -0.406   6.028 -31.570  1.00  0.00     0.426 C 
HETATM   17  F   UNL     1      -0.632   6.128 -30.232  1.00  0.00    -0.168 F 
HETATM   18  F   UNL     1       0.380   4.938 -31.737  1.00  0.00    -0.168 F 
HETATM   19  F   UNL     1       0.289   7.111 -31.937  1.00  0.00    -0.168 F 
ENDBRANCH   5  16
BRANCH   5  20
HETATM   20  C   UNL     1      -1.484   6.139 -33.766  1.00  0.00     0.426 C 
HETATM   21  F   UNL     1      -2.647   6.463 -34.384  1.00  0.00    -0.168 F 
HETATM   22  F   UNL     1      -0.581   7.090 -34.025  1.00  0.00    -0.168 F 
HETATM   23  F   UNL     1      -1.046   4.999 -34.373  1.00  0.00    -0.168 F 
ENDBRANCH   5  20
BRANCH   1  24
HETATM   24  C   UNL     1      -3.254   2.386 -31.350  1.00  0.00     0.114 C 
BRANCH  24  25
HETATM   25  C   UNL     1      -4.661   1.889 -31.586  1.00  0.00    -0.051 A 
HETATM   26  C   UNL     1      -5.208   1.982 -32.877  1.00  0.00     0.007 A 
HETATM   27  C   UNL     1      -6.477   1.470 -33.153  1.00  0.00     0.001 A 
HETATM   28  C   UNL     1      -7.212   0.851 -32.147  1.00  0.00     0.000 A 
HETATM   29  C   UNL     1      -6.680   0.741 -30.866  1.00  0.00     0.001 A 
HETATM   30  C   UNL     1      -5.409   1.249 -30.586  1.00  0.00     0.007 A 
ENDBRANCH  24  25
ENDBRANCH   1  24
BRANCH   6  31
HETATM   31  C   UNL     1      -6.030   6.184 -29.693  1.00  0.00     0.200 C 
BRANCH  31  32
HETATM   32  C   UNL     1      -6.962   5.650 -30.718  1.00  0.00     0.070 A 
HETATM   33  O   UNL     1      -7.385   6.536 -31.672  1.00  0.00    -0.325 OA
HETATM   34  C   UNL     1      -8.213   5.849 -32.504  1.00  0.00     0.142 A 
HETATM   35  C   UNL     1      -8.321   4.539 -32.102  1.00  0.00     0.027 A 
HETATM   36  C   UNL     1      -7.513   4.407 -30.948  1.00  0.00     0.036 A 
ENDBRANCH  31  32
ENDBRANCH   6  31
TORSDOF 6
ENDMDL
MODEL 7
REMARK VINA RESULT:      -8.4      2.874      6.390
REMARK  6 active torsions:
REMARK  status: ('A' for Active; 'I' for Inactive)
REMARK    1  A    between atoms: C_4  and  C_5 
REMARK    2  A    between atoms: C_5  and  C_6 
REMARK    3  A    between atoms: C_10  and  C_11 
REMARK    4  A    between atoms: C_10  and  C_15 
REMARK    5  A    between atoms: N_19  and  C_20 
REMARK    6  A    between atoms: C_20  and  C_21 
ROOT
HETATM    1  C   UNL     1      -6.001   4.086 -33.588  1.00  0.00     0.084 C 
HETATM    2  N   UNL     1      -6.595   2.931 -33.795  1.00  0.00    -0.331 N 
HETATM    3  C   UNL     1      -7.601   2.447 -32.989  1.00  0.00     0.128 C 
HETATM    4  C   UNL     1      -7.922   3.122 -31.876  1.00  0.00     0.100 C 
HETATM    5  C   UNL     1      -7.237   4.388 -31.419  1.00  0.00     0.264 C 
HETATM    6  N   UNL     1      -8.258   1.281 -33.348  1.00  0.00    -0.278 N 
HETATM    7  C   UNL     1      -9.222   0.705 -32.533  1.00  0.00     0.331 C 
HETATM    8  O   UNL     1      -9.830  -0.324 -32.800  1.00  0.00    -0.246 OA
HETATM    9  N   UNL     1      -9.494   1.373 -31.377  1.00  0.00    -0.275 N 
HETATM   10  C   UNL     1      -8.990   2.579 -31.030  1.00  0.00     0.262 C 
HETATM   11  O   UNL     1      -9.385   3.213 -30.067  1.00  0.00    -0.267 OA
HETATM   12  N   UNL     1      -6.291   4.837 -32.547  1.00  0.00    -0.351 N 
HETATM   13  H   UNL     1      -5.818   5.740 -32.440  1.00  0.00     0.162 HD
HETATM   14  H   UNL     1      -6.256   2.366 -34.576  1.00  0.00     0.168 HD
HETATM   15  H   UNL     1     -10.236   0.987 -30.803  1.00  0.00     0.173 HD
ENDROOT
BRANCH   5  16
HETATM   16  C   UNL     1      -6.375   4.169 -30.172  1.00  0.00     0.426 C 
HETATM   17  F   UNL     1      -5.799   2.938 -30.244  1.00  0.00    -0.168 F 
HETATM   18  F   UNL     1      -5.354   5.058 -30.145  1.00  0.00    -0.168 F 
HETATM   19  F   UNL     1      -7.025   4.235 -29.005  1.00  0.00    -0.168 F 
ENDBRANCH   5  16
BRANCH   5  20
HETATM   20  C   UNL     1      -8.147   5.580 -31.102  1.00  0.00     0.426 C 
HETATM   21  F   UNL     1      -9.205   5.593 -31.951  1.00  0.00    -0.168 F 
HETATM   22  F   UNL     1      -8.602   5.663 -29.849  1.00  0.00    -0.168 F 
HETATM   23  F   UNL     1      -7.456   6.729 -31.351  1.00  0.00    -0.168 F 
ENDBRANCH   5  20
BRANCH   1  24
HETATM   24  C   UNL     1      -4.982   4.567 -34.569  1.00  0.00     0.114 C 
BRANCH  24  25
HETATM   25  C   UNL     1      -3.638   4.924 -33.979  1.00  0.00    -0.051 A 
HETATM   26  C   UNL     1      -3.184   4.225 -32.848  1.00  0.00     0.007 A 
HETATM   27  C   UNL     1      -1.918   4.475 -32.315  1.00  0.00     0.001 A 
HETATM   28  C   UNL     1      -1.087   5.420 -32.909  1.00  0.00     0.000 A 
HETATM   29  C   UNL     1      -1.518   6.113 -34.035  1.00  0.00     0.001 A 
HETATM   30  C   UNL     1      -2.783   5.863 -34.574  1.00  0.00     0.007 A 
ENDBRANCH  24  25
ENDBRANCH   1  24
BRANCH   6  31
HETATM   31  C   UNL     1      -7.995   0.592 -34.617  1.00  0.00     0.200 C 
BRANCH  31  32
HETATM   32  C   UNL     1      -6.950  -0.443 -34.418  1.00  0.00     0.070 A 
HETATM   33  O   UNL     1      -5.739   0.000 -33.957  1.00  0.00    -0.325 OA
HETATM   34  C   UNL     1      -4.941  -1.095 -33.838  1.00  0.00     0.142 A 
HETATM   35  C   UNL     1      -5.623  -2.229 -34.211  1.00  0.00     0.027 A 
HETATM   36  C   UNL     1      -6.921  -1.811 -34.585  1.00  0.00     0.036 A 
ENDBRANCH  31  32
ENDBRANCH   6  31
TORSDOF 6
ENDMDL
MODEL 8
REMARK VINA RESULT:      -8.3      2.917      5.767
REMARK  6 active torsions:
REMARK  status: ('A' for Active; 'I' for Inactive)
REMARK    1  A    between atoms: C_4  and  C_5 
REMARK    2  A    between atoms: C_5  and  C_6 
REMARK    3  A    between atoms: C_10  and  C_11 
REMARK    4  A    between atoms: C_10  and  C_15 
REMARK    5  A    between atoms: N_19  and  C_20 
REMARK    6  A    between atoms: C_20  and  C_21 
ROOT
HETATM    1  C   UNL     1      -6.086   3.702 -33.812  1.00  0.00     0.084 C 
HETATM    2  N   UNL     1      -7.049   4.195 -33.063  1.00  0.00    -0.331 N 
HETATM    3  C   UNL     1      -7.912   3.409 -32.335  1.00  0.00     0.128 C 
HETATM    4  C   UNL     1      -7.851   2.077 -32.473  1.00  0.00     0.100 C 
HETATM    5  C   UNL     1      -6.900   1.359 -33.401  1.00  0.00     0.264 C 
HETATM    6  N   UNL     1      -8.818   4.010 -31.475  1.00  0.00    -0.278 N 
HETATM    7  C   UNL     1      -9.764   3.272 -30.779  1.00  0.00     0.331 C 
HETATM    8  O   UNL     1     -10.589   3.752 -30.010  1.00  0.00    -0.246 OA
HETATM    9  N   UNL     1      -9.726   1.925 -30.977  1.00  0.00    -0.275 N 
HETATM   10  C   UNL     1      -8.789   1.263 -31.693  1.00  0.00     0.262 C 
HETATM   11  O   UNL     1      -8.698   0.047 -31.708  1.00  0.00    -0.267 OA
HETATM   12  N   UNL     1      -5.921   2.406 -33.963  1.00  0.00    -0.351 N 
HETATM   13  H   UNL     1      -5.143   2.068 -34.539  1.00  0.00     0.162 HD
HETATM   14  H   UNL     1      -7.165   5.211 -33.063  1.00  0.00     0.168 HD
HETATM   15  H   UNL     1     -10.379   1.374 -30.430  1.00  0.00     0.173 HD
ENDROOT
BRANCH   5  16
HETATM   16  C   UNL     1      -7.616   0.728 -34.599  1.00  0.00     0.426 C 
HETATM   17  F   UNL     1      -8.716   1.472 -34.898  1.00  0.00    -0.168 F 
HETATM   18  F   UNL     1      -6.825   0.771 -35.697  1.00  0.00    -0.168 F 
HETATM   19  F   UNL     1      -8.027  -0.533 -34.422  1.00  0.00    -0.168 F 
ENDBRANCH   5  16
BRANCH   5  20
HETATM   20  C   UNL     1      -6.049   0.246 -32.780  1.00  0.00     0.426 C 
HETATM   21  F   UNL     1      -5.661   0.603 -31.530  1.00  0.00    -0.168 F 
HETATM   22  F   UNL     1      -6.607  -0.967 -32.726  1.00  0.00    -0.168 F 
HETATM   23  F   UNL     1      -4.901   0.123 -33.505  1.00  0.00    -0.168 F 
ENDBRANCH   5  20
BRANCH   1  24
HETATM   24  C   UNL     1      -5.143   4.639 -34.494  1.00  0.00     0.114 C 
BRANCH  24  25
HETATM   25  C   UNL     1      -3.797   4.798 -33.827  1.00  0.00    -0.051 A 
HETATM   26  C   UNL     1      -3.648   4.393 -32.490  1.00  0.00     0.007 A 
HETATM   27  C   UNL     1      -2.405   4.457 -31.859  1.00  0.00     0.001 A 
HETATM   28  C   UNL     1      -1.292   4.917 -32.557  1.00  0.00     0.000 A 
HETATM   29  C   UNL     1      -1.421   5.312 -33.884  1.00  0.00     0.001 A 
HETATM   30  C   UNL     1      -2.663   5.247 -34.521  1.00  0.00     0.007 A 
ENDBRANCH  24  25
ENDBRANCH   1  24
BRANCH   6  31
HETATM   31  C   UNL     1      -8.823   5.457 -31.229  1.00  0.00     0.200 C 
BRANCH  31  32
HETATM   32  C   UNL     1      -7.923   5.775 -30.091  1.00  0.00     0.070 A 
HETATM   33  O   UNL     1      -6.592   5.896 -30.389  1.00  0.00    -0.325 OA
HETATM   34  C   UNL     1      -5.957   6.193 -29.224  1.00  0.00     0.142 A 
HETATM   35  C   UNL     1      -6.859   6.268 -28.189  1.00  0.00     0.027 A 
HETATM   36  C   UNL     1      -8.131   5.999 -28.747  1.00  0.00     0.036 A 
ENDBRANCH  31  32
ENDBRANCH   6  31
TORSDOF 6
ENDMDL
MODEL 9
REMARK VINA RESULT:      -8.1      3.958      7.005
REMARK  6 active torsions:
REMARK  status: ('A' for Active; 'I' for Inactive)
REMARK    1  A    between atoms: C_4  and  C_5 
REMARK    2  A    between atoms: C_5  and  C_6 
REMARK    3  A    between atoms: C_10  and  C_11 
REMARK    4  A    between atoms: C_10  and  C_15 
REMARK    5  A    between atoms: N_19  and  C_20 
REMARK    6  A    between atoms: C_20  and  C_21 
ROOT
HETATM    1  C   UNL     1      -9.852   2.848 -34.411  1.00  0.00     0.084 C 
HETATM    2  N   UNL     1      -9.161   3.782 -33.793  1.00  0.00    -0.331 N 
HETATM    3  C   UNL     1      -7.886   3.580 -33.314  1.00  0.00     0.128 C 
HETATM    4  C   UNL     1      -7.357   2.350 -33.374  1.00  0.00     0.100 C 
HETATM    5  C   UNL     1      -8.075   1.139 -33.920  1.00  0.00     0.264 C 
HETATM    6  N   UNL     1      -7.181   4.651 -32.787  1.00  0.00    -0.278 N 
HETATM    7  C   UNL     1      -5.927   4.489 -32.216  1.00  0.00     0.331 C 
HETATM    8  O   UNL     1      -5.262   5.399 -31.734  1.00  0.00    -0.246 OA
HETATM    9  N   UNL     1      -5.429   3.221 -32.233  1.00  0.00    -0.275 N 
HETATM   10  C   UNL     1      -6.001   2.161 -32.847  1.00  0.00     0.262 C 
HETATM   11  O   UNL     1      -5.443   1.085 -32.976  1.00  0.00    -0.267 OA
HETATM   12  N   UNL     1      -9.388   1.626 -34.559  1.00  0.00    -0.351 N 
HETATM   13  H   UNL     1      -9.954   0.939 -35.066  1.00  0.00     0.162 HD
HETATM   14  H   UNL     1      -9.623   4.681 -33.642  1.00  0.00     0.168 HD
HETATM   15  H   UNL     1      -4.490   3.105 -31.867  1.00  0.00     0.173 HD
ENDROOT
BRANCH   5  16
HETATM   16  C   UNL     1      -8.455   0.139 -32.823  1.00  0.00     0.426 C 
HETATM   17  F   UNL     1      -8.636   0.814 -31.655  1.00  0.00    -0.168 F 
HETATM   18  F   UNL     1      -9.643  -0.443 -33.108  1.00  0.00    -0.168 F 
HETATM   19  F   UNL     1      -7.557  -0.825 -32.589  1.00  0.00    -0.168 F 
ENDBRANCH   5  16
BRANCH   5  20
HETATM   20  C   UNL     1      -7.334   0.332 -34.992  1.00  0.00     0.426 C 
HETATM   21  F   UNL     1      -6.638   1.168 -35.802  1.00  0.00    -0.168 F 
HETATM   22  F   UNL     1      -6.510  -0.623 -34.552  1.00  0.00    -0.168 F 
HETATM   23  F   UNL     1      -8.257  -0.277 -35.790  1.00  0.00    -0.168 F 
ENDBRANCH   5  20
BRANCH   1  24
HETATM   24  C   UNL     1     -11.193   3.189 -34.974  1.00  0.00     0.114 C 
BRANCH  24  25
HETATM   25  C   UNL     1     -12.361   2.477 -34.333  1.00  0.00    -0.051 A 
HETATM   26  C   UNL     1     -12.982   3.058 -33.215  1.00  0.00     0.007 A 
HETATM   27  C   UNL     1     -14.107   2.468 -32.636  1.00  0.00     0.001 A 
HETATM   28  C   UNL     1     -14.633   1.296 -33.172  1.00  0.00     0.000 A 
HETATM   29  C   UNL     1     -14.035   0.715 -34.286  1.00  0.00     0.001 A 
HETATM   30  C   UNL     1     -12.911   1.303 -34.870  1.00  0.00     0.007 A 
ENDBRANCH  24  25
ENDBRANCH   1  24
BRANCH   6  31
HETATM   31  C   UNL     1      -7.702   6.022 -32.815  1.00  0.00     0.200 C 
BRANCH  31  32
HETATM   32  C   UNL     1      -8.552   6.260 -31.621  1.00  0.00     0.070 A 
HETATM   33  O   UNL     1      -9.888   6.000 -31.769  1.00  0.00    -0.325 OA
HETATM   34  C   UNL     1     -10.474   6.272 -30.572  1.00  0.00     0.142 A 
HETATM   35  C   UNL     1      -9.535   6.696 -29.662  1.00  0.00     0.027 A 
HETATM   36  C   UNL     1      -8.291   6.689 -30.338  1.00  0.00     0.036 A 
ENDBRANCH  31  32
ENDBRANCH   6  31
TORSDOF 6
ENDMDL
MODEL 10
REMARK VINA RESULT:      -8.0     16.336     18.296
REMARK  6 active torsions:
REMARK  status: ('A' for Active; 'I' for Inactive)
REMARK    1  A    between atoms: C_4  and  C_5 
REMARK    2  A    between atoms: C_5  and  C_6 
REMARK    3  A    between atoms: C_10  and  C_11 
REMARK    4  A    between atoms: C_10  and  C_15 
REMARK    5  A    between atoms: N_19  and  C_20 
REMARK    6  A    between atoms: C_20  and  C_21 
ROOT
HETATM    1  C   UNL     1      -3.244 -13.239 -38.556  1.00  0.00     0.084 C 
HETATM    2  N   UNL     1      -3.851 -13.895 -37.591  1.00  0.00    -0.331 N 
HETATM    3  C   UNL     1      -5.103 -14.449 -37.730  1.00  0.00     0.128 C 
HETATM    4  C   UNL     1      -5.791 -14.223 -38.858  1.00  0.00     0.100 C 
HETATM    5  C   UNL     1      -5.296 -13.371 -40.003  1.00  0.00     0.264 C 
HETATM    6  N   UNL     1      -5.618 -15.230 -36.707  1.00  0.00    -0.278 N 
HETATM    7  C   UNL     1      -6.905 -15.745 -36.760  1.00  0.00     0.331 C 
HETATM    8  O   UNL     1      -7.411 -16.437 -35.884  1.00  0.00    -0.246 OA
HETATM    9  N   UNL     1      -7.613 -15.456 -37.888  1.00  0.00    -0.275 N 
HETATM   10  C   UNL     1      -7.127 -14.817 -38.976  1.00  0.00     0.262 C 
HETATM   11  O   UNL     1      -7.743 -14.725 -40.024  1.00  0.00    -0.267 OA
HETATM   12  N   UNL     1      -3.826 -13.015 -39.714  1.00  0.00    -0.351 N 
HETATM   13  H   UNL     1      -3.306 -12.518 -40.444  1.00  0.00     0.162 HD
HETATM   14  H   UNL     1      -3.367 -13.954 -36.692  1.00  0.00     0.168 HD
HETATM   15  H   UNL     1      -8.533 -15.875 -37.957  1.00  0.00     0.173 HD
ENDROOT
BRANCH   5  16
HETATM   16  C   UNL     1      -6.062 -12.050 -40.124  1.00  0.00     0.426 C 
HETATM   17  F   UNL     1      -6.481 -11.668 -38.887  1.00  0.00    -0.168 F 
HETATM   18  F   UNL     1      -5.239 -11.068 -40.560  1.00  0.00    -0.168 F 
HETATM   19  F   UNL     1      -7.140 -12.082 -40.915  1.00  0.00    -0.168 F 
ENDBRANCH   5  16
BRANCH   5  20
HETATM   20  C   UNL     1      -5.331 -14.012 -41.395  1.00  0.00     0.426 C 
HETATM   21  F   UNL     1      -5.143 -15.351 -41.293  1.00  0.00    -0.168 F 
HETATM   22  F   UNL     1      -6.428 -13.787 -42.124  1.00  0.00    -0.168 F 
HETATM   23  F   UNL     1      -4.272 -13.541 -42.114  1.00  0.00    -0.168 F 
ENDBRANCH   5  20
BRANCH   1  24
HETATM   24  C   UNL     1      -1.849 -12.750 -38.338  1.00  0.00     0.114 C 
BRANCH  24  25
HETATM   25  C   UNL     1      -0.760 -13.750 -38.651  1.00  0.00    -0.051 A 
HETATM   26  C   UNL     1      -0.180 -14.475 -37.597  1.00  0.00     0.007 A 
HETATM   27  C   UNL     1       0.779 -15.459 -37.851  1.00  0.00     0.001 A 
HETATM   28  C   UNL     1       1.163 -15.736 -39.159  1.00  0.00     0.000 A 
HETATM   29  C   UNL     1       0.589 -15.034 -40.214  1.00  0.00     0.001 A 
HETATM   30  C   UNL     1      -0.372 -14.051 -39.965  1.00  0.00     0.007 A 
ENDBRANCH  24  25
ENDBRANCH   1  24
BRANCH   6  31
HETATM   31  C   UNL     1      -4.835 -15.578 -35.517  1.00  0.00     0.200 C 
BRANCH  31  32
HETATM   32  C   UNL     1      -5.162 -14.643 -34.410  1.00  0.00     0.070 A 
HETATM   33  O   UNL     1      -5.340 -15.206 -33.175  1.00  0.00    -0.325 OA
HETATM   34  C   UNL     1      -5.619 -14.188 -32.318  1.00  0.00     0.142 A 
HETATM   35  C   UNL     1      -5.617 -12.985 -32.983  1.00  0.00     0.027 A 
HETATM   36  C   UNL     1      -5.322 -13.276 -34.336  1.00  0.00     0.036 A 
ENDBRANCH  31  32
ENDBRANCH   6  31
TORSDOF 6
ENDMDL
