MODEL 1
REMARK VINA RESULT:      -7.6      0.000      0.000
REMARK  6 active torsions:
REMARK  status: ('A' for Active; 'I' for Inactive)
REMARK    1  A    between atoms: C_2  and  N_3 
REMARK    2  A    between atoms: C_2  and  C_17 
REMARK       I    between atoms: N_3  and  C_4 
REMARK    3  A    between atoms: C_4  and  C_5 
REMARK    4  A    between atoms: C_6  and  O_7 
REMARK    5  A    between atoms: O_7  and  C_8 
REMARK    6  A    between atoms: C_8  and  C_9 
ROOT
HETATM    1  N   UNL     1      -3.920   2.308 -31.420  1.00  0.00    -0.346 N 
HETATM    2  C   UNL     1      -3.345   3.548 -31.522  1.00  0.00     0.256 C 
HETATM    3  O   UNL     1      -2.124   3.662 -31.490  1.00  0.00    -0.267 OA
HETATM    4  H   UNL     1      -3.226   1.574 -31.368  1.00  0.00     0.163 HD
ENDROOT
BRANCH   1   5
HETATM    5  C   UNL     1      -5.324   1.932 -31.516  1.00  0.00     0.150 C 
HETATM    6  C   UNL     1      -5.928   1.757 -30.127  1.00  0.00     0.040 C 
BRANCH   5   7
HETATM    7  C   UNL     1      -5.404   0.684 -32.346  1.00  0.00     0.127 A 
HETATM    8  N   UNL     1      -4.393  -0.088 -32.701  1.00  0.00    -0.231 NA
HETATM    9  C   UNL     1      -4.948  -1.133 -33.401  1.00  0.00     0.085 A 
HETATM   10  C   UNL     1      -6.327  -0.998 -33.484  1.00  0.00     0.062 A 
HETATM   11  C   UNL     1      -4.334  -2.244 -33.996  1.00  0.00     0.034 A 
HETATM   12  N   UNL     1      -6.593   0.163 -32.804  1.00  0.00    -0.341 N 
HETATM   13  C   UNL     1      -7.153  -1.914 -34.137  1.00  0.00     0.032 A 
HETATM   14  H   UNL     1      -7.510   0.556 -32.654  1.00  0.00     0.167 HD
HETATM   15  C   UNL     1      -6.524  -3.016 -34.725  1.00  0.00     0.002 A 
HETATM   16  C   UNL     1      -5.138  -3.183 -34.657  1.00  0.00     0.002 A 
ENDBRANCH   5   7
ENDBRANCH   1   5
BRANCH   2  17
HETATM   17  C   UNL     1      -4.184   4.745 -31.667  1.00  0.00     0.084 A 
HETATM   18  C   UNL     1      -4.614   5.153 -32.924  1.00  0.00     0.180 A 
HETATM   19  N   UNL     1      -5.401   6.239 -33.125  1.00  0.00    -0.236 NA
HETATM   20  C   UNL     1      -5.803   6.911 -32.022  1.00  0.00     0.119 A 
HETATM   21  C   UNL     1      -5.450   6.558 -30.728  1.00  0.00     0.020 A 
HETATM   22  C   UNL     1      -4.629   5.448 -30.547  1.00  0.00     0.023 A 
BRANCH  18  23
HETATM   23  O   UNL     1      -4.144   4.486 -34.035  1.00  0.00    -0.328 OA
BRANCH  23  24
HETATM   24  C   UNL     1      -3.430   5.331 -34.947  1.00  0.00     0.248 C 
BRANCH  24  25
HETATM   25  C   UNL     1      -2.025   5.646 -34.462  1.00  0.00     0.377 C 
HETATM   26  F   UNL     1      -1.116   5.154 -35.349  1.00  0.00    -0.212 F 
HETATM   27  F   UNL     1      -1.841   6.993 -34.447  1.00  0.00    -0.212 F 
ENDBRANCH  24  25
ENDBRANCH  23  24
ENDBRANCH  18  23
ENDBRANCH   2  17
TORSDOF 6
ENDMDL
MODEL 2
REMARK VINA RESULT:      -7.5      3.977      4.836
REMARK  6 active torsions:
REMARK  status: ('A' for Active; 'I' for Inactive)
REMARK    1  A    between atoms: C_2  and  N_3 
REMARK    2  A    between atoms: C_2  and  C_17 
REMARK       I    between atoms: N_3  and  C_4 
REMARK    3  A    between atoms: C_4  and  C_5 
REMARK    4  A    between atoms: C_6  and  O_7 
REMARK    5  A    between atoms: O_7  and  C_8 
REMARK    6  A    between atoms: C_8  and  C_9 
ROOT
HETATM    1  N   UNL     1      -5.249   2.894 -33.192  1.00  0.00    -0.346 N 
HETATM    2  C   UNL     1      -6.271   3.805 -33.251  1.00  0.00     0.256 C 
HETATM    3  O   UNL     1      -6.364   4.560 -34.213  1.00  0.00    -0.267 OA
HETATM    4  H   UNL     1      -4.672   2.920 -34.023  1.00  0.00     0.163 HD
ENDROOT
BRANCH   1   5
HETATM    5  C   UNL     1      -4.994   1.858 -32.201  1.00  0.00     0.150 C 
HETATM    6  C   UNL     1      -3.595   2.010 -31.613  1.00  0.00     0.040 C 
BRANCH   5   7
HETATM    7  C   UNL     1      -5.202   0.530 -32.868  1.00  0.00     0.127 A 
HETATM    8  N   UNL     1      -4.265  -0.351 -33.171  1.00  0.00    -0.231 NA
HETATM    9  C   UNL     1      -4.925  -1.428 -33.714  1.00  0.00     0.085 A 
HETATM   10  C   UNL     1      -6.294  -1.202 -33.753  1.00  0.00     0.062 A 
HETATM   11  C   UNL     1      -4.420  -2.644 -34.196  1.00  0.00     0.034 A 
HETATM   12  N   UNL     1      -6.445   0.047 -33.208  1.00  0.00    -0.341 N 
HETATM   13  C   UNL     1      -7.214  -2.126 -34.253  1.00  0.00     0.032 A 
HETATM   14  H   UNL     1      -7.325   0.521 -33.067  1.00  0.00     0.167 HD
HETATM   15  C   UNL     1      -6.692  -3.333 -34.729  1.00  0.00     0.002 A 
HETATM   16  C   UNL     1      -5.319  -3.593 -34.702  1.00  0.00     0.002 A 
ENDBRANCH   5   7
ENDBRANCH   1   5
BRANCH   2  17
HETATM   17  C   UNL     1      -7.257   3.886 -32.166  1.00  0.00     0.084 A 
HETATM   18  C   UNL     1      -8.326   2.998 -32.121  1.00  0.00     0.180 A 
HETATM   19  N   UNL     1      -9.263   3.010 -31.140  1.00  0.00    -0.236 NA
HETATM   20  C   UNL     1      -9.093   3.915 -30.148  1.00  0.00     0.119 A 
HETATM   21  C   UNL     1      -8.040   4.816 -30.094  1.00  0.00     0.020 A 
HETATM   22  C   UNL     1      -7.099   4.796 -31.120  1.00  0.00     0.023 A 
BRANCH  18  23
HETATM   23  O   UNL     1      -8.509   2.126 -33.172  1.00  0.00    -0.328 OA
BRANCH  23  24
HETATM   24  C   UNL     1      -9.871   1.713 -33.342  1.00  0.00     0.248 C 
BRANCH  24  25
HETATM   25  C   UNL     1     -10.052   0.220 -33.132  1.00  0.00     0.377 C 
HETATM   26  F   UNL     1      -9.590  -0.125 -31.898  1.00  0.00    -0.212 F 
HETATM   27  F   UNL     1     -11.378  -0.082 -33.132  1.00  0.00    -0.212 F 
ENDBRANCH  24  25
ENDBRANCH  23  24
ENDBRANCH  18  23
ENDBRANCH   2  17
TORSDOF 6
ENDMDL
MODEL 3
REMARK VINA RESULT:      -7.5      3.396      4.324
REMARK  6 active torsions:
REMARK  status: ('A' for Active; 'I' for Inactive)
REMARK    1  A    between atoms: C_2  and  N_3 
REMARK    2  A    between atoms: C_2  and  C_17 
REMARK       I    between atoms: N_3  and  C_4 
REMARK    3  A    between atoms: C_4  and  C_5 
REMARK    4  A    between atoms: C_6  and  O_7 
REMARK    5  A    between atoms: O_7  and  C_8 
REMARK    6  A    between atoms: C_8  and  C_9 
ROOT
HETATM    1  N   UNL     1      -7.071   0.821 -33.016  1.00  0.00    -0.346 N 
HETATM    2  C   UNL     1      -6.726   1.943 -32.310  1.00  0.00     0.256 C 
HETATM    3  O   UNL     1      -7.099   2.075 -31.149  1.00  0.00    -0.267 OA
HETATM    4  H   UNL     1      -7.593   0.165 -32.450  1.00  0.00     0.163 HD
ENDROOT
BRANCH   1   5
HETATM    5  C   UNL     1      -6.678   0.420 -34.360  1.00  0.00     0.150 C 
HETATM    6  C   UNL     1      -7.889   0.379 -35.285  1.00  0.00     0.040 C 
BRANCH   5   7
HETATM    7  C   UNL     1      -5.984  -0.908 -34.253  1.00  0.00     0.127 A 
HETATM    8  N   UNL     1      -4.888  -1.166 -33.565  1.00  0.00    -0.231 NA
HETATM    9  C   UNL     1      -4.659  -2.513 -33.716  1.00  0.00     0.085 A 
HETATM   10  C   UNL     1      -5.631  -3.094 -34.520  1.00  0.00     0.062 A 
HETATM   11  C   UNL     1      -3.638  -3.318 -33.190  1.00  0.00     0.034 A 
HETATM   12  N   UNL     1      -6.462  -2.054 -34.847  1.00  0.00    -0.341 N 
HETATM   13  C   UNL     1      -5.652  -4.452 -34.844  1.00  0.00     0.032 A 
HETATM   14  H   UNL     1      -7.294  -2.126 -35.414  1.00  0.00     0.167 HD
HETATM   15  C   UNL     1      -4.627  -5.239 -34.311  1.00  0.00     0.002 A 
HETATM   16  C   UNL     1      -3.635  -4.686 -33.497  1.00  0.00     0.002 A 
ENDBRANCH   5   7
ENDBRANCH   1   5
BRANCH   2  17
HETATM   17  C   UNL     1      -5.914   2.995 -32.938  1.00  0.00     0.084 A 
HETATM   18  C   UNL     1      -6.507   3.934 -33.772  1.00  0.00     0.180 A 
HETATM   19  N   UNL     1      -5.818   4.938 -34.371  1.00  0.00    -0.236 NA
HETATM   20  C   UNL     1      -4.498   5.025 -34.084  1.00  0.00     0.119 A 
HETATM   21  C   UNL     1      -3.831   4.152 -33.237  1.00  0.00     0.020 A 
HETATM   22  C   UNL     1      -4.555   3.120 -32.647  1.00  0.00     0.023 A 
BRANCH  18  23
HETATM   23  O   UNL     1      -7.839   3.790 -34.094  1.00  0.00    -0.328 OA
BRANCH  23  24
HETATM   24  C   UNL     1      -8.607   4.985 -33.900  1.00  0.00     0.248 C 
BRANCH  24  25
HETATM   25  C   UNL     1      -9.938   4.940 -34.631  1.00  0.00     0.377 C 
HETATM   26  F   UNL     1      -9.841   5.638 -35.796  1.00  0.00    -0.212 F 
HETATM   27  F   UNL     1     -10.219   3.658 -34.985  1.00  0.00    -0.212 F 
ENDBRANCH  24  25
ENDBRANCH  23  24
ENDBRANCH  18  23
ENDBRANCH   2  17
TORSDOF 6
ENDMDL
MODEL 4
REMARK VINA RESULT:      -7.4      2.889      3.931
REMARK  6 active torsions:
REMARK  status: ('A' for Active; 'I' for Inactive)
REMARK    1  A    between atoms: C_2  and  N_3 
REMARK    2  A    between atoms: C_2  and  C_17 
REMARK       I    between atoms: N_3  and  C_4 
REMARK    3  A    between atoms: C_4  and  C_5 
REMARK    4  A    between atoms: C_6  and  O_7 
REMARK    5  A    between atoms: O_7  and  C_8 
REMARK    6  A    between atoms: C_8  and  C_9 
ROOT
HETATM    1  N   UNL     1      -7.604   1.174 -32.347  1.00  0.00    -0.346 N 
HETATM    2  C   UNL     1      -7.093   2.220 -31.624  1.00  0.00     0.256 C 
HETATM    3  O   UNL     1      -7.212   2.237 -30.403  1.00  0.00    -0.267 OA
HETATM    4  H   UNL     1      -8.011   0.467 -31.749  1.00  0.00     0.163 HD
ENDROOT
BRANCH   1   5
HETATM    5  C   UNL     1      -7.510   0.908 -33.776  1.00  0.00     0.150 C 
HETATM    6  C   UNL     1      -8.876   1.046 -34.439  1.00  0.00     0.040 C 
BRANCH   5   7
HETATM    7  C   UNL     1      -6.919  -0.462 -33.944  1.00  0.00     0.127 A 
HETATM    8  N   UNL     1      -7.532  -1.527 -34.427  1.00  0.00    -0.231 NA
HETATM    9  C   UNL     1      -6.590  -2.527 -34.443  1.00  0.00     0.085 A 
HETATM   10  C   UNL     1      -5.374  -2.070 -33.953  1.00  0.00     0.062 A 
HETATM   11  C   UNL     1      -6.697  -3.859 -34.868  1.00  0.00     0.034 A 
HETATM   12  N   UNL     1      -5.608  -0.755 -33.645  1.00  0.00    -0.341 N 
HETATM   13  C   UNL     1      -4.233  -2.870 -33.854  1.00  0.00     0.032 A 
HETATM   14  H   UNL     1      -4.925  -0.110 -33.277  1.00  0.00     0.167 HD
HETATM   15  C   UNL     1      -4.359  -4.195 -34.283  1.00  0.00     0.002 A 
HETATM   16  C   UNL     1      -5.568  -4.685 -34.783  1.00  0.00     0.002 A 
ENDBRANCH   5   7
ENDBRANCH   1   5
BRANCH   2  17
HETATM   17  C   UNL     1      -6.407   3.327 -32.303  1.00  0.00     0.084 A 
HETATM   18  C   UNL     1      -5.157   3.129 -32.879  1.00  0.00     0.180 A 
HETATM   19  N   UNL     1      -4.476   4.104 -33.532  1.00  0.00    -0.236 NA
HETATM   20  C   UNL     1      -5.092   5.303 -33.648  1.00  0.00     0.119 A 
HETATM   21  C   UNL     1      -6.351   5.580 -33.134  1.00  0.00     0.020 A 
HETATM   22  C   UNL     1      -7.024   4.569 -32.454  1.00  0.00     0.023 A 
BRANCH  18  23
HETATM   23  O   UNL     1      -4.526   1.917 -32.696  1.00  0.00    -0.328 OA
BRANCH  23  24
HETATM   24  C   UNL     1      -3.512   1.948 -31.683  1.00  0.00     0.248 C 
BRANCH  24  25
HETATM   25  C   UNL     1      -3.260   0.578 -31.078  1.00  0.00     0.377 C 
HETATM   26  F   UNL     1      -4.445   0.022 -30.702  1.00  0.00    -0.212 F 
HETATM   27  F   UNL     1      -2.743  -0.249 -32.026  1.00  0.00    -0.212 F 
ENDBRANCH  24  25
ENDBRANCH  23  24
ENDBRANCH  18  23
ENDBRANCH   2  17
TORSDOF 6
ENDMDL
MODEL 5
REMARK VINA RESULT:      -7.3      4.998      6.952
REMARK  6 active torsions:
REMARK  status: ('A' for Active; 'I' for Inactive)
REMARK    1  A    between atoms: C_2  and  N_3 
REMARK    2  A    between atoms: C_2  and  C_17 
REMARK       I    between atoms: N_3  and  C_4 
REMARK    3  A    between atoms: C_4  and  C_5 
REMARK    4  A    between atoms: C_6  and  O_7 
REMARK    5  A    between atoms: O_7  and  C_8 
REMARK    6  A    between atoms: C_8  and  C_9 
ROOT
HETATM    1  N   UNL     1      -7.793   0.888 -31.421  1.00  0.00    -0.346 N 
HETATM    2  C   UNL     1      -6.792   0.099 -30.919  1.00  0.00     0.256 C 
HETATM    3  O   UNL     1      -6.958  -0.505 -29.865  1.00  0.00    -0.267 OA
HETATM    4  H   UNL     1      -8.627   0.847 -30.850  1.00  0.00     0.163 HD
ENDROOT
BRANCH   1   5
HETATM    5  C   UNL     1      -7.847   1.620 -32.679  1.00  0.00     0.150 C 
HETATM    6  C   UNL     1      -7.344   3.048 -32.490  1.00  0.00     0.040 C 
BRANCH   5   7
HETATM    7  C   UNL     1      -9.262   1.564 -33.177  1.00  0.00     0.127 A 
HETATM    8  N   UNL     1      -9.826   2.398 -34.032  1.00  0.00    -0.231 NA
HETATM    9  C   UNL     1     -11.101   1.925 -34.230  1.00  0.00     0.085 A 
HETATM   10  C   UNL     1     -11.328   0.780 -33.478  1.00  0.00     0.062 A 
HETATM   11  C   UNL     1     -12.128   2.419 -35.048  1.00  0.00     0.034 A 
HETATM   12  N   UNL     1     -10.145   0.570 -32.819  1.00  0.00    -0.341 N 
HETATM   13  C   UNL     1     -12.537   0.082 -33.483  1.00  0.00     0.032 A 
HETATM   14  H   UNL     1      -9.952  -0.196 -32.191  1.00  0.00     0.167 HD
HETATM   15  C   UNL     1     -13.550   0.589 -34.304  1.00  0.00     0.002 A 
HETATM   16  C   UNL     1     -13.353   1.737 -35.076  1.00  0.00     0.002 A 
ENDBRANCH   5   7
ENDBRANCH   1   5
BRANCH   2  17
HETATM   17  C   UNL     1      -5.515  -0.025 -31.635  1.00  0.00     0.084 A 
HETATM   18  C   UNL     1      -5.433  -0.777 -32.800  1.00  0.00     0.180 A 
HETATM   19  N   UNL     1      -4.290  -0.921 -33.516  1.00  0.00    -0.236 NA
HETATM   20  C   UNL     1      -3.204  -0.249 -33.068  1.00  0.00     0.119 A 
HETATM   21  C   UNL     1      -3.202   0.551 -31.934  1.00  0.00     0.020 A 
HETATM   22  C   UNL     1      -4.383   0.671 -31.207  1.00  0.00     0.023 A 
BRANCH  18  23
HETATM   23  O   UNL     1      -6.537  -1.499 -33.203  1.00  0.00    -0.328 OA
BRANCH  23  24
HETATM   24  C   UNL     1      -6.543  -1.799 -34.604  1.00  0.00     0.248 C 
BRANCH  24  25
HETATM   25  C   UNL     1      -6.587  -3.294 -34.873  1.00  0.00     0.377 C 
HETATM   26  F   UNL     1      -5.398  -3.855 -34.516  1.00  0.00    -0.212 F 
HETATM   27  F   UNL     1      -7.527  -3.871 -34.078  1.00  0.00    -0.212 F 
ENDBRANCH  24  25
ENDBRANCH  23  24
ENDBRANCH  18  23
ENDBRANCH   2  17
TORSDOF 6
ENDMDL
MODEL 6
REMARK VINA RESULT:      -7.1      6.374      7.521
REMARK  6 active torsions:
REMARK  status: ('A' for Active; 'I' for Inactive)
REMARK    1  A    between atoms: C_2  and  N_3 
REMARK    2  A    between atoms: C_2  and  C_17 
REMARK       I    between atoms: N_3  and  C_4 
REMARK    3  A    between atoms: C_4  and  C_5 
REMARK    4  A    between atoms: C_6  and  O_7 
REMARK    5  A    between atoms: O_7  and  C_8 
REMARK    6  A    between atoms: C_8  and  C_9 
ROOT
HETATM    1  N   UNL     1      -9.794   1.569 -32.000  1.00  0.00    -0.346 N 
HETATM    2  C   UNL     1     -10.283   2.845 -32.102  1.00  0.00     0.256 C 
HETATM    3  O   UNL     1     -10.266   3.587 -31.125  1.00  0.00    -0.267 OA
HETATM    4  H   UNL     1      -9.411   1.384 -31.083  1.00  0.00     0.163 HD
ENDROOT
BRANCH   1   5
HETATM    5  C   UNL     1      -9.640   0.556 -33.036  1.00  0.00     0.150 C 
HETATM    6  C   UNL     1     -10.706  -0.525 -32.891  1.00  0.00     0.040 C 
BRANCH   5   7
HETATM    7  C   UNL     1      -8.244   0.013 -32.935  1.00  0.00     0.127 A 
HETATM    8  N   UNL     1      -7.643  -0.770 -33.812  1.00  0.00    -0.231 NA
HETATM    9  C   UNL     1      -6.370  -0.963 -33.330  1.00  0.00     0.085 A 
HETATM   10  C   UNL     1      -6.187  -0.291 -32.129  1.00  0.00     0.062 A 
HETATM   11  C   UNL     1      -5.306  -1.701 -33.868  1.00  0.00     0.034 A 
HETATM   12  N   UNL     1      -7.391   0.323 -31.900  1.00  0.00    -0.341 N 
HETATM   13  C   UNL     1      -4.989  -0.307 -31.411  1.00  0.00     0.032 A 
HETATM   14  H   UNL     1      -7.605   0.916 -31.112  1.00  0.00     0.167 HD
HETATM   15  C   UNL     1      -3.939  -1.047 -31.963  1.00  0.00     0.002 A 
HETATM   16  C   UNL     1      -4.090  -1.733 -33.171  1.00  0.00     0.002 A 
ENDBRANCH   5   7
ENDBRANCH   1   5
BRANCH   2  17
HETATM   17  C   UNL     1     -10.832   3.332 -33.375  1.00  0.00     0.084 A 
HETATM   18  C   UNL     1     -12.143   3.039 -33.731  1.00  0.00     0.180 A 
HETATM   19  N   UNL     1     -12.714   3.468 -34.883  1.00  0.00    -0.236 NA
HETATM   20  C   UNL     1     -11.957   4.255 -35.682  1.00  0.00     0.119 A 
HETATM   21  C   UNL     1     -10.652   4.625 -35.390  1.00  0.00     0.020 A 
HETATM   22  C   UNL     1     -10.080   4.160 -34.210  1.00  0.00     0.023 A 
BRANCH  18  23
HETATM   23  O   UNL     1     -12.874   2.188 -32.930  1.00  0.00    -0.328 OA
BRANCH  23  24
HETATM   24  C   UNL     1     -14.219   1.992 -33.384  1.00  0.00     0.248 C 
BRANCH  24  25
HETATM   25  C   UNL     1     -14.474   0.562 -33.830  1.00  0.00     0.377 C 
HETATM   26  F   UNL     1     -15.598   0.519 -34.599  1.00  0.00    -0.212 F 
HETATM   27  F   UNL     1     -13.457   0.148 -34.632  1.00  0.00    -0.212 F 
ENDBRANCH  24  25
ENDBRANCH  23  24
ENDBRANCH  18  23
ENDBRANCH   2  17
TORSDOF 6
ENDMDL
MODEL 7
REMARK VINA RESULT:      -7.0      6.416      7.926
REMARK  6 active torsions:
REMARK  status: ('A' for Active; 'I' for Inactive)
REMARK    1  A    between atoms: C_2  and  N_3 
REMARK    2  A    between atoms: C_2  and  C_17 
REMARK       I    between atoms: N_3  and  C_4 
REMARK    3  A    between atoms: C_4  and  C_5 
REMARK    4  A    between atoms: C_6  and  O_7 
REMARK    5  A    between atoms: O_7  and  C_8 
REMARK    6  A    between atoms: C_8  and  C_9 
ROOT
HETATM    1  N   UNL     1      -9.803   2.644 -33.621  1.00  0.00    -0.346 N 
HETATM    2  C   UNL     1     -10.926   2.901 -34.362  1.00  0.00     0.256 C 
HETATM    3  O   UNL     1     -10.860   3.640 -35.339  1.00  0.00    -0.267 OA
HETATM    4  H   UNL     1      -8.983   3.088 -34.013  1.00  0.00     0.163 HD
ENDROOT
BRANCH   1   5
HETATM    5  C   UNL     1      -9.633   1.745 -32.487  1.00  0.00     0.150 C 
HETATM    6  C   UNL     1      -9.323   2.534 -31.219  1.00  0.00     0.040 C 
BRANCH   5   7
HETATM    7  C   UNL     1      -8.551   0.767 -32.841  1.00  0.00     0.127 A 
HETATM    8  N   UNL     1      -8.556  -0.074 -33.859  1.00  0.00    -0.231 NA
HETATM    9  C   UNL     1      -7.345  -0.723 -33.816  1.00  0.00     0.085 A 
HETATM   10  C   UNL     1      -6.582  -0.277 -32.745  1.00  0.00     0.062 A 
HETATM   11  C   UNL     1      -6.820  -1.708 -34.665  1.00  0.00     0.034 A 
HETATM   12  N   UNL     1      -7.368   0.670 -32.142  1.00  0.00    -0.341 N 
HETATM   13  C   UNL     1      -5.304  -0.760 -32.455  1.00  0.00     0.032 A 
HETATM   14  H   UNL     1      -7.112   1.215 -31.332  1.00  0.00     0.167 HD
HETATM   15  C   UNL     1      -4.797  -1.742 -33.312  1.00  0.00     0.002 A 
HETATM   16  C   UNL     1      -5.538  -2.210 -34.400  1.00  0.00     0.002 A 
ENDBRANCH   5   7
ENDBRANCH   1   5
BRANCH   2  17
HETATM   17  C   UNL     1     -12.214   2.299 -33.993  1.00  0.00     0.084 A 
HETATM   18  C   UNL     1     -12.981   2.853 -32.974  1.00  0.00     0.180 A 
HETATM   19  N   UNL     1     -14.184   2.355 -32.593  1.00  0.00    -0.236 NA
HETATM   20  C   UNL     1     -14.651   1.294 -33.290  1.00  0.00     0.119 A 
HETATM   21  C   UNL     1     -13.970   0.698 -34.342  1.00  0.00     0.020 A 
HETATM   22  C   UNL     1     -12.730   1.215 -34.704  1.00  0.00     0.023 A 
BRANCH  18  23
HETATM   23  O   UNL     1     -12.457   3.897 -32.242  1.00  0.00    -0.328 OA
BRANCH  23  24
HETATM   24  C   UNL     1     -13.431   4.883 -31.877  1.00  0.00     0.248 C 
BRANCH  24  25
HETATM   25  C   UNL     1     -13.478   5.120 -30.377  1.00  0.00     0.377 C 
HETATM   26  F   UNL     1     -14.741   5.478 -30.012  1.00  0.00    -0.212 F 
HETATM   27  F   UNL     1     -13.216   3.956 -29.725  1.00  0.00    -0.212 F 
ENDBRANCH  24  25
ENDBRANCH  23  24
ENDBRANCH  18  23
ENDBRANCH   2  17
TORSDOF 6
ENDMDL
MODEL 8
REMARK VINA RESULT:      -7.0      5.700      8.093
REMARK  6 active torsions:
REMARK  status: ('A' for Active; 'I' for Inactive)
REMARK    1  A    between atoms: C_2  and  N_3 
REMARK    2  A    between atoms: C_2  and  C_17 
REMARK       I    between atoms: N_3  and  C_4 
REMARK    3  A    between atoms: C_4  and  C_5 
REMARK    4  A    between atoms: C_6  and  O_7 
REMARK    5  A    between atoms: O_7  and  C_8 
REMARK    6  A    between atoms: C_8  and  C_9 
ROOT
HETATM    1  N   UNL     1      -8.653   0.948 -34.670  1.00  0.00    -0.346 N 
HETATM    2  C   UNL     1      -7.356   0.622 -34.969  1.00  0.00     0.256 C 
HETATM    3  O   UNL     1      -6.987   0.589 -36.139  1.00  0.00    -0.267 OA
HETATM    4  H   UNL     1      -9.183   1.182 -35.499  1.00  0.00     0.163 HD
ENDROOT
BRANCH   1   5
HETATM    5  C   UNL     1      -9.282   1.127 -33.369  1.00  0.00     0.150 C 
HETATM    6  C   UNL     1      -9.891  -0.183 -32.883  1.00  0.00     0.040 C 
BRANCH   5   7
HETATM    7  C   UNL     1     -10.296   2.226 -33.502  1.00  0.00     0.127 A 
HETATM    8  N   UNL     1     -10.412   3.068 -34.512  1.00  0.00    -0.231 NA
HETATM    9  C   UNL     1     -11.504   3.851 -34.224  1.00  0.00     0.085 A 
HETATM   10  C   UNL     1     -12.068   3.488 -33.008  1.00  0.00     0.062 A 
HETATM   11  C   UNL     1     -12.082   4.896 -34.959  1.00  0.00     0.034 A 
HETATM   12  N   UNL     1     -11.284   2.452 -32.570  1.00  0.00    -0.341 N 
HETATM   13  C   UNL     1     -13.191   4.112 -32.462  1.00  0.00     0.032 A 
HETATM   14  H   UNL     1     -11.422   1.935 -31.715  1.00  0.00     0.167 HD
HETATM   15  C   UNL     1     -13.754   5.152 -33.209  1.00  0.00     0.002 A 
HETATM   16  C   UNL     1     -13.213   5.540 -34.437  1.00  0.00     0.002 A 
ENDBRANCH   5   7
ENDBRANCH   1   5
BRANCH   2  17
HETATM   17  C   UNL     1      -6.404   0.305 -33.897  1.00  0.00     0.084 A 
HETATM   18  C   UNL     1      -6.028  -1.011 -33.658  1.00  0.00     0.180 A 
HETATM   19  N   UNL     1      -5.144  -1.370 -32.694  1.00  0.00    -0.236 NA
HETATM   20  C   UNL     1      -4.586  -0.367 -31.977  1.00  0.00     0.119 A 
HETATM   21  C   UNL     1      -4.876   0.976 -32.169  1.00  0.00     0.020 A 
HETATM   22  C   UNL     1      -5.799   1.319 -33.153  1.00  0.00     0.023 A 
BRANCH  18  23
HETATM   23  O   UNL     1      -6.654  -2.018 -34.361  1.00  0.00    -0.328 OA
BRANCH  23  24
HETATM   24  C   UNL     1      -5.776  -3.093 -34.723  1.00  0.00     0.248 C 
BRANCH  24  25
HETATM   25  C   UNL     1      -6.486  -4.436 -34.740  1.00  0.00     0.377 C 
HETATM   26  F   UNL     1      -7.613  -4.365 -33.977  1.00  0.00    -0.212 F 
HETATM   27  F   UNL     1      -6.907  -4.711 -36.004  1.00  0.00    -0.212 F 
ENDBRANCH  24  25
ENDBRANCH  23  24
ENDBRANCH  18  23
ENDBRANCH   2  17
TORSDOF 6
ENDMDL
MODEL 9
REMARK VINA RESULT:      -7.0      2.324      3.277
REMARK  6 active torsions:
REMARK  status: ('A' for Active; 'I' for Inactive)
REMARK    1  A    between atoms: C_2  and  N_3 
REMARK    2  A    between atoms: C_2  and  C_17 
REMARK       I    between atoms: N_3  and  C_4 
REMARK    3  A    between atoms: C_4  and  C_5 
REMARK    4  A    between atoms: C_6  and  O_7 
REMARK    5  A    between atoms: O_7  and  C_8 
REMARK    6  A    between atoms: C_8  and  C_9 
ROOT
HETATM    1  N   UNL     1      -5.793   1.644 -32.346  1.00  0.00    -0.346 N 
HETATM    2  C   UNL     1      -5.017   2.625 -31.788  1.00  0.00     0.256 C 
HETATM    3  O   UNL     1      -4.867   2.669 -30.571  1.00  0.00    -0.267 OA
HETATM    4  H   UNL     1      -6.143   0.999 -31.651  1.00  0.00     0.163 HD
ENDROOT
BRANCH   1   5
HETATM    5  C   UNL     1      -6.041   1.354 -33.752  1.00  0.00     0.150 C 
HETATM    6  C   UNL     1      -7.450   1.782 -34.148  1.00  0.00     0.040 C 
BRANCH   5   7
HETATM    7  C   UNL     1      -5.799  -0.112 -33.962  1.00  0.00     0.127 A 
HETATM    8  N   UNL     1      -4.687  -0.771 -33.690  1.00  0.00    -0.231 NA
HETATM    9  C   UNL     1      -4.947  -2.086 -33.993  1.00  0.00     0.085 A 
HETATM   10  C   UNL     1      -6.243  -2.239 -34.467  1.00  0.00     0.062 A 
HETATM   11  C   UNL     1      -4.123  -3.215 -33.883  1.00  0.00     0.034 A 
HETATM   12  N   UNL     1      -6.764  -0.972 -34.437  1.00  0.00    -0.341 N 
HETATM   13  C   UNL     1      -6.783  -3.469 -34.852  1.00  0.00     0.032 A 
HETATM   14  H   UNL     1      -7.704  -0.720 -34.703  1.00  0.00     0.167 HD
HETATM   15  C   UNL     1      -5.946  -4.583 -34.736  1.00  0.00     0.002 A 
HETATM   16  C   UNL     1      -4.638  -4.464 -34.259  1.00  0.00     0.002 A 
ENDBRANCH   5   7
ENDBRANCH   1   5
BRANCH   2  17
HETATM   17  C   UNL     1      -4.365   3.631 -32.637  1.00  0.00     0.084 A 
HETATM   18  C   UNL     1      -5.083   4.724 -33.107  1.00  0.00     0.180 A 
HETATM   19  N   UNL     1      -4.539   5.695 -33.883  1.00  0.00    -0.236 NA
HETATM   20  C   UNL     1      -3.218   5.585 -34.157  1.00  0.00     0.119 A 
HETATM   21  C   UNL     1      -2.417   4.547 -33.703  1.00  0.00     0.020 A 
HETATM   22  C   UNL     1      -3.001   3.554 -32.922  1.00  0.00     0.023 A 
BRANCH  18  23
HETATM   23  O   UNL     1      -6.439   4.783 -32.864  1.00  0.00    -0.328 OA
BRANCH  23  24
HETATM   24  C   UNL     1      -6.846   5.979 -32.187  1.00  0.00     0.248 C 
BRANCH  24  25
HETATM   25  C   UNL     1      -6.334   6.036 -30.758  1.00  0.00     0.377 C 
HETATM   26  F   UNL     1      -5.373   6.997 -30.658  1.00  0.00    -0.212 F 
HETATM   27  F   UNL     1      -7.340   6.425 -29.930  1.00  0.00    -0.212 F 
ENDBRANCH  24  25
ENDBRANCH  23  24
ENDBRANCH  18  23
ENDBRANCH   2  17
TORSDOF 6
ENDMDL
MODEL 10
REMARK VINA RESULT:      -7.0      1.816      2.594
REMARK  6 active torsions:
REMARK  status: ('A' for Active; 'I' for Inactive)
REMARK    1  A    between atoms: C_2  and  N_3 
REMARK    2  A    between atoms: C_2  and  C_17 
REMARK       I    between atoms: N_3  and  C_4 
REMARK    3  A    between atoms: C_4  and  C_5 
REMARK    4  A    between atoms: C_6  and  O_7 
REMARK    5  A    between atoms: O_7  and  C_8 
REMARK    6  A    between atoms: C_8  and  C_9 
ROOT
HETATM    1  N   UNL     1      -5.553   2.454 -33.462  1.00  0.00    -0.346 N 
HETATM    2  C   UNL     1      -6.075   3.701 -33.238  1.00  0.00     0.256 C 
HETATM    3  O   UNL     1      -6.540   4.347 -34.171  1.00  0.00    -0.267 OA
HETATM    4  H   UNL     1      -5.655   2.171 -34.428  1.00  0.00     0.163 HD
ENDROOT
BRANCH   1   5
HETATM    5  C   UNL     1      -5.031   1.488 -32.505  1.00  0.00     0.150 C 
HETATM    6  C   UNL     1      -3.548   1.734 -32.250  1.00  0.00     0.040 C 
BRANCH   5   7
HETATM    7  C   UNL     1      -5.307   0.116 -33.048  1.00  0.00     0.127 A 
HETATM    8  N   UNL     1      -6.475  -0.346 -33.456  1.00  0.00    -0.231 NA
HETATM    9  C   UNL     1      -6.235  -1.618 -33.917  1.00  0.00     0.085 A 
HETATM   10  C   UNL     1      -4.893  -1.949 -33.783  1.00  0.00     0.062 A 
HETATM   11  C   UNL     1      -7.117  -2.556 -34.471  1.00  0.00     0.034 A 
HETATM   12  N   UNL     1      -4.324  -0.830 -33.231  1.00  0.00    -0.341 N 
HETATM   13  C   UNL     1      -4.360  -3.180 -34.171  1.00  0.00     0.032 A 
HETATM   14  H   UNL     1      -3.345  -0.719 -33.013  1.00  0.00     0.167 HD
HETATM   15  C   UNL     1      -5.254  -4.103 -34.722  1.00  0.00     0.002 A 
HETATM   16  C   UNL     1      -6.611  -3.801 -34.872  1.00  0.00     0.002 A 
ENDBRANCH   5   7
ENDBRANCH   1   5
BRANCH   2  17
HETATM   17  C   UNL     1      -6.079   4.273 -31.885  1.00  0.00     0.084 A 
HETATM   18  C   UNL     1      -5.013   5.050 -31.449  1.00  0.00     0.180 A 
HETATM   19  N   UNL     1      -4.960   5.618 -30.218  1.00  0.00    -0.236 NA
HETATM   20  C   UNL     1      -6.035   5.435 -29.418  1.00  0.00     0.119 A 
HETATM   21  C   UNL     1      -7.156   4.704 -29.782  1.00  0.00     0.020 A 
HETATM   22  C   UNL     1      -7.181   4.116 -31.043  1.00  0.00     0.023 A 
BRANCH  18  23
HETATM   23  O   UNL     1      -3.905   5.173 -32.260  1.00  0.00    -0.328 OA
BRANCH  23  24
HETATM   24  C   UNL     1      -2.686   5.377 -31.535  1.00  0.00     0.248 C 
BRANCH  24  25
HETATM   25  C   UNL     1      -1.471   4.875 -32.298  1.00  0.00     0.377 C 
HETATM   26  F   UNL     1      -1.867   4.352 -33.492  1.00  0.00    -0.212 F 
HETATM   27  F   UNL     1      -0.659   5.923 -32.599  1.00  0.00    -0.212 F 
ENDBRANCH  24  25
ENDBRANCH  23  24
ENDBRANCH  18  23
ENDBRANCH   2  17
TORSDOF 6
ENDMDL
