MODEL 1
REMARK VINA RESULT:      -9.3      0.000      0.000
REMARK  4 active torsions:
REMARK  status: ('A' for Active; 'I' for Inactive)
REMARK    1  A    between atoms: C_2  and  C_3 
REMARK    2  A    between atoms: C_3  and  N_4 
REMARK    3  A    between atoms: C_3  and  C_18 
REMARK       I    between atoms: N_4  and  C_5 
REMARK    4  A    between atoms: C_5  and  C_6 
ROOT
HETATM    1  N   UNL     1      -4.905   3.152 -31.826  1.00  0.00    -0.344 N 
HETATM    2  C   UNL     1      -3.538   3.202 -31.746  1.00  0.00     0.273 C 
HETATM    3  O   UNL     1      -2.846   2.356 -31.207  1.00  0.00    -0.266 OA
HETATM    4  H   UNL     1      -5.386   3.945 -32.249  1.00  0.00     0.163 HD
ENDROOT
BRANCH   1   5
HETATM    5  C   UNL     1      -5.722   2.109 -31.246  1.00  0.00     0.158 C 
BRANCH   5   6
HETATM    6  C   UNL     1      -7.210   2.509 -31.055  1.00  0.00     0.008 C 
HETATM    7  C   UNL     1      -7.728   3.480 -32.124  1.00  0.00     0.012 C 
HETATM    8  C   UNL     1      -7.478   3.092 -29.664  1.00  0.00     0.012 C 
ENDBRANCH   5   6
BRANCH   5   9
HETATM    9  C   UNL     1      -5.600   0.912 -32.151  1.00  0.00     0.128 A 
HETATM   10  N   UNL     1      -6.396   0.599 -33.159  1.00  0.00    -0.231 NA
HETATM   11  C   UNL     1      -5.912  -0.586 -33.658  1.00  0.00     0.085 A 
HETATM   12  C   UNL     1      -4.790  -1.001 -32.950  1.00  0.00     0.062 A 
HETATM   13  C   UNL     1      -6.386  -1.372 -34.717  1.00  0.00     0.034 A 
HETATM   14  N   UNL     1      -4.605  -0.024 -32.006  1.00  0.00    -0.341 N 
HETATM   15  C   UNL     1      -4.096  -2.178 -33.238  1.00  0.00     0.032 A 
HETATM   16  H   UNL     1      -3.870  -0.005 -31.314  1.00  0.00     0.167 HD
HETATM   17  C   UNL     1      -4.585  -2.953 -34.297  1.00  0.00     0.002 A 
HETATM   18  C   UNL     1      -5.710  -2.560 -35.026  1.00  0.00     0.002 A 
ENDBRANCH   5   9
ENDBRANCH   1   5
BRANCH   2  19
HETATM   19  C   UNL     1      -2.941   4.467 -32.388  1.00  0.00     0.155 A 
HETATM   20  N   UNL     1      -3.573   4.903 -33.445  1.00  0.00    -0.166 NA
HETATM   21  N   UNL     1      -3.107   6.019 -34.067  1.00  0.00    -0.242 N 
HETATM   22  C   UNL     1      -2.024   6.766 -33.679  1.00  0.00     0.272 A 
HETATM   23  H   UNL     1      -3.618   6.332 -34.887  1.00  0.00     0.192 HD
HETATM   24  O   UNL     1      -1.670   7.772 -34.283  1.00  0.00    -0.266 OA
HETATM   25  C   UNL     1      -1.300   6.286 -32.490  1.00  0.00     0.046 A 
HETATM   26  C   UNL     1      -1.735   5.130 -31.838  1.00  0.00     0.016 A 
HETATM   27  C   UNL     1      -0.177   6.990 -32.034  1.00  0.00     0.018 A 
HETATM   28  C   UNL     1      -1.016   4.672 -30.727  1.00  0.00     0.015 A 
HETATM   29  C   UNL     1       0.104   5.376 -30.268  1.00  0.00     0.001 A 
HETATM   30  C   UNL     1       0.522   6.535 -30.919  1.00  0.00     0.001 A 
ENDBRANCH   2  19
TORSDOF 4
ENDMDL
MODEL 2
REMARK VINA RESULT:      -9.1      3.822      7.026
REMARK  4 active torsions:
REMARK  status: ('A' for Active; 'I' for Inactive)
REMARK    1  A    between atoms: C_2  and  C_3 
REMARK    2  A    between atoms: C_3  and  N_4 
REMARK    3  A    between atoms: C_3  and  C_18 
REMARK       I    between atoms: N_4  and  C_5 
REMARK    4  A    between atoms: C_5  and  C_6 
ROOT
HETATM    1  N   UNL     1      -6.448   2.553 -32.729  1.00  0.00    -0.344 N 
HETATM    2  C   UNL     1      -6.462   1.680 -31.673  1.00  0.00     0.273 C 
HETATM    3  O   UNL     1      -7.175   1.794 -30.692  1.00  0.00    -0.266 OA
HETATM    4  H   UNL     1      -5.767   2.392 -33.471  1.00  0.00     0.163 HD
ENDROOT
BRANCH   1   5
HETATM    5  C   UNL     1      -7.250   3.754 -32.810  1.00  0.00     0.158 C 
BRANCH   5   6
HETATM    6  C   UNL     1      -6.573   4.910 -33.596  1.00  0.00     0.008 C 
HETATM    7  C   UNL     1      -5.235   4.517 -34.237  1.00  0.00     0.012 C 
HETATM    8  C   UNL     1      -6.376   6.159 -32.732  1.00  0.00     0.012 C 
ENDBRANCH   5   6
BRANCH   5   9
HETATM    9  C   UNL     1      -8.553   3.360 -33.452  1.00  0.00     0.128 A 
HETATM   10  N   UNL     1      -9.253   4.069 -34.322  1.00  0.00    -0.231 NA
HETATM   11  C   UNL     1     -10.373   3.322 -34.591  1.00  0.00     0.085 A 
HETATM   12  C   UNL     1     -10.355   2.127 -33.883  1.00  0.00     0.062 A 
HETATM   13  C   UNL     1     -11.458   3.606 -35.433  1.00  0.00     0.034 A 
HETATM   14  N   UNL     1      -9.180   2.169 -33.177  1.00  0.00    -0.341 N 
HETATM   15  C   UNL     1     -11.374   1.175 -33.962  1.00  0.00     0.032 A 
HETATM   16  H   UNL     1      -8.843   1.453 -32.550  1.00  0.00     0.167 HD
HETATM   17  C   UNL     1     -12.451   1.476 -34.804  1.00  0.00     0.002 A 
HETATM   18  C   UNL     1     -12.496   2.670 -35.528  1.00  0.00     0.002 A 
ENDBRANCH   5   9
ENDBRANCH   1   5
BRANCH   2  19
HETATM   19  C   UNL     1      -5.449   0.531 -31.825  1.00  0.00     0.155 A 
HETATM   20  N   UNL     1      -4.471   0.537 -30.959  1.00  0.00    -0.166 NA
HETATM   21  N   UNL     1      -3.537  -0.449 -31.027  1.00  0.00    -0.242 N 
HETATM   22  C   UNL     1      -3.523  -1.487 -31.924  1.00  0.00     0.272 A 
HETATM   23  H   UNL     1      -2.788  -0.417 -30.342  1.00  0.00     0.192 HD
HETATM   24  O   UNL     1      -2.652  -2.349 -31.916  1.00  0.00    -0.266 OA
HETATM   25  C   UNL     1      -4.618  -1.505 -32.909  1.00  0.00     0.046 A 
HETATM   26  C   UNL     1      -5.583  -0.496 -32.885  1.00  0.00     0.016 A 
HETATM   27  C   UNL     1      -4.670  -2.528 -33.865  1.00  0.00     0.018 A 
HETATM   28  C   UNL     1      -6.600  -0.513 -33.848  1.00  0.00     0.015 A 
HETATM   29  C   UNL     1      -6.656  -1.537 -34.801  1.00  0.00     0.001 A 
HETATM   30  C   UNL     1      -5.694  -2.545 -34.809  1.00  0.00     0.001 A 
ENDBRANCH   2  19
TORSDOF 4
ENDMDL
MODEL 3
REMARK VINA RESULT:      -9.1      2.211      7.976
REMARK  4 active torsions:
REMARK  status: ('A' for Active; 'I' for Inactive)
REMARK    1  A    between atoms: C_2  and  C_3 
REMARK    2  A    between atoms: C_3  and  N_4 
REMARK    3  A    between atoms: C_3  and  C_18 
REMARK       I    between atoms: N_4  and  C_5 
REMARK    4  A    between atoms: C_5  and  C_6 
ROOT
HETATM    1  N   UNL     1      -3.571   3.555 -32.795  1.00  0.00    -0.344 N 
HETATM    2  C   UNL     1      -3.837   2.487 -31.978  1.00  0.00     0.273 C 
HETATM    3  O   UNL     1      -2.986   1.818 -31.417  1.00  0.00    -0.266 OA
HETATM    4  H   UNL     1      -4.360   4.006 -33.258  1.00  0.00     0.163 HD
ENDROOT
BRANCH   1   5
HETATM    5  C   UNL     1      -2.244   4.014 -33.138  1.00  0.00     0.158 C 
BRANCH   5   6
HETATM    6  C   UNL     1      -2.179   4.811 -34.470  1.00  0.00     0.008 C 
HETATM    7  C   UNL     1      -1.165   5.961 -34.449  1.00  0.00     0.012 C 
HETATM    8  C   UNL     1      -3.551   5.348 -34.888  1.00  0.00     0.012 C 
ENDBRANCH   5   6
BRANCH   5   9
HETATM    9  C   UNL     1      -1.767   4.856 -31.984  1.00  0.00     0.128 A 
HETATM   10  N   UNL     1      -0.603   4.764 -31.365  1.00  0.00    -0.231 NA
HETATM   11  C   UNL     1      -0.639   5.705 -30.366  1.00  0.00     0.085 A 
HETATM   12  C   UNL     1      -1.844   6.398 -30.381  1.00  0.00     0.062 A 
HETATM   13  C   UNL     1       0.325   6.024 -29.400  1.00  0.00     0.034 A 
HETATM   14  N   UNL     1      -2.538   5.848 -31.428  1.00  0.00    -0.341 N 
HETATM   15  C   UNL     1      -2.156   7.410 -29.471  1.00  0.00     0.032 A 
HETATM   16  H   UNL     1      -3.464   6.117 -31.728  1.00  0.00     0.167 HD
HETATM   17  C   UNL     1      -1.184   7.713 -28.511  1.00  0.00     0.002 A 
HETATM   18  C   UNL     1       0.037   7.034 -28.473  1.00  0.00     0.002 A 
ENDBRANCH   5   9
ENDBRANCH   1   5
BRANCH   2  19
HETATM   19  C   UNL     1      -5.340   2.180 -31.853  1.00  0.00     0.155 A 
HETATM   20  N   UNL     1      -6.001   2.971 -31.051  1.00  0.00    -0.166 NA
HETATM   21  N   UNL     1      -7.336   2.765 -30.890  1.00  0.00    -0.242 N 
HETATM   22  C   UNL     1      -8.084   1.798 -31.512  1.00  0.00     0.272 A 
HETATM   23  H   UNL     1      -7.822   3.395 -30.259  1.00  0.00     0.192 HD
HETATM   24  O   UNL     1      -9.290   1.681 -31.327  1.00  0.00    -0.266 OA
HETATM   25  C   UNL     1      -7.351   0.896 -32.417  1.00  0.00     0.046 A 
HETATM   26  C   UNL     1      -5.975   1.062 -32.590  1.00  0.00     0.016 A 
HETATM   27  C   UNL     1      -8.042  -0.124 -33.085  1.00  0.00     0.018 A 
HETATM   28  C   UNL     1      -5.290   0.177 -33.431  1.00  0.00     0.015 A 
HETATM   29  C   UNL     1      -5.980  -0.840 -34.102  1.00  0.00     0.001 A 
HETATM   30  C   UNL     1      -7.355  -0.990 -33.931  1.00  0.00     0.001 A 
ENDBRANCH   2  19
TORSDOF 4
ENDMDL
MODEL 4
REMARK VINA RESULT:      -8.9      2.889      7.419
REMARK  4 active torsions:
REMARK  status: ('A' for Active; 'I' for Inactive)
REMARK    1  A    between atoms: C_2  and  C_3 
REMARK    2  A    between atoms: C_3  and  N_4 
REMARK    3  A    between atoms: C_3  and  C_18 
REMARK       I    between atoms: N_4  and  C_5 
REMARK    4  A    between atoms: C_5  and  C_6 
ROOT
HETATM    1  N   UNL     1      -6.732   0.217 -33.310  1.00  0.00    -0.344 N 
HETATM    2  C   UNL     1      -6.566  -0.343 -34.550  1.00  0.00     0.273 C 
HETATM    3  O   UNL     1      -6.817   0.221 -35.602  1.00  0.00    -0.266 OA
HETATM    4  H   UNL     1      -6.545  -0.368 -32.496  1.00  0.00     0.163 HD
ENDROOT
BRANCH   1   5
HETATM    5  C   UNL     1      -7.268   1.539 -33.073  1.00  0.00     0.158 C 
BRANCH   5   6
HETATM    6  C   UNL     1      -8.000   1.685 -31.712  1.00  0.00     0.008 C 
HETATM    7  C   UNL     1      -9.165   0.702 -31.532  1.00  0.00     0.012 C 
HETATM    8  C   UNL     1      -8.497   3.114 -31.473  1.00  0.00     0.012 C 
ENDBRANCH   5   6
BRANCH   5   9
HETATM    9  C   UNL     1      -6.108   2.496 -33.164  1.00  0.00     0.128 A 
HETATM   10  N   UNL     1      -6.001   3.533 -33.976  1.00  0.00    -0.231 NA
HETATM   11  C   UNL     1      -4.765   4.075 -33.723  1.00  0.00     0.085 A 
HETATM   12  C   UNL     1      -4.106   3.364 -32.728  1.00  0.00     0.062 A 
HETATM   13  C   UNL     1      -4.133   5.179 -34.312  1.00  0.00     0.034 A 
HETATM   14  N   UNL     1      -4.988   2.373 -32.380  1.00  0.00    -0.341 N 
HETATM   15  C   UNL     1      -2.827   3.691 -32.272  1.00  0.00     0.032 A 
HETATM   16  H   UNL     1      -4.831   1.665 -31.677  1.00  0.00     0.167 HD
HETATM   17  C   UNL     1      -2.209   4.794 -32.874  1.00  0.00     0.002 A 
HETATM   18  C   UNL     1      -2.848   5.528 -33.876  1.00  0.00     0.002 A 
ENDBRANCH   5   9
ENDBRANCH   1   5
BRANCH   2  19
HETATM   19  C   UNL     1      -6.049  -1.791 -34.496  1.00  0.00     0.155 A 
HETATM   20  N   UNL     1      -6.664  -2.628 -35.288  1.00  0.00    -0.166 NA
HETATM   21  N   UNL     1      -6.262  -3.928 -35.299  1.00  0.00    -0.242 N 
HETATM   22  C   UNL     1      -5.239  -4.462 -34.557  1.00  0.00     0.272 A 
HETATM   23  H   UNL     1      -6.760  -4.555 -35.924  1.00  0.00     0.192 HD
HETATM   24  O   UNL     1      -4.925  -5.644 -34.630  1.00  0.00    -0.266 OA
HETATM   25  C   UNL     1      -4.539  -3.531 -33.657  1.00  0.00     0.046 A 
HETATM   26  C   UNL     1      -4.938  -2.194 -33.601  1.00  0.00     0.016 A 
HETATM   27  C   UNL     1      -3.487  -4.002 -32.859  1.00  0.00     0.018 A 
HETATM   28  C   UNL     1      -4.279  -1.330 -32.718  1.00  0.00     0.015 A 
HETATM   29  C   UNL     1      -3.226  -1.798 -31.923  1.00  0.00     0.001 A 
HETATM   30  C   UNL     1      -2.828  -3.131 -31.995  1.00  0.00     0.001 A 
ENDBRANCH   2  19
TORSDOF 4
ENDMDL
MODEL 5
REMARK VINA RESULT:      -8.9      2.123      7.854
REMARK  4 active torsions:
REMARK  status: ('A' for Active; 'I' for Inactive)
REMARK    1  A    between atoms: C_2  and  C_3 
REMARK    2  A    between atoms: C_3  and  N_4 
REMARK    3  A    between atoms: C_3  and  C_18 
REMARK       I    between atoms: N_4  and  C_5 
REMARK    4  A    between atoms: C_5  and  C_6 
ROOT
HETATM    1  N   UNL     1      -4.303   2.744 -31.719  1.00  0.00    -0.344 N 
HETATM    2  C   UNL     1      -4.887   1.877 -32.606  1.00  0.00     0.273 C 
HETATM    3  O   UNL     1      -5.752   2.187 -33.407  1.00  0.00    -0.266 OA
HETATM    4  H   UNL     1      -3.632   2.362 -31.053  1.00  0.00     0.163 HD
ENDROOT
BRANCH   1   5
HETATM    5  C   UNL     1      -4.659   4.139 -31.581  1.00  0.00     0.158 C 
BRANCH   5   6
HETATM    6  C   UNL     1      -5.732   4.409 -30.490  1.00  0.00     0.008 C 
HETATM    7  C   UNL     1      -6.203   3.142 -29.764  1.00  0.00     0.012 C 
HETATM    8  C   UNL     1      -6.945   5.158 -31.046  1.00  0.00     0.012 C 
ENDBRANCH   5   6
BRANCH   5   9
HETATM    9  C   UNL     1      -3.385   4.881 -31.276  1.00  0.00     0.128 A 
HETATM   10  N   UNL     1      -2.201   4.680 -31.830  1.00  0.00    -0.231 NA
HETATM   11  C   UNL     1      -1.349   5.561 -31.211  1.00  0.00     0.085 A 
HETATM   12  C   UNL     1      -2.026   6.326 -30.268  1.00  0.00     0.062 A 
HETATM   13  C   UNL     1       0.025   5.762 -31.401  1.00  0.00     0.034 A 
HETATM   14  N   UNL     1      -3.322   5.883 -30.340  1.00  0.00    -0.341 N 
HETATM   15  C   UNL     1      -1.404   7.301 -29.485  1.00  0.00     0.032 A 
HETATM   16  H   UNL     1      -4.093   6.226 -29.786  1.00  0.00     0.167 HD
HETATM   17  C   UNL     1      -0.031   7.486 -29.685  1.00  0.00     0.002 A 
HETATM   18  C   UNL     1       0.675   6.731 -30.626  1.00  0.00     0.002 A 
ENDBRANCH   5   9
ENDBRANCH   1   5
BRANCH   2  19
HETATM   19  C   UNL     1      -4.364   0.436 -32.477  1.00  0.00     0.155 A 
HETATM   20  N   UNL     1      -3.407   0.271 -31.603  1.00  0.00    -0.166 NA
HETATM   21  N   UNL     1      -2.893  -0.976 -31.429  1.00  0.00    -0.242 N 
HETATM   22  C   UNL     1      -3.298  -2.114 -32.081  1.00  0.00     0.272 A 
HETATM   23  H   UNL     1      -2.149  -1.073 -30.745  1.00  0.00     0.192 HD
HETATM   24  O   UNL     1      -2.795  -3.210 -31.862  1.00  0.00    -0.266 OA
HETATM   25  C   UNL     1      -4.374  -1.942 -33.072  1.00  0.00     0.046 A 
HETATM   26  C   UNL     1      -4.911  -0.673 -33.294  1.00  0.00     0.016 A 
HETATM   27  C   UNL     1      -4.839  -3.055 -33.786  1.00  0.00     0.018 A 
HETATM   28  C   UNL     1      -5.913  -0.524 -34.261  1.00  0.00     0.015 A 
HETATM   29  C   UNL     1      -6.381  -1.635 -34.972  1.00  0.00     0.001 A 
HETATM   30  C   UNL     1      -5.847  -2.900 -34.734  1.00  0.00     0.001 A 
ENDBRANCH   2  19
TORSDOF 4
ENDMDL
MODEL 6
REMARK VINA RESULT:      -8.9      2.200      7.908
REMARK  4 active torsions:
REMARK  status: ('A' for Active; 'I' for Inactive)
REMARK    1  A    between atoms: C_2  and  C_3 
REMARK    2  A    between atoms: C_3  and  N_4 
REMARK    3  A    between atoms: C_3  and  C_18 
REMARK       I    between atoms: N_4  and  C_5 
REMARK    4  A    between atoms: C_5  and  C_6 
ROOT
HETATM    1  N   UNL     1      -4.752   1.663 -32.672  1.00  0.00    -0.344 N 
HETATM    2  C   UNL     1      -5.200   0.545 -33.325  1.00  0.00     0.273 C 
HETATM    3  O   UNL     1      -6.104   0.538 -34.143  1.00  0.00    -0.266 OA
HETATM    4  H   UNL     1      -4.028   1.542 -31.964  1.00  0.00     0.163 HD
ENDROOT
BRANCH   1   5
HETATM    5  C   UNL     1      -5.314   2.986 -32.831  1.00  0.00     0.158 C 
BRANCH   5   6
HETATM    6  C   UNL     1      -6.369   3.354 -31.752  1.00  0.00     0.008 C 
HETATM    7  C   UNL     1      -6.205   2.575 -30.440  1.00  0.00     0.012 C 
HETATM    8  C   UNL     1      -7.802   3.190 -32.266  1.00  0.00     0.012 C 
ENDBRANCH   5   6
BRANCH   5   9
HETATM    9  C   UNL     1      -4.159   3.952 -32.804  1.00  0.00     0.128 A 
HETATM   10  N   UNL     1      -3.212   4.026 -31.885  1.00  0.00    -0.231 NA
HETATM   11  C   UNL     1      -2.410   5.074 -32.265  1.00  0.00     0.085 A 
HETATM   12  C   UNL     1      -2.867   5.646 -33.446  1.00  0.00     0.062 A 
HETATM   13  C   UNL     1      -1.269   5.600 -31.643  1.00  0.00     0.034 A 
HETATM   14  N   UNL     1      -3.973   4.905 -33.775  1.00  0.00    -0.341 N 
HETATM   15  C   UNL     1      -2.244   6.735 -34.060  1.00  0.00     0.032 A 
HETATM   16  H   UNL     1      -4.558   5.047 -34.586  1.00  0.00     0.167 HD
HETATM   17  C   UNL     1      -1.109   7.250 -33.424  1.00  0.00     0.002 A 
HETATM   18  C   UNL     1      -0.626   6.694 -32.236  1.00  0.00     0.002 A 
ENDBRANCH   5   9
ENDBRANCH   1   5
BRANCH   2  19
HETATM   19  C   UNL     1      -4.464  -0.739 -32.901  1.00  0.00     0.155 A 
HETATM   20  N   UNL     1      -3.599  -0.587 -31.934  1.00  0.00    -0.166 NA
HETATM   21  N   UNL     1      -2.910  -1.677 -31.502  1.00  0.00    -0.242 N 
HETATM   22  C   UNL     1      -3.045  -2.957 -31.977  1.00  0.00     0.272 A 
HETATM   23  H   UNL     1      -2.243  -1.528 -30.751  1.00  0.00     0.192 HD
HETATM   24  O   UNL     1      -2.396  -3.895 -31.527  1.00  0.00    -0.266 OA
HETATM   25  C   UNL     1      -4.014  -3.143 -33.070  1.00  0.00     0.046 A 
HETATM   26  C   UNL     1      -4.724  -2.043 -33.555  1.00  0.00     0.016 A 
HETATM   27  C   UNL     1      -4.204  -4.420 -33.614  1.00  0.00     0.018 A 
HETATM   28  C   UNL     1      -5.620  -2.234 -34.614  1.00  0.00     0.015 A 
HETATM   29  C   UNL     1      -5.814  -3.509 -35.157  1.00  0.00     0.001 A 
HETATM   30  C   UNL     1      -5.109  -4.602 -34.657  1.00  0.00     0.001 A 
ENDBRANCH   2  19
TORSDOF 4
ENDMDL
MODEL 7
REMARK VINA RESULT:      -8.7      3.691      5.605
REMARK  4 active torsions:
REMARK  status: ('A' for Active; 'I' for Inactive)
REMARK    1  A    between atoms: C_2  and  C_3 
REMARK    2  A    between atoms: C_3  and  N_4 
REMARK    3  A    between atoms: C_3  and  C_18 
REMARK       I    between atoms: N_4  and  C_5 
REMARK    4  A    between atoms: C_5  and  C_6 
ROOT
HETATM    1  N   UNL     1      -2.507   5.806 -30.341  1.00  0.00    -0.344 N 
HETATM    2  C   UNL     1      -2.761   7.112 -30.012  1.00  0.00     0.273 C 
HETATM    3  O   UNL     1      -3.113   7.968 -30.805  1.00  0.00    -0.266 OA
HETATM    4  H   UNL     1      -2.161   5.190 -29.607  1.00  0.00     0.163 HD
ENDROOT
BRANCH   1   5
HETATM    5  C   UNL     1      -2.583   5.269 -31.682  1.00  0.00     0.158 C 
BRANCH   5   6
HETATM    6  C   UNL     1      -1.212   5.201 -32.409  1.00  0.00     0.008 C 
HETATM    7  C   UNL     1      -0.008   5.298 -31.463  1.00  0.00     0.012 C 
HETATM    8  C   UNL     1      -1.086   6.262 -33.505  1.00  0.00     0.012 C 
ENDBRANCH   5   6
BRANCH   5   9
HETATM    9  C   UNL     1      -3.197   3.900 -31.564  1.00  0.00     0.128 A 
HETATM   10  N   UNL     1      -2.859   2.820 -32.248  1.00  0.00    -0.231 NA
HETATM   11  C   UNL     1      -3.715   1.832 -31.826  1.00  0.00     0.085 A 
HETATM   12  C   UNL     1      -4.587   2.312 -30.856  1.00  0.00     0.062 A 
HETATM   13  C   UNL     1      -3.809   0.494 -32.233  1.00  0.00     0.034 A 
HETATM   14  N   UNL     1      -4.227   3.626 -30.698  1.00  0.00    -0.341 N 
HETATM   15  C   UNL     1      -5.570   1.524 -30.253  1.00  0.00     0.032 A 
HETATM   16  H   UNL     1      -4.658   4.283 -30.064  1.00  0.00     0.167 HD
HETATM   17  C   UNL     1      -5.653   0.192 -30.675  1.00  0.00     0.002 A 
HETATM   18  C   UNL     1      -4.789  -0.318 -31.648  1.00  0.00     0.002 A 
ENDBRANCH   5   9
ENDBRANCH   1   5
BRANCH   2  19
HETATM   19  C   UNL     1      -2.526   7.417 -28.522  1.00  0.00     0.155 A 
HETATM   20  N   UNL     1      -3.591   7.345 -27.769  1.00  0.00    -0.166 NA
HETATM   21  N   UNL     1      -3.464   7.599 -26.438  1.00  0.00    -0.242 N 
HETATM   22  C   UNL     1      -2.299   7.912 -25.784  1.00  0.00     0.272 A 
HETATM   23  H   UNL     1      -4.309   7.537 -25.879  1.00  0.00     0.192 HD
HETATM   24  O   UNL     1      -2.260   8.115 -24.576  1.00  0.00    -0.266 OA
HETATM   25  C   UNL     1      -1.091   8.000 -26.622  1.00  0.00     0.046 A 
HETATM   26  C   UNL     1      -1.186   7.769 -27.996  1.00  0.00     0.016 A 
HETATM   27  C   UNL     1       0.137   8.323 -26.030  1.00  0.00     0.018 A 
HETATM   28  C   UNL     1      -0.032   7.885 -28.780  1.00  0.00     0.015 A 
HETATM   29  C   UNL     1       1.196   8.205 -28.190  1.00  0.00     0.001 A 
HETATM   30  C   UNL     1       1.282   8.421 -26.816  1.00  0.00     0.001 A 
ENDBRANCH   2  19
TORSDOF 4
ENDMDL
MODEL 8
REMARK VINA RESULT:      -8.7     17.203     18.626
REMARK  4 active torsions:
REMARK  status: ('A' for Active; 'I' for Inactive)
REMARK    1  A    between atoms: C_2  and  C_3 
REMARK    2  A    between atoms: C_3  and  N_4 
REMARK    3  A    between atoms: C_3  and  C_18 
REMARK       I    between atoms: N_4  and  C_5 
REMARK    4  A    between atoms: C_5  and  C_6 
ROOT
HETATM    1  N   UNL     1      -3.839 -13.579 -39.442  1.00  0.00    -0.344 N 
HETATM    2  C   UNL     1      -3.245 -12.840 -38.451  1.00  0.00     0.273 C 
HETATM    3  O   UNL     1      -3.270 -11.623 -38.388  1.00  0.00    -0.266 OA
HETATM    4  H   UNL     1      -3.704 -14.589 -39.426  1.00  0.00     0.163 HD
ENDROOT
BRANCH   1   5
HETATM    5  C   UNL     1      -4.544 -13.016 -40.572  1.00  0.00     0.158 C 
BRANCH   5   6
HETATM    6  C   UNL     1      -4.284 -13.763 -41.909  1.00  0.00     0.008 C 
HETATM    7  C   UNL     1      -5.368 -14.791 -42.259  1.00  0.00     0.012 C 
HETATM    8  C   UNL     1      -2.912 -14.441 -41.935  1.00  0.00     0.012 C 
ENDBRANCH   5   6
BRANCH   5   9
HETATM    9  C   UNL     1      -6.008 -13.037 -40.220  1.00  0.00     0.128 A 
HETATM   10  N   UNL     1      -6.611 -13.876 -39.395  1.00  0.00    -0.231 NA
HETATM   11  C   UNL     1      -7.940 -13.531 -39.424  1.00  0.00     0.085 A 
HETATM   12  C   UNL     1      -8.155 -12.453 -40.273  1.00  0.00     0.062 A 
HETATM   13  C   UNL     1      -9.028 -14.101 -38.749  1.00  0.00     0.034 A 
HETATM   14  N   UNL     1      -6.907 -12.149 -40.757  1.00  0.00    -0.341 N 
HETATM   15  C   UNL     1      -9.415 -11.895 -40.499  1.00  0.00     0.032 A 
HETATM   16  H   UNL     1      -6.692 -11.408 -41.408  1.00  0.00     0.167 HD
HETATM   17  C   UNL     1     -10.491 -12.479 -39.820  1.00  0.00     0.002 A 
HETATM   18  C   UNL     1     -10.304 -13.564 -38.959  1.00  0.00     0.002 A 
ENDBRANCH   5   9
ENDBRANCH   1   5
BRANCH   2  19
HETATM   19  C   UNL     1      -2.499 -13.703 -37.418  1.00  0.00     0.155 A 
HETATM   20  N   UNL     1      -3.150 -13.920 -36.306  1.00  0.00    -0.166 NA
HETATM   21  N   UNL     1      -2.558 -14.677 -35.343  1.00  0.00    -0.242 N 
HETATM   22  C   UNL     1      -1.322 -15.268 -35.428  1.00  0.00     0.272 A 
HETATM   23  H   UNL     1      -3.086 -14.826 -34.489  1.00  0.00     0.192 HD
HETATM   24  O   UNL     1      -0.858 -15.950 -34.522  1.00  0.00    -0.266 OA
HETATM   25  C   UNL     1      -0.576 -15.030 -36.675  1.00  0.00     0.046 A 
HETATM   26  C   UNL     1      -1.142 -14.239 -37.677  1.00  0.00     0.016 A 
HETATM   27  C   UNL     1       0.697 -15.593 -36.836  1.00  0.00     0.018 A 
HETATM   28  C   UNL     1      -0.405 -14.000 -38.844  1.00  0.00     0.015 A 
HETATM   29  C   UNL     1       0.865 -14.564 -39.007  1.00  0.00     0.001 A 
HETATM   30  C   UNL     1       1.416 -15.362 -38.006  1.00  0.00     0.001 A 
ENDBRANCH   2  19
TORSDOF 4
ENDMDL
MODEL 9
REMARK VINA RESULT:      -8.6      2.839      8.501
REMARK  4 active torsions:
REMARK  status: ('A' for Active; 'I' for Inactive)
REMARK    1  A    between atoms: C_2  and  C_3 
REMARK    2  A    between atoms: C_3  and  N_4 
REMARK    3  A    between atoms: C_3  and  C_18 
REMARK       I    between atoms: N_4  and  C_5 
REMARK    4  A    between atoms: C_5  and  C_6 
ROOT
HETATM    1  N   UNL     1      -2.305   5.245 -31.058  1.00  0.00    -0.344 N 
HETATM    2  C   UNL     1      -2.820   4.112 -31.631  1.00  0.00     0.273 C 
HETATM    3  O   UNL     1      -2.264   3.463 -32.501  1.00  0.00    -0.266 OA
HETATM    4  H   UNL     1      -2.884   5.741 -30.381  1.00  0.00     0.163 HD
ENDROOT
BRANCH   1   5
HETATM    5  C   UNL     1      -1.047   5.853 -31.432  1.00  0.00     0.158 C 
BRANCH   5   6
HETATM    6  C   UNL     1      -1.178   6.941 -32.533  1.00  0.00     0.008 C 
HETATM    7  C   UNL     1      -2.416   7.832 -32.372  1.00  0.00     0.012 C 
HETATM    8  C   UNL     1      -1.160   6.343 -33.942  1.00  0.00     0.012 C 
ENDBRANCH   5   6
BRANCH   5   9
HETATM    9  C   UNL     1      -0.456   6.430 -30.173  1.00  0.00     0.128 A 
HETATM   10  N   UNL     1       0.393   7.440 -30.089  1.00  0.00    -0.231 NA
HETATM   11  C   UNL     1       0.673   7.578 -28.752  1.00  0.00     0.085 A 
HETATM   12  C   UNL     1      -0.028   6.643 -27.999  1.00  0.00     0.062 A 
HETATM   13  C   UNL     1       1.525   8.482 -28.103  1.00  0.00     0.034 A 
HETATM   14  N   UNL     1      -0.749   5.934 -28.927  1.00  0.00    -0.341 N 
HETATM   15  C   UNL     1       0.070   6.550 -26.610  1.00  0.00     0.032 A 
HETATM   16  H   UNL     1      -1.376   5.168 -28.726  1.00  0.00     0.167 HD
HETATM   17  C   UNL     1       0.928   7.458 -25.978  1.00  0.00     0.002 A 
HETATM   18  C   UNL     1       1.644   8.410 -26.709  1.00  0.00     0.002 A 
ENDBRANCH   5   9
ENDBRANCH   1   5
BRANCH   2  19
HETATM   19  C   UNL     1      -4.212   3.739 -31.089  1.00  0.00     0.155 A 
HETATM   20  N   UNL     1      -4.921   4.744 -30.649  1.00  0.00    -0.166 NA
HETATM   21  N   UNL     1      -6.164   4.495 -30.156  1.00  0.00    -0.242 N 
HETATM   22  C   UNL     1      -6.774   3.267 -30.087  1.00  0.00     0.272 A 
HETATM   23  H   UNL     1      -6.692   5.295 -29.820  1.00  0.00     0.192 HD
HETATM   24  O   UNL     1      -7.906   3.121 -29.640  1.00  0.00    -0.266 OA
HETATM   25  C   UNL     1      -5.984   2.125 -30.576  1.00  0.00     0.046 A 
HETATM   26  C   UNL     1      -4.695   2.338 -31.069  1.00  0.00     0.016 A 
HETATM   27  C   UNL     1      -6.533   0.836 -30.532  1.00  0.00     0.018 A 
HETATM   28  C   UNL     1      -3.948   1.236 -31.502  1.00  0.00     0.015 A 
HETATM   29  C   UNL     1      -4.497  -0.051 -31.462  1.00  0.00     0.001 A 
HETATM   30  C   UNL     1      -5.789  -0.252 -30.980  1.00  0.00     0.001 A 
ENDBRANCH   2  19
TORSDOF 4
ENDMDL
MODEL 10
REMARK VINA RESULT:      -8.6      3.563      6.367
REMARK  4 active torsions:
REMARK  status: ('A' for Active; 'I' for Inactive)
REMARK    1  A    between atoms: C_2  and  C_3 
REMARK    2  A    between atoms: C_3  and  N_4 
REMARK    3  A    between atoms: C_3  and  C_18 
REMARK       I    between atoms: N_4  and  C_5 
REMARK    4  A    between atoms: C_5  and  C_6 
ROOT
HETATM    1  N   UNL     1      -6.503   1.103 -32.981  1.00  0.00    -0.344 N 
HETATM    2  C   UNL     1      -6.966   2.186 -33.682  1.00  0.00     0.273 C 
HETATM    3  O   UNL     1      -6.256   2.975 -34.282  1.00  0.00    -0.266 OA
HETATM    4  H   UNL     1      -7.183   0.544 -32.468  1.00  0.00     0.163 HD
ENDROOT
BRANCH   1   5
HETATM    5  C   UNL     1      -5.105   0.767 -32.822  1.00  0.00     0.158 C 
BRANCH   5   6
HETATM    6  C   UNL     1      -4.564   0.995 -31.384  1.00  0.00     0.008 C 
HETATM    7  C   UNL     1      -5.619   0.788 -30.290  1.00  0.00     0.012 C 
HETATM    8  C   UNL     1      -3.924   2.377 -31.221  1.00  0.00     0.012 C 
ENDBRANCH   5   6
BRANCH   5   9
HETATM    9  C   UNL     1      -4.961  -0.677 -33.227  1.00  0.00     0.128 A 
HETATM   10  N   UNL     1      -5.716  -1.335 -34.089  1.00  0.00    -0.231 NA
HETATM   11  C   UNL     1      -5.228  -2.619 -34.102  1.00  0.00     0.085 A 
HETATM   12  C   UNL     1      -4.145  -2.747 -33.241  1.00  0.00     0.062 A 
HETATM   13  C   UNL     1      -5.666  -3.737 -34.826  1.00  0.00     0.034 A 
HETATM   14  N   UNL     1      -3.987  -1.494 -32.707  1.00  0.00    -0.341 N 
HETATM   15  C   UNL     1      -3.456  -3.947 -33.051  1.00  0.00     0.032 A 
HETATM   16  H   UNL     1      -3.284  -1.224 -32.035  1.00  0.00     0.167 HD
HETATM   17  C   UNL     1      -3.909  -5.054 -33.779  1.00  0.00     0.002 A 
HETATM   18  C   UNL     1      -4.995  -4.954 -34.653  1.00  0.00     0.002 A 
ENDBRANCH   5   9
ENDBRANCH   1   5
BRANCH   2  19
HETATM   19  C   UNL     1      -8.496   2.340 -33.617  1.00  0.00     0.155 A 
HETATM   20  N   UNL     1      -9.152   1.749 -34.579  1.00  0.00    -0.166 NA
HETATM   21  N   UNL     1     -10.510   1.837 -34.588  1.00  0.00    -0.242 N 
HETATM   22  C   UNL     1     -11.283   2.484 -33.658  1.00  0.00     0.272 A 
HETATM   23  H   UNL     1     -10.992   1.369 -35.349  1.00  0.00     0.192 HD
HETATM   24  O   UNL     1     -12.506   2.510 -33.725  1.00  0.00    -0.266 OA
HETATM   25  C   UNL     1     -10.556   3.158 -32.569  1.00  0.00     0.046 A 
HETATM   26  C   UNL     1      -9.161   3.109 -32.538  1.00  0.00     0.016 A 
HETATM   27  C   UNL     1     -11.274   3.848 -31.583  1.00  0.00     0.018 A 
HETATM   28  C   UNL     1      -8.485   3.780 -31.511  1.00  0.00     0.015 A 
HETATM   29  C   UNL     1      -9.201   4.467 -30.524  1.00  0.00     0.001 A 
HETATM   30  C   UNL     1     -10.594   4.499 -30.557  1.00  0.00     0.001 A 
ENDBRANCH   2  19
TORSDOF 4
ENDMDL
