MODEL 1
REMARK VINA RESULT:      -9.2      0.000      0.000
REMARK  5 active torsions:
REMARK  status: ('A' for Active; 'I' for Inactive)
REMARK    1  A    between atoms: O_2  and  C_3 
REMARK    2  A    between atoms: C_6  and  C_7 
REMARK    3  A    between atoms: C_11  and  N_12 
REMARK       I    between atoms: N_15  and  C_16 
REMARK    4  A    between atoms: C_16  and  C_17 
REMARK    5  A    between atoms: C_17  and  C_18 
ROOT
HETATM    1  N   UNL     1      -4.186   4.511 -32.311  1.00  0.00    -0.363 N 
HETATM    2  C   UNL     1      -2.963   4.532 -31.474  1.00  0.00     0.144 C 
HETATM    3  C   UNL     1      -1.688   4.668 -32.338  1.00  0.00     0.145 C 
HETATM    4  N   UNL     1      -1.803   5.805 -33.265  1.00  0.00    -0.349 N 
HETATM    5  C   UNL     1      -1.282   7.070 -33.021  1.00  0.00     0.224 C 
HETATM    6  O   UNL     1      -1.741   8.075 -33.571  1.00  0.00    -0.273 OA
HETATM    7  C   UNL     1      -2.990   5.712 -34.126  1.00  0.00     0.145 C 
HETATM    8  C   UNL     1      -4.268   5.648 -33.266  1.00  0.00     0.144 C 
ENDROOT
BRANCH   1   9
HETATM    9  C   UNL     1      -4.772   3.319 -32.630  1.00  0.00     0.122 A 
HETATM   10  N   UNL     1      -6.117   3.108 -32.467  1.00  0.00    -0.262 N 
HETATM   11  N   UNL     1      -6.526   1.867 -32.774  1.00  0.00    -0.173 NA
HETATM   12  H   UNL     1      -6.799   3.762 -32.106  1.00  0.00     0.191 HD
HETATM   13  C   UNL     1      -5.403   1.233 -33.143  1.00  0.00     0.090 A 
HETATM   14  C   UNL     1      -4.281   2.106 -33.057  1.00  0.00     0.084 A 
BRANCH  13  15
HETATM   15  C   UNL     1      -5.412  -0.175 -33.533  1.00  0.00    -0.005 A 
HETATM   16  C   UNL     1      -6.490  -0.720 -34.240  1.00  0.00     0.016 A 
HETATM   17  C   UNL     1      -6.468  -2.063 -34.630  1.00  0.00     0.037 A 
HETATM   18  C   UNL     1      -5.371  -2.875 -34.337  1.00  0.00     0.068 A 
HETATM   19  C   UNL     1      -4.302  -2.343 -33.616  1.00  0.00     0.037 A 
HETATM   20  C   UNL     1      -4.326  -1.001 -33.214  1.00  0.00     0.016 A 
BRANCH  18  21
HETATM   21  O   UNL     1      -5.468  -4.160 -34.795  1.00  0.00    -0.356 OA
HETATM   22  C   UNL     1      -6.710  -4.534 -35.379  1.00  0.00     0.210 C 
ENDBRANCH  18  21
ENDBRANCH  13  15
ENDBRANCH   1   9
BRANCH   5  23
HETATM   23  C   UNL     1      -0.108   7.205 -32.063  1.00  0.00     0.141 C 
BRANCH  23  24
HETATM   24  C   UNL     1      -0.464   7.174 -30.592  1.00  0.00    -0.049 A 
HETATM   25  C   UNL     1       0.292   6.457 -29.651  1.00  0.00     0.009 A 
HETATM   26  C   UNL     1      -0.088   6.424 -28.307  1.00  0.00     0.019 A 
HETATM   27  C   UNL     1      -1.242   7.085 -27.897  1.00  0.00     0.011 A 
HETATM   28 BR   UNL     1      -1.763   7.027 -26.081  1.00  0.00    -0.051 Br
HETATM   29  C   UNL     1      -2.022   7.777 -28.820  1.00  0.00     0.019 A 
HETATM   30  C   UNL     1      -1.635   7.818 -30.161  1.00  0.00     0.009 A 
ENDBRANCH  23  24
ENDBRANCH   5  23
TORSDOF 5
ENDMDL
MODEL 2
REMARK VINA RESULT:      -8.8      3.744     10.259
REMARK  5 active torsions:
REMARK  status: ('A' for Active; 'I' for Inactive)
REMARK    1  A    between atoms: O_2  and  C_3 
REMARK    2  A    between atoms: C_6  and  C_7 
REMARK    3  A    between atoms: C_11  and  N_12 
REMARK       I    between atoms: N_15  and  C_16 
REMARK    4  A    between atoms: C_16  and  C_17 
REMARK    5  A    between atoms: C_17  and  C_18 
ROOT
HETATM    1  N   UNL     1      -2.225   4.383 -32.141  1.00  0.00    -0.363 N 
HETATM    2  C   UNL     1      -3.025   3.369 -31.415  1.00  0.00     0.144 C 
HETATM    3  C   UNL     1      -4.491   3.827 -31.235  1.00  0.00     0.145 C 
HETATM    4  N   UNL     1      -5.070   4.242 -32.523  1.00  0.00    -0.349 N 
HETATM    5  C   UNL     1      -5.852   3.424 -33.329  1.00  0.00     0.224 C 
HETATM    6  O   UNL     1      -5.956   3.623 -34.543  1.00  0.00    -0.273 OA
HETATM    7  C   UNL     1      -4.288   5.297 -33.179  1.00  0.00     0.145 C 
HETATM    8  C   UNL     1      -2.843   4.816 -33.423  1.00  0.00     0.144 C 
ENDROOT
BRANCH   1   9
HETATM    9  C   UNL     1      -1.436   5.254 -31.446  1.00  0.00     0.122 A 
HETATM   10  N   UNL     1      -0.073   5.276 -31.599  1.00  0.00    -0.262 N 
HETATM   11  N   UNL     1       0.562   6.150 -30.804  1.00  0.00    -0.173 NA
HETATM   12  H   UNL     1       0.483   4.683 -32.201  1.00  0.00     0.191 HD
HETATM   13  C   UNL     1      -0.421   6.720 -30.090  1.00  0.00     0.090 A 
HETATM   14  C   UNL     1      -1.687   6.177 -30.457  1.00  0.00     0.084 A 
BRANCH  13  15
HETATM   15  C   UNL     1      -0.143   7.726 -29.069  1.00  0.00    -0.005 A 
HETATM   16  C   UNL     1       1.121   7.820 -28.476  1.00  0.00     0.016 A 
HETATM   17  C   UNL     1       1.379   8.809 -27.521  1.00  0.00     0.037 A 
HETATM   18  C   UNL     1       0.390   9.724 -27.155  1.00  0.00     0.068 A 
HETATM   19  C   UNL     1      -0.878   9.623 -27.727  1.00  0.00     0.037 A 
HETATM   20  C   UNL     1      -1.142   8.626 -28.676  1.00  0.00     0.016 A 
BRANCH  18  21
HETATM   21  O   UNL     1       0.779  10.652 -26.229  1.00  0.00    -0.356 OA
HETATM   22  C   UNL     1       1.505  10.164 -25.107  1.00  0.00     0.210 C 
ENDBRANCH  18  21
ENDBRANCH  13  15
ENDBRANCH   1   9
BRANCH   5  23
HETATM   23  C   UNL     1      -6.604   2.267 -32.688  1.00  0.00     0.141 C 
BRANCH  23  24
HETATM   24  C   UNL     1      -6.353   0.908 -33.305  1.00  0.00    -0.049 A 
HETATM   25  C   UNL     1      -7.085   0.437 -34.406  1.00  0.00     0.009 A 
HETATM   26  C   UNL     1      -6.849  -0.839 -34.927  1.00  0.00     0.019 A 
HETATM   27  C   UNL     1      -5.898  -1.663 -34.334  1.00  0.00     0.011 A 
HETATM   28 BR   UNL     1      -5.590  -3.393 -35.031  1.00  0.00    -0.051 Br
HETATM   29  C   UNL     1      -5.182  -1.226 -33.224  1.00  0.00     0.019 A 
HETATM   30  C   UNL     1      -5.412   0.053 -32.710  1.00  0.00     0.009 A 
ENDBRANCH  23  24
ENDBRANCH   5  23
TORSDOF 5
ENDMDL
MODEL 3
REMARK VINA RESULT:      -8.7      1.408      1.892
REMARK  5 active torsions:
REMARK  status: ('A' for Active; 'I' for Inactive)
REMARK    1  A    between atoms: O_2  and  C_3 
REMARK    2  A    between atoms: C_6  and  C_7 
REMARK    3  A    between atoms: C_11  and  N_12 
REMARK       I    between atoms: N_15  and  C_16 
REMARK    4  A    between atoms: C_16  and  C_17 
REMARK    5  A    between atoms: C_17  and  C_18 
ROOT
HETATM    1  N   UNL     1      -5.181   5.072 -32.738  1.00  0.00    -0.363 N 
HETATM    2  C   UNL     1      -5.235   5.832 -31.467  1.00  0.00     0.144 C 
HETATM    3  C   UNL     1      -3.840   5.936 -30.808  1.00  0.00     0.145 C 
HETATM    4  N   UNL     1      -2.845   6.440 -31.770  1.00  0.00    -0.349 N 
HETATM    5  C   UNL     1      -2.451   7.769 -31.864  1.00  0.00     0.224 C 
HETATM    6  O   UNL     1      -1.976   8.230 -32.907  1.00  0.00    -0.273 OA
HETATM    7  C   UNL     1      -2.771   5.620 -32.986  1.00  0.00     0.145 C 
HETATM    8  C   UNL     1      -4.146   5.573 -33.682  1.00  0.00     0.144 C 
ENDROOT
BRANCH   1   9
HETATM    9  C   UNL     1      -5.527   3.751 -32.757  1.00  0.00     0.122 A 
HETATM   10  N   UNL     1      -6.333   3.200 -31.795  1.00  0.00    -0.262 N 
HETATM   11  N   UNL     1      -6.532   1.880 -31.925  1.00  0.00    -0.173 NA
HETATM   12  H   UNL     1      -6.740   3.671 -30.997  1.00  0.00     0.191 HD
HETATM   13  C   UNL     1      -5.820   1.545 -33.011  1.00  0.00     0.090 A 
HETATM   14  C   UNL     1      -5.167   2.689 -33.555  1.00  0.00     0.084 A 
BRANCH  13  15
HETATM   15  C   UNL     1      -5.747   0.166 -33.485  1.00  0.00    -0.005 A 
HETATM   16  C   UNL     1      -4.566  -0.576 -33.365  1.00  0.00     0.016 A 
HETATM   17  C   UNL     1      -4.523  -1.905 -33.798  1.00  0.00     0.037 A 
HETATM   18  C   UNL     1      -5.655  -2.518 -34.340  1.00  0.00     0.068 A 
HETATM   19  C   UNL     1      -6.829  -1.778 -34.480  1.00  0.00     0.037 A 
HETATM   20  C   UNL     1      -6.872  -0.443 -34.058  1.00  0.00     0.016 A 
BRANCH  18  21
HETATM   21  O   UNL     1      -5.484  -3.825 -34.702  1.00  0.00    -0.356 OA
HETATM   22  C   UNL     1      -6.586  -4.456 -35.342  1.00  0.00     0.210 C 
ENDBRANCH  18  21
ENDBRANCH  13  15
ENDBRANCH   1   9
BRANCH   5  23
HETATM   23  C   UNL     1      -2.601   8.665 -30.644  1.00  0.00     0.141 C 
BRANCH  23  24
HETATM   24  C   UNL     1      -1.475   8.580 -29.634  1.00  0.00    -0.049 A 
HETATM   25  C   UNL     1      -0.464   7.610 -29.717  1.00  0.00     0.009 A 
HETATM   26  C   UNL     1       0.539   7.540 -28.746  1.00  0.00     0.019 A 
HETATM   27  C   UNL     1       0.523   8.422 -27.670  1.00  0.00     0.011 A 
HETATM   28 BR   UNL     1       1.872   8.317 -26.350  1.00  0.00    -0.051 Br
HETATM   29  C   UNL     1      -0.488   9.372 -27.554  1.00  0.00     0.019 A 
HETATM   30  C   UNL     1      -1.484   9.446 -28.530  1.00  0.00     0.009 A 
ENDBRANCH  23  24
ENDBRANCH   5  23
TORSDOF 5
ENDMDL
MODEL 4
REMARK VINA RESULT:      -8.4      2.855      3.537
REMARK  5 active torsions:
REMARK  status: ('A' for Active; 'I' for Inactive)
REMARK    1  A    between atoms: O_2  and  C_3 
REMARK    2  A    between atoms: C_6  and  C_7 
REMARK    3  A    between atoms: C_11  and  N_12 
REMARK       I    between atoms: N_15  and  C_16 
REMARK    4  A    between atoms: C_16  and  C_17 
REMARK    5  A    between atoms: C_17  and  C_18 
ROOT
HETATM    1  N   UNL     1      -4.651   4.880 -32.330  1.00  0.00    -0.363 N 
HETATM    2  C   UNL     1      -3.480   4.717 -31.436  1.00  0.00     0.144 C 
HETATM    3  C   UNL     1      -2.182   4.479 -32.242  1.00  0.00     0.145 C 
HETATM    4  N   UNL     1      -2.012   5.513 -33.276  1.00  0.00    -0.349 N 
HETATM    5  C   UNL     1      -1.228   6.650 -33.126  1.00  0.00     0.224 C 
HETATM    6  O   UNL     1      -1.434   7.670 -33.791  1.00  0.00    -0.273 OA
HETATM    7  C   UNL     1      -3.163   5.595 -34.185  1.00  0.00     0.145 C 
HETATM    8  C   UNL     1      -4.448   5.903 -33.390  1.00  0.00     0.144 C 
ENDROOT
BRANCH   1   9
HETATM    9  C   UNL     1      -5.480   3.820 -32.566  1.00  0.00     0.122 A 
HETATM   10  N   UNL     1      -5.004   2.615 -33.014  1.00  0.00    -0.262 N 
HETATM   11  N   UNL     1      -5.951   1.695 -33.250  1.00  0.00    -0.173 NA
HETATM   12  H   UNL     1      -4.042   2.376 -33.219  1.00  0.00     0.191 HD
HETATM   13  C   UNL     1      -7.100   2.324 -32.957  1.00  0.00     0.090 A 
HETATM   14  C   UNL     1      -6.846   3.660 -32.534  1.00  0.00     0.084 A 
BRANCH  13  15
HETATM   15  C   UNL     1      -8.394   1.666 -33.112  1.00  0.00    -0.005 A 
HETATM   16  C   UNL     1      -8.703   0.506 -32.392  1.00  0.00     0.016 A 
HETATM   17  C   UNL     1      -9.959  -0.094 -32.531  1.00  0.00     0.037 A 
HETATM   18  C   UNL     1     -10.926   0.457 -33.374  1.00  0.00     0.068 A 
HETATM   19  C   UNL     1     -10.617   1.601 -34.109  1.00  0.00     0.037 A 
HETATM   20  C   UNL     1      -9.356   2.198 -33.981  1.00  0.00     0.016 A 
BRANCH  18  21
HETATM   21  O   UNL     1     -12.117  -0.215 -33.401  1.00  0.00    -0.356 OA
HETATM   22  C   UNL     1     -13.247   0.514 -33.863  1.00  0.00     0.210 C 
ENDBRANCH  18  21
ENDBRANCH  13  15
ENDBRANCH   1   9
BRANCH   5  23
HETATM   23  C   UNL     1      -0.082   6.621 -32.125  1.00  0.00     0.141 C 
BRANCH  23  24
HETATM   24  C   UNL     1      -0.377   7.256 -30.783  1.00  0.00    -0.049 A 
HETATM   25  C   UNL     1      -1.579   7.932 -30.519  1.00  0.00     0.009 A 
HETATM   26  C   UNL     1      -1.800   8.536 -29.279  1.00  0.00     0.019 A 
HETATM   27  C   UNL     1      -0.811   8.492 -28.301  1.00  0.00     0.011 A 
HETATM   28 BR   UNL     1      -1.107   9.322 -26.629  1.00  0.00    -0.051 Br
HETATM   29  C   UNL     1       0.399   7.853 -28.553  1.00  0.00     0.019 A 
HETATM   30  C   UNL     1       0.615   7.240 -29.790  1.00  0.00     0.009 A 
ENDBRANCH  23  24
ENDBRANCH   5  23
TORSDOF 5
ENDMDL
MODEL 5
REMARK VINA RESULT:      -8.4      7.221      8.921
REMARK  5 active torsions:
REMARK  status: ('A' for Active; 'I' for Inactive)
REMARK    1  A    between atoms: O_2  and  C_3 
REMARK    2  A    between atoms: C_6  and  C_7 
REMARK    3  A    between atoms: C_11  and  N_12 
REMARK       I    between atoms: N_15  and  C_16 
REMARK    4  A    between atoms: C_16  and  C_17 
REMARK    5  A    between atoms: C_17  and  C_18 
ROOT
HETATM    1  N   UNL     1     -10.336   2.498 -32.733  1.00  0.00    -0.363 N 
HETATM    2  C   UNL     1     -10.005   3.931 -32.546  1.00  0.00     0.144 C 
HETATM    3  C   UNL     1      -9.788   4.643 -33.901  1.00  0.00     0.145 C 
HETATM    4  N   UNL     1     -10.923   4.399 -34.807  1.00  0.00    -0.349 N 
HETATM    5  C   UNL     1     -11.988   5.275 -34.980  1.00  0.00     0.224 C 
HETATM    6  O   UNL     1     -13.088   4.882 -35.381  1.00  0.00    -0.273 OA
HETATM    7  C   UNL     1     -11.175   2.969 -35.023  1.00  0.00     0.145 C 
HETATM    8  C   UNL     1     -11.462   2.270 -33.678  1.00  0.00     0.144 C 
ENDROOT
BRANCH   1   9
HETATM    9  C   UNL     1      -9.360   1.551 -32.606  1.00  0.00     0.122 A 
HETATM   10  N   UNL     1      -8.776   1.271 -31.398  1.00  0.00    -0.262 N 
HETATM   11  N   UNL     1      -7.796   0.356 -31.453  1.00  0.00    -0.173 NA
HETATM   12  H   UNL     1      -8.976   1.707 -30.507  1.00  0.00     0.191 HD
HETATM   13  C   UNL     1      -7.724   0.029 -32.752  1.00  0.00     0.090 A 
HETATM   14  C   UNL     1      -8.681   0.764 -33.509  1.00  0.00     0.084 A 
BRANCH  13  15
HETATM   15  C   UNL     1      -6.743  -0.933 -33.247  1.00  0.00    -0.005 A 
HETATM   16  C   UNL     1      -5.427  -0.930 -32.771  1.00  0.00     0.016 A 
HETATM   17  C   UNL     1      -4.509  -1.878 -33.235  1.00  0.00     0.037 A 
HETATM   18  C   UNL     1      -4.890  -2.849 -34.163  1.00  0.00     0.068 A 
HETATM   19  C   UNL     1      -6.195  -2.845 -34.656  1.00  0.00     0.037 A 
HETATM   20  C   UNL     1      -7.114  -1.889 -34.202  1.00  0.00     0.016 A 
BRANCH  18  21
HETATM   21  O   UNL     1      -3.903  -3.728 -34.515  1.00  0.00    -0.356 OA
HETATM   22  C   UNL     1      -3.451  -4.614 -33.499  1.00  0.00     0.210 C 
ENDBRANCH  18  21
ENDBRANCH  13  15
ENDBRANCH   1   9
BRANCH   5  23
HETATM   23  C   UNL     1     -11.778   6.751 -34.678  1.00  0.00     0.141 C 
BRANCH  23  24
HETATM   24  C   UNL     1     -11.703   7.657 -35.889  1.00  0.00    -0.049 A 
HETATM   25  C   UNL     1     -12.850   8.164 -36.520  1.00  0.00     0.009 A 
HETATM   26  C   UNL     1     -12.741   8.969 -37.657  1.00  0.00     0.019 A 
HETATM   27  C   UNL     1     -11.487   9.250 -38.189  1.00  0.00     0.011 A 
HETATM   28 BR   UNL     1     -11.342  10.327 -39.736  1.00  0.00    -0.051 Br
HETATM   29  C   UNL     1     -10.339   8.733 -37.595  1.00  0.00     0.019 A 
HETATM   30  C   UNL     1     -10.448   7.937 -36.453  1.00  0.00     0.009 A 
ENDBRANCH  23  24
ENDBRANCH   5  23
TORSDOF 5
ENDMDL
MODEL 6
REMARK VINA RESULT:      -8.3      3.307      3.978
REMARK  5 active torsions:
REMARK  status: ('A' for Active; 'I' for Inactive)
REMARK    1  A    between atoms: O_2  and  C_3 
REMARK    2  A    between atoms: C_6  and  C_7 
REMARK    3  A    between atoms: C_11  and  N_12 
REMARK       I    between atoms: N_15  and  C_16 
REMARK    4  A    between atoms: C_16  and  C_17 
REMARK    5  A    between atoms: C_17  and  C_18 
ROOT
HETATM    1  N   UNL     1      -3.906   4.692 -33.590  1.00  0.00    -0.363 N 
HETATM    2  C   UNL     1      -3.486   6.096 -33.371  1.00  0.00     0.144 C 
HETATM    3  C   UNL     1      -3.198   6.375 -31.878  1.00  0.00     0.145 C 
HETATM    4  N   UNL     1      -2.267   5.375 -31.330  1.00  0.00    -0.349 N 
HETATM    5  C   UNL     1      -0.896   5.565 -31.211  1.00  0.00     0.224 C 
HETATM    6  O   UNL     1      -0.112   4.611 -31.167  1.00  0.00    -0.273 OA
HETATM    7  C   UNL     1      -2.751   3.999 -31.503  1.00  0.00     0.145 C 
HETATM    8  C   UNL     1      -2.972   3.697 -33.000  1.00  0.00     0.144 C 
ENDROOT
BRANCH   1   9
HETATM    9  C   UNL     1      -5.233   4.387 -33.702  1.00  0.00     0.122 A 
HETATM   10  N   UNL     1      -6.174   5.344 -33.983  1.00  0.00    -0.262 N 
HETATM   11  N   UNL     1      -7.437   4.892 -34.003  1.00  0.00    -0.173 NA
HETATM   12  H   UNL     1      -6.015   6.333 -34.127  1.00  0.00     0.191 HD
HETATM   13  C   UNL     1      -7.325   3.588 -33.711  1.00  0.00     0.090 A 
HETATM   14  C   UNL     1      -5.960   3.235 -33.506  1.00  0.00     0.084 A 
BRANCH  13  15
HETATM   15  C   UNL     1      -8.497   2.723 -33.604  1.00  0.00    -0.005 A 
HETATM   16  C   UNL     1      -9.693   3.047 -34.255  1.00  0.00     0.016 A 
HETATM   17  C   UNL     1     -10.797   2.192 -34.164  1.00  0.00     0.037 A 
HETATM   18  C   UNL     1     -10.721   1.001 -33.439  1.00  0.00     0.068 A 
HETATM   19  C   UNL     1      -9.539   0.683 -32.771  1.00  0.00     0.037 A 
HETATM   20  C   UNL     1      -8.435   1.543 -32.851  1.00  0.00     0.016 A 
BRANCH  18  21
HETATM   21  O   UNL     1     -11.863   0.248 -33.450  1.00  0.00    -0.356 OA
HETATM   22  C   UNL     1     -12.977   0.794 -34.145  1.00  0.00     0.210 C 
ENDBRANCH  18  21
ENDBRANCH  13  15
ENDBRANCH   1   9
BRANCH   5  23
HETATM   23  C   UNL     1      -0.359   6.985 -31.119  1.00  0.00     0.141 C 
BRANCH  23  24
HETATM   24  C   UNL     1      -0.294   7.565 -29.722  1.00  0.00    -0.049 A 
HETATM   25  C   UNL     1      -1.240   8.487 -29.247  1.00  0.00     0.009 A 
HETATM   26  C   UNL     1      -1.128   9.029 -27.964  1.00  0.00     0.019 A 
HETATM   27  C   UNL     1      -0.053   8.673 -27.155  1.00  0.00     0.011 A 
HETATM   28 BR   UNL     1       0.106   9.417 -25.424  1.00  0.00    -0.051 Br
HETATM   29  C   UNL     1       0.912   7.783 -27.618  1.00  0.00     0.019 A 
HETATM   30  C   UNL     1       0.793   7.235 -28.897  1.00  0.00     0.009 A 
ENDBRANCH  23  24
ENDBRANCH   5  23
TORSDOF 5
ENDMDL
MODEL 7
REMARK VINA RESULT:      -8.2      3.558      9.846
REMARK  5 active torsions:
REMARK  status: ('A' for Active; 'I' for Inactive)
REMARK    1  A    between atoms: O_2  and  C_3 
REMARK    2  A    between atoms: C_6  and  C_7 
REMARK    3  A    between atoms: C_11  and  N_12 
REMARK       I    between atoms: N_15  and  C_16 
REMARK    4  A    between atoms: C_16  and  C_17 
REMARK    5  A    between atoms: C_17  and  C_18 
ROOT
HETATM    1  N   UNL     1      -5.817   5.134 -32.268  1.00  0.00    -0.363 N 
HETATM    2  C   UNL     1      -5.447   4.383 -33.492  1.00  0.00     0.144 C 
HETATM    3  C   UNL     1      -5.050   2.925 -33.163  1.00  0.00     0.145 C 
HETATM    4  N   UNL     1      -6.088   2.274 -32.346  1.00  0.00    -0.349 N 
HETATM    5  C   UNL     1      -7.088   1.457 -32.858  1.00  0.00     0.224 C 
HETATM    6  O   UNL     1      -8.153   1.286 -32.256  1.00  0.00    -0.273 OA
HETATM    7  C   UNL     1      -6.376   3.010 -31.109  1.00  0.00     0.145 C 
HETATM    8  C   UNL     1      -6.839   4.444 -31.438  1.00  0.00     0.144 C 
ENDROOT
BRANCH   1   9
HETATM    9  C   UNL     1      -4.902   5.952 -31.668  1.00  0.00     0.122 A 
HETATM   10  N   UNL     1      -4.977   7.317 -31.769  1.00  0.00    -0.262 N 
HETATM   11  N   UNL     1      -3.972   7.975 -31.170  1.00  0.00    -0.173 NA
HETATM   12  H   UNL     1      -5.670   7.856 -32.273  1.00  0.00     0.191 HD
HETATM   13  C   UNL     1      -3.198   7.003 -30.665  1.00  0.00     0.090 A 
HETATM   14  C   UNL     1      -3.742   5.721 -30.965  1.00  0.00     0.084 A 
BRANCH  13  15
HETATM   15  C   UNL     1      -1.962   7.303 -29.948  1.00  0.00    -0.005 A 
HETATM   16  C   UNL     1      -1.991   7.878 -28.672  1.00  0.00     0.016 A 
HETATM   17  C   UNL     1      -0.797   8.132 -27.988  1.00  0.00     0.037 A 
HETATM   18  C   UNL     1       0.436   7.806 -28.555  1.00  0.00     0.068 A 
HETATM   19  C   UNL     1       0.472   7.251 -29.834  1.00  0.00     0.037 A 
HETATM   20  C   UNL     1      -0.721   7.006 -30.527  1.00  0.00     0.016 A 
BRANCH  18  21
HETATM   21  O   UNL     1       1.522   8.086 -27.772  1.00  0.00    -0.356 OA
HETATM   22  C   UNL     1       1.495   9.321 -27.068  1.00  0.00     0.210 C 
ENDBRANCH  18  21
ENDBRANCH  13  15
ENDBRANCH   1   9
BRANCH   5  23
HETATM   23  C   UNL     1      -6.850   0.751 -34.184  1.00  0.00     0.141 C 
BRANCH  23  24
HETATM   24  C   UNL     1      -6.133  -0.579 -34.092  1.00  0.00    -0.049 A 
HETATM   25  C   UNL     1      -4.887  -0.719 -33.462  1.00  0.00     0.009 A 
HETATM   26  C   UNL     1      -4.239  -1.957 -33.427  1.00  0.00     0.019 A 
HETATM   27  C   UNL     1      -4.820  -3.059 -34.047  1.00  0.00     0.011 A 
HETATM   28 BR   UNL     1      -3.936  -4.730 -34.012  1.00  0.00    -0.051 Br
HETATM   29  C   UNL     1      -6.041  -2.935 -34.703  1.00  0.00     0.019 A 
HETATM   30  C   UNL     1      -6.692  -1.699 -34.727  1.00  0.00     0.009 A 
ENDBRANCH  23  24
ENDBRANCH   5  23
TORSDOF 5
ENDMDL
MODEL 8
REMARK VINA RESULT:      -7.9      4.214     10.624
REMARK  5 active torsions:
REMARK  status: ('A' for Active; 'I' for Inactive)
REMARK    1  A    between atoms: O_2  and  C_3 
REMARK    2  A    between atoms: C_6  and  C_7 
REMARK    3  A    between atoms: C_11  and  N_12 
REMARK       I    between atoms: N_15  and  C_16 
REMARK    4  A    between atoms: C_16  and  C_17 
REMARK    5  A    between atoms: C_17  and  C_18 
ROOT
HETATM    1  N   UNL     1      -1.523   6.169 -31.339  1.00  0.00    -0.363 N 
HETATM    2  C   UNL     1      -1.604   4.779 -31.848  1.00  0.00     0.144 C 
HETATM    3  C   UNL     1      -2.911   4.086 -31.397  1.00  0.00     0.145 C 
HETATM    4  N   UNL     1      -4.082   4.917 -31.724  1.00  0.00    -0.349 N 
HETATM    5  C   UNL     1      -4.866   4.753 -32.859  1.00  0.00     0.224 C 
HETATM    6  O   UNL     1      -5.536   5.681 -33.322  1.00  0.00    -0.273 OA
HETATM    7  C   UNL     1      -3.997   6.264 -31.144  1.00  0.00     0.145 C 
HETATM    8  C   UNL     1      -2.729   6.982 -31.648  1.00  0.00     0.144 C 
ENDROOT
BRANCH   1   9
HETATM    9  C   UNL     1      -0.796   6.442 -30.216  1.00  0.00     0.122 A 
HETATM   10  N   UNL     1      -0.295   5.446 -29.419  1.00  0.00    -0.262 N 
HETATM   11  N   UNL     1       0.348   5.879 -28.324  1.00  0.00    -0.173 NA
HETATM   12  H   UNL     1      -0.399   4.448 -29.550  1.00  0.00     0.191 HD
HETATM   13  C   UNL     1       0.256   7.216 -28.397  1.00  0.00     0.090 A 
HETATM   14  C   UNL     1      -0.462   7.607 -29.563  1.00  0.00     0.084 A 
BRANCH  13  15
HETATM   15  C   UNL     1       0.814   8.080 -27.360  1.00  0.00    -0.005 A 
HETATM   16  C   UNL     1       1.700   7.575 -26.402  1.00  0.00     0.016 A 
HETATM   17  C   UNL     1       2.248   8.424 -25.433  1.00  0.00     0.037 A 
HETATM   18  C   UNL     1       1.934   9.784 -25.415  1.00  0.00     0.068 A 
HETATM   19  C   UNL     1       1.036  10.289 -26.355  1.00  0.00     0.037 A 
HETATM   20  C   UNL     1       0.477   9.440 -27.319  1.00  0.00     0.016 A 
BRANCH  18  21
HETATM   21  O   UNL     1       2.554  10.504 -24.431  1.00  0.00    -0.356 OA
HETATM   22  C   UNL     1       2.704   9.860 -23.172  1.00  0.00     0.210 C 
ENDBRANCH  18  21
ENDBRANCH  13  15
ENDBRANCH   1   9
BRANCH   5  23
HETATM   23  C   UNL     1      -4.901   3.389 -33.533  1.00  0.00     0.141 C 
BRANCH  23  24
HETATM   24  C   UNL     1      -6.182   2.604 -33.342  1.00  0.00    -0.049 A 
HETATM   25  C   UNL     1      -6.905   2.629 -32.139  1.00  0.00     0.009 A 
HETATM   26  C   UNL     1      -8.065   1.863 -31.988  1.00  0.00     0.019 A 
HETATM   27  C   UNL     1      -8.495   1.046 -33.029  1.00  0.00     0.011 A 
HETATM   28 BR   UNL     1     -10.055  -0.000 -32.818  1.00  0.00    -0.051 Br
HETATM   29  C   UNL     1      -7.776   0.985 -34.219  1.00  0.00     0.019 A 
HETATM   30  C   UNL     1      -6.623   1.759 -34.372  1.00  0.00     0.009 A 
ENDBRANCH  23  24
ENDBRANCH   5  23
TORSDOF 5
ENDMDL
MODEL 9
REMARK VINA RESULT:      -7.9      6.716     10.244
REMARK  5 active torsions:
REMARK  status: ('A' for Active; 'I' for Inactive)
REMARK    1  A    between atoms: O_2  and  C_3 
REMARK    2  A    between atoms: C_6  and  C_7 
REMARK    3  A    between atoms: C_11  and  N_12 
REMARK       I    between atoms: N_15  and  C_16 
REMARK    4  A    between atoms: C_16  and  C_17 
REMARK    5  A    between atoms: C_17  and  C_18 
ROOT
HETATM    1  N   UNL     1      -9.700   2.400 -33.346  1.00  0.00    -0.363 N 
HETATM    2  C   UNL     1      -8.565   2.017 -34.220  1.00  0.00     0.144 C 
HETATM    3  C   UNL     1      -7.246   2.678 -33.758  1.00  0.00     0.145 C 
HETATM    4  N   UNL     1      -7.013   2.432 -32.325  1.00  0.00    -0.349 N 
HETATM    5  C   UNL     1      -6.204   1.418 -31.827  1.00  0.00     0.224 C 
HETATM    6  O   UNL     1      -6.360   0.970 -30.687  1.00  0.00    -0.273 OA
HETATM    7  C   UNL     1      -8.128   2.889 -31.486  1.00  0.00     0.145 C 
HETATM    8  C   UNL     1      -9.433   2.177 -31.900  1.00  0.00     0.144 C 
ENDROOT
BRANCH   1   9
HETATM    9  C   UNL     1     -10.547   3.400 -33.728  1.00  0.00     0.122 A 
HETATM   10  N   UNL     1     -11.814   3.510 -33.217  1.00  0.00    -0.262 N 
HETATM   11  N   UNL     1     -12.539   4.513 -33.736  1.00  0.00    -0.173 NA
HETATM   12  H   UNL     1     -12.255   2.899 -32.541  1.00  0.00     0.191 HD
HETATM   13  C   UNL     1     -11.719   5.080 -34.634  1.00  0.00     0.090 A 
HETATM   14  C   UNL     1     -10.465   4.404 -34.666  1.00  0.00     0.084 A 
BRANCH  13  15
HETATM   15  C   UNL     1     -12.146   6.211 -35.454  1.00  0.00    -0.005 A 
HETATM   16  C   UNL     1     -11.265   7.256 -35.753  1.00  0.00     0.016 A 
HETATM   17  C   UNL     1     -11.681   8.318 -36.564  1.00  0.00     0.037 A 
HETATM   18  C   UNL     1     -12.971   8.346 -37.097  1.00  0.00     0.068 A 
HETATM   19  C   UNL     1     -13.861   7.318 -36.786  1.00  0.00     0.037 A 
HETATM   20  C   UNL     1     -13.450   6.259 -35.965  1.00  0.00     0.016 A 
BRANCH  18  21
HETATM   21  O   UNL     1     -13.242   9.427 -37.889  1.00  0.00    -0.356 OA
HETATM   22  C   UNL     1     -12.350  10.530 -37.786  1.00  0.00     0.210 C 
ENDBRANCH  18  21
ENDBRANCH  13  15
ENDBRANCH   1   9
BRANCH   5  23
HETATM   23  C   UNL     1      -5.097   0.865 -32.710  1.00  0.00     0.141 C 
BRANCH  23  24
HETATM   24  C   UNL     1      -5.401  -0.457 -33.382  1.00  0.00    -0.049 A 
HETATM   25  C   UNL     1      -6.714  -0.894 -33.618  1.00  0.00     0.009 A 
HETATM   26  C   UNL     1      -6.957  -2.138 -34.209  1.00  0.00     0.019 A 
HETATM   27  C   UNL     1      -5.889  -2.965 -34.544  1.00  0.00     0.011 A 
HETATM   28 BR   UNL     1      -6.219  -4.652 -35.330  1.00  0.00    -0.051 Br
HETATM   29  C   UNL     1      -4.581  -2.562 -34.291  1.00  0.00     0.019 A 
HETATM   30  C   UNL     1      -4.340  -1.315 -33.710  1.00  0.00     0.009 A 
ENDBRANCH  23  24
ENDBRANCH   5  23
TORSDOF 5
ENDMDL
MODEL 10
REMARK VINA RESULT:      -7.8      1.721      2.158
REMARK  5 active torsions:
REMARK  status: ('A' for Active; 'I' for Inactive)
REMARK    1  A    between atoms: O_2  and  C_3 
REMARK    2  A    between atoms: C_6  and  C_7 
REMARK    3  A    between atoms: C_11  and  N_12 
REMARK       I    between atoms: N_15  and  C_16 
REMARK    4  A    between atoms: C_16  and  C_17 
REMARK    5  A    between atoms: C_17  and  C_18 
ROOT
HETATM    1  N   UNL     1      -5.177   4.152 -31.600  1.00  0.00    -0.363 N 
HETATM    2  C   UNL     1      -3.762   4.421 -31.248  1.00  0.00     0.144 C 
HETATM    3  C   UNL     1      -3.129   5.463 -32.199  1.00  0.00     0.145 C 
HETATM    4  N   UNL     1      -3.968   6.669 -32.284  1.00  0.00    -0.349 N 
HETATM    5  C   UNL     1      -3.758   7.823 -31.539  1.00  0.00     0.224 C 
HETATM    6  O   UNL     1      -4.675   8.617 -31.305  1.00  0.00    -0.273 OA
HETATM    7  C   UNL     1      -5.344   6.371 -32.704  1.00  0.00     0.145 C 
HETATM    8  C   UNL     1      -6.000   5.385 -31.716  1.00  0.00     0.144 C 
ENDROOT
BRANCH   1   9
HETATM    9  C   UNL     1      -5.496   3.056 -32.348  1.00  0.00     0.122 A 
HETATM   10  N   UNL     1      -6.551   3.060 -33.224  1.00  0.00    -0.262 N 
HETATM   11  N   UNL     1      -6.766   1.888 -33.841  1.00  0.00    -0.173 NA
HETATM   12  H   UNL     1      -7.188   3.823 -33.409  1.00  0.00     0.191 HD
HETATM   13  C   UNL     1      -5.822   1.075 -33.342  1.00  0.00     0.090 A 
HETATM   14  C   UNL     1      -5.013   1.768 -32.396  1.00  0.00     0.084 A 
BRANCH  13  15
HETATM   15  C   UNL     1      -5.728  -0.326 -33.742  1.00  0.00    -0.005 A 
HETATM   16  C   UNL     1      -4.591  -1.085 -33.444  1.00  0.00     0.016 A 
HETATM   17  C   UNL     1      -4.530  -2.434 -33.810  1.00  0.00     0.037 A 
HETATM   18  C   UNL     1      -5.602  -3.048 -34.461  1.00  0.00     0.068 A 
HETATM   19  C   UNL     1      -6.730  -2.292 -34.779  1.00  0.00     0.037 A 
HETATM   20  C   UNL     1      -6.789  -0.937 -34.424  1.00  0.00     0.016 A 
BRANCH  18  21
HETATM   21  O   UNL     1      -5.422  -4.374 -34.741  1.00  0.00    -0.356 OA
HETATM   22  C   UNL     1      -4.264  -4.988 -34.189  1.00  0.00     0.210 C 
ENDBRANCH  18  21
ENDBRANCH  13  15
ENDBRANCH   1   9
BRANCH   5  23
HETATM   23  C   UNL     1      -2.359   8.111 -31.016  1.00  0.00     0.141 C 
BRANCH  23  24
HETATM   24  C   UNL     1      -2.245   8.253 -29.513  1.00  0.00    -0.049 A 
HETATM   25  C   UNL     1      -2.825   7.333 -28.625  1.00  0.00     0.009 A 
HETATM   26  C   UNL     1      -2.728   7.517 -27.243  1.00  0.00     0.019 A 
HETATM   27  C   UNL     1      -2.075   8.637 -26.738  1.00  0.00     0.011 A 
HETATM   28 BR   UNL     1      -1.958   8.892 -24.869  1.00  0.00    -0.051 Br
HETATM   29  C   UNL     1      -1.519   9.576 -27.601  1.00  0.00     0.019 A 
HETATM   30  C   UNL     1      -1.608   9.386 -28.982  1.00  0.00     0.009 A 
ENDBRANCH  23  24
ENDBRANCH   5  23
TORSDOF 5
ENDMDL
