MODEL 1
REMARK VINA RESULT:      -9.5      0.000      0.000
REMARK  10 active torsions:
REMARK  status: ('A' for Active; 'I' for Inactive)
REMARK    1  A    between atoms: N_1  and  C_2 
REMARK    2  A    between atoms: C_2  and  C_3 
REMARK    3  A    between atoms: C_6  and  C_33 
REMARK    4  A    between atoms: C_8  and  C_9 
REMARK    5  A    between atoms: C_13  and  C_15 
REMARK       I    between atoms: C_15  and  N_17 
REMARK    6  A    between atoms: N_17  and  C_18 
REMARK    7  A    between atoms: C_22  and  C_23 
REMARK    8  A    between atoms: C_23  and  O_25 
REMARK    9  A    between atoms: O_25  and  C_26 
REMARK       I    between atoms: C_33  and  N_35 
REMARK   10  A    between atoms: N_35  and  C_36 
ROOT
HETATM    1  C   UNL     1      -1.293   6.142 -31.881  1.00  0.00    -0.024 A 
HETATM    2  C   UNL     1      -1.103   6.661 -33.172  1.00  0.00     0.012 A 
HETATM    3  C   UNL     1      -1.612   6.017 -34.307  1.00  0.00     0.002 A 
HETATM    4  C   UNL     1      -2.372   4.857 -34.176  1.00  0.00     0.017 A 
HETATM    5  C   UNL     1      -2.610   4.339 -32.902  1.00  0.00     0.033 A 
HETATM    6  C   UNL     1      -2.056   4.964 -31.774  1.00  0.00     0.029 A 
ENDROOT
BRANCH   1   7
HETATM    7  C   UNL     1      -0.791   6.829 -30.663  1.00  0.00    -0.017 A 
HETATM    8  C   UNL     1       0.366   6.439 -29.944  1.00  0.00    -0.020 A 
HETATM    9  C   UNL     1       0.748   7.165 -28.793  1.00  0.00     0.011 A 
HETATM   10  C   UNL     1      -0.015   8.231 -28.320  1.00  0.00     0.017 A 
HETATM   11  C   UNL     1      -1.168   8.616 -29.000  1.00  0.00     0.033 A 
HETATM   12  C   UNL     1      -1.538   7.925 -30.163  1.00  0.00     0.030 A 
BRANCH   8  13
HETATM   13  C   UNL     1       1.228   5.250 -30.311  1.00  0.00     0.306 C 
BRANCH  13  14
HETATM   14  N   UNL     1       1.260   4.259 -29.240  1.00  0.00     0.082 N 
HETATM   15  H   UNL     1       0.751   3.430 -29.541  1.00  0.00     0.313 HD
HETATM   16  H   UNL     1       0.757   4.622 -28.432  1.00  0.00     0.313 HD
ENDBRANCH  13  14
ENDBRANCH   8  13
BRANCH  11  17
HETATM   17  C   UNL     1      -2.022   9.686 -28.403  1.00  0.00     0.256 C 
HETATM   18  O   UNL     1      -1.756  10.855 -28.663  1.00  0.00    -0.267 OA
HETATM   19  N   UNL     1      -3.062   9.255 -27.602  1.00  0.00    -0.320 N 
HETATM   20  H   UNL     1      -3.303   8.269 -27.616  1.00  0.00     0.169 HD
BRANCH  19  21
HETATM   21  C   UNL     1      -3.893  10.058 -26.786  1.00  0.00     0.076 A 
HETATM   22  C   UNL     1      -3.491  10.631 -25.582  1.00  0.00     0.052 A 
HETATM   23  C   UNL     1      -4.417  11.373 -24.859  1.00  0.00     0.118 A 
HETATM   24  N   UNL     1      -5.696  11.578 -25.248  1.00  0.00    -0.270 NA
HETATM   25  C   UNL     1      -6.064  11.009 -26.418  1.00  0.00     0.160 A 
HETATM   26  C   UNL     1      -5.210  10.253 -27.202  1.00  0.00     0.160 A 
HETATM   27  F   UNL     1      -5.648   9.711 -28.349  1.00  0.00    -0.202 F 
ENDBRANCH  19  21
ENDBRANCH  11  17
ENDBRANCH   1   7
BRANCH   5  28
HETATM   28  C   UNL     1      -3.560   3.218 -32.684  1.00  0.00     0.256 C 
HETATM   29  O   UNL     1      -3.093   2.089 -32.569  1.00  0.00    -0.267 OA
HETATM   30  N   UNL     1      -4.899   3.555 -32.655  1.00  0.00    -0.320 N 
HETATM   31  H   UNL     1      -5.169   4.462 -33.023  1.00  0.00     0.169 HD
BRANCH  30  32
HETATM   32  C   UNL     1      -5.965   2.685 -32.318  1.00  0.00     0.075 A 
HETATM   33  C   UNL     1      -6.547   2.650 -31.047  1.00  0.00     0.033 A 
HETATM   34  C   UNL     1      -7.599   1.774 -30.772  1.00  0.00     0.003 A 
HETATM   35  C   UNL     1      -8.074   0.921 -31.766  1.00  0.00     0.021 A 
HETATM   36  C   UNL     1      -7.511   0.951 -33.049  1.00  0.00     0.080 A 
HETATM   37  C   UNL     1      -6.467   1.840 -33.319  1.00  0.00     0.159 A 
HETATM   38  F   UNL     1      -5.883   1.879 -34.529  1.00  0.00    -0.203 F 
BRANCH  36  39
HETATM   39  C   UNL     1      -8.032  -0.012 -34.041  1.00  0.00     0.296 C 
HETATM   40  O   UNL     1      -8.650   0.340 -35.034  1.00  0.00    -0.259 OA
BRANCH  39  41
HETATM   41  O   UNL     1      -7.688  -1.284 -33.731  1.00  0.00    -0.312 OA
BRANCH  41  42
HETATM   42  C   UNL     1      -6.616  -1.825 -34.506  1.00  0.00     0.132 C 
HETATM   43  C   UNL     1      -5.277  -1.750 -33.780  1.00  0.00     0.032 C 
HETATM   44  C   UNL     1      -4.447  -2.800 -34.497  1.00  0.00     0.002 C 
HETATM   45  C   UNL     1      -5.425  -3.941 -34.758  1.00  0.00     0.002 C 
HETATM   46  C   UNL     1      -6.823  -3.327 -34.704  1.00  0.00     0.032 C 
ENDBRANCH  41  42
ENDBRANCH  39  41
ENDBRANCH  36  39
ENDBRANCH  30  32
ENDBRANCH   5  28
TORSDOF 10
ENDMDL
MODEL 2
REMARK VINA RESULT:      -9.4      3.801      5.871
REMARK  10 active torsions:
REMARK  status: ('A' for Active; 'I' for Inactive)
REMARK    1  A    between atoms: N_1  and  C_2 
REMARK    2  A    between atoms: C_2  and  C_3 
REMARK    3  A    between atoms: C_6  and  C_33 
REMARK    4  A    between atoms: C_8  and  C_9 
REMARK    5  A    between atoms: C_13  and  C_15 
REMARK       I    between atoms: C_15  and  N_17 
REMARK    6  A    between atoms: N_17  and  C_18 
REMARK    7  A    between atoms: C_22  and  C_23 
REMARK    8  A    between atoms: C_23  and  O_25 
REMARK    9  A    between atoms: O_25  and  C_26 
REMARK       I    between atoms: C_33  and  N_35 
REMARK   10  A    between atoms: N_35  and  C_36 
ROOT
HETATM    1  C   UNL     1      -3.329   3.534 -32.234  1.00  0.00    -0.024 A 
HETATM    2  C   UNL     1      -2.975   2.177 -32.317  1.00  0.00     0.012 A 
HETATM    3  C   UNL     1      -3.943   1.164 -32.339  1.00  0.00     0.002 A 
HETATM    4  C   UNL     1      -5.298   1.486 -32.330  1.00  0.00     0.017 A 
HETATM    5  C   UNL     1      -5.680   2.828 -32.286  1.00  0.00     0.033 A 
HETATM    6  C   UNL     1      -4.704   3.834 -32.216  1.00  0.00     0.029 A 
ENDROOT
BRANCH   1   7
HETATM    7  C   UNL     1      -2.319   4.624 -32.245  1.00  0.00    -0.017 A 
HETATM    8  C   UNL     1      -1.849   5.266 -33.418  1.00  0.00    -0.020 A 
HETATM    9  C   UNL     1      -0.881   6.290 -33.309  1.00  0.00     0.011 A 
HETATM   10  C   UNL     1      -0.342   6.653 -32.076  1.00  0.00     0.017 A 
HETATM   11  C   UNL     1      -0.774   6.018 -30.915  1.00  0.00     0.033 A 
HETATM   12  C   UNL     1      -1.760   5.025 -31.006  1.00  0.00     0.030 A 
BRANCH   8  13
HETATM   13  C   UNL     1      -2.297   4.904 -34.818  1.00  0.00     0.306 C 
BRANCH  13  14
HETATM   14  N   UNL     1      -3.510   5.621 -35.196  1.00  0.00     0.082 N 
HETATM   15  H   UNL     1      -3.426   5.925 -36.164  1.00  0.00     0.313 HD
HETATM   16  H   UNL     1      -3.585   6.470 -34.638  1.00  0.00     0.313 HD
ENDBRANCH  13  14
ENDBRANCH   8  13
BRANCH  11  17
HETATM   17  C   UNL     1      -0.094   6.350 -29.627  1.00  0.00     0.256 C 
HETATM   18  O   UNL     1       0.462   5.445 -29.013  1.00  0.00    -0.267 OA
HETATM   19  N   UNL     1      -0.145   7.675 -29.239  1.00  0.00    -0.320 N 
HETATM   20  H   UNL     1      -0.460   8.363 -29.916  1.00  0.00     0.169 HD
BRANCH  19  21
HETATM   21  C   UNL     1       0.257   8.210 -27.993  1.00  0.00     0.076 A 
HETATM   22  C   UNL     1       1.576   8.511 -27.659  1.00  0.00     0.052 A 
HETATM   23  C   UNL     1       1.842   9.003 -26.387  1.00  0.00     0.118 A 
HETATM   24  N   UNL     1       0.898   9.212 -25.441  1.00  0.00    -0.270 NA
HETATM   25  C   UNL     1      -0.374   8.911 -25.787  1.00  0.00     0.160 A 
HETATM   26  C   UNL     1      -0.730   8.414 -27.029  1.00  0.00     0.160 A 
HETATM   27  F   UNL     1      -2.013   8.128 -27.300  1.00  0.00    -0.202 F 
ENDBRANCH  19  21
ENDBRANCH  11  17
ENDBRANCH   1   7
BRANCH   5  28
HETATM   28  C   UNL     1      -7.096   3.238 -32.459  1.00  0.00     0.256 C 
HETATM   29  O   UNL     1      -7.752   3.467 -31.447  1.00  0.00    -0.267 OA
HETATM   30  N   UNL     1      -7.555   3.302 -33.760  1.00  0.00    -0.320 N 
HETATM   31  H   UNL     1      -7.008   2.840 -34.480  1.00  0.00     0.169 HD
BRANCH  30  32
HETATM   32  C   UNL     1      -8.813   3.806 -34.172  1.00  0.00     0.075 A 
HETATM   33  C   UNL     1      -9.094   5.173 -34.262  1.00  0.00     0.033 A 
HETATM   34  C   UNL     1     -10.353   5.613 -34.677  1.00  0.00     0.003 A 
HETATM   35  C   UNL     1     -11.343   4.688 -35.001  1.00  0.00     0.021 A 
HETATM   36  C   UNL     1     -11.076   3.314 -34.927  1.00  0.00     0.080 A 
HETATM   37  C   UNL     1      -9.809   2.882 -34.524  1.00  0.00     0.159 A 
HETATM   38  F   UNL     1      -9.523   1.574 -34.415  1.00  0.00    -0.203 F 
BRANCH  36  39
HETATM   39  C   UNL     1     -12.185   2.390 -35.241  1.00  0.00     0.296 C 
HETATM   40  O   UNL     1     -12.543   2.160 -36.386  1.00  0.00    -0.259 OA
BRANCH  39  41
HETATM   41  O   UNL     1     -12.687   1.815 -34.122  1.00  0.00    -0.312 OA
BRANCH  41  42
HETATM   42  C   UNL     1     -13.904   2.392 -33.642  1.00  0.00     0.132 C 
HETATM   43  C   UNL     1     -14.903   1.338 -33.179  1.00  0.00     0.032 C 
HETATM   44  C   UNL     1     -15.824   2.128 -32.265  1.00  0.00     0.002 C 
HETATM   45  C   UNL     1     -14.892   3.076 -31.518  1.00  0.00     0.002 C 
HETATM   46  C   UNL     1     -13.631   3.198 -32.373  1.00  0.00     0.032 C 
ENDBRANCH  41  42
ENDBRANCH  39  41
ENDBRANCH  36  39
ENDBRANCH  30  32
ENDBRANCH   5  28
TORSDOF 10
ENDMDL
MODEL 3
REMARK VINA RESULT:      -9.3      3.363     12.294
REMARK  10 active torsions:
REMARK  status: ('A' for Active; 'I' for Inactive)
REMARK    1  A    between atoms: N_1  and  C_2 
REMARK    2  A    between atoms: C_2  and  C_3 
REMARK    3  A    between atoms: C_6  and  C_33 
REMARK    4  A    between atoms: C_8  and  C_9 
REMARK    5  A    between atoms: C_13  and  C_15 
REMARK       I    between atoms: C_15  and  N_17 
REMARK    6  A    between atoms: N_17  and  C_18 
REMARK    7  A    between atoms: C_22  and  C_23 
REMARK    8  A    between atoms: C_23  and  O_25 
REMARK    9  A    between atoms: O_25  and  C_26 
REMARK       I    between atoms: C_33  and  N_35 
REMARK   10  A    between atoms: N_35  and  C_36 
ROOT
HETATM    1  C   UNL     1      -3.844   4.316 -32.570  1.00  0.00    -0.024 A 
HETATM    2  C   UNL     1      -2.576   4.067 -33.120  1.00  0.00     0.012 A 
HETATM    3  C   UNL     1      -1.441   4.777 -32.705  1.00  0.00     0.002 A 
HETATM    4  C   UNL     1      -1.537   5.724 -31.688  1.00  0.00     0.017 A 
HETATM    5  C   UNL     1      -2.779   5.966 -31.097  1.00  0.00     0.033 A 
HETATM    6  C   UNL     1      -3.918   5.285 -31.551  1.00  0.00     0.029 A 
ENDROOT
BRANCH   1   7
HETATM    7  C   UNL     1      -5.052   3.550 -32.971  1.00  0.00    -0.017 A 
HETATM    8  C   UNL     1      -6.285   4.140 -33.348  1.00  0.00    -0.020 A 
HETATM    9  C   UNL     1      -7.371   3.310 -33.707  1.00  0.00     0.011 A 
HETATM   10  C   UNL     1      -7.274   1.921 -33.655  1.00  0.00     0.017 A 
HETATM   11  C   UNL     1      -6.078   1.323 -33.267  1.00  0.00     0.033 A 
HETATM   12  C   UNL     1      -4.982   2.134 -32.942  1.00  0.00     0.030 A 
BRANCH   8  13
HETATM   13  C   UNL     1      -6.539   5.632 -33.362  1.00  0.00     0.306 C 
BRANCH  13  14
HETATM   14  N   UNL     1      -7.962   5.934 -33.470  1.00  0.00     0.082 N 
HETATM   15  H   UNL     1      -8.282   6.336 -32.591  1.00  0.00     0.313 HD
HETATM   16  H   UNL     1      -8.481   5.066 -33.589  1.00  0.00     0.313 HD
ENDBRANCH  13  14
ENDBRANCH   8  13
BRANCH  11  17
HETATM   17  C   UNL     1      -6.043  -0.162 -33.113  1.00  0.00     0.256 C 
HETATM   18  O   UNL     1      -6.049  -0.629 -31.979  1.00  0.00    -0.267 OA
HETATM   19  N   UNL     1      -6.017  -0.893 -34.285  1.00  0.00    -0.320 N 
HETATM   20  H   UNL     1      -6.212  -0.411 -35.157  1.00  0.00     0.169 HD
BRANCH  19  21
HETATM   21  C   UNL     1      -5.803  -2.285 -34.413  1.00  0.00     0.076 A 
HETATM   22  C   UNL     1      -6.786  -3.198 -34.791  1.00  0.00     0.052 A 
HETATM   23  C   UNL     1      -6.453  -4.546 -34.847  1.00  0.00     0.118 A 
HETATM   24  N   UNL     1      -5.227  -5.038 -34.557  1.00  0.00    -0.270 NA
HETATM   25  C   UNL     1      -4.291  -4.134 -34.190  1.00  0.00     0.160 A 
HETATM   26  C   UNL     1      -4.534  -2.774 -34.104  1.00  0.00     0.160 A 
HETATM   27  F   UNL     1      -3.558  -1.936 -33.725  1.00  0.00    -0.202 F 
ENDBRANCH  19  21
ENDBRANCH  11  17
ENDBRANCH   1   7
BRANCH   5  28
HETATM   28  C   UNL     1      -2.911   6.823 -29.892  1.00  0.00     0.256 C 
HETATM   29  O   UNL     1      -3.889   7.560 -29.820  1.00  0.00    -0.267 OA
HETATM   30  N   UNL     1      -1.892   6.726 -28.964  1.00  0.00    -0.320 N 
HETATM   31  H   UNL     1      -1.023   6.291 -29.256  1.00  0.00     0.169 HD
BRANCH  30  32
HETATM   32  C   UNL     1      -1.878   7.332 -27.683  1.00  0.00     0.075 A 
HETATM   33  C   UNL     1      -2.684   6.898 -26.626  1.00  0.00     0.033 A 
HETATM   34  C   UNL     1      -2.626   7.531 -25.383  1.00  0.00     0.003 A 
HETATM   35  C   UNL     1      -1.764   8.608 -25.188  1.00  0.00     0.021 A 
HETATM   36  C   UNL     1      -0.940   9.049 -26.233  1.00  0.00     0.080 A 
HETATM   37  C   UNL     1      -0.995   8.401 -27.470  1.00  0.00     0.159 A 
HETATM   38  F   UNL     1      -0.241   8.812 -28.503  1.00  0.00    -0.203 F 
BRANCH  36  39
HETATM   39  C   UNL     1      -0.083  10.224 -25.972  1.00  0.00     0.296 C 
HETATM   40  O   UNL     1       0.119  11.088 -26.812  1.00  0.00    -0.259 OA
BRANCH  39  41
HETATM   41  O   UNL     1       0.378  10.233 -24.699  1.00  0.00    -0.312 OA
BRANCH  41  42
HETATM   42  C   UNL     1       1.784  10.460 -24.568  1.00  0.00     0.132 C 
HETATM   43  C   UNL     1       2.204  10.685 -23.120  1.00  0.00     0.032 C 
HETATM   44  C   UNL     1       3.690  10.375 -23.152  1.00  0.00     0.002 C 
HETATM   45  C   UNL     1       3.808   9.182 -24.094  1.00  0.00     0.002 C 
HETATM   46  C   UNL     1       2.553   9.200 -24.966  1.00  0.00     0.032 C 
ENDBRANCH  41  42
ENDBRANCH  39  41
ENDBRANCH  36  39
ENDBRANCH  30  32
ENDBRANCH   5  28
TORSDOF 10
ENDMDL
MODEL 4
REMARK VINA RESULT:      -9.3      2.635     11.709
REMARK  10 active torsions:
REMARK  status: ('A' for Active; 'I' for Inactive)
REMARK    1  A    between atoms: N_1  and  C_2 
REMARK    2  A    between atoms: C_2  and  C_3 
REMARK    3  A    between atoms: C_6  and  C_33 
REMARK    4  A    between atoms: C_8  and  C_9 
REMARK    5  A    between atoms: C_13  and  C_15 
REMARK       I    between atoms: C_15  and  N_17 
REMARK    6  A    between atoms: N_17  and  C_18 
REMARK    7  A    between atoms: C_22  and  C_23 
REMARK    8  A    between atoms: C_23  and  O_25 
REMARK    9  A    between atoms: O_25  and  C_26 
REMARK       I    between atoms: C_33  and  N_35 
REMARK   10  A    between atoms: N_35  and  C_36 
ROOT
HETATM    1  C   UNL     1      -4.796   4.004 -33.179  1.00  0.00    -0.024 A 
HETATM    2  C   UNL     1      -4.828   4.262 -34.559  1.00  0.00     0.012 A 
HETATM    3  C   UNL     1      -3.950   5.176 -35.157  1.00  0.00     0.002 A 
HETATM    4  C   UNL     1      -2.979   5.821 -34.394  1.00  0.00     0.017 A 
HETATM    5  C   UNL     1      -2.900   5.555 -33.026  1.00  0.00     0.033 A 
HETATM    6  C   UNL     1      -3.813   4.674 -32.427  1.00  0.00     0.029 A 
ENDROOT
BRANCH   1   7
HETATM    7  C   UNL     1      -5.695   3.012 -32.532  1.00  0.00    -0.017 A 
HETATM    8  C   UNL     1      -6.279   3.178 -31.252  1.00  0.00    -0.020 A 
HETATM    9  C   UNL     1      -7.116   2.164 -30.733  1.00  0.00     0.011 A 
HETATM   10  C   UNL     1      -7.344   0.981 -31.433  1.00  0.00     0.017 A 
HETATM   11  C   UNL     1      -6.762   0.790 -32.682  1.00  0.00     0.033 A 
HETATM   12  C   UNL     1      -5.957   1.803 -33.224  1.00  0.00     0.030 A 
BRANCH   8  13
HETATM   13  C   UNL     1      -6.040   4.380 -30.363  1.00  0.00     0.306 C 
BRANCH  13  14
HETATM   14  N   UNL     1      -5.397   4.001 -29.109  1.00  0.00     0.082 N 
HETATM   15  H   UNL     1      -4.544   4.545 -28.997  1.00  0.00     0.313 HD
HETATM   16  H   UNL     1      -5.105   3.026 -29.163  1.00  0.00     0.313 HD
ENDBRANCH  13  14
ENDBRANCH   8  13
BRANCH  11  17
HETATM   17  C   UNL     1      -6.934  -0.534 -33.352  1.00  0.00     0.256 C 
HETATM   18  O   UNL     1      -8.074  -0.921 -33.589  1.00  0.00    -0.267 OA
HETATM   19  N   UNL     1      -5.772  -1.213 -33.661  1.00  0.00    -0.320 N 
HETATM   20  H   UNL     1      -4.891  -0.713 -33.597  1.00  0.00     0.169 HD
BRANCH  19  21
HETATM   21  C   UNL     1      -5.665  -2.545 -34.127  1.00  0.00     0.076 A 
HETATM   22  C   UNL     1      -6.659  -3.206 -34.844  1.00  0.00     0.052 A 
HETATM   23  C   UNL     1      -6.442  -4.527 -35.215  1.00  0.00     0.118 A 
HETATM   24  N   UNL     1      -5.319  -5.222 -34.926  1.00  0.00    -0.270 NA
HETATM   25  C   UNL     1      -4.369  -4.561 -34.227  1.00  0.00     0.160 A 
HETATM   26  C   UNL     1      -4.501  -3.247 -33.813  1.00  0.00     0.160 A 
HETATM   27  F   UNL     1      -3.520  -2.656 -33.114  1.00  0.00    -0.202 F 
ENDBRANCH  19  21
ENDBRANCH  11  17
ENDBRANCH   1   7
BRANCH   5  28
HETATM   28  C   UNL     1      -1.777   6.066 -32.200  1.00  0.00     0.256 C 
HETATM   29  O   UNL     1      -0.806   6.535 -32.785  1.00  0.00    -0.267 OA
HETATM   30  N   UNL     1      -1.924   5.942 -30.832  1.00  0.00    -0.320 N 
HETATM   31  H   UNL     1      -2.637   5.307 -30.486  1.00  0.00     0.169 HD
BRANCH  30  32
HETATM   32  C   UNL     1      -1.058   6.486 -29.852  1.00  0.00     0.075 A 
HETATM   33  C   UNL     1       0.063   5.807 -29.365  1.00  0.00     0.033 A 
HETATM   34  C   UNL     1       0.885   6.394 -28.401  1.00  0.00     0.003 A 
HETATM   35  C   UNL     1       0.588   7.663 -27.911  1.00  0.00     0.021 A 
HETATM   36  C   UNL     1      -0.525   8.364 -28.396  1.00  0.00     0.080 A 
HETATM   37  C   UNL     1      -1.335   7.774 -29.371  1.00  0.00     0.159 A 
HETATM   38  F   UNL     1      -2.426   8.402 -29.841  1.00  0.00    -0.203 F 
BRANCH  36  39
HETATM   39  C   UNL     1      -0.808   9.686 -27.799  1.00  0.00     0.296 C 
HETATM   40  O   UNL     1      -1.473  10.535 -28.373  1.00  0.00    -0.259 OA
BRANCH  39  41
HETATM   41  O   UNL     1      -0.292   9.792 -26.553  1.00  0.00    -0.312 OA
BRANCH  41  42
HETATM   42  C   UNL     1      -1.257   9.962 -25.512  1.00  0.00     0.132 C 
HETATM   43  C   UNL     1      -1.924   8.649 -25.118  1.00  0.00     0.032 C 
HETATM   44  C   UNL     1      -2.462   8.950 -23.730  1.00  0.00     0.002 C 
HETATM   45  C   UNL     1      -1.375   9.800 -23.080  1.00  0.00     0.002 C 
HETATM   46  C   UNL     1      -0.562  10.403 -24.225  1.00  0.00     0.032 C 
ENDBRANCH  41  42
ENDBRANCH  39  41
ENDBRANCH  36  39
ENDBRANCH  30  32
ENDBRANCH   5  28
TORSDOF 10
ENDMDL
MODEL 5
REMARK VINA RESULT:      -9.2      3.004     11.981
REMARK  10 active torsions:
REMARK  status: ('A' for Active; 'I' for Inactive)
REMARK    1  A    between atoms: N_1  and  C_2 
REMARK    2  A    between atoms: C_2  and  C_3 
REMARK    3  A    between atoms: C_6  and  C_33 
REMARK    4  A    between atoms: C_8  and  C_9 
REMARK    5  A    between atoms: C_13  and  C_15 
REMARK       I    between atoms: C_15  and  N_17 
REMARK    6  A    between atoms: N_17  and  C_18 
REMARK    7  A    between atoms: C_22  and  C_23 
REMARK    8  A    between atoms: C_23  and  O_25 
REMARK    9  A    between atoms: O_25  and  C_26 
REMARK       I    between atoms: C_33  and  N_35 
REMARK   10  A    between atoms: N_35  and  C_36 
ROOT
HETATM    1  C   UNL     1      -4.108   4.466 -33.124  1.00  0.00    -0.024 A 
HETATM    2  C   UNL     1      -3.797   4.938 -34.410  1.00  0.00     0.012 A 
HETATM    3  C   UNL     1      -2.664   5.726 -34.651  1.00  0.00     0.002 A 
HETATM    4  C   UNL     1      -1.780   6.023 -33.615  1.00  0.00     0.017 A 
HETATM    5  C   UNL     1      -2.044   5.535 -32.334  1.00  0.00     0.033 A 
HETATM    6  C   UNL     1      -3.205   4.786 -32.092  1.00  0.00     0.029 A 
ENDROOT
BRANCH   1   7
HETATM    7  C   UNL     1      -5.284   3.600 -32.855  1.00  0.00    -0.017 A 
HETATM    8  C   UNL     1      -6.531   4.071 -32.371  1.00  0.00    -0.020 A 
HETATM    9  C   UNL     1      -7.581   3.153 -32.146  1.00  0.00     0.011 A 
HETATM   10  C   UNL     1      -7.406   1.785 -32.345  1.00  0.00     0.017 A 
HETATM   11  C   UNL     1      -6.183   1.300 -32.799  1.00  0.00     0.033 A 
HETATM   12  C   UNL     1      -5.143   2.204 -33.059  1.00  0.00     0.030 A 
BRANCH   8  13
HETATM   13  C   UNL     1      -6.815   5.520 -32.039  1.00  0.00     0.306 C 
BRANCH  13  14
HETATM   14  N   UNL     1      -7.190   6.280 -33.227  1.00  0.00     0.082 N 
HETATM   15  H   UNL     1      -6.787   5.831 -34.047  1.00  0.00     0.313 HD
HETATM   16  H   UNL     1      -6.771   7.207 -33.178  1.00  0.00     0.313 HD
ENDBRANCH  13  14
ENDBRANCH   8  13
BRANCH  11  17
HETATM   17  C   UNL     1      -5.994  -0.179 -32.892  1.00  0.00     0.256 C 
HETATM   18  O   UNL     1      -6.977  -0.900 -32.751  1.00  0.00    -0.267 OA
HETATM   19  N   UNL     1      -4.706  -0.611 -33.142  1.00  0.00    -0.320 N 
HETATM   20  H   UNL     1      -4.017   0.075 -33.432  1.00  0.00     0.169 HD
BRANCH  19  21
HETATM   21  C   UNL     1      -4.235  -1.944 -33.098  1.00  0.00     0.076 A 
HETATM   22  C   UNL     1      -3.442  -2.461 -32.076  1.00  0.00     0.052 A 
HETATM   23  C   UNL     1      -3.017  -3.781 -32.169  1.00  0.00     0.118 A 
HETATM   24  N   UNL     1      -3.326  -4.607 -33.195  1.00  0.00    -0.270 NA
HETATM   25  C   UNL     1      -4.094  -4.082 -34.176  1.00  0.00     0.160 A 
HETATM   26  C   UNL     1      -4.558  -2.779 -34.168  1.00  0.00     0.160 A 
HETATM   27  F   UNL     1      -5.310  -2.323 -35.181  1.00  0.00    -0.202 F 
ENDBRANCH  19  21
ENDBRANCH  11  17
ENDBRANCH   1   7
BRANCH   5  28
HETATM   28  C   UNL     1      -1.051   5.660 -31.237  1.00  0.00     0.256 C 
HETATM   29  O   UNL     1      -0.023   4.995 -31.319  1.00  0.00    -0.267 OA
HETATM   30  N   UNL     1      -1.395   6.507 -30.201  1.00  0.00    -0.320 N 
HETATM   31  H   UNL     1      -2.367   6.787 -30.119  1.00  0.00     0.169 HD
BRANCH  30  32
HETATM   32  C   UNL     1      -0.551   6.893 -29.131  1.00  0.00     0.075 A 
HETATM   33  C   UNL     1       0.331   6.009 -28.500  1.00  0.00     0.033 A 
HETATM   34  C   UNL     1       1.143   6.445 -27.451  1.00  0.00     0.003 A 
HETATM   35  C   UNL     1       1.075   7.768 -27.020  1.00  0.00     0.021 A 
HETATM   36  C   UNL     1       0.205   8.670 -27.647  1.00  0.00     0.080 A 
HETATM   37  C   UNL     1      -0.595   8.229 -28.705  1.00  0.00     0.159 A 
HETATM   38  F   UNL     1      -1.460   9.057 -29.314  1.00  0.00    -0.203 F 
BRANCH  36  39
HETATM   39  C   UNL     1       0.150  10.045 -27.109  1.00  0.00     0.296 C 
HETATM   40  O   UNL     1      -0.815  10.776 -27.277  1.00  0.00    -0.259 OA
BRANCH  39  41
HETATM   41  O   UNL     1       1.255  10.343 -26.386  1.00  0.00    -0.312 OA
BRANCH  41  42
HETATM   42  C   UNL     1       0.998  10.898 -25.094  1.00  0.00     0.132 C 
HETATM   43  C   UNL     1       0.244   9.932 -24.186  1.00  0.00     0.032 C 
HETATM   44  C   UNL     1       0.546  10.472 -22.799  1.00  0.00     0.002 C 
HETATM   45  C   UNL     1       2.007  10.903 -22.871  1.00  0.00     0.002 C 
HETATM   46  C   UNL     1       2.316  11.119 -24.352  1.00  0.00     0.032 C 
ENDBRANCH  41  42
ENDBRANCH  39  41
ENDBRANCH  36  39
ENDBRANCH  30  32
ENDBRANCH   5  28
TORSDOF 10
ENDMDL
MODEL 6
REMARK VINA RESULT:      -9.2      4.169      9.963
REMARK  10 active torsions:
REMARK  status: ('A' for Active; 'I' for Inactive)
REMARK    1  A    between atoms: N_1  and  C_2 
REMARK    2  A    between atoms: C_2  and  C_3 
REMARK    3  A    between atoms: C_6  and  C_33 
REMARK    4  A    between atoms: C_8  and  C_9 
REMARK    5  A    between atoms: C_13  and  C_15 
REMARK       I    between atoms: C_15  and  N_17 
REMARK    6  A    between atoms: N_17  and  C_18 
REMARK    7  A    between atoms: C_22  and  C_23 
REMARK    8  A    between atoms: C_23  and  O_25 
REMARK    9  A    between atoms: O_25  and  C_26 
REMARK       I    between atoms: C_33  and  N_35 
REMARK   10  A    between atoms: N_35  and  C_36 
ROOT
HETATM    1  C   UNL     1      -6.807   0.960 -32.379  1.00  0.00    -0.024 A 
HETATM    2  C   UNL     1      -6.493  -0.270 -31.777  1.00  0.00     0.012 A 
HETATM    3  C   UNL     1      -5.193  -0.571 -31.353  1.00  0.00     0.002 A 
HETATM    4  C   UNL     1      -4.177   0.374 -31.475  1.00  0.00     0.017 A 
HETATM    5  C   UNL     1      -4.468   1.619 -32.035  1.00  0.00     0.033 A 
HETATM    6  C   UNL     1      -5.763   1.895 -32.500  1.00  0.00     0.029 A 
ENDROOT
BRANCH   1   7
HETATM    7  C   UNL     1      -8.188   1.311 -32.802  1.00  0.00    -0.017 A 
HETATM    8  C   UNL     1      -8.823   0.801 -33.962  1.00  0.00    -0.020 A 
HETATM    9  C   UNL     1     -10.140   1.210 -34.269  1.00  0.00     0.011 A 
HETATM   10  C   UNL     1     -10.815   2.142 -33.483  1.00  0.00     0.017 A 
HETATM   11  C   UNL     1     -10.200   2.672 -32.353  1.00  0.00     0.033 A 
HETATM   12  C   UNL     1      -8.906   2.248 -32.016  1.00  0.00     0.030 A 
BRANCH   8  13
HETATM   13  C   UNL     1      -8.164  -0.151 -34.937  1.00  0.00     0.306 C 
BRANCH  13  14
HETATM   14  N   UNL     1      -7.127   0.513 -35.719  1.00  0.00     0.082 N 
HETATM   15  H   UNL     1      -6.452  -0.182 -36.031  1.00  0.00     0.313 HD
HETATM   16  H   UNL     1      -6.614   1.156 -35.117  1.00  0.00     0.313 HD
ENDBRANCH  13  14
ENDBRANCH   8  13
BRANCH  11  17
HETATM   17  C   UNL     1     -10.905   3.751 -31.599  1.00  0.00     0.256 C 
HETATM   18  O   UNL     1     -10.544   3.989 -30.451  1.00  0.00    -0.267 OA
HETATM   19  N   UNL     1     -11.915   4.404 -32.278  1.00  0.00    -0.320 N 
HETATM   20  H   UNL     1     -11.995   4.257 -33.279  1.00  0.00     0.169 HD
BRANCH  19  21
HETATM   21  C   UNL     1     -12.843   5.325 -31.738  1.00  0.00     0.076 A 
HETATM   22  C   UNL     1     -12.675   6.708 -31.758  1.00  0.00     0.052 A 
HETATM   23  C   UNL     1     -13.647   7.503 -31.163  1.00  0.00     0.118 A 
HETATM   24  N   UNL     1     -14.758   7.021 -30.561  1.00  0.00    -0.270 NA
HETATM   25  C   UNL     1     -14.898   5.676 -30.551  1.00  0.00     0.160 A 
HETATM   26  C   UNL     1     -13.979   4.809 -31.116  1.00  0.00     0.160 A 
HETATM   27  F   UNL     1     -14.180   3.483 -31.062  1.00  0.00    -0.202 F 
ENDBRANCH  19  21
ENDBRANCH  11  17
ENDBRANCH   1   7
BRANCH   5  28
HETATM   28  C   UNL     1      -3.479   2.726 -32.022  1.00  0.00     0.256 C 
HETATM   29  O   UNL     1      -2.568   2.668 -31.202  1.00  0.00    -0.267 OA
HETATM   30  N   UNL     1      -3.695   3.743 -32.932  1.00  0.00    -0.320 N 
HETATM   31  H   UNL     1      -4.612   3.809 -33.362  1.00  0.00     0.169 HD
BRANCH  30  32
HETATM   32  C   UNL     1      -2.811   4.818 -33.199  1.00  0.00     0.075 A 
HETATM   33  C   UNL     1      -1.939   4.833 -34.293  1.00  0.00     0.033 A 
HETATM   34  C   UNL     1      -1.092   5.921 -34.510  1.00  0.00     0.003 A 
HETATM   35  C   UNL     1      -1.105   7.001 -33.630  1.00  0.00     0.021 A 
HETATM   36  C   UNL     1      -1.980   7.009 -32.535  1.00  0.00     0.080 A 
HETATM   37  C   UNL     1      -2.834   5.921 -32.333  1.00  0.00     0.159 A 
HETATM   38  F   UNL     1      -3.668   5.879 -31.280  1.00  0.00    -0.203 F 
BRANCH  36  39
HETATM   39  C   UNL     1      -1.909   8.165 -31.618  1.00  0.00     0.296 C 
HETATM   40  O   UNL     1      -1.971   9.319 -32.012  1.00  0.00    -0.259 OA
BRANCH  39  41
HETATM   41  O   UNL     1      -1.827   7.772 -30.325  1.00  0.00    -0.312 OA
BRANCH  41  42
HETATM   42  C   UNL     1      -0.497   7.623 -29.822  1.00  0.00     0.132 C 
HETATM   43  C   UNL     1      -0.263   8.430 -28.551  1.00  0.00     0.032 C 
HETATM   44  C   UNL     1       0.942   7.741 -27.934  1.00  0.00     0.002 C 
HETATM   45  C   UNL     1       0.703   6.258 -28.194  1.00  0.00     0.002 C 
HETATM   46  C   UNL     1      -0.271   6.181 -29.370  1.00  0.00     0.032 C 
ENDBRANCH  41  42
ENDBRANCH  39  41
ENDBRANCH  36  39
ENDBRANCH  30  32
ENDBRANCH   5  28
TORSDOF 10
ENDMDL
MODEL 7
REMARK VINA RESULT:      -9.2      2.769      4.010
REMARK  10 active torsions:
REMARK  status: ('A' for Active; 'I' for Inactive)
REMARK    1  A    between atoms: N_1  and  C_2 
REMARK    2  A    between atoms: C_2  and  C_3 
REMARK    3  A    between atoms: C_6  and  C_33 
REMARK    4  A    between atoms: C_8  and  C_9 
REMARK    5  A    between atoms: C_13  and  C_15 
REMARK       I    between atoms: C_15  and  N_17 
REMARK    6  A    between atoms: N_17  and  C_18 
REMARK    7  A    between atoms: C_22  and  C_23 
REMARK    8  A    between atoms: C_23  and  O_25 
REMARK    9  A    between atoms: O_25  and  C_26 
REMARK       I    between atoms: C_33  and  N_35 
REMARK   10  A    between atoms: N_35  and  C_36 
ROOT
HETATM    1  C   UNL     1      -2.124   7.650 -30.923  1.00  0.00    -0.024 A 
HETATM    2  C   UNL     1      -1.473   7.967 -32.127  1.00  0.00     0.012 A 
HETATM    3  C   UNL     1      -1.215   6.995 -33.101  1.00  0.00     0.002 A 
HETATM    4  C   UNL     1      -1.646   5.683 -32.919  1.00  0.00     0.017 A 
HETATM    5  C   UNL     1      -2.329   5.347 -31.748  1.00  0.00     0.033 A 
HETATM    6  C   UNL     1      -2.543   6.317 -30.756  1.00  0.00     0.029 A 
ENDROOT
BRANCH   1   7
HETATM    7  C   UNL     1      -2.439   8.674 -29.893  1.00  0.00    -0.017 A 
HETATM    8  C   UNL     1      -3.642   9.423 -29.852  1.00  0.00    -0.020 A 
HETATM    9  C   UNL     1      -3.832  10.377 -28.826  1.00  0.00     0.011 A 
HETATM   10  C   UNL     1      -2.843  10.631 -27.877  1.00  0.00     0.017 A 
HETATM   11  C   UNL     1      -1.647   9.921 -27.914  1.00  0.00     0.033 A 
HETATM   12  C   UNL     1      -1.459   8.948 -28.906  1.00  0.00     0.030 A 
BRANCH   8  13
HETATM   13  C   UNL     1      -4.752   9.296 -30.873  1.00  0.00     0.306 C 
BRANCH  13  14
HETATM   14  N   UNL     1      -5.868   8.509 -30.358  1.00  0.00     0.082 N 
HETATM   15  H   UNL     1      -6.680   8.656 -30.954  1.00  0.00     0.313 HD
HETATM   16  H   UNL     1      -6.127   8.858 -29.436  1.00  0.00     0.313 HD
ENDBRANCH  13  14
ENDBRANCH   8  13
BRANCH  11  17
HETATM   17  C   UNL     1      -0.566  10.299 -26.954  1.00  0.00     0.256 C 
HETATM   18  O   UNL     1      -0.007  11.380 -27.105  1.00  0.00    -0.267 OA
HETATM   19  N   UNL     1      -0.294   9.383 -25.957  1.00  0.00    -0.320 N 
HETATM   20  H   UNL     1      -0.947   8.619 -25.815  1.00  0.00     0.169 HD
BRANCH  19  21
HETATM   21  C   UNL     1       0.787   9.417 -25.045  1.00  0.00     0.076 A 
HETATM   22  C   UNL     1       0.706   9.933 -23.753  1.00  0.00     0.052 A 
HETATM   23  C   UNL     1       1.851   9.937 -22.967  1.00  0.00     0.118 A 
HETATM   24  N   UNL     1       3.053   9.469 -23.375  1.00  0.00    -0.270 NA
HETATM   25  C   UNL     1       3.108   8.976 -24.632  1.00  0.00     0.160 A 
HETATM   26  C   UNL     1       2.019   8.934 -25.485  1.00  0.00     0.160 A 
HETATM   27  F   UNL     1       2.149   8.438 -26.725  1.00  0.00    -0.202 F 
ENDBRANCH  19  21
ENDBRANCH  11  17
ENDBRANCH   1   7
BRANCH   5  28
HETATM   28  C   UNL     1      -2.972   4.020 -31.578  1.00  0.00     0.256 C 
HETATM   29  O   UNL     1      -2.244   3.058 -31.353  1.00  0.00    -0.267 OA
HETATM   30  N   UNL     1      -4.346   3.989 -31.715  1.00  0.00    -0.320 N 
HETATM   31  H   UNL     1      -4.797   4.783 -32.157  1.00  0.00     0.169 HD
BRANCH  30  32
HETATM   32  C   UNL     1      -5.180   2.874 -31.453  1.00  0.00     0.075 A 
HETATM   33  C   UNL     1      -5.400   2.374 -30.166  1.00  0.00     0.033 A 
HETATM   34  C   UNL     1      -6.236   1.273 -29.965  1.00  0.00     0.003 A 
HETATM   35  C   UNL     1      -6.854   0.660 -31.053  1.00  0.00     0.021 A 
HETATM   36  C   UNL     1      -6.654   1.155 -32.349  1.00  0.00     0.080 A 
HETATM   37  C   UNL     1      -5.827   2.265 -32.539  1.00  0.00     0.159 A 
HETATM   38  F   UNL     1      -5.589   2.753 -33.768  1.00  0.00    -0.203 F 
BRANCH  36  39
HETATM   39  C   UNL     1      -7.304   0.430 -33.460  1.00  0.00     0.296 C 
HETATM   40  O   UNL     1      -8.511   0.461 -33.646  1.00  0.00    -0.259 OA
BRANCH  39  41
HETATM   41  O   UNL     1      -6.397  -0.201 -34.243  1.00  0.00    -0.312 OA
BRANCH  41  42
HETATM   42  C   UNL     1      -6.119  -1.554 -33.875  1.00  0.00     0.132 C 
HETATM   43  C   UNL     1      -6.588  -2.551 -34.928  1.00  0.00     0.032 C 
HETATM   44  C   UNL     1      -5.759  -3.784 -34.614  1.00  0.00     0.002 C 
HETATM   45  C   UNL     1      -4.386  -3.233 -34.244  1.00  0.00     0.002 C 
HETATM   46  C   UNL     1      -4.608  -1.779 -33.825  1.00  0.00     0.032 C 
ENDBRANCH  41  42
ENDBRANCH  39  41
ENDBRANCH  36  39
ENDBRANCH  30  32
ENDBRANCH   5  28
TORSDOF 10
ENDMDL
MODEL 8
REMARK VINA RESULT:      -9.1      7.199      9.905
REMARK  10 active torsions:
REMARK  status: ('A' for Active; 'I' for Inactive)
REMARK    1  A    between atoms: N_1  and  C_2 
REMARK    2  A    between atoms: C_2  and  C_3 
REMARK    3  A    between atoms: C_6  and  C_33 
REMARK    4  A    between atoms: C_8  and  C_9 
REMARK    5  A    between atoms: C_13  and  C_15 
REMARK       I    between atoms: C_15  and  N_17 
REMARK    6  A    between atoms: N_17  and  C_18 
REMARK    7  A    between atoms: C_22  and  C_23 
REMARK    8  A    between atoms: C_23  and  O_25 
REMARK    9  A    between atoms: O_25  and  C_26 
REMARK       I    between atoms: C_33  and  N_35 
REMARK   10  A    between atoms: N_35  and  C_36 
ROOT
HETATM    1  C   UNL     1     -12.153   3.509 -33.682  1.00  0.00    -0.024 A 
HETATM    2  C   UNL     1     -13.054   2.773 -34.470  1.00  0.00     0.012 A 
HETATM    3  C   UNL     1     -12.830   1.426 -34.780  1.00  0.00     0.002 A 
HETATM    4  C   UNL     1     -11.719   0.761 -34.266  1.00  0.00     0.017 A 
HETATM    5  C   UNL     1     -10.826   1.457 -33.449  1.00  0.00     0.033 A 
HETATM    6  C   UNL     1     -11.033   2.819 -33.181  1.00  0.00     0.029 A 
ENDROOT
BRANCH   1   7
HETATM    7  C   UNL     1     -12.391   4.928 -33.312  1.00  0.00    -0.017 A 
HETATM    8  C   UNL     1     -13.081   5.346 -32.146  1.00  0.00    -0.020 A 
HETATM    9  C   UNL     1     -13.253   6.727 -31.898  1.00  0.00     0.011 A 
HETATM   10  C   UNL     1     -12.800   7.690 -32.798  1.00  0.00     0.017 A 
HETATM   11  C   UNL     1     -12.140   7.298 -33.960  1.00  0.00     0.033 A 
HETATM   12  C   UNL     1     -11.932   5.933 -34.201  1.00  0.00     0.030 A 
BRANCH   8  13
HETATM   13  C   UNL     1     -13.690   4.396 -31.138  1.00  0.00     0.306 C 
BRANCH  13  14
HETATM   14  N   UNL     1     -12.716   3.984 -30.132  1.00  0.00     0.082 N 
HETATM   15  H   UNL     1     -12.535   2.987 -30.235  1.00  0.00     0.313 HD
HETATM   16  H   UNL     1     -13.121   4.104 -29.205  1.00  0.00     0.313 HD
ENDBRANCH  13  14
ENDBRANCH   8  13
BRANCH  11  17
HETATM   17  C   UNL     1     -11.770   8.348 -34.956  1.00  0.00     0.256 C 
HETATM   18  O   UNL     1     -11.854   9.525 -34.618  1.00  0.00    -0.267 OA
HETATM   19  N   UNL     1     -11.350   7.892 -36.190  1.00  0.00    -0.320 N 
HETATM   20  H   UNL     1     -11.136   6.905 -36.290  1.00  0.00     0.169 HD
BRANCH  19  21
HETATM   21  C   UNL     1     -11.119   8.669 -37.349  1.00  0.00     0.076 A 
HETATM   22  C   UNL     1      -9.935   9.355 -37.609  1.00  0.00     0.052 A 
HETATM   23  C   UNL     1      -9.848  10.111 -38.771  1.00  0.00     0.118 A 
HETATM   24  N   UNL     1     -10.845  10.227 -39.678  1.00  0.00    -0.270 NA
HETATM   25  C   UNL     1     -11.985   9.556 -39.403  1.00  0.00     0.160 A 
HETATM   26  C   UNL     1     -12.161   8.782 -38.269  1.00  0.00     0.160 A 
HETATM   27  F   UNL     1     -13.325   8.148 -38.057  1.00  0.00    -0.202 F 
ENDBRANCH  19  21
ENDBRANCH  11  17
ENDBRANCH   1   7
BRANCH   5  28
HETATM   28  C   UNL     1      -9.732   0.761 -32.726  1.00  0.00     0.256 C 
HETATM   29  O   UNL     1      -9.924  -0.401 -32.381  1.00  0.00    -0.267 OA
HETATM   30  N   UNL     1      -8.594   1.506 -32.485  1.00  0.00    -0.320 N 
HETATM   31  H   UNL     1      -8.657   2.515 -32.579  1.00  0.00     0.169 HD
BRANCH  30  32
HETATM   32  C   UNL     1      -7.379   1.013 -31.948  1.00  0.00     0.075 A 
HETATM   33  C   UNL     1      -6.987   1.233 -30.623  1.00  0.00     0.033 A 
HETATM   34  C   UNL     1      -5.779   0.720 -30.145  1.00  0.00     0.003 A 
HETATM   35  C   UNL     1      -4.950  -0.012 -30.992  1.00  0.00     0.021 A 
HETATM   36  C   UNL     1      -5.331  -0.252 -32.319  1.00  0.00     0.080 A 
HETATM   37  C   UNL     1      -6.548   0.254 -32.785  1.00  0.00     0.159 A 
HETATM   38  F   UNL     1      -6.937   0.068 -34.058  1.00  0.00    -0.203 F 
BRANCH  36  39
HETATM   39  C   UNL     1      -4.384  -0.996 -33.174  1.00  0.00     0.296 C 
HETATM   40  O   UNL     1      -3.545  -0.437 -33.864  1.00  0.00    -0.259 OA
BRANCH  39  41
HETATM   41  O   UNL     1      -4.537  -2.335 -33.041  1.00  0.00    -0.312 OA
BRANCH  41  42
HETATM   42  C   UNL     1      -4.851  -3.029 -34.251  1.00  0.00     0.132 C 
HETATM   43  C   UNL     1      -4.544  -4.519 -34.163  1.00  0.00     0.032 C 
HETATM   44  C   UNL     1      -5.405  -5.104 -35.269  1.00  0.00     0.002 C 
HETATM   45  C   UNL     1      -6.702  -4.306 -35.201  1.00  0.00     0.002 C 
HETATM   46  C   UNL     1      -6.360  -2.995 -34.492  1.00  0.00     0.032 C 
ENDBRANCH  41  42
ENDBRANCH  39  41
ENDBRANCH  36  39
ENDBRANCH  30  32
ENDBRANCH   5  28
TORSDOF 10
ENDMDL
MODEL 9
REMARK VINA RESULT:      -9.0      3.502     11.447
REMARK  10 active torsions:
REMARK  status: ('A' for Active; 'I' for Inactive)
REMARK    1  A    between atoms: N_1  and  C_2 
REMARK    2  A    between atoms: C_2  and  C_3 
REMARK    3  A    between atoms: C_6  and  C_33 
REMARK    4  A    between atoms: C_8  and  C_9 
REMARK    5  A    between atoms: C_13  and  C_15 
REMARK       I    between atoms: C_15  and  N_17 
REMARK    6  A    between atoms: N_17  and  C_18 
REMARK    7  A    between atoms: C_22  and  C_23 
REMARK    8  A    between atoms: C_23  and  O_25 
REMARK    9  A    between atoms: O_25  and  C_26 
REMARK       I    between atoms: C_33  and  N_35 
REMARK   10  A    between atoms: N_35  and  C_36 
ROOT
HETATM    1  C   UNL     1      -8.466   4.042 -31.544  1.00  0.00    -0.024 A 
HETATM    2  C   UNL     1      -9.227   4.515 -30.462  1.00  0.00     0.012 A 
HETATM    3  C   UNL     1      -8.743   5.509 -29.601  1.00  0.00     0.002 A 
HETATM    4  C   UNL     1      -7.500   6.094 -29.831  1.00  0.00     0.017 A 
HETATM    5  C   UNL     1      -6.738   5.670 -30.921  1.00  0.00     0.033 A 
HETATM    6  C   UNL     1      -7.210   4.642 -31.751  1.00  0.00     0.029 A 
ENDROOT
BRANCH   1   7
HETATM    7  C   UNL     1      -8.976   3.015 -32.489  1.00  0.00    -0.017 A 
HETATM    8  C   UNL     1     -10.347   2.817 -32.793  1.00  0.00    -0.020 A 
HETATM    9  C   UNL     1     -10.717   1.804 -33.705  1.00  0.00     0.011 A 
HETATM   10  C   UNL     1      -9.769   0.961 -34.281  1.00  0.00     0.017 A 
HETATM   11  C   UNL     1      -8.420   1.124 -33.978  1.00  0.00     0.033 A 
HETATM   12  C   UNL     1      -8.035   2.148 -33.101  1.00  0.00     0.030 A 
BRANCH   8  13
HETATM   13  C   UNL     1     -11.474   3.614 -32.170  1.00  0.00     0.306 C 
BRANCH  13  14
HETATM   14  N   UNL     1     -12.013   4.599 -33.101  1.00  0.00     0.082 N 
HETATM   15  H   UNL     1     -12.755   4.167 -33.647  1.00  0.00     0.313 HD
HETATM   16  H   UNL     1     -11.288   4.863 -33.767  1.00  0.00     0.313 HD
ENDBRANCH  13  14
ENDBRANCH   8  13
BRANCH  11  17
HETATM   17  C   UNL     1      -7.444   0.133 -34.521  1.00  0.00     0.256 C 
HETATM   18  O   UNL     1      -6.884   0.389 -35.582  1.00  0.00    -0.267 OA
HETATM   19  N   UNL     1      -7.247  -1.003 -33.760  1.00  0.00    -0.320 N 
HETATM   20  H   UNL     1      -7.613  -1.018 -32.814  1.00  0.00     0.169 HD
BRANCH  19  21
HETATM   21  C   UNL     1      -6.523  -2.160 -34.134  1.00  0.00     0.076 A 
HETATM   22  C   UNL     1      -7.112  -3.347 -34.565  1.00  0.00     0.052 A 
HETATM   23  C   UNL     1      -6.288  -4.423 -34.872  1.00  0.00     0.118 A 
HETATM   24  N   UNL     1      -4.939  -4.396 -34.781  1.00  0.00    -0.270 NA
HETATM   25  C   UNL     1      -4.391  -3.235 -34.358  1.00  0.00     0.160 A 
HETATM   26  C   UNL     1      -5.134  -2.115 -34.029  1.00  0.00     0.160 A 
HETATM   27  F   UNL     1      -4.521  -0.997 -33.608  1.00  0.00    -0.202 F 
ENDBRANCH  19  21
ENDBRANCH  11  17
ENDBRANCH   1   7
BRANCH   5  28
HETATM   28  C   UNL     1      -5.497   6.379 -31.323  1.00  0.00     0.256 C 
HETATM   29  O   UNL     1      -5.365   7.546 -30.965  1.00  0.00    -0.267 OA
HETATM   30  N   UNL     1      -4.607   5.656 -32.093  1.00  0.00    -0.320 N 
HETATM   31  H   UNL     1      -4.945   4.808 -32.540  1.00  0.00     0.169 HD
BRANCH  30  32
HETATM   32  C   UNL     1      -3.306   6.071 -32.466  1.00  0.00     0.075 A 
HETATM   33  C   UNL     1      -3.039   6.774 -33.646  1.00  0.00     0.033 A 
HETATM   34  C   UNL     1      -1.736   7.163 -33.962  1.00  0.00     0.003 A 
HETATM   35  C   UNL     1      -0.686   6.845 -33.102  1.00  0.00     0.021 A 
HETATM   36  C   UNL     1      -0.936   6.152 -31.910  1.00  0.00     0.080 A 
HETATM   37  C   UNL     1      -2.245   5.779 -31.595  1.00  0.00     0.159 A 
HETATM   38  F   UNL     1      -2.521   5.090 -30.475  1.00  0.00    -0.203 F 
BRANCH  36  39
HETATM   39  C   UNL     1       0.229   5.809 -31.068  1.00  0.00     0.296 C 
HETATM   40  O   UNL     1       0.686   4.677 -31.012  1.00  0.00    -0.259 OA
BRANCH  39  41
HETATM   41  O   UNL     1       0.729   6.898 -30.439  1.00  0.00    -0.312 OA
BRANCH  41  42
HETATM   42  C   UNL     1       0.172   7.158 -29.148  1.00  0.00     0.132 C 
HETATM   43  C   UNL     1       0.219   5.936 -28.238  1.00  0.00     0.032 C 
HETATM   44  C   UNL     1       0.097   6.546 -26.853  1.00  0.00     0.002 C 
HETATM   45  C   UNL     1       0.933   7.819 -26.925  1.00  0.00     0.002 C 
HETATM   46  C   UNL     1       1.033   8.181 -28.408  1.00  0.00     0.032 C 
ENDBRANCH  41  42
ENDBRANCH  39  41
ENDBRANCH  36  39
ENDBRANCH  30  32
ENDBRANCH   5  28
TORSDOF 10
ENDMDL
MODEL 10
REMARK VINA RESULT:      -8.9      6.243     10.839
REMARK  10 active torsions:
REMARK  status: ('A' for Active; 'I' for Inactive)
REMARK    1  A    between atoms: N_1  and  C_2 
REMARK    2  A    between atoms: C_2  and  C_3 
REMARK    3  A    between atoms: C_6  and  C_33 
REMARK    4  A    between atoms: C_8  and  C_9 
REMARK    5  A    between atoms: C_13  and  C_15 
REMARK       I    between atoms: C_15  and  N_17 
REMARK    6  A    between atoms: N_17  and  C_18 
REMARK    7  A    between atoms: C_22  and  C_23 
REMARK    8  A    between atoms: C_23  and  O_25 
REMARK    9  A    between atoms: O_25  and  C_26 
REMARK       I    between atoms: C_33  and  N_35 
REMARK   10  A    between atoms: N_35  and  C_36 
ROOT
HETATM    1  C   UNL     1     -12.703   2.703 -33.645  1.00  0.00    -0.024 A 
HETATM    2  C   UNL     1     -13.770   1.801 -33.795  1.00  0.00     0.012 A 
HETATM    3  C   UNL     1     -13.567   0.415 -33.799  1.00  0.00     0.002 A 
HETATM    4  C   UNL     1     -12.292  -0.110 -33.601  1.00  0.00     0.017 A 
HETATM    5  C   UNL     1     -11.218   0.762 -33.412  1.00  0.00     0.033 A 
HETATM    6  C   UNL     1     -11.422   2.149 -33.456  1.00  0.00     0.029 A 
ENDROOT
BRANCH   1   7
HETATM    7  C   UNL     1     -12.902   4.174 -33.602  1.00  0.00    -0.017 A 
HETATM    8  C   UNL     1     -13.159   4.913 -32.420  1.00  0.00    -0.020 A 
HETATM    9  C   UNL     1     -13.338   6.312 -32.499  1.00  0.00     0.011 A 
HETATM   10  C   UNL     1     -13.312   6.980 -33.722  1.00  0.00     0.017 A 
HETATM   11  C   UNL     1     -13.083   6.270 -34.897  1.00  0.00     0.033 A 
HETATM   12  C   UNL     1     -12.870   4.885 -34.828  1.00  0.00     0.030 A 
BRANCH   8  13
HETATM   13  C   UNL     1     -13.292   4.290 -31.046  1.00  0.00     0.306 C 
BRANCH  13  14
HETATM   14  N   UNL     1     -11.992   4.122 -30.405  1.00  0.00     0.082 N 
HETATM   15  H   UNL     1     -11.441   4.966 -30.548  1.00  0.00     0.313 HD
HETATM   16  H   UNL     1     -11.485   3.370 -30.869  1.00  0.00     0.313 HD
ENDBRANCH  13  14
ENDBRANCH   8  13
BRANCH  11  17
HETATM   17  C   UNL     1     -13.176   6.998 -36.198  1.00  0.00     0.256 C 
HETATM   18  O   UNL     1     -14.093   6.710 -36.960  1.00  0.00    -0.267 OA
HETATM   19  N   UNL     1     -12.208   7.956 -36.427  1.00  0.00    -0.320 N 
HETATM   20  H   UNL     1     -11.622   8.242 -35.650  1.00  0.00     0.169 HD
BRANCH  19  21
HETATM   21  C   UNL     1     -11.969   8.648 -37.638  1.00  0.00     0.076 A 
HETATM   22  C   UNL     1     -12.890   8.749 -38.677  1.00  0.00     0.052 A 
HETATM   23  C   UNL     1     -12.518   9.431 -39.829  1.00  0.00     0.118 A 
HETATM   24  N   UNL     1     -11.310  10.011 -40.011  1.00  0.00    -0.270 NA
HETATM   25  C   UNL     1     -10.431   9.897 -38.990  1.00  0.00     0.160 A 
HETATM   26  C   UNL     1     -10.715   9.234 -37.809  1.00  0.00     0.160 A 
HETATM   27  F   UNL     1      -9.790   9.153 -36.840  1.00  0.00    -0.202 F 
ENDBRANCH  19  21
ENDBRANCH  11  17
ENDBRANCH   1   7
BRANCH   5  28
HETATM   28  C   UNL     1      -9.876   0.265 -33.015  1.00  0.00     0.256 C 
HETATM   29  O   UNL     1      -9.746  -0.186 -31.881  1.00  0.00    -0.267 OA
HETATM   30  N   UNL     1      -8.880   0.382 -33.965  1.00  0.00    -0.320 N 
HETATM   31  H   UNL     1      -9.043   1.004 -34.751  1.00  0.00     0.169 HD
BRANCH  30  32
HETATM   32  C   UNL     1      -7.572  -0.152 -33.865  1.00  0.00     0.075 A 
HETATM   33  C   UNL     1      -7.146  -1.267 -34.594  1.00  0.00     0.033 A 
HETATM   34  C   UNL     1      -5.843  -1.749 -34.459  1.00  0.00     0.003 A 
HETATM   35  C   UNL     1      -4.955  -1.121 -33.587  1.00  0.00     0.021 A 
HETATM   36  C   UNL     1      -5.360   0.004 -32.857  1.00  0.00     0.080 A 
HETATM   37  C   UNL     1      -6.663   0.488 -33.009  1.00  0.00     0.159 A 
HETATM   38  F   UNL     1      -7.097   1.548 -32.306  1.00  0.00    -0.203 F 
BRANCH  36  39
HETATM   39  C   UNL     1      -4.383   0.592 -31.917  1.00  0.00     0.296 C 
HETATM   40  O   UNL     1      -4.214   0.155 -30.789  1.00  0.00    -0.259 OA
BRANCH  39  41
HETATM   41  O   UNL     1      -3.691   1.606 -32.487  1.00  0.00    -0.312 OA
BRANCH  41  42
HETATM   42  C   UNL     1      -3.394   2.699 -31.614  1.00  0.00     0.132 C 
HETATM   43  C   UNL     1      -2.659   3.829 -32.326  1.00  0.00     0.032 C 
HETATM   44  C   UNL     1      -2.919   5.020 -31.421  1.00  0.00     0.002 C 
HETATM   45  C   UNL     1      -4.365   4.844 -30.970  1.00  0.00     0.002 C 
HETATM   46  C   UNL     1      -4.691   3.361 -31.151  1.00  0.00     0.032 C 
ENDBRANCH  41  42
ENDBRANCH  39  41
ENDBRANCH  36  39
ENDBRANCH  30  32
ENDBRANCH   5  28
TORSDOF 10
ENDMDL
