MODEL 1
REMARK VINA RESULT:     -10.4      0.000      0.000
REMARK  4 active torsions:
REMARK  status: ('A' for Active; 'I' for Inactive)
REMARK    1  A    between atoms: N_7  and  N_8 
REMARK       I    between atoms: N_8  and  C_9 
REMARK    2  A    between atoms: C_9  and  C_10 
REMARK    3  A    between atoms: C_15  and  C_16 
REMARK    4  A    between atoms: C_24  and  C_25 
ROOT
HETATM    1  C   UNL     1      -3.043   4.059 -32.155  1.00  0.00     0.150 A 
HETATM    2  N   UNL     1      -4.029   4.400 -33.017  1.00  0.00    -0.165 NA
HETATM    3  N   UNL     1      -4.810   3.308 -33.047  1.00  0.00    -0.240 N 
HETATM    4  C   UNL     1      -4.328   2.256 -32.322  1.00  0.00     0.123 A 
HETATM    5  N   UNL     1      -4.927   1.048 -32.355  1.00  0.00    -0.366 N 
HETATM    6  C   UNL     1      -6.088   0.774 -33.200  1.00  0.00     0.118 C 
HETATM    7  C   UNL     1      -6.181   1.787 -34.360  1.00  0.00     0.066 C 
HETATM    8  C   UNL     1      -5.999   3.233 -33.872  1.00  0.00     0.221 C 
HETATM    9  C   UNL     1      -3.213   2.726 -31.681  1.00  0.00     0.089 A 
HETATM   10  H   UNL     1      -4.637   0.292 -31.735  1.00  0.00     0.161 HD
ENDROOT
BRANCH   1  11
HETATM   11  C   UNL     1      -1.942   4.974 -31.818  1.00  0.00     0.292 C 
HETATM   12  N   UNL     1      -1.698   5.026 -30.453  1.00  0.00    -0.241 N 
HETATM   13  H   UNL     1      -2.284   4.446 -29.845  1.00  0.00     0.192 HD
HETATM   14  O   UNL     1      -1.342   5.618 -32.674  1.00  0.00    -0.264 OA
BRANCH  12  15
HETATM   15  N   UNL     1      -0.736   5.844 -29.938  1.00  0.00    -0.165 NA
HETATM   16  C   UNL     1      -1.140   6.828 -29.202  1.00  0.00     0.157 A 
HETATM   17  C   UNL     1      -0.274   7.806 -28.555  1.00  0.00     0.027 A 
HETATM   18  C   UNL     1      -2.572   7.227 -28.825  1.00  0.00     0.277 A 
HETATM   19  C   UNL     1       1.100   7.933 -28.557  1.00  0.00     0.016 A 
HETATM   20  C   UNL     1      -1.107   8.684 -27.864  1.00  0.00     0.048 A 
HETATM   21  C   UNL     1       1.639   8.994 -27.826  1.00  0.00     0.001 A 
HETATM   22  C   UNL     1       0.801   9.885 -27.123  1.00  0.00     0.002 A 
HETATM   23  C   UNL     1      -0.591   9.736 -27.137  1.00  0.00     0.030 A 
HETATM   24  N   UNL     1      -2.446   8.341 -28.023  1.00  0.00    -0.321 N 
HETATM   25  H   UNL     1      -3.235   8.826 -27.622  1.00  0.00     0.169 HD
HETATM   26  O   UNL     1      -3.578   6.653 -29.184  1.00  0.00    -0.266 OA
ENDBRANCH  12  15
ENDBRANCH   1  11
BRANCH   8  27
HETATM   27  C   UNL     1      -7.195   3.742 -33.099  1.00  0.00     0.409 C 
HETATM   28  F   UNL     1      -7.062   3.583 -31.765  1.00  0.00    -0.169 F 
HETATM   29  F   UNL     1      -7.345   5.075 -33.315  1.00  0.00    -0.169 F 
HETATM   30  F   UNL     1      -8.358   3.163 -33.469  1.00  0.00    -0.169 F 
ENDBRANCH   8  27
BRANCH   6  31
HETATM   31  C   UNL     1      -5.997  -0.644 -33.744  1.00  0.00    -0.035 A 
HETATM   32  C   UNL     1      -4.754  -1.291 -33.825  1.00  0.00     0.012 A 
HETATM   33  C   UNL     1      -4.667  -2.601 -34.305  1.00  0.00     0.043 A 
HETATM   34  C   UNL     1      -5.821  -3.268 -34.701  1.00  0.00     0.116 A 
HETATM   35  F   UNL     1      -5.733  -4.522 -35.159  1.00  0.00    -0.206 F 
HETATM   36  C   UNL     1      -7.063  -2.651 -34.626  1.00  0.00     0.043 A 
HETATM   37  C   UNL     1      -7.152  -1.344 -34.146  1.00  0.00     0.012 A 
ENDBRANCH   6  31
TORSDOF 4
ENDMDL
MODEL 2
REMARK VINA RESULT:     -10.2      4.134     10.059
REMARK  4 active torsions:
REMARK  status: ('A' for Active; 'I' for Inactive)
REMARK    1  A    between atoms: N_7  and  N_8 
REMARK       I    between atoms: N_8  and  C_9 
REMARK    2  A    between atoms: C_9  and  C_10 
REMARK    3  A    between atoms: C_15  and  C_16 
REMARK    4  A    between atoms: C_24  and  C_25 
ROOT
HETATM    1  C   UNL     1      -5.027   2.829 -32.269  1.00  0.00     0.150 A 
HETATM    2  N   UNL     1      -4.975   3.993 -32.955  1.00  0.00    -0.165 NA
HETATM    3  N   UNL     1      -3.755   4.473 -32.666  1.00  0.00    -0.240 N 
HETATM    4  C   UNL     1      -3.060   3.723 -31.760  1.00  0.00     0.123 A 
HETATM    5  N   UNL     1      -1.874   4.137 -31.268  1.00  0.00    -0.366 N 
HETATM    6  C   UNL     1      -1.287   5.426 -31.627  1.00  0.00     0.118 C 
HETATM    7  C   UNL     1      -2.363   6.400 -32.150  1.00  0.00     0.066 C 
HETATM    8  C   UNL     1      -3.278   5.735 -33.192  1.00  0.00     0.221 C 
HETATM    9  C   UNL     1      -3.830   2.615 -31.525  1.00  0.00     0.089 A 
HETATM   10  H   UNL     1      -1.302   3.534 -30.678  1.00  0.00     0.161 HD
ENDROOT
BRANCH   1  11
HETATM   11  C   UNL     1      -6.209   1.953 -32.294  1.00  0.00     0.292 C 
HETATM   12  N   UNL     1      -7.299   2.555 -32.905  1.00  0.00    -0.241 N 
HETATM   13  H   UNL     1      -7.176   3.508 -33.262  1.00  0.00     0.192 HD
HETATM   14  O   UNL     1      -6.199   0.827 -31.802  1.00  0.00    -0.264 OA
BRANCH  12  15
HETATM   15  N   UNL     1      -8.500   1.915 -32.999  1.00  0.00    -0.165 NA
HETATM   16  C   UNL     1      -9.434   2.521 -33.658  1.00  0.00     0.157 A 
HETATM   17  C   UNL     1     -10.779   2.005 -33.878  1.00  0.00     0.027 A 
HETATM   18  C   UNL     1      -9.393   3.886 -34.356  1.00  0.00     0.277 A 
HETATM   19  C   UNL     1     -11.369   0.825 -33.472  1.00  0.00     0.016 A 
HETATM   20  C   UNL     1     -11.457   2.961 -34.632  1.00  0.00     0.048 A 
HETATM   21  C   UNL     1     -12.698   0.619 -33.850  1.00  0.00     0.001 A 
HETATM   22  C   UNL     1     -13.388   1.582 -34.615  1.00  0.00     0.002 A 
HETATM   23  C   UNL     1     -12.768   2.772 -35.015  1.00  0.00     0.030 A 
HETATM   24  N   UNL     1     -10.644   4.056 -34.909  1.00  0.00    -0.321 N 
HETATM   25  H   UNL     1     -10.909   4.875 -35.436  1.00  0.00     0.169 HD
HETATM   26  O   UNL     1      -8.436   4.630 -34.385  1.00  0.00    -0.266 OA
ENDBRANCH  12  15
ENDBRANCH   1  11
BRANCH   8  27
HETATM   27  C   UNL     1      -2.585   5.513 -34.517  1.00  0.00     0.409 C 
HETATM   28  F   UNL     1      -3.442   5.509 -35.560  1.00  0.00    -0.169 F 
HETATM   29  F   UNL     1      -1.703   6.521 -34.746  1.00  0.00    -0.169 F 
HETATM   30  F   UNL     1      -1.874   4.366 -34.564  1.00  0.00    -0.169 F 
ENDBRANCH   8  27
BRANCH   6  31
HETATM   31  C   UNL     1      -0.583   6.019 -30.416  1.00  0.00    -0.035 A 
HETATM   32  C   UNL     1      -0.738   7.380 -30.105  1.00  0.00     0.012 A 
HETATM   33  C   UNL     1      -0.110   7.925 -28.981  1.00  0.00     0.043 A 
HETATM   34  C   UNL     1       0.671   7.114 -28.167  1.00  0.00     0.116 A 
HETATM   35  F   UNL     1       1.271   7.640 -27.092  1.00  0.00    -0.206 F 
HETATM   36  C   UNL     1       0.836   5.765 -28.451  1.00  0.00     0.043 A 
HETATM   37  C   UNL     1       0.209   5.217 -29.570  1.00  0.00     0.012 A 
ENDBRANCH   6  31
TORSDOF 4
ENDMDL
MODEL 3
REMARK VINA RESULT:     -10.2      3.352      9.914
REMARK  4 active torsions:
REMARK  status: ('A' for Active; 'I' for Inactive)
REMARK    1  A    between atoms: N_7  and  N_8 
REMARK       I    between atoms: N_8  and  C_9 
REMARK    2  A    between atoms: C_9  and  C_10 
REMARK    3  A    between atoms: C_15  and  C_16 
REMARK    4  A    between atoms: C_24  and  C_25 
ROOT
HETATM    1  C   UNL     1      -4.726   3.564 -31.566  1.00  0.00     0.150 A 
HETATM    2  N   UNL     1      -5.463   4.421 -30.822  1.00  0.00    -0.165 NA
HETATM    3  N   UNL     1      -4.586   5.383 -30.493  1.00  0.00    -0.240 N 
HETATM    4  C   UNL     1      -3.308   5.141 -30.909  1.00  0.00     0.123 A 
HETATM    5  N   UNL     1      -2.288   5.945 -30.547  1.00  0.00    -0.366 N 
HETATM    6  C   UNL     1      -2.471   7.086 -29.652  1.00  0.00     0.118 C 
HETATM    7  C   UNL     1      -3.753   6.928 -28.808  1.00  0.00     0.066 C 
HETATM    8  C   UNL     1      -4.958   6.516 -29.671  1.00  0.00     0.221 C 
HETATM    9  C   UNL     1      -3.372   3.999 -31.661  1.00  0.00     0.089 A 
HETATM   10  H   UNL     1      -1.354   5.833 -30.942  1.00  0.00     0.161 HD
ENDROOT
BRANCH   1  11
HETATM   11  C   UNL     1      -5.294   2.337 -32.146  1.00  0.00     0.292 C 
HETATM   12  N   UNL     1      -4.320   1.501 -32.670  1.00  0.00    -0.241 N 
HETATM   13  H   UNL     1      -3.345   1.808 -32.603  1.00  0.00     0.192 HD
HETATM   14  O   UNL     1      -6.504   2.122 -32.163  1.00  0.00    -0.264 OA
BRANCH  12  15
HETATM   15  N   UNL     1      -4.651   0.327 -33.282  1.00  0.00    -0.165 NA
HETATM   16  C   UNL     1      -4.059  -0.740 -32.853  1.00  0.00     0.157 A 
HETATM   17  C   UNL     1      -4.277  -2.087 -33.367  1.00  0.00     0.027 A 
HETATM   18  C   UNL     1      -3.010  -0.883 -31.743  1.00  0.00     0.277 A 
HETATM   19  C   UNL     1      -5.106  -2.545 -34.370  1.00  0.00     0.016 A 
HETATM   20  C   UNL     1      -3.450  -2.935 -32.632  1.00  0.00     0.048 A 
HETATM   21  C   UNL     1      -5.088  -3.918 -34.628  1.00  0.00     0.001 A 
HETATM   22  C   UNL     1      -4.255  -4.781 -33.887  1.00  0.00     0.002 A 
HETATM   23  C   UNL     1      -3.421  -4.292 -32.874  1.00  0.00     0.030 A 
HETATM   24  N   UNL     1      -2.714  -2.228 -31.686  1.00  0.00    -0.321 N 
HETATM   25  H   UNL     1      -2.047  -2.620 -31.038  1.00  0.00     0.169 HD
HETATM   26  O   UNL     1      -2.561   0.028 -31.081  1.00  0.00    -0.266 OA
ENDBRANCH  12  15
ENDBRANCH   1  11
BRANCH   8  27
HETATM   27  C   UNL     1      -5.461   7.643 -30.544  1.00  0.00     0.409 C 
HETATM   28  F   UNL     1      -4.953   7.604 -31.793  1.00  0.00    -0.169 F 
HETATM   29  F   UNL     1      -6.811   7.553 -30.673  1.00  0.00    -0.169 F 
HETATM   30  F   UNL     1      -5.209   8.869 -30.035  1.00  0.00    -0.169 F 
ENDBRANCH   8  27
BRANCH   6  31
HETATM   31  C   UNL     1      -1.256   7.221 -28.746  1.00  0.00    -0.035 A 
HETATM   32  C   UNL     1      -0.053   7.738 -29.252  1.00  0.00     0.012 A 
HETATM   33  C   UNL     1       1.061   7.884 -28.419  1.00  0.00     0.043 A 
HETATM   34  C   UNL     1       0.973   7.517 -27.081  1.00  0.00     0.116 A 
HETATM   35  F   UNL     1       2.041   7.659 -26.287  1.00  0.00    -0.206 F 
HETATM   36  C   UNL     1      -0.207   7.008 -26.557  1.00  0.00     0.043 A 
HETATM   37  C   UNL     1      -1.320   6.863 -27.385  1.00  0.00     0.012 A 
ENDBRANCH   6  31
TORSDOF 4
ENDMDL
MODEL 4
REMARK VINA RESULT:     -10.1      5.722      9.840
REMARK  4 active torsions:
REMARK  status: ('A' for Active; 'I' for Inactive)
REMARK    1  A    between atoms: N_7  and  N_8 
REMARK       I    between atoms: N_8  and  C_9 
REMARK    2  A    between atoms: C_9  and  C_10 
REMARK    3  A    between atoms: C_15  and  C_16 
REMARK    4  A    between atoms: C_24  and  C_25 
ROOT
HETATM    1  C   UNL     1      -9.127   2.539 -32.012  1.00  0.00     0.150 A 
HETATM    2  N   UNL     1      -7.936   2.558 -31.370  1.00  0.00    -0.165 NA
HETATM    3  N   UNL     1      -7.148   1.804 -32.152  1.00  0.00    -0.240 N 
HETATM    4  C   UNL     1      -7.794   1.230 -33.210  1.00  0.00     0.123 A 
HETATM    5  N   UNL     1      -7.173   0.343 -34.014  1.00  0.00    -0.366 N 
HETATM    6  C   UNL     1      -5.800  -0.099 -33.778  1.00  0.00     0.118 C 
HETATM    7  C   UNL     1      -5.388   0.131 -32.309  1.00  0.00     0.066 C 
HETATM    8  C   UNL     1      -5.761   1.542 -31.825  1.00  0.00     0.221 C 
HETATM    9  C   UNL     1      -9.067   1.734 -33.186  1.00  0.00     0.089 A 
HETATM   10  H   UNL     1      -7.614  -0.004 -34.866  1.00  0.00     0.161 HD
ENDROOT
BRANCH   1  11
HETATM   11  C   UNL     1     -10.309   3.249 -31.497  1.00  0.00     0.292 C 
HETATM   12  N   UNL     1     -11.413   3.104 -32.324  1.00  0.00    -0.241 N 
HETATM   13  H   UNL     1     -11.299   2.542 -33.174  1.00  0.00     0.192 HD
HETATM   14  O   UNL     1     -10.278   3.901 -30.457  1.00  0.00    -0.264 OA
BRANCH  12  15
HETATM   15  N   UNL     1     -12.598   3.715 -32.035  1.00  0.00    -0.165 NA
HETATM   16  C   UNL     1     -13.677   3.066 -32.335  1.00  0.00     0.157 A 
HETATM   17  C   UNL     1     -15.036   3.540 -32.102  1.00  0.00     0.027 A 
HETATM   18  C   UNL     1     -13.823   1.688 -32.992  1.00  0.00     0.277 A 
HETATM   19  C   UNL     1     -15.497   4.715 -31.544  1.00  0.00     0.016 A 
HETATM   20  C   UNL     1     -15.892   2.543 -32.565  1.00  0.00     0.048 A 
HETATM   21  C   UNL     1     -16.882   4.873 -31.458  1.00  0.00     0.001 A 
HETATM   22  C   UNL     1     -17.754   3.867 -31.923  1.00  0.00     0.002 A 
HETATM   23  C   UNL     1     -17.261   2.684 -32.487  1.00  0.00     0.030 A 
HETATM   24  N   UNL     1     -15.180   1.465 -33.083  1.00  0.00    -0.321 N 
HETATM   25  H   UNL     1     -15.577   0.626 -33.478  1.00  0.00     0.169 HD
HETATM   26  O   UNL     1     -12.906   0.979 -33.346  1.00  0.00    -0.266 OA
ENDBRANCH  12  15
ENDBRANCH   1  11
BRANCH   8  27
HETATM   27  C   UNL     1      -4.879   2.614 -32.423  1.00  0.00     0.409 C 
HETATM   28  F   UNL     1      -4.656   3.640 -31.575  1.00  0.00    -0.169 F 
HETATM   29  F   UNL     1      -3.661   2.089 -32.723  1.00  0.00    -0.169 F 
HETATM   30  F   UNL     1      -5.365   3.129 -33.573  1.00  0.00    -0.169 F 
ENDBRANCH   8  27
BRANCH   6  31
HETATM   31  C   UNL     1      -5.671  -1.572 -34.138  1.00  0.00    -0.035 A 
HETATM   32  C   UNL     1      -4.425  -2.213 -34.049  1.00  0.00     0.012 A 
HETATM   33  C   UNL     1      -4.304  -3.571 -34.359  1.00  0.00     0.043 A 
HETATM   34  C   UNL     1      -5.426  -4.289 -34.755  1.00  0.00     0.116 A 
HETATM   35  F   UNL     1      -5.305  -5.589 -35.052  1.00  0.00    -0.206 F 
HETATM   36  C   UNL     1      -6.669  -3.678 -34.847  1.00  0.00     0.043 A 
HETATM   37  C   UNL     1      -6.793  -2.324 -34.537  1.00  0.00     0.012 A 
ENDBRANCH   6  31
TORSDOF 4
ENDMDL
MODEL 5
REMARK VINA RESULT:     -10.1      1.933      2.931
REMARK  4 active torsions:
REMARK  status: ('A' for Active; 'I' for Inactive)
REMARK    1  A    between atoms: N_7  and  N_8 
REMARK       I    between atoms: N_8  and  C_9 
REMARK    2  A    between atoms: C_9  and  C_10 
REMARK    3  A    between atoms: C_15  and  C_16 
REMARK    4  A    between atoms: C_24  and  C_25 
ROOT
HETATM    1  C   UNL     1      -6.086   2.974 -31.336  1.00  0.00     0.150 A 
HETATM    2  N   UNL     1      -6.610   3.156 -32.570  1.00  0.00    -0.165 NA
HETATM    3  N   UNL     1      -6.948   1.914 -32.953  1.00  0.00    -0.240 N 
HETATM    4  C   UNL     1      -6.585   0.939 -32.069  1.00  0.00     0.123 A 
HETATM    5  N   UNL     1      -6.737  -0.368 -32.365  1.00  0.00    -0.366 N 
HETATM    6  C   UNL     1      -7.244  -0.823 -33.658  1.00  0.00     0.118 C 
HETATM    7  C   UNL     1      -7.067   0.265 -34.737  1.00  0.00     0.066 C 
HETATM    8  C   UNL     1      -7.544   1.642 -34.245  1.00  0.00     0.221 C 
HETATM    9  C   UNL     1      -6.077   1.594 -30.980  1.00  0.00     0.089 A 
HETATM   10  H   UNL     1      -6.570  -1.095 -31.670  1.00  0.00     0.161 HD
ENDROOT
BRANCH   1  11
HETATM   11  C   UNL     1      -5.572   4.090 -30.527  1.00  0.00     0.292 C 
HETATM   12  N   UNL     1      -4.614   4.833 -31.200  1.00  0.00    -0.241 N 
HETATM   13  H   UNL     1      -4.371   4.541 -32.152  1.00  0.00     0.192 HD
HETATM   14  O   UNL     1      -5.960   4.298 -29.380  1.00  0.00    -0.264 OA
BRANCH  12  15
HETATM   15  N   UNL     1      -3.993   5.892 -30.605  1.00  0.00    -0.165 NA
HETATM   16  C   UNL     1      -2.712   5.805 -30.449  1.00  0.00     0.157 A 
HETATM   17  C   UNL     1      -1.866   6.827 -29.845  1.00  0.00     0.027 A 
HETATM   18  C   UNL     1      -1.768   4.658 -30.833  1.00  0.00     0.277 A 
HETATM   19  C   UNL     1      -2.183   8.062 -29.318  1.00  0.00     0.016 A 
HETATM   20  C   UNL     1      -0.562   6.338 -29.876  1.00  0.00     0.048 A 
HETATM   21  C   UNL     1      -1.129   8.821 -28.806  1.00  0.00     0.001 A 
HETATM   22  C   UNL     1       0.194   8.332 -28.836  1.00  0.00     0.002 A 
HETATM   23  C   UNL     1       0.491   7.074 -29.376  1.00  0.00     0.030 A 
HETATM   24  N   UNL     1      -0.510   5.073 -30.454  1.00  0.00    -0.321 N 
HETATM   25  H   UNL     1       0.320   4.514 -30.587  1.00  0.00     0.169 HD
HETATM   26  O   UNL     1      -2.105   3.618 -31.356  1.00  0.00    -0.266 OA
ENDBRANCH  12  15
ENDBRANCH   1  11
BRANCH   8  27
HETATM   27  C   UNL     1      -9.050   1.736 -34.148  1.00  0.00     0.409 C 
HETATM   28  F   UNL     1      -9.500   1.629 -32.880  1.00  0.00    -0.169 F 
HETATM   29  F   UNL     1      -9.462   2.948 -34.603  1.00  0.00    -0.169 F 
HETATM   30  F   UNL     1      -9.694   0.811 -34.892  1.00  0.00    -0.169 F 
ENDBRANCH   8  27
BRANCH   6  31
HETATM   31  C   UNL     1      -6.520  -2.097 -34.069  1.00  0.00    -0.035 A 
HETATM   32  C   UNL     1      -5.121  -2.173 -33.980  1.00  0.00     0.012 A 
HETATM   33  C   UNL     1      -4.452  -3.348 -34.337  1.00  0.00     0.043 A 
HETATM   34  C   UNL     1      -5.179  -4.447 -34.780  1.00  0.00     0.116 A 
HETATM   35  F   UNL     1      -4.534  -5.569 -35.121  1.00  0.00    -0.206 F 
HETATM   36  C   UNL     1      -6.563  -4.396 -34.874  1.00  0.00     0.043 A 
HETATM   37  C   UNL     1      -7.234  -3.227 -34.516  1.00  0.00     0.012 A 
ENDBRANCH   6  31
TORSDOF 4
ENDMDL
MODEL 6
REMARK VINA RESULT:     -10.1      3.577      5.244
REMARK  4 active torsions:
REMARK  status: ('A' for Active; 'I' for Inactive)
REMARK    1  A    between atoms: N_7  and  N_8 
REMARK       I    between atoms: N_8  and  C_9 
REMARK    2  A    between atoms: C_9  and  C_10 
REMARK    3  A    between atoms: C_15  and  C_16 
REMARK    4  A    between atoms: C_24  and  C_25 
ROOT
HETATM    1  C   UNL     1      -6.573   3.163 -31.600  1.00  0.00     0.150 A 
HETATM    2  N   UNL     1      -6.433   1.841 -31.853  1.00  0.00    -0.165 NA
HETATM    3  N   UNL     1      -7.418   1.585 -32.730  1.00  0.00    -0.240 N 
HETATM    4  C   UNL     1      -8.234   2.651 -32.981  1.00  0.00     0.123 A 
HETATM    5  N   UNL     1      -9.343   2.522 -33.737  1.00  0.00    -0.366 N 
HETATM    6  C   UNL     1      -9.769   1.237 -34.288  1.00  0.00     0.118 C 
HETATM    7  C   UNL     1      -9.153   0.063 -33.498  1.00  0.00     0.066 C 
HETATM    8  C   UNL     1      -7.645   0.259 -33.267  1.00  0.00     0.221 C 
HETATM    9  C   UNL     1      -7.681   3.709 -32.310  1.00  0.00     0.089 A 
HETATM   10  H   UNL     1      -9.895   3.333 -34.016  1.00  0.00     0.161 HD
ENDROOT
BRANCH   1  11
HETATM   11  C   UNL     1      -5.688   3.883 -30.671  1.00  0.00     0.292 C 
HETATM   12  N   UNL     1      -4.973   4.892 -31.299  1.00  0.00    -0.241 N 
HETATM   13  H   UNL     1      -5.128   5.029 -32.303  1.00  0.00     0.192 HD
HETATM   14  O   UNL     1      -5.604   3.583 -29.483  1.00  0.00    -0.264 OA
BRANCH  12  15
HETATM   15  N   UNL     1      -4.074   5.654 -30.613  1.00  0.00    -0.165 NA
HETATM   16  C   UNL     1      -2.848   5.623 -31.025  1.00  0.00     0.157 A 
HETATM   17  C   UNL     1      -1.742   6.368 -30.436  1.00  0.00     0.027 A 
HETATM   18  C   UNL     1      -2.241   4.830 -32.190  1.00  0.00     0.277 A 
HETATM   19  C   UNL     1      -1.711   7.235 -29.363  1.00  0.00     0.016 A 
HETATM   20  C   UNL     1      -0.606   6.053 -31.178  1.00  0.00     0.048 A 
HETATM   21  C   UNL     1      -0.475   7.798 -29.040  1.00  0.00     0.001 A 
HETATM   22  C   UNL     1       0.679   7.485 -29.790  1.00  0.00     0.002 A 
HETATM   23  C   UNL     1       0.622   6.601 -30.874  1.00  0.00     0.030 A 
HETATM   24  N   UNL     1      -0.902   5.157 -32.201  1.00  0.00    -0.321 N 
HETATM   25  H   UNL     1      -0.247   4.780 -32.870  1.00  0.00     0.169 HD
HETATM   26  O   UNL     1      -2.852   4.080 -32.921  1.00  0.00    -0.266 OA
ENDBRANCH  12  15
ENDBRANCH   1  11
BRANCH   8  27
HETATM   27  C   UNL     1      -6.833   0.067 -34.527  1.00  0.00     0.409 C 
HETATM   28  F   UNL     1      -5.626  -0.490 -34.292  1.00  0.00    -0.169 F 
HETATM   29  F   UNL     1      -7.489  -0.775 -35.369  1.00  0.00    -0.169 F 
HETATM   30  F   UNL     1      -6.631   1.212 -35.215  1.00  0.00    -0.169 F 
ENDBRANCH   8  27
BRANCH   6  31
HETATM   31  C   UNL     1     -11.288   1.151 -34.262  1.00  0.00    -0.035 A 
HETATM   32  C   UNL     1     -12.060   2.098 -34.953  1.00  0.00     0.012 A 
HETATM   33  C   UNL     1     -13.456   2.012 -34.950  1.00  0.00     0.043 A 
HETATM   34  C   UNL     1     -14.081   0.980 -34.260  1.00  0.00     0.116 A 
HETATM   35  F   UNL     1     -15.417   0.901 -34.259  1.00  0.00    -0.206 F 
HETATM   36  C   UNL     1     -13.338   0.029 -33.572  1.00  0.00     0.043 A 
HETATM   37  C   UNL     1     -11.946   0.111 -33.575  1.00  0.00     0.012 A 
ENDBRANCH   6  31
TORSDOF 4
ENDMDL
MODEL 7
REMARK VINA RESULT:      -9.9      4.171     10.195
REMARK  4 active torsions:
REMARK  status: ('A' for Active; 'I' for Inactive)
REMARK    1  A    between atoms: N_7  and  N_8 
REMARK       I    between atoms: N_8  and  C_9 
REMARK    2  A    between atoms: C_9  and  C_10 
REMARK    3  A    between atoms: C_15  and  C_16 
REMARK    4  A    between atoms: C_24  and  C_25 
ROOT
HETATM    1  C   UNL     1      -5.920   5.294 -32.681  1.00  0.00     0.150 A 
HETATM    2  N   UNL     1      -5.083   5.880 -33.568  1.00  0.00    -0.165 NA
HETATM    3  N   UNL     1      -3.877   5.755 -32.990  1.00  0.00    -0.240 N 
HETATM    4  C   UNL     1      -3.911   5.202 -31.742  1.00  0.00     0.123 A 
HETATM    5  N   UNL     1      -2.801   5.126 -30.978  1.00  0.00    -0.366 N 
HETATM    6  C   UNL     1      -1.517   5.673 -31.409  1.00  0.00     0.118 C 
HETATM    7  C   UNL     1      -1.708   6.743 -32.504  1.00  0.00     0.066 C 
HETATM    8  C   UNL     1      -2.670   6.268 -33.605  1.00  0.00     0.221 C 
HETATM    9  C   UNL     1      -5.213   4.835 -31.532  1.00  0.00     0.089 A 
HETATM   10  H   UNL     1      -2.797   4.619 -30.093  1.00  0.00     0.161 HD
ENDROOT
BRANCH   1  11
HETATM   11  C   UNL     1      -7.370   5.205 -32.910  1.00  0.00     0.292 C 
HETATM   12  N   UNL     1      -7.701   4.216 -33.824  1.00  0.00    -0.241 N 
HETATM   13  H   UNL     1      -6.934   3.670 -34.230  1.00  0.00     0.192 HD
HETATM   14  O   UNL     1      -8.168   5.953 -32.350  1.00  0.00    -0.264 OA
BRANCH  12  15
HETATM   15  N   UNL     1      -8.996   3.998 -34.194  1.00  0.00    -0.165 NA
HETATM   16  C   UNL     1      -9.535   2.889 -33.803  1.00  0.00     0.157 A 
HETATM   17  C   UNL     1     -10.903   2.473 -34.086  1.00  0.00     0.027 A 
HETATM   18  C   UNL     1      -8.918   1.754 -32.977  1.00  0.00     0.277 A 
HETATM   19  C   UNL     1     -11.908   3.103 -34.793  1.00  0.00     0.016 A 
HETATM   20  C   UNL     1     -11.077   1.229 -33.485  1.00  0.00     0.048 A 
HETATM   21  C   UNL     1     -13.130   2.434 -34.886  1.00  0.00     0.001 A 
HETATM   22  C   UNL     1     -13.313   1.175 -34.277  1.00  0.00     0.002 A 
HETATM   23  C   UNL     1     -12.277   0.556 -33.566  1.00  0.00     0.030 A 
HETATM   24  N   UNL     1      -9.916   0.813 -32.838  1.00  0.00    -0.321 N 
HETATM   25  H   UNL     1      -9.794  -0.052 -32.333  1.00  0.00     0.169 HD
HETATM   26  O   UNL     1      -7.781   1.729 -32.558  1.00  0.00    -0.266 OA
ENDBRANCH  12  15
ENDBRANCH   1  11
BRANCH   8  27
HETATM   27  C   UNL     1      -2.058   5.213 -34.498  1.00  0.00     0.409 C 
HETATM   28  F   UNL     1      -2.009   3.997 -33.914  1.00  0.00    -0.169 F 
HETATM   29  F   UNL     1      -2.810   5.072 -35.621  1.00  0.00    -0.169 F 
HETATM   30  F   UNL     1      -0.809   5.520 -34.913  1.00  0.00    -0.169 F 
ENDBRANCH   8  27
BRANCH   6  31
HETATM   31  C   UNL     1      -0.789   6.267 -30.212  1.00  0.00    -0.035 A 
HETATM   32  C   UNL     1       0.123   5.487 -29.483  1.00  0.00     0.012 A 
HETATM   33  C   UNL     1       0.810   6.033 -28.395  1.00  0.00     0.043 A 
HETATM   34  C   UNL     1       0.589   7.358 -28.035  1.00  0.00     0.116 A 
HETATM   35  F   UNL     1       1.249   7.877 -26.993  1.00  0.00    -0.206 F 
HETATM   36  C   UNL     1      -0.305   8.150 -28.744  1.00  0.00     0.043 A 
HETATM   37  C   UNL     1      -0.990   7.608 -29.831  1.00  0.00     0.012 A 
ENDBRANCH   6  31
TORSDOF 4
ENDMDL
MODEL 8
REMARK VINA RESULT:      -9.8      3.536     10.387
REMARK  4 active torsions:
REMARK  status: ('A' for Active; 'I' for Inactive)
REMARK    1  A    between atoms: N_7  and  N_8 
REMARK       I    between atoms: N_8  and  C_9 
REMARK    2  A    between atoms: C_9  and  C_10 
REMARK    3  A    between atoms: C_15  and  C_16 
REMARK    4  A    between atoms: C_24  and  C_25 
ROOT
HETATM    1  C   UNL     1      -4.742   3.609 -32.715  1.00  0.00     0.150 A 
HETATM    2  N   UNL     1      -4.266   4.611 -33.489  1.00  0.00    -0.165 NA
HETATM    3  N   UNL     1      -3.510   5.328 -32.643  1.00  0.00    -0.240 N 
HETATM    4  C   UNL     1      -3.548   4.890 -31.350  1.00  0.00     0.123 A 
HETATM    5  N   UNL     1      -2.947   5.578 -30.357  1.00  0.00    -0.366 N 
HETATM    6  C   UNL     1      -2.267   6.850 -30.588  1.00  0.00     0.118 C 
HETATM    7  C   UNL     1      -2.766   7.518 -31.887  1.00  0.00     0.066 C 
HETATM    8  C   UNL     1      -2.809   6.525 -33.060  1.00  0.00     0.221 C 
HETATM    9  C   UNL     1      -4.291   3.740 -31.369  1.00  0.00     0.089 A 
HETATM   10  H   UNL     1      -2.880   5.200 -29.412  1.00  0.00     0.161 HD
ENDROOT
BRANCH   1  11
HETATM   11  C   UNL     1      -5.636   2.566 -33.240  1.00  0.00     0.292 C 
HETATM   12  N   UNL     1      -5.048   1.310 -33.227  1.00  0.00    -0.241 N 
HETATM   13  H   UNL     1      -4.091   1.239 -32.867  1.00  0.00     0.192 HD
HETATM   14  O   UNL     1      -6.765   2.820 -33.654  1.00  0.00    -0.264 OA
BRANCH  12  15
HETATM   15  N   UNL     1      -5.707   0.215 -33.705  1.00  0.00    -0.165 NA
HETATM   16  C   UNL     1      -5.065  -0.908 -33.681  1.00  0.00     0.157 A 
HETATM   17  C   UNL     1      -5.592  -2.188 -34.137  1.00  0.00     0.027 A 
HETATM   18  C   UNL     1      -3.640  -1.195 -33.194  1.00  0.00     0.277 A 
HETATM   19  C   UNL     1      -6.820  -2.516 -34.676  1.00  0.00     0.016 A 
HETATM   20  C   UNL     1      -4.587  -3.131 -33.934  1.00  0.00     0.048 A 
HETATM   21  C   UNL     1      -7.023  -3.855 -35.018  1.00  0.00     0.001 A 
HETATM   22  C   UNL     1      -6.010  -4.815 -34.812  1.00  0.00     0.002 A 
HETATM   23  C   UNL     1      -4.772  -4.456 -34.264  1.00  0.00     0.030 A 
HETATM   24  N   UNL     1      -3.450  -2.547 -33.382  1.00  0.00    -0.321 N 
HETATM   25  H   UNL     1      -2.592  -3.023 -33.147  1.00  0.00     0.169 HD
HETATM   26  O   UNL     1      -2.872  -0.370 -32.746  1.00  0.00    -0.266 OA
ENDBRANCH  12  15
ENDBRANCH   1  11
BRANCH   8  27
HETATM   27  C   UNL     1      -1.431   6.165 -33.568  1.00  0.00     0.409 C 
HETATM   28  F   UNL     1      -0.914   5.081 -32.953  1.00  0.00    -0.169 F 
HETATM   29  F   UNL     1      -1.496   5.864 -34.892  1.00  0.00    -0.169 F 
HETATM   30  F   UNL     1      -0.536   7.171 -33.451  1.00  0.00    -0.169 F 
ENDBRANCH   8  27
BRANCH   6  31
HETATM   31  C   UNL     1      -2.495   7.772 -29.400  1.00  0.00    -0.035 A 
HETATM   32  C   UNL     1      -3.587   7.561 -28.542  1.00  0.00     0.012 A 
HETATM   33  C   UNL     1      -3.790   8.392 -27.437  1.00  0.00     0.043 A 
HETATM   34  C   UNL     1      -2.903   9.432 -27.185  1.00  0.00     0.116 A 
HETATM   35  F   UNL     1      -3.101  10.226 -26.125  1.00  0.00    -0.206 F 
HETATM   36  C   UNL     1      -1.814   9.658 -28.016  1.00  0.00     0.043 A 
HETATM   37  C   UNL     1      -1.607   8.829 -29.118  1.00  0.00     0.012 A 
ENDBRANCH   6  31
TORSDOF 4
ENDMDL
MODEL 9
REMARK VINA RESULT:      -9.6      5.969      9.141
REMARK  4 active torsions:
REMARK  status: ('A' for Active; 'I' for Inactive)
REMARK    1  A    between atoms: N_7  and  N_8 
REMARK       I    between atoms: N_8  and  C_9 
REMARK    2  A    between atoms: C_9  and  C_10 
REMARK    3  A    between atoms: C_15  and  C_16 
REMARK    4  A    between atoms: C_24  and  C_25 
ROOT
HETATM    1  C   UNL     1      -9.746   2.264 -33.590  1.00  0.00     0.150 A 
HETATM    2  N   UNL     1      -8.941   2.273 -32.503  1.00  0.00    -0.165 NA
HETATM    3  N   UNL     1      -7.893   1.524 -32.883  1.00  0.00    -0.240 N 
HETATM    4  C   UNL     1      -8.027   0.963 -34.121  1.00  0.00     0.123 A 
HETATM    5  N   UNL     1      -7.122   0.082 -34.593  1.00  0.00    -0.366 N 
HETATM    6  C   UNL     1      -5.979  -0.366 -33.800  1.00  0.00     0.118 C 
HETATM    7  C   UNL     1      -6.232  -0.152 -32.293  1.00  0.00     0.066 C 
HETATM    8  C   UNL     1      -6.777   1.255 -31.999  1.00  0.00     0.221 C 
HETATM    9  C   UNL     1      -9.191   1.469 -34.634  1.00  0.00     0.089 A 
HETATM   10  H   UNL     1      -7.158  -0.256 -35.555  1.00  0.00     0.161 HD
ENDROOT
BRANCH   1  11
HETATM   11  C   UNL     1     -11.036   2.971 -33.619  1.00  0.00     0.292 C 
HETATM   12  N   UNL     1     -11.886   2.560 -32.604  1.00  0.00    -0.241 N 
HETATM   13  H   UNL     1     -11.545   1.837 -31.963  1.00  0.00     0.192 HD
HETATM   14  O   UNL     1     -11.300   3.812 -34.475  1.00  0.00    -0.264 OA
BRANCH  12  15
HETATM   15  N   UNL     1     -13.143   3.077 -32.482  1.00  0.00    -0.165 NA
HETATM   16  C   UNL     1     -13.315   3.986 -31.578  1.00  0.00     0.157 A 
HETATM   17  C   UNL     1     -14.574   4.664 -31.296  1.00  0.00     0.027 A 
HETATM   18  C   UNL     1     -12.296   4.573 -30.594  1.00  0.00     0.277 A 
HETATM   19  C   UNL     1     -15.820   4.526 -31.872  1.00  0.00     0.016 A 
HETATM   20  C   UNL     1     -14.322   5.562 -30.260  1.00  0.00     0.048 A 
HETATM   21  C   UNL     1     -16.842   5.336 -31.371  1.00  0.00     0.001 A 
HETATM   22  C   UNL     1     -16.593   6.248 -30.324  1.00  0.00     0.002 A 
HETATM   23  C   UNL     1     -15.319   6.369 -29.754  1.00  0.00     0.030 A 
HETATM   24  N   UNL     1     -12.992   5.506 -29.855  1.00  0.00    -0.321 N 
HETATM   25  H   UNL     1     -12.570   6.057 -29.123  1.00  0.00     0.169 HD
HETATM   26  O   UNL     1     -11.130   4.251 -30.516  1.00  0.00    -0.266 OA
ENDBRANCH  12  15
ENDBRANCH   1  11
BRANCH   8  27
HETATM   27  C   UNL     1      -5.726   2.331 -32.155  1.00  0.00     0.409 C 
HETATM   28  F   UNL     1      -5.753   2.917 -33.370  1.00  0.00    -0.169 F 
HETATM   29  F   UNL     1      -5.944   3.318 -31.246  1.00  0.00    -0.169 F 
HETATM   30  F   UNL     1      -4.468   1.887 -31.940  1.00  0.00    -0.169 F 
ENDBRANCH   8  27
BRANCH   6  31
HETATM   31  C   UNL     1      -5.707  -1.836 -34.086  1.00  0.00    -0.035 A 
HETATM   32  C   UNL     1      -6.728  -2.658 -34.588  1.00  0.00     0.012 A 
HETATM   33  C   UNL     1      -6.478  -4.004 -34.871  1.00  0.00     0.043 A 
HETATM   34  C   UNL     1      -5.209  -4.529 -34.657  1.00  0.00     0.116 A 
HETATM   35  F   UNL     1      -4.974  -5.818 -34.930  1.00  0.00    -0.206 F 
HETATM   36  C   UNL     1      -4.182  -3.735 -34.165  1.00  0.00     0.043 A 
HETATM   37  C   UNL     1      -4.428  -2.391 -33.883  1.00  0.00     0.012 A 
ENDBRANCH   6  31
TORSDOF 4
ENDMDL
MODEL 10
REMARK VINA RESULT:      -9.5      2.262      3.638
REMARK  4 active torsions:
REMARK  status: ('A' for Active; 'I' for Inactive)
REMARK    1  A    between atoms: N_7  and  N_8 
REMARK       I    between atoms: N_8  and  C_9 
REMARK    2  A    between atoms: C_9  and  C_10 
REMARK    3  A    between atoms: C_15  and  C_16 
REMARK    4  A    between atoms: C_24  and  C_25 
ROOT
HETATM    1  C   UNL     1      -2.633   3.899 -31.941  1.00  0.00     0.150 A 
HETATM    2  N   UNL     1      -2.719   2.720 -31.284  1.00  0.00    -0.165 NA
HETATM    3  N   UNL     1      -3.750   2.103 -31.883  1.00  0.00    -0.240 N 
HETATM    4  C   UNL     1      -4.383   2.861 -32.826  1.00  0.00     0.123 A 
HETATM    5  N   UNL     1      -5.514   2.434 -33.426  1.00  0.00    -0.366 N 
HETATM    6  C   UNL     1      -6.158   1.171 -33.072  1.00  0.00     0.118 C 
HETATM    7  C   UNL     1      -5.729   0.705 -31.665  1.00  0.00     0.066 C 
HETATM    8  C   UNL     1      -4.205   0.790 -31.474  1.00  0.00     0.221 C 
HETATM    9  C   UNL     1      -3.649   4.011 -32.933  1.00  0.00     0.089 A 
HETATM   10  H   UNL     1      -5.929   2.945 -34.205  1.00  0.00     0.161 HD
ENDROOT
BRANCH   1  11
HETATM   11  C   UNL     1      -1.622   4.914 -31.605  1.00  0.00     0.292 C 
HETATM   12  N   UNL     1      -1.343   4.952 -30.247  1.00  0.00    -0.241 N 
HETATM   13  H   UNL     1      -1.847   4.297 -29.641  1.00  0.00     0.192 HD
HETATM   14  O   UNL     1      -1.118   5.641 -32.457  1.00  0.00    -0.264 OA
BRANCH  12  15
HETATM   15  N   UNL     1      -0.454   5.850 -29.733  1.00  0.00    -0.165 NA
HETATM   16  C   UNL     1      -0.947   6.838 -29.058  1.00  0.00     0.157 A 
HETATM   17  C   UNL     1      -0.170   7.895 -28.424  1.00  0.00     0.027 A 
HETATM   18  C   UNL     1      -2.415   7.162 -28.754  1.00  0.00     0.277 A 
HETATM   19  C   UNL     1       1.193   8.108 -28.380  1.00  0.00     0.016 A 
HETATM   20  C   UNL     1      -1.082   8.748 -27.806  1.00  0.00     0.048 A 
HETATM   21  C   UNL     1       1.635   9.232 -27.678  1.00  0.00     0.001 A 
HETATM   22  C   UNL     1       0.717  10.098 -27.048  1.00  0.00     0.002 A 
HETATM   23  C   UNL     1      -0.662   9.861 -27.108  1.00  0.00     0.030 A 
HETATM   24  N   UNL     1      -2.391   8.315 -28.000  1.00  0.00    -0.321 N 
HETATM   25  H   UNL     1      -3.223   8.766 -27.652  1.00  0.00     0.169 HD
HETATM   26  O   UNL     1      -3.368   6.511 -29.125  1.00  0.00    -0.266 OA
ENDBRANCH  12  15
ENDBRANCH   1  11
BRANCH   8  27
HETATM   27  C   UNL     1      -3.462  -0.277 -32.246  1.00  0.00     0.409 C 
HETATM   28  F   UNL     1      -2.844   0.207 -33.343  1.00  0.00    -0.169 F 
HETATM   29  F   UNL     1      -2.491  -0.815 -31.461  1.00  0.00    -0.169 F 
HETATM   30  F   UNL     1      -4.249  -1.304 -32.635  1.00  0.00    -0.169 F 
ENDBRANCH   8  27
BRANCH   6  31
HETATM   31  C   UNL     1      -7.669   1.335 -33.135  1.00  0.00    -0.035 A 
HETATM   32  C   UNL     1      -8.510   0.248 -32.845  1.00  0.00     0.012 A 
HETATM   33  C   UNL     1      -9.899   0.399 -32.882  1.00  0.00     0.043 A 
HETATM   34  C   UNL     1     -10.450   1.633 -33.206  1.00  0.00     0.116 A 
HETATM   35  F   UNL     1     -11.781   1.772 -33.240  1.00  0.00    -0.206 F 
HETATM   36  C   UNL     1      -9.640   2.723 -33.493  1.00  0.00     0.043 A 
HETATM   37  C   UNL     1      -8.253   2.577 -33.455  1.00  0.00     0.012 A 
ENDBRANCH   6  31
TORSDOF 4
ENDMDL
