MODEL 1
REMARK VINA RESULT:      -7.7      0.000      0.000
REMARK  6 active torsions:
REMARK  status: ('A' for Active; 'I' for Inactive)
REMARK    1  A    between atoms: C_6  and  C_7 
REMARK    2  A    between atoms: C_7  and  N_8 
REMARK    3  A    between atoms: C_7  and  C_24 
REMARK       I    between atoms: N_8  and  C_9 
REMARK       I    between atoms: C_9  and  N_10 
REMARK    4  A    between atoms: N_10  and  C_11 
REMARK    5  A    between atoms: C_14  and  C_15 
REMARK    6  A    between atoms: C_24  and  O_25 
ROOT
HETATM    1  N   UNL     1      -2.807   6.007 -30.409  1.00  0.00    -0.331 N 
HETATM    2  C   UNL     1      -3.139   4.843 -31.067  1.00  0.00     0.321 C 
HETATM    3  N   UNL     1      -4.172   4.201 -30.422  1.00  0.00    -0.309 N 
HETATM    4  O   UNL     1      -2.563   4.476 -32.081  1.00  0.00    -0.247 OA
HETATM    5  H   UNL     1      -3.533   6.432 -29.854  1.00  0.00     0.165 HD
HETATM    6  H   UNL     1      -4.329   4.487 -29.466  1.00  0.00     0.170 HD
ENDROOT
BRANCH   1   7
HETATM    7  C   UNL     1      -1.785   6.899 -30.933  1.00  0.00     0.161 C 
BRANCH   7   8
HETATM    8  C   UNL     1      -0.872   7.179 -29.774  1.00  0.00     0.056 A 
HETATM    9  N   UNL     1       0.127   6.322 -29.374  1.00  0.00    -0.277 N 
HETATM   10  C   UNL     1       0.484   5.050 -29.959  1.00  0.00     0.179 C 
HETATM   11  N   UNL     1       0.804   6.759 -28.294  1.00  0.00    -0.185 NA
HETATM   12  C   UNL     1       0.248   7.937 -28.019  1.00  0.00     0.141 A 
HETATM   13  C   UNL     1      -0.803   8.247 -28.898  1.00  0.00     0.050 A 
ENDBRANCH   7   8
BRANCH   7  14
HETATM   14  C   UNL     1      -2.373   8.191 -31.548  1.00  0.00     0.198 C 
BRANCH  14  15
HETATM   15  O   UNL     1      -1.731   8.483 -32.796  1.00  0.00    -0.394 OA
HETATM   16  C   UNL     1      -1.659   7.331 -33.626  1.00  0.00     0.201 C 
ENDBRANCH  14  15
ENDBRANCH   7  14
ENDBRANCH   1   7
BRANCH   3  17
HETATM   17  C   UNL     1      -4.906   3.088 -30.872  1.00  0.00     0.036 A 
HETATM   18  C   UNL     1      -4.346   1.839 -31.123  1.00  0.00     0.030 A 
HETATM   19  C   UNL     1      -5.139   0.792 -31.609  1.00  0.00     0.010 A 
HETATM   20  C   UNL     1      -6.516   0.955 -31.847  1.00  0.00    -0.054 A 
HETATM   21  C   UNL     1      -7.058   2.223 -31.610  1.00  0.00     0.010 A 
HETATM   22  C   UNL     1      -6.266   3.273 -31.126  1.00  0.00     0.030 A 
BRANCH  20  23
HETATM   23  C   UNL     1      -7.316  -0.222 -32.406  1.00  0.00     0.018 C 
HETATM   24  C   UNL     1      -8.653   0.215 -33.045  1.00  0.00     0.009 C 
HETATM   25  C   UNL     1      -8.472   0.814 -34.438  1.00  0.00     0.001 C 
HETATM   26  C   UNL     1      -7.773  -0.166 -35.371  1.00  0.00     0.000 C 
HETATM   27  C   UNL     1      -6.438  -0.626 -34.799  1.00  0.00     0.001 C 
HETATM   28  C   UNL     1      -6.576  -1.172 -33.374  1.00  0.00     0.009 C 
ENDBRANCH  20  23
ENDBRANCH   3  17
TORSDOF 6
ENDMDL
MODEL 2
REMARK VINA RESULT:      -7.4      3.093      9.063
REMARK  6 active torsions:
REMARK  status: ('A' for Active; 'I' for Inactive)
REMARK    1  A    between atoms: C_6  and  C_7 
REMARK    2  A    between atoms: C_7  and  N_8 
REMARK    3  A    between atoms: C_7  and  C_24 
REMARK       I    between atoms: N_8  and  C_9 
REMARK       I    between atoms: C_9  and  N_10 
REMARK    4  A    between atoms: N_10  and  C_11 
REMARK    5  A    between atoms: C_14  and  C_15 
REMARK    6  A    between atoms: C_24  and  O_25 
ROOT
HETATM    1  N   UNL     1      -5.763   1.223 -32.900  1.00  0.00    -0.331 N 
HETATM    2  C   UNL     1      -4.715   1.920 -32.341  1.00  0.00     0.321 C 
HETATM    3  N   UNL     1      -4.460   3.066 -33.059  1.00  0.00    -0.309 N 
HETATM    4  O   UNL     1      -4.128   1.530 -31.343  1.00  0.00    -0.247 OA
HETATM    5  H   UNL     1      -6.424   1.760 -33.440  1.00  0.00     0.165 HD
HETATM    6  H   UNL     1      -4.840   3.085 -33.994  1.00  0.00     0.170 HD
ENDROOT
BRANCH   1   7
HETATM    7  C   UNL     1      -6.268   0.006 -32.285  1.00  0.00     0.161 C 
BRANCH   7   8
HETATM    8  C   UNL     1      -5.979  -1.087 -33.273  1.00  0.00     0.056 A 
HETATM    9  N   UNL     1      -4.832  -1.845 -33.248  1.00  0.00    -0.277 N 
HETATM   10  C   UNL     1      -3.733  -1.752 -32.314  1.00  0.00     0.179 C 
HETATM   11  N   UNL     1      -4.767  -2.748 -34.246  1.00  0.00    -0.185 NA
HETATM   12  C   UNL     1      -5.914  -2.587 -34.902  1.00  0.00     0.141 A 
HETATM   13  C   UNL     1      -6.704  -1.565 -34.350  1.00  0.00     0.050 A 
ENDBRANCH   7   8
BRANCH   7  14
HETATM   14  C   UNL     1      -7.770   0.093 -31.923  1.00  0.00     0.198 C 
BRANCH  14  15
HETATM   15  O   UNL     1      -8.429   1.048 -32.765  1.00  0.00    -0.394 OA
HETATM   16  C   UNL     1      -9.774   0.670 -33.026  1.00  0.00     0.201 C 
ENDBRANCH  14  15
ENDBRANCH   7  14
ENDBRANCH   1   7
BRANCH   3  17
HETATM   17  C   UNL     1      -3.595   4.122 -32.713  1.00  0.00     0.036 A 
HETATM   18  C   UNL     1      -2.266   4.201 -33.117  1.00  0.00     0.030 A 
HETATM   19  C   UNL     1      -1.460   5.265 -32.695  1.00  0.00     0.010 A 
HETATM   20  C   UNL     1      -1.958   6.289 -31.868  1.00  0.00    -0.054 A 
HETATM   21  C   UNL     1      -3.290   6.183 -31.454  1.00  0.00     0.010 A 
HETATM   22  C   UNL     1      -4.098   5.118 -31.873  1.00  0.00     0.030 A 
BRANCH  20  23
HETATM   23  C   UNL     1      -1.014   7.406 -31.422  1.00  0.00     0.018 C 
HETATM   24  C   UNL     1      -1.573   8.221 -30.234  1.00  0.00     0.009 C 
HETATM   25  C   UNL     1      -1.423   7.495 -28.899  1.00  0.00     0.001 C 
HETATM   26  C   UNL     1       0.035   7.151 -28.622  1.00  0.00     0.000 C 
HETATM   27  C   UNL     1       0.642   6.335 -29.756  1.00  0.00     0.001 C 
HETATM   28  C   UNL     1       0.448   7.005 -31.120  1.00  0.00     0.009 C 
ENDBRANCH  20  23
ENDBRANCH   3  17
TORSDOF 6
ENDMDL
MODEL 3
REMARK VINA RESULT:      -7.4      5.057      8.115
REMARK  6 active torsions:
REMARK  status: ('A' for Active; 'I' for Inactive)
REMARK    1  A    between atoms: C_6  and  C_7 
REMARK    2  A    between atoms: C_7  and  N_8 
REMARK    3  A    between atoms: C_7  and  C_24 
REMARK       I    between atoms: N_8  and  C_9 
REMARK       I    between atoms: C_9  and  N_10 
REMARK    4  A    between atoms: N_10  and  C_11 
REMARK    5  A    between atoms: C_14  and  C_15 
REMARK    6  A    between atoms: C_24  and  O_25 
ROOT
HETATM    1  N   UNL     1      -5.585  -0.516 -32.601  1.00  0.00    -0.331 N 
HETATM    2  C   UNL     1      -6.647  -0.086 -33.366  1.00  0.00     0.321 C 
HETATM    3  N   UNL     1      -7.782   0.028 -32.596  1.00  0.00    -0.309 N 
HETATM    4  O   UNL     1      -6.541   0.147 -34.561  1.00  0.00    -0.247 OA
HETATM    5  H   UNL     1      -5.631  -0.315 -31.614  1.00  0.00     0.165 HD
HETATM    6  H   UNL     1      -7.760  -0.469 -31.717  1.00  0.00     0.170 HD
ENDROOT
BRANCH   1   7
HETATM    7  C   UNL     1      -4.255  -0.653 -33.173  1.00  0.00     0.161 C 
BRANCH   7   8
HETATM    8  C   UNL     1      -3.869  -2.085 -32.940  1.00  0.00     0.056 A 
HETATM    9  N   UNL     1      -4.199  -3.107 -33.798  1.00  0.00    -0.277 N 
HETATM   10  C   UNL     1      -4.943  -3.015 -35.034  1.00  0.00     0.179 C 
HETATM   11  N   UNL     1      -3.777  -4.316 -33.377  1.00  0.00    -0.185 NA
HETATM   12  C   UNL     1      -3.132  -4.055 -32.242  1.00  0.00     0.141 A 
HETATM   13  C   UNL     1      -3.162  -2.689 -31.915  1.00  0.00     0.050 A 
ENDBRANCH   7   8
BRANCH   7  14
HETATM   14  C   UNL     1      -3.235   0.340 -32.568  1.00  0.00     0.198 C 
BRANCH  14  15
HETATM   15  O   UNL     1      -3.897   1.255 -31.685  1.00  0.00    -0.394 OA
HETATM   16  C   UNL     1      -3.728   2.602 -32.108  1.00  0.00     0.201 C 
ENDBRANCH  14  15
ENDBRANCH   7  14
ENDBRANCH   1   7
BRANCH   3  17
HETATM   17  C   UNL     1      -9.015   0.599 -32.963  1.00  0.00     0.036 A 
HETATM   18  C   UNL     1     -10.216  -0.103 -32.996  1.00  0.00     0.030 A 
HETATM   19  C   UNL     1     -11.394   0.529 -33.413  1.00  0.00     0.010 A 
HETATM   20  C   UNL     1     -11.413   1.883 -33.797  1.00  0.00    -0.054 A 
HETATM   21  C   UNL     1     -10.192   2.568 -33.778  1.00  0.00     0.010 A 
HETATM   22  C   UNL     1      -9.012   1.936 -33.364  1.00  0.00     0.030 A 
BRANCH  20  23
HETATM   23  C   UNL     1     -12.729   2.502 -34.269  1.00  0.00     0.018 C 
HETATM   24  C   UNL     1     -13.815   1.443 -34.560  1.00  0.00     0.009 C 
HETATM   25  C   UNL     1     -14.469   0.905 -33.289  1.00  0.00     0.001 C 
HETATM   26  C   UNL     1     -15.082   2.032 -32.467  1.00  0.00     0.000 C 
HETATM   27  C   UNL     1     -14.053   3.106 -32.138  1.00  0.00     0.001 C 
HETATM   28  C   UNL     1     -13.330   3.619 -33.387  1.00  0.00     0.009 C 
ENDBRANCH  20  23
ENDBRANCH   3  17
TORSDOF 6
ENDMDL
MODEL 4
REMARK VINA RESULT:      -7.1      3.169      8.913
REMARK  6 active torsions:
REMARK  status: ('A' for Active; 'I' for Inactive)
REMARK    1  A    between atoms: C_6  and  C_7 
REMARK    2  A    between atoms: C_7  and  N_8 
REMARK    3  A    between atoms: C_7  and  C_24 
REMARK       I    between atoms: N_8  and  C_9 
REMARK       I    between atoms: C_9  and  N_10 
REMARK    4  A    between atoms: N_10  and  C_11 
REMARK    5  A    between atoms: C_14  and  C_15 
REMARK    6  A    between atoms: C_24  and  O_25 
ROOT
HETATM    1  N   UNL     1      -6.706   2.789 -33.903  1.00  0.00    -0.331 N 
HETATM    2  C   UNL     1      -5.648   3.135 -33.091  1.00  0.00     0.321 C 
HETATM    3  N   UNL     1      -4.822   4.031 -33.731  1.00  0.00    -0.309 N 
HETATM    4  O   UNL     1      -5.509   2.678 -31.966  1.00  0.00    -0.247 OA
HETATM    5  H   UNL     1      -6.969   3.458 -34.609  1.00  0.00     0.165 HD
HETATM    6  H   UNL     1      -4.926   4.076 -34.734  1.00  0.00     0.170 HD
ENDROOT
BRANCH   1   7
HETATM    7  C   UNL     1      -7.756   1.902 -33.429  1.00  0.00     0.161 C 
BRANCH   7   8
HETATM    8  C   UNL     1      -7.341   0.527 -33.867  1.00  0.00     0.056 A 
HETATM    9  N   UNL     1      -6.875  -0.435 -33.002  1.00  0.00    -0.277 N 
HETATM   10  C   UNL     1      -6.702  -0.324 -31.571  1.00  0.00     0.179 C 
HETATM   11  N   UNL     1      -6.532  -1.584 -33.616  1.00  0.00    -0.185 NA
HETATM   12  C   UNL     1      -6.820  -1.364 -34.897  1.00  0.00     0.141 A 
HETATM   13  C   UNL     1      -7.317  -0.069 -35.116  1.00  0.00     0.050 A 
ENDBRANCH   7   8
BRANCH   7  14
HETATM   14  C   UNL     1      -9.157   2.293 -33.955  1.00  0.00     0.198 C 
BRANCH  14  15
HETATM   15  O   UNL     1      -9.659   3.426 -33.235  1.00  0.00    -0.394 OA
HETATM   16  C   UNL     1      -9.773   3.151 -31.845  1.00  0.00     0.201 C 
ENDBRANCH  14  15
ENDBRANCH   7  14
ENDBRANCH   1   7
BRANCH   3  17
HETATM   17  C   UNL     1      -3.745   4.750 -33.180  1.00  0.00     0.036 A 
HETATM   18  C   UNL     1      -2.421   4.327 -33.233  1.00  0.00     0.030 A 
HETATM   19  C   UNL     1      -1.411   5.081 -32.623  1.00  0.00     0.010 A 
HETATM   20  C   UNL     1      -1.689   6.288 -31.954  1.00  0.00    -0.054 A 
HETATM   21  C   UNL     1      -3.028   6.688 -31.892  1.00  0.00     0.010 A 
HETATM   22  C   UNL     1      -4.041   5.933 -32.499  1.00  0.00     0.030 A 
BRANCH  20  23
HETATM   23  C   UNL     1      -0.542   7.046 -31.286  1.00  0.00     0.018 C 
HETATM   24  C   UNL     1      -0.998   7.847 -30.046  1.00  0.00     0.009 C 
HETATM   25  C   UNL     1      -1.196   6.966 -28.815  1.00  0.00     0.001 C 
HETATM   26  C   UNL     1       0.080   6.206 -28.473  1.00  0.00     0.000 C 
HETATM   27  C   UNL     1       0.576   5.385 -29.657  1.00  0.00     0.001 C 
HETATM   28  C   UNL     1       0.720   6.229 -30.927  1.00  0.00     0.009 C 
ENDBRANCH  20  23
ENDBRANCH   3  17
TORSDOF 6
ENDMDL
MODEL 5
REMARK VINA RESULT:      -7.0      3.213      9.219
REMARK  6 active torsions:
REMARK  status: ('A' for Active; 'I' for Inactive)
REMARK    1  A    between atoms: C_6  and  C_7 
REMARK    2  A    between atoms: C_7  and  N_8 
REMARK    3  A    between atoms: C_7  and  C_24 
REMARK       I    between atoms: N_8  and  C_9 
REMARK       I    between atoms: C_9  and  N_10 
REMARK    4  A    between atoms: N_10  and  C_11 
REMARK    5  A    between atoms: C_14  and  C_15 
REMARK    6  A    between atoms: C_24  and  O_25 
ROOT
HETATM    1  N   UNL     1      -6.945   1.961 -33.334  1.00  0.00    -0.331 N 
HETATM    2  C   UNL     1      -6.023   2.977 -33.461  1.00  0.00     0.321 C 
HETATM    3  N   UNL     1      -5.333   3.153 -32.283  1.00  0.00    -0.309 N 
HETATM    4  O   UNL     1      -5.880   3.604 -34.500  1.00  0.00    -0.247 OA
HETATM    5  H   UNL     1      -6.749   1.262 -32.635  1.00  0.00     0.165 HD
HETATM    6  H   UNL     1      -5.768   2.756 -31.463  1.00  0.00     0.170 HD
ENDROOT
BRANCH   1   7
HETATM    7  C   UNL     1      -7.756   1.538 -34.464  1.00  0.00     0.161 C 
BRANCH   7   8
HETATM    8  C   UNL     1      -9.178   1.646 -33.993  1.00  0.00     0.056 A 
HETATM    9  N   UNL     1      -9.881   2.828 -33.970  1.00  0.00    -0.277 N 
HETATM   10  C   UNL     1      -9.419   4.135 -34.376  1.00  0.00     0.179 C 
HETATM   11  N   UNL     1     -11.130   2.697 -33.481  1.00  0.00    -0.185 NA
HETATM   12  C   UNL     1     -11.239   1.396 -33.219  1.00  0.00     0.141 A 
HETATM   13  C   UNL     1     -10.058   0.694 -33.509  1.00  0.00     0.050 A 
ENDBRANCH   7   8
BRANCH   7  14
HETATM   14  C   UNL     1      -7.403   0.116 -34.959  1.00  0.00     0.198 C 
BRANCH  14  15
HETATM   15  O   UNL     1      -6.929  -0.685 -33.869  1.00  0.00    -0.394 OA
HETATM   16  C   UNL     1      -5.770  -1.424 -34.232  1.00  0.00     0.201 C 
ENDBRANCH  14  15
ENDBRANCH   7  14
ENDBRANCH   1   7
BRANCH   3  17
HETATM   17  C   UNL     1      -4.202   3.962 -32.064  1.00  0.00     0.036 A 
HETATM   18  C   UNL     1      -2.932   3.669 -32.551  1.00  0.00     0.030 A 
HETATM   19  C   UNL     1      -1.849   4.505 -32.254  1.00  0.00     0.010 A 
HETATM   20  C   UNL     1      -2.002   5.666 -31.473  1.00  0.00    -0.054 A 
HETATM   21  C   UNL     1      -3.281   5.934 -30.974  1.00  0.00     0.010 A 
HETATM   22  C   UNL     1      -4.366   5.097 -31.268  1.00  0.00     0.030 A 
BRANCH  20  23
HETATM   23  C   UNL     1      -0.771   6.518 -31.163  1.00  0.00     0.018 C 
HETATM   24  C   UNL     1      -0.990   7.468 -29.965  1.00  0.00     0.009 C 
HETATM   25  C   UNL     1      -0.891   6.752 -28.620  1.00  0.00     0.001 C 
HETATM   26  C   UNL     1       0.457   6.058 -28.464  1.00  0.00     0.000 C 
HETATM   27  C   UNL     1       0.725   5.097 -29.615  1.00  0.00     0.001 C 
HETATM   28  C   UNL     1       0.569   5.769 -30.981  1.00  0.00     0.009 C 
ENDBRANCH  20  23
ENDBRANCH   3  17
TORSDOF 6
ENDMDL
MODEL 6
REMARK VINA RESULT:      -6.8      2.467      9.090
REMARK  6 active torsions:
REMARK  status: ('A' for Active; 'I' for Inactive)
REMARK    1  A    between atoms: C_6  and  C_7 
REMARK    2  A    between atoms: C_7  and  N_8 
REMARK    3  A    between atoms: C_7  and  C_24 
REMARK       I    between atoms: N_8  and  C_9 
REMARK       I    between atoms: C_9  and  N_10 
REMARK    4  A    between atoms: N_10  and  C_11 
REMARK    5  A    between atoms: C_14  and  C_15 
REMARK    6  A    between atoms: C_24  and  O_25 
ROOT
HETATM    1  N   UNL     1      -4.066   3.313 -32.619  1.00  0.00    -0.331 N 
HETATM    2  C   UNL     1      -3.723   4.121 -31.557  1.00  0.00     0.321 C 
HETATM    3  N   UNL     1      -2.420   4.549 -31.677  1.00  0.00    -0.309 N 
HETATM    4  O   UNL     1      -4.507   4.389 -30.658  1.00  0.00    -0.247 OA
HETATM    5  H   UNL     1      -3.548   3.450 -33.473  1.00  0.00     0.165 HD
HETATM    6  H   UNL     1      -1.846   4.013 -32.311  1.00  0.00     0.170 HD
ENDROOT
BRANCH   1   7
HETATM    7  C   UNL     1      -5.414   2.786 -32.756  1.00  0.00     0.161 C 
BRANCH   7   8
HETATM    8  C   UNL     1      -5.285   1.306 -32.542  1.00  0.00     0.056 A 
HETATM    9  N   UNL     1      -6.302   0.519 -32.054  1.00  0.00    -0.277 N 
HETATM   10  C   UNL     1      -7.633   0.935 -31.673  1.00  0.00     0.179 C 
HETATM   11  N   UNL     1      -5.956  -0.775 -31.914  1.00  0.00    -0.185 NA
HETATM   12  C   UNL     1      -4.701  -0.823 -32.355  1.00  0.00     0.141 A 
HETATM   13  C   UNL     1      -4.227   0.438 -32.750  1.00  0.00     0.050 A 
ENDBRANCH   7   8
BRANCH   7  14
HETATM   14  C   UNL     1      -6.060   3.132 -34.118  1.00  0.00     0.198 C 
BRANCH  14  15
HETATM   15  O   UNL     1      -5.997   4.545 -34.352  1.00  0.00    -0.394 OA
HETATM   16  C   UNL     1      -6.990   5.240 -33.610  1.00  0.00     0.201 C 
ENDBRANCH  14  15
ENDBRANCH   7  14
ENDBRANCH   1   7
BRANCH   3  17
HETATM   17  C   UNL     1      -1.760   5.518 -30.899  1.00  0.00     0.036 A 
HETATM   18  C   UNL     1      -2.216   6.822 -30.732  1.00  0.00     0.030 A 
HETATM   19  C   UNL     1      -1.477   7.739 -29.973  1.00  0.00     0.010 A 
HETATM   20  C   UNL     1      -0.270   7.379 -29.346  1.00  0.00    -0.054 A 
HETATM   21  C   UNL     1       0.184   6.070 -29.541  1.00  0.00     0.010 A 
HETATM   22  C   UNL     1      -0.551   5.152 -30.303  1.00  0.00     0.030 A 
BRANCH  20  23
HETATM   23  C   UNL     1       0.499   8.438 -28.557  1.00  0.00     0.018 C 
HETATM   24  C   UNL     1      -0.428   9.497 -27.919  1.00  0.00     0.009 C 
HETATM   25  C   UNL     1      -1.121   8.991 -26.656  1.00  0.00     0.001 C 
HETATM   26  C   UNL     1      -0.104   8.531 -25.618  1.00  0.00     0.000 C 
HETATM   27  C   UNL     1       0.835   7.475 -26.186  1.00  0.00     0.001 C 
HETATM   28  C   UNL     1       1.496   7.928 -27.491  1.00  0.00     0.009 C 
ENDBRANCH  20  23
ENDBRANCH   3  17
TORSDOF 6
ENDMDL
MODEL 7
REMARK VINA RESULT:      -6.6      2.393      2.674
REMARK  6 active torsions:
REMARK  status: ('A' for Active; 'I' for Inactive)
REMARK    1  A    between atoms: C_6  and  C_7 
REMARK    2  A    between atoms: C_7  and  N_8 
REMARK    3  A    between atoms: C_7  and  C_24 
REMARK       I    between atoms: N_8  and  C_9 
REMARK       I    between atoms: C_9  and  N_10 
REMARK    4  A    between atoms: N_10  and  C_11 
REMARK    5  A    between atoms: C_14  and  C_15 
REMARK    6  A    between atoms: C_24  and  O_25 
ROOT
HETATM    1  N   UNL     1      -4.590   5.936 -28.822  1.00  0.00    -0.331 N 
HETATM    2  C   UNL     1      -4.847   5.046 -29.843  1.00  0.00     0.321 C 
HETATM    3  N   UNL     1      -5.382   3.881 -29.343  1.00  0.00    -0.309 N 
HETATM    4  O   UNL     1      -4.613   5.308 -31.014  1.00  0.00    -0.247 OA
HETATM    5  H   UNL     1      -5.141   5.831 -27.985  1.00  0.00     0.165 HD
HETATM    6  H   UNL     1      -5.241   3.728 -28.355  1.00  0.00     0.170 HD
ENDROOT
BRANCH   1   7
HETATM    7  C   UNL     1      -4.081   7.269 -29.100  1.00  0.00     0.161 C 
BRANCH   7   8
HETATM    8  C   UNL     1      -2.739   7.329 -28.428  1.00  0.00     0.056 A 
HETATM    9  N   UNL     1      -1.555   7.071 -29.079  1.00  0.00    -0.277 N 
HETATM   10  C   UNL     1      -1.372   6.713 -30.467  1.00  0.00     0.179 C 
HETATM   11  N   UNL     1      -0.476   7.153 -28.276  1.00  0.00    -0.185 NA
HETATM   12  C   UNL     1      -0.979   7.505 -27.095  1.00  0.00     0.141 A 
HETATM   13  C   UNL     1      -2.378   7.622 -27.125  1.00  0.00     0.050 A 
ENDBRANCH   7   8
BRANCH   7  14
HETATM   14  C   UNL     1      -5.033   8.389 -28.618  1.00  0.00     0.198 C 
BRANCH  14  15
HETATM   15  O   UNL     1      -5.996   7.859 -27.698  1.00  0.00    -0.394 OA
HETATM   16  C   UNL     1      -7.300   8.359 -27.963  1.00  0.00     0.201 C 
ENDBRANCH  14  15
ENDBRANCH   7  14
ENDBRANCH   1   7
BRANCH   3  17
HETATM   17  C   UNL     1      -5.936   2.810 -30.070  1.00  0.00     0.036 A 
HETATM   18  C   UNL     1      -5.222   1.680 -30.454  1.00  0.00     0.030 A 
HETATM   19  C   UNL     1      -5.838   0.676 -31.213  1.00  0.00     0.010 A 
HETATM   20  C   UNL     1      -7.188   0.764 -31.599  1.00  0.00    -0.054 A 
HETATM   21  C   UNL     1      -7.885   1.917 -31.223  1.00  0.00     0.010 A 
HETATM   22  C   UNL     1      -7.271   2.923 -30.467  1.00  0.00     0.030 A 
BRANCH  20  23
HETATM   23  C   UNL     1      -7.788  -0.355 -32.451  1.00  0.00     0.018 C 
HETATM   24  C   UNL     1      -8.982   0.123 -33.308  1.00  0.00     0.009 C 
HETATM   25  C   UNL     1      -8.545   0.898 -34.549  1.00  0.00     0.001 C 
HETATM   26  C   UNL     1      -7.613   0.063 -35.418  1.00  0.00     0.000 C 
HETATM   27  C   UNL     1      -6.406  -0.430 -34.630  1.00  0.00     0.001 C 
HETATM   28  C   UNL     1      -6.811  -1.155 -33.342  1.00  0.00     0.009 C 
ENDBRANCH  20  23
ENDBRANCH   3  17
TORSDOF 6
ENDMDL
MODEL 8
REMARK VINA RESULT:      -6.4      3.294      9.036
REMARK  6 active torsions:
REMARK  status: ('A' for Active; 'I' for Inactive)
REMARK    1  A    between atoms: C_6  and  C_7 
REMARK    2  A    between atoms: C_7  and  N_8 
REMARK    3  A    between atoms: C_7  and  C_24 
REMARK       I    between atoms: N_8  and  C_9 
REMARK       I    between atoms: C_9  and  N_10 
REMARK    4  A    between atoms: N_10  and  C_11 
REMARK    5  A    between atoms: C_14  and  C_15 
REMARK    6  A    between atoms: C_24  and  O_25 
ROOT
HETATM    1  N   UNL     1      -5.839   0.885 -33.103  1.00  0.00    -0.331 N 
HETATM    2  C   UNL     1      -5.134   1.594 -32.155  1.00  0.00     0.321 C 
HETATM    3  N   UNL     1      -4.583   2.726 -32.710  1.00  0.00    -0.309 N 
HETATM    4  O   UNL     1      -5.042   1.222 -30.994  1.00  0.00    -0.247 OA
HETATM    5  H   UNL     1      -6.194   1.412 -33.886  1.00  0.00     0.165 HD
HETATM    6  H   UNL     1      -4.518   2.727 -33.717  1.00  0.00     0.170 HD
ENDROOT
BRANCH   1   7
HETATM    7  C   UNL     1      -6.570  -0.321 -32.748  1.00  0.00     0.161 C 
BRANCH   7   8
HETATM    8  C   UNL     1      -6.008  -1.399 -33.630  1.00  0.00     0.056 A 
HETATM    9  N   UNL     1      -4.793  -2.003 -33.406  1.00  0.00    -0.277 N 
HETATM   10  C   UNL     1      -3.862  -1.741 -32.332  1.00  0.00     0.179 C 
HETATM   11  N   UNL     1      -4.473  -2.921 -34.339  1.00  0.00    -0.185 NA
HETATM   12  C   UNL     1      -5.523  -2.928 -35.158  1.00  0.00     0.141 A 
HETATM   13  C   UNL     1      -6.503  -1.999 -34.774  1.00  0.00     0.050 A 
ENDBRANCH   7   8
BRANCH   7  14
HETATM   14  C   UNL     1      -8.100  -0.165 -32.907  1.00  0.00     0.198 C 
BRANCH  14  15
HETATM   15  O   UNL     1      -8.398   0.886 -33.835  1.00  0.00    -0.394 OA
HETATM   16  C   UNL     1      -9.800   1.062 -33.991  1.00  0.00     0.201 C 
ENDBRANCH  14  15
ENDBRANCH   7  14
ENDBRANCH   1   7
BRANCH   3  17
HETATM   17  C   UNL     1      -3.948   3.789 -32.040  1.00  0.00     0.036 A 
HETATM   18  C   UNL     1      -2.575   4.016 -32.069  1.00  0.00     0.030 A 
HETATM   19  C   UNL     1      -2.016   5.073 -31.340  1.00  0.00     0.010 A 
HETATM   20  C   UNL     1      -2.810   5.944 -30.572  1.00  0.00    -0.054 A 
HETATM   21  C   UNL     1      -4.186   5.689 -30.537  1.00  0.00     0.010 A 
HETATM   22  C   UNL     1      -4.747   4.630 -31.263  1.00  0.00     0.030 A 
BRANCH  20  23
HETATM   23  C   UNL     1      -2.131   7.060 -29.778  1.00  0.00     0.018 C 
HETATM   24  C   UNL     1      -1.179   7.914 -30.645  1.00  0.00     0.009 C 
HETATM   25  C   UNL     1      -1.922   8.923 -31.518  1.00  0.00     0.001 C 
HETATM   26  C   UNL     1      -2.788   9.848 -30.673  1.00  0.00     0.000 C 
HETATM   27  C   UNL     1      -3.759   9.062 -29.801  1.00  0.00     0.001 C 
HETATM   28  C   UNL     1      -3.051   7.995 -28.961  1.00  0.00     0.009 C 
ENDBRANCH  20  23
ENDBRANCH   3  17
TORSDOF 6
ENDMDL
MODEL 9
REMARK VINA RESULT:      -6.4      2.442      9.596
REMARK  6 active torsions:
REMARK  status: ('A' for Active; 'I' for Inactive)
REMARK    1  A    between atoms: C_6  and  C_7 
REMARK    2  A    between atoms: C_7  and  N_8 
REMARK    3  A    between atoms: C_7  and  C_24 
REMARK       I    between atoms: N_8  and  C_9 
REMARK       I    between atoms: C_9  and  N_10 
REMARK    4  A    between atoms: N_10  and  C_11 
REMARK    5  A    between atoms: C_14  and  C_15 
REMARK    6  A    between atoms: C_24  and  O_25 
ROOT
HETATM    1  N   UNL     1      -3.550   5.029 -31.802  1.00  0.00    -0.331 N 
HETATM    2  C   UNL     1      -3.049   6.176 -31.225  1.00  0.00     0.321 C 
HETATM    3  N   UNL     1      -2.230   5.864 -30.165  1.00  0.00    -0.309 N 
HETATM    4  O   UNL     1      -3.327   7.292 -31.639  1.00  0.00    -0.247 OA
HETATM    5  H   UNL     1      -3.004   4.190 -31.684  1.00  0.00     0.165 HD
HETATM    6  H   UNL     1      -2.340   4.932 -29.792  1.00  0.00     0.170 HD
ENDROOT
BRANCH   1   7
HETATM    7  C   UNL     1      -4.393   5.091 -32.986  1.00  0.00     0.161 C 
BRANCH   7   8
HETATM    8  C   UNL     1      -5.158   3.799 -32.995  1.00  0.00     0.056 A 
HETATM    9  N   UNL     1      -6.476   3.703 -33.375  1.00  0.00    -0.277 N 
HETATM   10  C   UNL     1      -7.345   4.769 -33.822  1.00  0.00     0.179 C 
HETATM   11  N   UNL     1      -6.971   2.453 -33.277  1.00  0.00    -0.185 NA
HETATM   12  C   UNL     1      -5.935   1.729 -32.860  1.00  0.00     0.141 A 
HETATM   13  C   UNL     1      -4.785   2.510 -32.659  1.00  0.00     0.050 A 
ENDBRANCH   7   8
BRANCH   7  14
HETATM   14  C   UNL     1      -3.586   5.310 -34.288  1.00  0.00     0.198 C 
BRANCH  14  15
HETATM   15  O   UNL     1      -2.325   4.634 -34.209  1.00  0.00    -0.394 OA
HETATM   16  C   UNL     1      -1.294   5.380 -34.843  1.00  0.00     0.201 C 
ENDBRANCH  14  15
ENDBRANCH   7  14
ENDBRANCH   1   7
BRANCH   3  17
HETATM   17  C   UNL     1      -1.399   6.736 -29.437  1.00  0.00     0.036 A 
HETATM   18  C   UNL     1      -1.799   7.987 -28.978  1.00  0.00     0.030 A 
HETATM   19  C   UNL     1      -0.897   8.813 -28.296  1.00  0.00     0.010 A 
HETATM   20  C   UNL     1       0.426   8.411 -28.037  1.00  0.00    -0.054 A 
HETATM   21  C   UNL     1       0.818   7.158 -28.523  1.00  0.00     0.010 A 
HETATM   22  C   UNL     1      -0.082   6.331 -29.209  1.00  0.00     0.030 A 
BRANCH  20  23
HETATM   23  C   UNL     1       1.366   9.374 -27.312  1.00  0.00     0.018 C 
HETATM   24  C   UNL     1       0.624  10.584 -26.701  1.00  0.00     0.009 C 
HETATM   25  C   UNL     1      -0.100  10.237 -25.402  1.00  0.00     0.001 C 
HETATM   26  C   UNL     1       0.867   9.673 -24.368  1.00  0.00     0.000 C 
HETATM   27  C   UNL     1       1.622   8.467 -24.909  1.00  0.00     0.001 C 
HETATM   28  C   UNL     1       2.306   8.763 -26.248  1.00  0.00     0.009 C 
ENDBRANCH  20  23
ENDBRANCH   3  17
TORSDOF 6
ENDMDL
MODEL 10
REMARK VINA RESULT:      -6.4      3.695      9.357
REMARK  6 active torsions:
REMARK  status: ('A' for Active; 'I' for Inactive)
REMARK    1  A    between atoms: C_6  and  C_7 
REMARK    2  A    between atoms: C_7  and  N_8 
REMARK    3  A    between atoms: C_7  and  C_24 
REMARK       I    between atoms: N_8  and  C_9 
REMARK       I    between atoms: C_9  and  N_10 
REMARK    4  A    between atoms: N_10  and  C_11 
REMARK    5  A    between atoms: C_14  and  C_15 
REMARK    6  A    between atoms: C_24  and  O_25 
ROOT
HETATM    1  N   UNL     1      -8.005   3.642 -32.790  1.00  0.00    -0.331 N 
HETATM    2  C   UNL     1      -6.807   4.247 -33.100  1.00  0.00     0.321 C 
HETATM    3  N   UNL     1      -6.063   4.453 -31.961  1.00  0.00    -0.309 N 
HETATM    4  O   UNL     1      -6.498   4.539 -34.246  1.00  0.00    -0.247 OA
HETATM    5  H   UNL     1      -8.028   3.096 -31.943  1.00  0.00     0.165 HD
HETATM    6  H   UNL     1      -6.578   4.417 -31.094  1.00  0.00     0.170 HD
ENDROOT
BRANCH   1   7
HETATM    7  C   UNL     1      -8.944   3.259 -33.833  1.00  0.00     0.161 C 
BRANCH   7   8
HETATM    8  C   UNL     1     -10.301   3.607 -33.292  1.00  0.00     0.056 A 
HETATM    9  N   UNL     1     -11.357   3.989 -34.086  1.00  0.00    -0.277 N 
HETATM   10  C   UNL     1     -11.375   4.122 -35.525  1.00  0.00     0.179 C 
HETATM   11  N   UNL     1     -12.471   4.284 -33.387  1.00  0.00    -0.185 NA
HETATM   12  C   UNL     1     -12.129   4.052 -32.122  1.00  0.00     0.141 A 
HETATM   13  C   UNL     1     -10.793   3.637 -31.999  1.00  0.00     0.050 A 
ENDBRANCH   7   8
BRANCH   7  14
HETATM   14  C   UNL     1      -8.829   1.768 -34.227  1.00  0.00     0.198 C 
BRANCH  14  15
HETATM   15  O   UNL     1      -8.577   0.966 -33.066  1.00  0.00    -0.394 OA
HETATM   16  C   UNL     1      -9.633   0.045 -32.829  1.00  0.00     0.201 C 
ENDBRANCH  14  15
ENDBRANCH   7  14
ENDBRANCH   1   7
BRANCH   3  17
HETATM   17  C   UNL     1      -4.723   4.879 -31.876  1.00  0.00     0.036 A 
HETATM   18  C   UNL     1      -4.325   6.209 -31.964  1.00  0.00     0.030 A 
HETATM   19  C   UNL     1      -2.966   6.547 -31.912  1.00  0.00     0.010 A 
HETATM   20  C   UNL     1      -1.966   5.569 -31.756  1.00  0.00    -0.054 A 
HETATM   21  C   UNL     1      -2.383   4.235 -31.690  1.00  0.00     0.010 A 
HETATM   22  C   UNL     1      -3.741   3.895 -31.745  1.00  0.00     0.030 A 
BRANCH  20  23
HETATM   23  C   UNL     1      -0.501   6.005 -31.735  1.00  0.00     0.018 C 
HETATM   24  C   UNL     1      -0.312   7.435 -31.181  1.00  0.00     0.009 C 
HETATM   25  C   UNL     1      -0.400   7.494 -29.658  1.00  0.00     0.001 C 
HETATM   26  C   UNL     1       0.626   6.572 -29.012  1.00  0.00     0.000 C 
HETATM   27  C   UNL     1       0.483   5.140 -29.511  1.00  0.00     0.001 C 
HETATM   28  C   UNL     1       0.500   5.055 -31.041  1.00  0.00     0.009 C 
ENDBRANCH  20  23
ENDBRANCH   3  17
TORSDOF 6
ENDMDL
