MODEL 1
REMARK VINA RESULT:      -8.8      0.000      0.000
REMARK  7 active torsions:
REMARK  status: ('A' for Active; 'I' for Inactive)
REMARK    1  A    between atoms: O_2  and  C_3 
REMARK    2  A    between atoms: C_5  and  C_6 
REMARK    3  A    between atoms: C_6  and  O_7 
REMARK    4  A    between atoms: C_6  and  C_8 
REMARK    5  A    between atoms: C_8  and  N_9 
REMARK       I    between atoms: N_9  and  C_10 
REMARK    6  A    between atoms: C_10  and  C_11 
REMARK    7  A    between atoms: C_12  and  C_13 
ROOT
HETATM    1  C   UNL     1      -4.887   4.147 -32.909  1.00  0.00     0.089 C 
HETATM    2  C   UNL     1      -5.528   3.026 -32.056  1.00  0.00     0.068 C 
HETATM    3  C   UNL     1      -5.024   3.080 -30.609  1.00  0.00     0.013 C 
HETATM    4  C   UNL     1      -5.368   4.430 -29.976  1.00  0.00     0.001 C 
HETATM    5  C   UNL     1      -4.906   5.617 -30.820  1.00  0.00     0.001 C 
HETATM    6  C   UNL     1      -5.325   5.496 -32.291  1.00  0.00     0.015 C 
ENDROOT
BRANCH   1   7
HETATM    7  C   UNL     1      -3.349   4.156 -33.065  1.00  0.00     0.222 C 
HETATM    8  N   UNL     1      -2.811   5.099 -33.901  1.00  0.00    -0.358 N 
HETATM    9  H   UNL     1      -3.407   5.904 -34.103  1.00  0.00     0.162 HD
HETATM   10  O   UNL     1      -2.623   3.390 -32.431  1.00  0.00    -0.273 OA
BRANCH   8  11
HETATM   11  C   UNL     1      -1.374   5.343 -33.979  1.00  0.00     0.159 C 
BRANCH  11  12
HETATM   12  C   UNL     1      -0.958   6.786 -33.610  1.00  0.00     0.169 C 
BRANCH  12  13
HETATM   13  C   UNL     1      -1.089   7.033 -32.117  1.00  0.00    -0.025 A 
HETATM   14  C   UNL     1      -0.364   6.229 -31.215  1.00  0.00     0.046 A 
HETATM   15  C   UNL     1      -0.480   6.413 -29.835  1.00  0.00     0.068 A 
HETATM   16  C   UNL     1      -1.312   7.420 -29.348  1.00  0.00     0.037 A 
HETATM   17  C   UNL     1      -2.027   8.235 -30.225  1.00  0.00     0.003 A 
HETATM   18  C   UNL     1      -1.918   8.039 -31.601  1.00  0.00     0.010 A 
BRANCH  15  19
HETATM   19  O   UNL     1       0.160   5.684 -28.869  1.00  0.00    -0.356 OA
HETATM   20  C   UNL     1       0.103   6.186 -27.540  1.00  0.00     0.210 C 
ENDBRANCH  15  19
ENDBRANCH  12  13
BRANCH  12  21
HETATM   21  O   UNL     1      -1.772   7.704 -34.354  1.00  0.00    -0.389 OA
HETATM   22  H   UNL     1      -2.647   7.277 -34.390  1.00  0.00     0.210 HD
ENDBRANCH  12  21
ENDBRANCH  11  12
ENDBRANCH   8  11
ENDBRANCH   1   7
BRANCH   2  23
HETATM   23  C   UNL     1      -5.457   1.651 -32.659  1.00  0.00     0.110 A 
HETATM   24  N   UNL     1      -6.408   1.025 -33.326  1.00  0.00    -0.233 NA
HETATM   25  C   UNL     1      -5.915  -0.228 -33.602  1.00  0.00     0.087 A 
HETATM   26  C   UNL     1      -4.628  -0.371 -33.101  1.00  0.00     0.062 A 
HETATM   27  C   UNL     1      -6.522  -1.297 -34.273  1.00  0.00     0.057 A 
HETATM   28  N   UNL     1      -4.358   0.836 -32.508  1.00  0.00    -0.342 N 
HETATM   29  C   UNL     1      -3.880  -1.542 -33.231  1.00  0.00     0.034 A 
HETATM   30  H   UNL     1      -3.505   1.078 -32.026  1.00  0.00     0.167 HD
HETATM   31  C   UNL     1      -4.497  -2.605 -33.904  1.00  0.00     0.026 A 
HETATM   32  C   UNL     1      -5.793  -2.482 -34.412  1.00  0.00     0.036 A 
HETATM   33 CL   UNL     1      -6.510  -3.820 -35.226  1.00  0.00    -0.084 Cl
ENDBRANCH   2  23
TORSDOF 7
ENDMDL
MODEL 2
REMARK VINA RESULT:      -8.6      0.999      1.619
REMARK  7 active torsions:
REMARK  status: ('A' for Active; 'I' for Inactive)
REMARK    1  A    between atoms: O_2  and  C_3 
REMARK    2  A    between atoms: C_5  and  C_6 
REMARK    3  A    between atoms: C_6  and  O_7 
REMARK    4  A    between atoms: C_6  and  C_8 
REMARK    5  A    between atoms: C_8  and  N_9 
REMARK       I    between atoms: N_9  and  C_10 
REMARK    6  A    between atoms: C_10  and  C_11 
REMARK    7  A    between atoms: C_12  and  C_13 
ROOT
HETATM    1  C   UNL     1      -4.874   4.112 -32.931  1.00  0.00     0.089 C 
HETATM    2  C   UNL     1      -5.516   2.998 -32.070  1.00  0.00     0.068 C 
HETATM    3  C   UNL     1      -4.976   3.032 -30.635  1.00  0.00     0.013 C 
HETATM    4  C   UNL     1      -5.277   4.384 -29.985  1.00  0.00     0.001 C 
HETATM    5  C   UNL     1      -4.811   5.567 -30.832  1.00  0.00     0.001 C 
HETATM    6  C   UNL     1      -5.269   5.465 -32.293  1.00  0.00     0.015 C 
ENDROOT
BRANCH   1   7
HETATM    7  C   UNL     1      -3.340   4.091 -33.125  1.00  0.00     0.222 C 
HETATM    8  N   UNL     1      -2.784   5.132 -33.821  1.00  0.00    -0.358 N 
HETATM    9  H   UNL     1      -3.353   5.979 -33.881  1.00  0.00     0.162 HD
HETATM   10  O   UNL     1      -2.632   3.212 -32.635  1.00  0.00    -0.273 OA
BRANCH   8  11
HETATM   11  C   UNL     1      -1.341   5.335 -33.900  1.00  0.00     0.159 C 
BRANCH  11  12
HETATM   12  C   UNL     1      -0.897   6.799 -33.679  1.00  0.00     0.169 C 
BRANCH  12  13
HETATM   13  C   UNL     1      -0.845   7.144 -32.202  1.00  0.00    -0.025 A 
HETATM   14  C   UNL     1      -1.849   7.963 -31.646  1.00  0.00     0.046 A 
HETATM   15  C   UNL     1      -1.820   8.320 -30.295  1.00  0.00     0.068 A 
HETATM   16  C   UNL     1      -0.790   7.842 -29.485  1.00  0.00     0.037 A 
HETATM   17  C   UNL     1       0.204   7.020 -30.014  1.00  0.00     0.003 A 
HETATM   18  C   UNL     1       0.177   6.676 -31.365  1.00  0.00     0.010 A 
BRANCH  15  19
HETATM   19  O   UNL     1      -2.726   9.120 -29.654  1.00  0.00    -0.356 OA
HETATM   20  C   UNL     1      -4.037   9.175 -30.201  1.00  0.00     0.210 C 
ENDBRANCH  15  19
ENDBRANCH  12  13
BRANCH  12  21
HETATM   21  O   UNL     1      -1.805   7.665 -34.376  1.00  0.00    -0.389 OA
HETATM   22  H   UNL     1      -1.398   7.786 -35.252  1.00  0.00     0.210 HD
ENDBRANCH  12  21
ENDBRANCH  11  12
ENDBRANCH   8  11
ENDBRANCH   1   7
BRANCH   2  23
HETATM   23  C   UNL     1      -5.489   1.627 -32.684  1.00  0.00     0.110 A 
HETATM   24  N   UNL     1      -6.483   1.007 -33.291  1.00  0.00    -0.233 NA
HETATM   25  C   UNL     1      -6.013  -0.246 -33.606  1.00  0.00     0.087 A 
HETATM   26  C   UNL     1      -4.696  -0.395 -33.191  1.00  0.00     0.062 A 
HETATM   27  C   UNL     1      -6.665  -1.309 -34.242  1.00  0.00     0.057 A 
HETATM   28  N   UNL     1      -4.385   0.808 -32.610  1.00  0.00    -0.342 N 
HETATM   29  C   UNL     1      -3.961  -1.567 -33.376  1.00  0.00     0.034 A 
HETATM   30  H   UNL     1      -3.501   1.045 -32.183  1.00  0.00     0.167 HD
HETATM   31  C   UNL     1      -4.624  -2.625 -34.013  1.00  0.00     0.026 A 
HETATM   32  C   UNL     1      -5.949  -2.495 -34.435  1.00  0.00     0.036 A 
HETATM   33 CL   UNL     1      -6.722  -3.827 -35.208  1.00  0.00    -0.084 Cl
ENDBRANCH   2  23
TORSDOF 7
ENDMDL
MODEL 3
REMARK VINA RESULT:      -8.5      4.034      5.595
REMARK  7 active torsions:
REMARK  status: ('A' for Active; 'I' for Inactive)
REMARK    1  A    between atoms: O_2  and  C_3 
REMARK    2  A    between atoms: C_5  and  C_6 
REMARK    3  A    between atoms: C_6  and  O_7 
REMARK    4  A    between atoms: C_6  and  C_8 
REMARK    5  A    between atoms: C_8  and  N_9 
REMARK       I    between atoms: N_9  and  C_10 
REMARK    6  A    between atoms: C_10  and  C_11 
REMARK    7  A    between atoms: C_12  and  C_13 
ROOT
HETATM    1  C   UNL     1      -7.382   0.735 -31.747  1.00  0.00     0.089 C 
HETATM    2  C   UNL     1      -8.038  -0.103 -32.871  1.00  0.00     0.068 C 
HETATM    3  C   UNL     1      -7.098  -0.237 -34.076  1.00  0.00     0.013 C 
HETATM    4  C   UNL     1      -5.792  -0.917 -33.660  1.00  0.00     0.001 C 
HETATM    5  C   UNL     1      -5.134  -0.251 -32.454  1.00  0.00     0.001 C 
HETATM    6  C   UNL     1      -6.113  -0.025 -31.294  1.00  0.00     0.015 C 
ENDROOT
BRANCH   1   7
HETATM    7  C   UNL     1      -6.992   2.197 -32.061  1.00  0.00     0.222 C 
HETATM    8  N   UNL     1      -5.829   2.666 -31.510  1.00  0.00    -0.358 N 
HETATM    9  H   UNL     1      -5.162   1.952 -31.209  1.00  0.00     0.162 HD
HETATM   10  O   UNL     1      -7.661   2.904 -32.815  1.00  0.00    -0.273 OA
BRANCH   8  11
HETATM   11  C   UNL     1      -5.249   3.951 -31.887  1.00  0.00     0.159 C 
BRANCH  11  12
HETATM   12  C   UNL     1      -4.511   3.936 -33.246  1.00  0.00     0.169 C 
BRANCH  12  13
HETATM   13  C   UNL     1      -3.267   4.805 -33.208  1.00  0.00    -0.025 A 
HETATM   14  C   UNL     1      -2.177   4.421 -32.401  1.00  0.00     0.046 A 
HETATM   15  C   UNL     1      -1.027   5.210 -32.324  1.00  0.00     0.068 A 
HETATM   16  C   UNL     1      -0.952   6.385 -33.072  1.00  0.00     0.037 A 
HETATM   17  C   UNL     1      -2.015   6.774 -33.887  1.00  0.00     0.003 A 
HETATM   18  C   UNL     1      -3.166   5.990 -33.951  1.00  0.00     0.010 A 
BRANCH  15  19
HETATM   19  O   UNL     1       0.081   4.947 -31.563  1.00  0.00    -0.356 OA
HETATM   20  C   UNL     1      -0.042   5.137 -30.160  1.00  0.00     0.210 C 
ENDBRANCH  15  19
ENDBRANCH  12  13
BRANCH  12  21
HETATM   21  O   UNL     1      -5.417   4.382 -34.266  1.00  0.00    -0.389 OA
HETATM   22  H   UNL     1      -5.538   3.604 -34.838  1.00  0.00     0.210 HD
ENDBRANCH  12  21
ENDBRANCH  11  12
ENDBRANCH   8  11
ENDBRANCH   1   7
BRANCH   2  23
HETATM   23  C   UNL     1      -9.430   0.317 -33.246  1.00  0.00     0.110 A 
HETATM   24  N   UNL     1     -10.560  -0.268 -32.896  1.00  0.00    -0.233 NA
HETATM   25  C   UNL     1     -11.559   0.418 -33.544  1.00  0.00     0.087 A 
HETATM   26  C   UNL     1     -11.031   1.456 -34.302  1.00  0.00     0.062 A 
HETATM   27  C   UNL     1     -12.942   0.201 -33.533  1.00  0.00     0.057 A 
HETATM   28  N   UNL     1      -9.678   1.372 -34.095  1.00  0.00    -0.342 N 
HETATM   29  C   UNL     1     -11.813   2.320 -35.070  1.00  0.00     0.034 A 
HETATM   30  H   UNL     1      -8.980   1.972 -34.511  1.00  0.00     0.167 HD
HETATM   31  C   UNL     1     -13.196   2.092 -35.052  1.00  0.00     0.026 A 
HETATM   32  C   UNL     1     -13.745   1.052 -34.298  1.00  0.00     0.036 A 
HETATM   33 CL   UNL     1     -15.452   0.810 -34.314  1.00  0.00    -0.084 Cl
ENDBRANCH   2  23
TORSDOF 7
ENDMDL
MODEL 4
REMARK VINA RESULT:      -8.4      3.880      5.825
REMARK  7 active torsions:
REMARK  status: ('A' for Active; 'I' for Inactive)
REMARK    1  A    between atoms: O_2  and  C_3 
REMARK    2  A    between atoms: C_5  and  C_6 
REMARK    3  A    between atoms: C_6  and  O_7 
REMARK    4  A    between atoms: C_6  and  C_8 
REMARK    5  A    between atoms: C_8  and  N_9 
REMARK       I    between atoms: N_9  and  C_10 
REMARK    6  A    between atoms: C_10  and  C_11 
REMARK    7  A    between atoms: C_12  and  C_13 
ROOT
HETATM    1  C   UNL     1      -6.816   0.247 -32.294  1.00  0.00     0.089 C 
HETATM    2  C   UNL     1      -7.683  -0.212 -33.491  1.00  0.00     0.068 C 
HETATM    3  C   UNL     1      -6.813  -0.499 -34.721  1.00  0.00     0.013 C 
HETATM    4  C   UNL     1      -5.795  -1.598 -34.409  1.00  0.00     0.001 C 
HETATM    5  C   UNL     1      -4.981  -1.312 -33.148  1.00  0.00     0.001 C 
HETATM    6  C   UNL     1      -5.859  -0.920 -31.952  1.00  0.00     0.015 C 
ENDROOT
BRANCH   1   7
HETATM    7  C   UNL     1      -5.979   1.537 -32.450  1.00  0.00     0.222 C 
HETATM    8  N   UNL     1      -6.664   2.722 -32.518  1.00  0.00    -0.358 N 
HETATM    9  H   UNL     1      -7.618   2.704 -32.152  1.00  0.00     0.162 HD
HETATM   10  O   UNL     1      -4.748   1.520 -32.460  1.00  0.00    -0.273 OA
BRANCH   8  11
HETATM   11  C   UNL     1      -5.991   4.016 -32.464  1.00  0.00     0.159 C 
BRANCH  11  12
HETATM   12  C   UNL     1      -5.461   4.509 -33.830  1.00  0.00     0.169 C 
BRANCH  12  13
HETATM   13  C   UNL     1      -3.970   4.791 -33.773  1.00  0.00    -0.025 A 
HETATM   14  C   UNL     1      -3.255   4.513 -32.590  1.00  0.00     0.046 A 
HETATM   15  C   UNL     1      -1.888   4.783 -32.496  1.00  0.00     0.068 A 
HETATM   16  C   UNL     1      -1.220   5.318 -33.597  1.00  0.00     0.037 A 
HETATM   17  C   UNL     1      -1.907   5.588 -34.780  1.00  0.00     0.003 A 
HETATM   18  C   UNL     1      -3.274   5.328 -34.865  1.00  0.00     0.010 A 
BRANCH  15  19
HETATM   19  O   UNL     1      -1.100   4.571 -31.397  1.00  0.00    -0.356 OA
HETATM   20  C   UNL     1       0.107   5.318 -31.317  1.00  0.00     0.210 C 
ENDBRANCH  15  19
ENDBRANCH  12  13
BRANCH  12  21
HETATM   21  O   UNL     1      -6.190   5.685 -34.208  1.00  0.00    -0.389 OA
HETATM   22  H   UNL     1      -5.598   6.422 -33.975  1.00  0.00     0.210 HD
ENDBRANCH  12  21
ENDBRANCH  11  12
ENDBRANCH   8  11
ENDBRANCH   1   7
BRANCH   2  23
HETATM   23  C   UNL     1      -8.865   0.665 -33.791  1.00  0.00     0.110 A 
HETATM   24  N   UNL     1      -8.860   1.814 -34.440  1.00  0.00    -0.233 NA
HETATM   25  C   UNL     1     -10.151   2.283 -34.390  1.00  0.00     0.087 A 
HETATM   26  C   UNL     1     -10.970   1.397 -33.703  1.00  0.00     0.062 A 
HETATM   27  C   UNL     1     -10.690   3.467 -34.908  1.00  0.00     0.057 A 
HETATM   28  N   UNL     1     -10.131   0.376 -33.334  1.00  0.00    -0.342 N 
HETATM   29  C   UNL     1     -12.333   1.616 -33.494  1.00  0.00     0.034 A 
HETATM   30  H   UNL     1     -10.395  -0.439 -32.800  1.00  0.00     0.167 HD
HETATM   31  C   UNL     1     -12.861   2.804 -34.016  1.00  0.00     0.026 A 
HETATM   32  C   UNL     1     -12.052   3.710 -34.708  1.00  0.00     0.036 A 
HETATM   33 CL   UNL     1     -12.749   5.160 -35.325  1.00  0.00    -0.084 Cl
ENDBRANCH   2  23
TORSDOF 7
ENDMDL
MODEL 5
REMARK VINA RESULT:      -8.3      4.593      8.192
REMARK  7 active torsions:
REMARK  status: ('A' for Active; 'I' for Inactive)
REMARK    1  A    between atoms: O_2  and  C_3 
REMARK    2  A    between atoms: C_5  and  C_6 
REMARK    3  A    between atoms: C_6  and  O_7 
REMARK    4  A    between atoms: C_6  and  C_8 
REMARK    5  A    between atoms: C_8  and  N_9 
REMARK       I    between atoms: N_9  and  C_10 
REMARK    6  A    between atoms: C_10  and  C_11 
REMARK    7  A    between atoms: C_12  and  C_13 
ROOT
HETATM    1  C   UNL     1      -5.703   2.093 -30.902  1.00  0.00     0.089 C 
HETATM    2  C   UNL     1      -4.724   1.855 -32.077  1.00  0.00     0.068 C 
HETATM    3  C   UNL     1      -4.746   3.034 -33.057  1.00  0.00     0.013 C 
HETATM    4  C   UNL     1      -4.345   4.327 -32.344  1.00  0.00     0.001 C 
HETATM    5  C   UNL     1      -5.157   4.582 -31.075  1.00  0.00     0.001 C 
HETATM    6  C   UNL     1      -5.217   3.357 -30.154  1.00  0.00     0.015 C 
ENDROOT
BRANCH   1   7
HETATM    7  C   UNL     1      -7.205   2.261 -31.225  1.00  0.00     0.222 C 
HETATM    8  N   UNL     1      -7.905   1.130 -31.551  1.00  0.00    -0.358 N 
HETATM    9  H   UNL     1      -7.483   0.247 -31.256  1.00  0.00     0.162 HD
HETATM   10  O   UNL     1      -7.772   3.351 -31.145  1.00  0.00    -0.273 OA
BRANCH   8  11
HETATM   11  C   UNL     1      -9.359   1.122 -31.680  1.00  0.00     0.159 C 
BRANCH  11  12
HETATM   12  C   UNL     1      -9.877   0.375 -32.931  1.00  0.00     0.169 C 
BRANCH  12  13
HETATM   13  C   UNL     1     -10.822   1.244 -33.742  1.00  0.00    -0.025 A 
HETATM   14  C   UNL     1     -12.153   0.823 -33.941  1.00  0.00     0.046 A 
HETATM   15  C   UNL     1     -13.042   1.586 -34.702  1.00  0.00     0.068 A 
HETATM   16  C   UNL     1     -12.607   2.790 -35.255  1.00  0.00     0.037 A 
HETATM   17  C   UNL     1     -11.298   3.230 -35.058  1.00  0.00     0.003 A 
HETATM   18  C   UNL     1     -10.411   2.459 -34.308  1.00  0.00     0.010 A 
BRANCH  15  19
HETATM   19  O   UNL     1     -14.345   1.270 -34.975  1.00  0.00    -0.356 OA
HETATM   20  C   UNL     1     -15.199   1.040 -33.862  1.00  0.00     0.210 C 
ENDBRANCH  15  19
ENDBRANCH  12  13
BRANCH  12  21
HETATM   21  O   UNL     1     -10.528  -0.832 -32.508  1.00  0.00    -0.389 OA
HETATM   22  H   UNL     1     -10.601  -0.740 -31.541  1.00  0.00     0.210 HD
ENDBRANCH  12  21
ENDBRANCH  11  12
ENDBRANCH   8  11
ENDBRANCH   1   7
BRANCH   2  23
HETATM   23  C   UNL     1      -4.855   0.519 -32.751  1.00  0.00     0.110 A 
HETATM   24  N   UNL     1      -5.837   0.115 -33.534  1.00  0.00    -0.233 NA
HETATM   25  C   UNL     1      -5.564  -1.197 -33.840  1.00  0.00     0.087 A 
HETATM   26  C   UNL     1      -4.381  -1.605 -33.237  1.00  0.00     0.062 A 
HETATM   27  C   UNL     1      -6.292  -2.100 -34.623  1.00  0.00     0.057 A 
HETATM   28  N   UNL     1      -3.948  -0.498 -32.553  1.00  0.00    -0.342 N 
HETATM   29  C   UNL     1      -3.857  -2.892 -33.370  1.00  0.00     0.034 A 
HETATM   30  H   UNL     1      -3.115  -0.445 -31.985  1.00  0.00     0.167 HD
HETATM   31  C   UNL     1      -4.594  -3.788 -34.156  1.00  0.00     0.026 A 
HETATM   32  C   UNL     1      -5.788  -3.397 -34.767  1.00  0.00     0.036 A 
HETATM   33 CL   UNL     1      -6.662  -4.538 -35.719  1.00  0.00    -0.084 Cl
ENDBRANCH   2  23
TORSDOF 7
ENDMDL
MODEL 6
REMARK VINA RESULT:      -8.3      3.926      9.059
REMARK  7 active torsions:
REMARK  status: ('A' for Active; 'I' for Inactive)
REMARK    1  A    between atoms: O_2  and  C_3 
REMARK    2  A    between atoms: C_5  and  C_6 
REMARK    3  A    between atoms: C_6  and  O_7 
REMARK    4  A    between atoms: C_6  and  C_8 
REMARK    5  A    between atoms: C_8  and  N_9 
REMARK       I    between atoms: N_9  and  C_10 
REMARK    6  A    between atoms: C_10  and  C_11 
REMARK    7  A    between atoms: C_12  and  C_13 
ROOT
HETATM    1  C   UNL     1      -3.430   5.437 -32.156  1.00  0.00     0.089 C 
HETATM    2  C   UNL     1      -2.101   6.227 -32.223  1.00  0.00     0.068 C 
HETATM    3  C   UNL     1      -1.090   5.527 -33.139  1.00  0.00     0.013 C 
HETATM    4  C   UNL     1      -1.654   5.403 -34.556  1.00  0.00     0.001 C 
HETATM    5  C   UNL     1      -3.041   4.764 -34.590  1.00  0.00     0.001 C 
HETATM    6  C   UNL     1      -4.012   5.405 -33.589  1.00  0.00     0.015 C 
ENDROOT
BRANCH   1   7
HETATM    7  C   UNL     1      -3.393   3.992 -31.610  1.00  0.00     0.222 C 
HETATM    8  N   UNL     1      -4.564   3.282 -31.639  1.00  0.00    -0.358 N 
HETATM    9  H   UNL     1      -5.275   3.626 -32.288  1.00  0.00     0.162 HD
HETATM   10  O   UNL     1      -2.351   3.470 -31.213  1.00  0.00    -0.273 OA
BRANCH   8  11
HETATM   11  C   UNL     1      -4.619   1.854 -31.343  1.00  0.00     0.159 C 
BRANCH  11  12
HETATM   12  C   UNL     1      -3.774   0.979 -32.298  1.00  0.00     0.169 C 
BRANCH  12  13
HETATM   13  C   UNL     1      -4.634  -0.049 -33.011  1.00  0.00    -0.025 A 
HETATM   14  C   UNL     1      -4.056  -1.264 -33.433  1.00  0.00     0.046 A 
HETATM   15  C   UNL     1      -4.812  -2.221 -34.113  1.00  0.00     0.068 A 
HETATM   16  C   UNL     1      -6.163  -1.975 -34.360  1.00  0.00     0.037 A 
HETATM   17  C   UNL     1      -6.755  -0.786 -33.938  1.00  0.00     0.003 A 
HETATM   18  C   UNL     1      -5.994   0.172 -33.270  1.00  0.00     0.010 A 
BRANCH  15  19
HETATM   19  O   UNL     1      -4.356  -3.423 -34.584  1.00  0.00    -0.356 OA
HETATM   20  C   UNL     1      -3.685  -4.265 -33.656  1.00  0.00     0.210 C 
ENDBRANCH  15  19
ENDBRANCH  12  13
BRANCH  12  21
HETATM   21  O   UNL     1      -2.737   0.341 -31.539  1.00  0.00    -0.389 OA
HETATM   22  H   UNL     1      -2.035   0.164 -32.190  1.00  0.00     0.210 HD
ENDBRANCH  12  21
ENDBRANCH  11  12
ENDBRANCH   8  11
ENDBRANCH   1   7
BRANCH   2  23
HETATM   23  C   UNL     1      -1.526   6.615 -30.890  1.00  0.00     0.110 A 
HETATM   24  N   UNL     1      -1.593   7.797 -30.308  1.00  0.00    -0.233 NA
HETATM   25  C   UNL     1      -0.854   7.693 -29.153  1.00  0.00     0.087 A 
HETATM   26  C   UNL     1      -0.329   6.414 -29.018  1.00  0.00     0.062 A 
HETATM   27  C   UNL     1      -0.586   8.660 -28.176  1.00  0.00     0.057 A 
HETATM   28  N   UNL     1      -0.771   5.747 -30.133  1.00  0.00    -0.342 N 
HETATM   29  C   UNL     1       0.466   6.021 -27.941  1.00  0.00     0.034 A 
HETATM   30  H   UNL     1      -0.561   4.788 -30.367  1.00  0.00     0.167 HD
HETATM   31  C   UNL     1       0.729   6.997 -26.971  1.00  0.00     0.026 A 
HETATM   32  C   UNL     1       0.212   8.289 -27.090  1.00  0.00     0.036 A 
HETATM   33 CL   UNL     1       0.569   9.455 -25.871  1.00  0.00    -0.084 Cl
ENDBRANCH   2  23
TORSDOF 7
ENDMDL
MODEL 7
REMARK VINA RESULT:      -8.2      3.883      9.031
REMARK  7 active torsions:
REMARK  status: ('A' for Active; 'I' for Inactive)
REMARK    1  A    between atoms: O_2  and  C_3 
REMARK    2  A    between atoms: C_5  and  C_6 
REMARK    3  A    between atoms: C_6  and  O_7 
REMARK    4  A    between atoms: C_6  and  C_8 
REMARK    5  A    between atoms: C_8  and  N_9 
REMARK       I    between atoms: N_9  and  C_10 
REMARK    6  A    between atoms: C_10  and  C_11 
REMARK    7  A    between atoms: C_12  and  C_13 
ROOT
HETATM    1  C   UNL     1      -3.399   5.531 -32.186  1.00  0.00     0.089 C 
HETATM    2  C   UNL     1      -2.058   6.301 -32.270  1.00  0.00     0.068 C 
HETATM    3  C   UNL     1      -1.064   5.575 -33.184  1.00  0.00     0.013 C 
HETATM    4  C   UNL     1      -1.637   5.442 -34.596  1.00  0.00     0.001 C 
HETATM    5  C   UNL     1      -3.034   4.824 -34.614  1.00  0.00     0.001 C 
HETATM    6  C   UNL     1      -3.990   5.490 -33.615  1.00  0.00     0.015 C 
ENDROOT
BRANCH   1   7
HETATM    7  C   UNL     1      -3.380   4.092 -31.623  1.00  0.00     0.222 C 
HETATM    8  N   UNL     1      -4.556   3.391 -31.657  1.00  0.00    -0.358 N 
HETATM    9  H   UNL     1      -5.257   3.734 -32.318  1.00  0.00     0.162 HD
HETATM   10  O   UNL     1      -2.346   3.567 -31.209  1.00  0.00    -0.273 OA
BRANCH   8  11
HETATM   11  C   UNL     1      -4.626   1.967 -31.345  1.00  0.00     0.159 C 
BRANCH  11  12
HETATM   12  C   UNL     1      -3.693   1.086 -32.208  1.00  0.00     0.169 C 
BRANCH  12  13
HETATM   13  C   UNL     1      -4.483   0.071 -33.015  1.00  0.00    -0.025 A 
HETATM   14  C   UNL     1      -5.729   0.438 -33.562  1.00  0.00     0.046 A 
HETATM   15  C   UNL     1      -6.493  -0.478 -34.289  1.00  0.00     0.068 A 
HETATM   16  C   UNL     1      -6.003  -1.769 -34.489  1.00  0.00     0.037 A 
HETATM   17  C   UNL     1      -4.767  -2.146 -33.967  1.00  0.00     0.003 A 
HETATM   18  C   UNL     1      -4.013  -1.232 -33.232  1.00  0.00     0.010 A 
BRANCH  15  19
HETATM   19  O   UNL     1      -7.719  -0.240 -34.848  1.00  0.00    -0.356 OA
HETATM   20  C   UNL     1      -8.379   0.961 -34.467  1.00  0.00     0.210 C 
ENDBRANCH  15  19
ENDBRANCH  12  13
BRANCH  12  21
HETATM   21  O   UNL     1      -2.751   0.433 -31.345  1.00  0.00    -0.389 OA
HETATM   22  H   UNL     1      -3.292  -0.177 -30.814  1.00  0.00     0.210 HD
ENDBRANCH  12  21
ENDBRANCH  11  12
ENDBRANCH   8  11
ENDBRANCH   1   7
BRANCH   2  23
HETATM   23  C   UNL     1      -1.470   6.696 -30.945  1.00  0.00     0.110 A 
HETATM   24  N   UNL     1      -0.262   7.177 -30.723  1.00  0.00    -0.233 NA
HETATM   25  C   UNL     1      -0.150   7.305 -29.358  1.00  0.00     0.087 A 
HETATM   26  C   UNL     1      -1.321   6.902 -28.729  1.00  0.00     0.062 A 
HETATM   27  C   UNL     1       0.931   7.754 -28.591  1.00  0.00     0.057 A 
HETATM   28  N   UNL     1      -2.145   6.521 -29.758  1.00  0.00    -0.342 N 
HETATM   29  C   UNL     1      -1.493   6.921 -27.345  1.00  0.00     0.034 A 
HETATM   30  H   UNL     1      -3.081   6.157 -29.658  1.00  0.00     0.167 HD
HETATM   31  C   UNL     1      -0.404   7.371 -26.587  1.00  0.00     0.026 A 
HETATM   32  C   UNL     1       0.783   7.778 -27.201  1.00  0.00     0.036 A 
HETATM   33 CL   UNL     1       2.096   8.318 -26.223  1.00  0.00    -0.084 Cl
ENDBRANCH   2  23
TORSDOF 7
ENDMDL
MODEL 8
REMARK VINA RESULT:      -8.2      2.943      7.124
REMARK  7 active torsions:
REMARK  status: ('A' for Active; 'I' for Inactive)
REMARK    1  A    between atoms: O_2  and  C_3 
REMARK    2  A    between atoms: C_5  and  C_6 
REMARK    3  A    between atoms: C_6  and  O_7 
REMARK    4  A    between atoms: C_6  and  C_8 
REMARK    5  A    between atoms: C_8  and  N_9 
REMARK       I    between atoms: N_9  and  C_10 
REMARK    6  A    between atoms: C_10  and  C_11 
REMARK    7  A    between atoms: C_12  and  C_13 
ROOT
HETATM    1  C   UNL     1      -3.110   4.260 -33.629  1.00  0.00     0.089 C 
HETATM    2  C   UNL     1      -4.222   5.336 -33.598  1.00  0.00     0.068 C 
HETATM    3  C   UNL     1      -3.991   6.333 -32.456  1.00  0.00     0.013 C 
HETATM    4  C   UNL     1      -2.642   7.034 -32.626  1.00  0.00     0.001 C 
HETATM    5  C   UNL     1      -1.484   6.055 -32.815  1.00  0.00     0.001 C 
HETATM    6  C   UNL     1      -1.773   4.996 -33.887  1.00  0.00     0.015 C 
ENDROOT
BRANCH   1   7
HETATM    7  C   UNL     1      -2.938   3.352 -32.390  1.00  0.00     0.222 C 
HETATM    8  N   UNL     1      -3.610   2.158 -32.392  1.00  0.00    -0.358 N 
HETATM    9  H   UNL     1      -3.906   1.818 -33.309  1.00  0.00     0.162 HD
HETATM   10  O   UNL     1      -2.190   3.652 -31.459  1.00  0.00    -0.273 OA
BRANCH   8  11
HETATM   11  C   UNL     1      -3.376   1.130 -31.384  1.00  0.00     0.159 C 
BRANCH  11  12
HETATM   12  C   UNL     1      -4.647   0.354 -30.967  1.00  0.00     0.169 C 
BRANCH  12  13
HETATM   13  C   UNL     1      -5.183  -0.484 -32.115  1.00  0.00    -0.025 A 
HETATM   14  C   UNL     1      -4.334  -1.412 -32.752  1.00  0.00     0.046 A 
HETATM   15  C   UNL     1      -4.787  -2.181 -33.826  1.00  0.00     0.068 A 
HETATM   16  C   UNL     1      -6.105  -2.038 -34.261  1.00  0.00     0.037 A 
HETATM   17  C   UNL     1      -6.963  -1.136 -33.635  1.00  0.00     0.003 A 
HETATM   18  C   UNL     1      -6.503  -0.361 -32.571  1.00  0.00     0.010 A 
BRANCH  15  19
HETATM   19  O   UNL     1      -4.050  -3.096 -34.529  1.00  0.00    -0.356 OA
HETATM   20  C   UNL     1      -3.982  -4.413 -33.997  1.00  0.00     0.210 C 
ENDBRANCH  15  19
ENDBRANCH  12  13
BRANCH  12  21
HETATM   21  O   UNL     1      -5.632   1.294 -30.516  1.00  0.00    -0.389 OA
HETATM   22  H   UNL     1      -6.231   1.400 -31.277  1.00  0.00     0.210 HD
ENDBRANCH  12  21
ENDBRANCH  11  12
ENDBRANCH   8  11
ENDBRANCH   1   7
BRANCH   2  23
HETATM   23  C   UNL     1      -5.625   4.799 -33.644  1.00  0.00     0.110 A 
HETATM   24  N   UNL     1      -5.990   3.537 -33.760  1.00  0.00    -0.233 NA
HETATM   25  C   UNL     1      -7.363   3.546 -33.843  1.00  0.00     0.087 A 
HETATM   26  C   UNL     1      -7.851   4.844 -33.767  1.00  0.00     0.062 A 
HETATM   27  C   UNL     1      -8.254   2.476 -33.993  1.00  0.00     0.057 A 
HETATM   28  N   UNL     1      -6.729   5.622 -33.639  1.00  0.00    -0.342 N 
HETATM   29  C   UNL     1      -9.210   5.157 -33.828  1.00  0.00     0.034 A 
HETATM   30  H   UNL     1      -6.715   6.629 -33.572  1.00  0.00     0.167 HD
HETATM   31  C   UNL     1     -10.092   4.078 -33.979  1.00  0.00     0.026 A 
HETATM   32  C   UNL     1      -9.620   2.766 -34.060  1.00  0.00     0.036 A 
HETATM   33 CL   UNL     1     -10.746   1.475 -34.251  1.00  0.00    -0.084 Cl
ENDBRANCH   2  23
TORSDOF 7
ENDMDL
MODEL 9
REMARK VINA RESULT:      -8.0      1.701      2.440
REMARK  7 active torsions:
REMARK  status: ('A' for Active; 'I' for Inactive)
REMARK    1  A    between atoms: O_2  and  C_3 
REMARK    2  A    between atoms: C_5  and  C_6 
REMARK    3  A    between atoms: C_6  and  O_7 
REMARK    4  A    between atoms: C_6  and  C_8 
REMARK    5  A    between atoms: C_8  and  N_9 
REMARK       I    between atoms: N_9  and  C_10 
REMARK    6  A    between atoms: C_10  and  C_11 
REMARK    7  A    between atoms: C_12  and  C_13 
ROOT
HETATM    1  C   UNL     1      -5.757   5.171 -33.266  1.00  0.00     0.089 C 
HETATM    2  C   UNL     1      -6.079   4.075 -32.222  1.00  0.00     0.068 C 
HETATM    3  C   UNL     1      -5.174   4.207 -30.991  1.00  0.00     0.013 C 
HETATM    4  C   UNL     1      -5.364   5.576 -30.334  1.00  0.00     0.001 C 
HETATM    5  C   UNL     1      -5.213   6.733 -31.320  1.00  0.00     0.001 C 
HETATM    6  C   UNL     1      -6.041   6.536 -32.597  1.00  0.00     0.015 C 
ENDROOT
BRANCH   1   7
HETATM    7  C   UNL     1      -4.334   5.208 -33.870  1.00  0.00     0.222 C 
HETATM    8  N   UNL     1      -3.309   4.753 -33.083  1.00  0.00    -0.358 N 
HETATM    9  H   UNL     1      -3.582   4.146 -32.307  1.00  0.00     0.162 HD
HETATM   10  O   UNL     1      -4.124   5.577 -35.026  1.00  0.00    -0.273 OA
BRANCH   8  11
HETATM   11  C   UNL     1      -1.960   4.548 -33.600  1.00  0.00     0.159 C 
BRANCH  11  12
HETATM   12  C   UNL     1      -1.063   5.807 -33.541  1.00  0.00     0.169 C 
BRANCH  12  13
HETATM   13  C   UNL     1      -1.337   6.621 -32.289  1.00  0.00    -0.025 A 
HETATM   14  C   UNL     1      -1.853   7.928 -32.410  1.00  0.00     0.046 A 
HETATM   15  C   UNL     1      -2.095   8.713 -31.281  1.00  0.00     0.068 A 
HETATM   16  C   UNL     1      -1.837   8.187 -30.015  1.00  0.00     0.037 A 
HETATM   17  C   UNL     1      -1.340   6.892 -29.874  1.00  0.00     0.003 A 
HETATM   18  C   UNL     1      -1.089   6.116 -31.005  1.00  0.00     0.010 A 
BRANCH  15  19
HETATM   19  O   UNL     1      -2.575   9.995 -31.279  1.00  0.00    -0.356 OA
HETATM   20  C   UNL     1      -2.502  10.708 -30.052  1.00  0.00     0.210 C 
ENDBRANCH  15  19
ENDBRANCH  12  13
BRANCH  12  21
HETATM   21  O   UNL     1      -1.291   6.590 -34.721  1.00  0.00    -0.389 OA
HETATM   22  H   UNL     1      -2.249   6.516 -34.878  1.00  0.00     0.210 HD
ENDBRANCH  12  21
ENDBRANCH  11  12
ENDBRANCH   8  11
ENDBRANCH   1   7
BRANCH   2  23
HETATM   23  C   UNL     1      -6.141   2.677 -32.768  1.00  0.00     0.110 A 
HETATM   24  N   UNL     1      -5.351   1.666 -32.458  1.00  0.00    -0.233 NA
HETATM   25  C   UNL     1      -5.735   0.624 -33.268  1.00  0.00     0.087 A 
HETATM   26  C   UNL     1      -6.792   1.001 -34.087  1.00  0.00     0.062 A 
HETATM   27  C   UNL     1      -5.215  -0.673 -33.358  1.00  0.00     0.057 A 
HETATM   28  N   UNL     1      -7.033   2.308 -33.750  1.00  0.00    -0.342 N 
HETATM   29  C   UNL     1      -7.386   0.145 -35.016  1.00  0.00     0.034 A 
HETATM   30  H   UNL     1      -7.733   2.904 -34.166  1.00  0.00     0.167 HD
HETATM   31  C   UNL     1      -6.857  -1.150 -35.098  1.00  0.00     0.026 A 
HETATM   32  C   UNL     1      -5.792  -1.547 -34.285  1.00  0.00     0.036 A 
HETATM   33 CL   UNL     1      -5.174  -3.149 -34.429  1.00  0.00    -0.084 Cl
ENDBRANCH   2  23
TORSDOF 7
ENDMDL
MODEL 10
REMARK VINA RESULT:      -7.8      3.788      8.918
REMARK  7 active torsions:
REMARK  status: ('A' for Active; 'I' for Inactive)
REMARK    1  A    between atoms: O_2  and  C_3 
REMARK    2  A    between atoms: C_5  and  C_6 
REMARK    3  A    between atoms: C_6  and  O_7 
REMARK    4  A    between atoms: C_6  and  C_8 
REMARK    5  A    between atoms: C_8  and  N_9 
REMARK       I    between atoms: N_9  and  C_10 
REMARK    6  A    between atoms: C_10  and  C_11 
REMARK    7  A    between atoms: C_12  and  C_13 
ROOT
HETATM    1  C   UNL     1      -5.111   4.777 -31.759  1.00  0.00     0.089 C 
HETATM    2  C   UNL     1      -4.140   5.852 -32.302  1.00  0.00     0.068 C 
HETATM    3  C   UNL     1      -3.425   5.360 -33.566  1.00  0.00     0.013 C 
HETATM    4  C   UNL     1      -4.444   5.029 -34.659  1.00  0.00     0.001 C 
HETATM    5  C   UNL     1      -5.542   4.081 -34.179  1.00  0.00     0.001 C 
HETATM    6  C   UNL     1      -6.175   4.529 -32.855  1.00  0.00     0.015 C 
ENDROOT
BRANCH   1   7
HETATM    7  C   UNL     1      -4.524   3.413 -31.330  1.00  0.00     0.222 C 
HETATM    8  N   UNL     1      -5.410   2.446 -30.936  1.00  0.00    -0.358 N 
HETATM    9  H   UNL     1      -6.376   2.577 -31.246  1.00  0.00     0.162 HD
HETATM   10  O   UNL     1      -3.317   3.174 -31.388  1.00  0.00    -0.273 OA
BRANCH   8  11
HETATM   11  C   UNL     1      -5.005   1.064 -30.702  1.00  0.00     0.159 C 
BRANCH  11  12
HETATM   12  C   UNL     1      -6.156   0.039 -30.829  1.00  0.00     0.169 C 
BRANCH  12  13
HETATM   13  C   UNL     1      -6.220  -0.548 -32.228  1.00  0.00    -0.025 A 
HETATM   14  C   UNL     1      -5.156  -1.345 -32.696  1.00  0.00     0.046 A 
HETATM   15  C   UNL     1      -5.171  -1.880 -33.986  1.00  0.00     0.068 A 
HETATM   16  C   UNL     1      -6.266  -1.634 -34.814  1.00  0.00     0.037 A 
HETATM   17  C   UNL     1      -7.334  -0.859 -34.365  1.00  0.00     0.003 A 
HETATM   18  C   UNL     1      -7.309  -0.317 -33.081  1.00  0.00     0.010 A 
BRANCH  15  19
HETATM   19  O   UNL     1      -4.190  -2.650 -34.550  1.00  0.00    -0.356 OA
HETATM   20  C   UNL     1      -4.057  -3.980 -34.066  1.00  0.00     0.210 C 
ENDBRANCH  15  19
ENDBRANCH  12  13
BRANCH  12  21
HETATM   21  O   UNL     1      -7.389   0.688 -30.489  1.00  0.00    -0.389 OA
HETATM   22  H   UNL     1      -7.916   0.650 -31.307  1.00  0.00     0.210 HD
ENDBRANCH  12  21
ENDBRANCH  11  12
ENDBRANCH   8  11
ENDBRANCH   1   7
BRANCH   2  23
HETATM   23  C   UNL     1      -3.206   6.437 -31.280  1.00  0.00     0.110 A 
HETATM   24  N   UNL     1      -1.919   6.685 -31.429  1.00  0.00    -0.233 NA
HETATM   25  C   UNL     1      -1.476   7.132 -30.206  1.00  0.00     0.087 A 
HETATM   26  C   UNL     1      -2.518   7.169 -29.289  1.00  0.00     0.062 A 
HETATM   27  C   UNL     1      -0.189   7.517 -29.811  1.00  0.00     0.057 A 
HETATM   28  N   UNL     1      -3.607   6.726 -29.995  1.00  0.00    -0.342 N 
HETATM   29  C   UNL     1      -2.360   7.581 -27.965  1.00  0.00     0.034 A 
HETATM   30  H   UNL     1      -4.541   6.611 -29.628  1.00  0.00     0.167 HD
HETATM   31  C   UNL     1      -1.068   7.963 -27.580  1.00  0.00     0.026 A 
HETATM   32  C   UNL     1      -0.006   7.929 -28.487  1.00  0.00     0.036 A 
HETATM   33 CL   UNL     1       1.565   8.404 -27.963  1.00  0.00    -0.084 Cl
ENDBRANCH   2  23
TORSDOF 7
ENDMDL
