MODEL 1
REMARK VINA RESULT:      -9.5      0.000      0.000
REMARK  8 active torsions:
REMARK  status: ('A' for Active; 'I' for Inactive)
REMARK    1  A    between atoms: C_2  and  N_3 
REMARK    2  A    between atoms: C_2  and  C_36 
REMARK       I    between atoms: N_3  and  C_4 
REMARK    3  A    between atoms: C_4  and  C_5 
REMARK    4  A    between atoms: C_5  and  N_6 
REMARK       I    between atoms: N_12  and  C_13 
REMARK    5  A    between atoms: C_13  and  C_14 
REMARK    6  A    between atoms: C_15  and  O_16 
REMARK    7  A    between atoms: C_21  and  O_22 
REMARK    8  A    between atoms: N_27  and  C_28 
ROOT
HETATM    1  N   UNL     1      -4.061   5.731 -32.514  1.00  0.00    -0.325 N 
HETATM    2  C   UNL     1      -3.749   4.495 -31.992  1.00  0.00     0.250 C 
HETATM    3  O   UNL     1      -2.621   4.090 -31.757  1.00  0.00    -0.270 OA
HETATM    4  C   UNL     1      -5.063   3.693 -31.910  1.00  0.00     0.118 C 
HETATM    5  C   UNL     1      -5.141   2.969 -30.555  1.00  0.00     0.061 C 
HETATM    6  C   UNL     1      -4.388   1.643 -30.546  1.00  0.00     0.129 C 
HETATM    7  N   UNL     1      -4.644   0.875 -31.755  1.00  0.00    -0.348 N 
HETATM    8  C   UNL     1      -5.574  -0.171 -31.719  1.00  0.00     0.259 C 
HETATM    9  O   UNL     1      -6.283  -0.409 -30.745  1.00  0.00    -0.267 OA
HETATM   10  C   UNL     1      -4.215   1.539 -32.977  1.00  0.00     0.129 C 
HETATM   11  C   UNL     1      -5.053   2.800 -33.175  1.00  0.00     0.061 C 
HETATM   12  N   UNL     1      -6.079   4.782 -32.035  1.00  0.00    -0.346 N 
HETATM   13  C   UNL     1      -5.467   6.004 -32.537  1.00  0.00     0.254 C 
ENDROOT
BRANCH  12  14
HETATM   14  C   UNL     1      -7.456   4.654 -31.992  1.00  0.00     0.032 A 
HETATM   15  C   UNL     1      -8.217   4.149 -33.060  1.00  0.00     0.029 A 
HETATM   16  C   UNL     1      -9.611   4.004 -32.995  1.00  0.00     0.002 A 
HETATM   17  C   UNL     1     -10.296   4.359 -31.842  1.00  0.00     0.000 A 
HETATM   18  C   UNL     1      -9.584   4.858 -30.762  1.00  0.00     0.002 A 
HETATM   19  C   UNL     1      -8.191   5.000 -30.841  1.00  0.00     0.029 A 
ENDBRANCH  12  14
BRANCH   1  20
HETATM   20  C   UNL     1      -3.104   6.626 -33.139  1.00  0.00     0.230 C 
BRANCH  20  21
HETATM   21  C   UNL     1      -2.286   7.496 -32.187  1.00  0.00     0.236 C 
HETATM   22  N   UNL     1      -1.860   6.852 -31.048  1.00  0.00    -0.351 N 
HETATM   23  H   UNL     1      -2.002   5.848 -31.045  1.00  0.00     0.163 HD
HETATM   24  O   UNL     1      -1.950   8.632 -32.510  1.00  0.00    -0.272 OA
BRANCH  22  25
HETATM   25  C   UNL     1      -0.786   7.335 -30.188  1.00  0.00     0.113 C 
HETATM   26  C   UNL     1       0.620   6.878 -30.584  1.00  0.00     0.037 C 
BRANCH  25  27
HETATM   27  C   UNL     1      -1.129   7.090 -28.728  1.00  0.00    -0.036 A 
HETATM   28  C   UNL     1      -2.404   7.425 -28.243  1.00  0.00     0.009 A 
HETATM   29  C   UNL     1      -2.756   7.173 -26.916  1.00  0.00     0.001 A 
HETATM   30  C   UNL     1      -1.841   6.573 -26.054  1.00  0.00     0.000 A 
HETATM   31  C   UNL     1      -0.576   6.225 -26.519  1.00  0.00     0.001 A 
HETATM   32  C   UNL     1      -0.222   6.480 -27.845  1.00  0.00     0.009 A 
ENDBRANCH  25  27
ENDBRANCH  22  25
ENDBRANCH  20  21
ENDBRANCH   1  20
BRANCH   8  33
HETATM   33  C   UNL     1      -5.614  -1.109 -32.867  1.00  0.00     0.098 A 
HETATM   34  C   UNL     1      -6.719  -1.048 -33.731  1.00  0.00     0.086 A 
HETATM   35  C   UNL     1      -6.807  -1.911 -34.824  1.00  0.00     0.038 A 
HETATM   36  C   UNL     1      -5.808  -2.853 -35.043  1.00  0.00     0.005 A 
HETATM   37  C   UNL     1      -4.699  -2.912 -34.193  1.00  0.00     0.038 A 
HETATM   38  C   UNL     1      -4.582  -2.033 -33.107  1.00  0.00     0.086 A 
BRANCH  34  39
HETATM   39  O   UNL     1      -7.680  -0.079 -33.604  1.00  0.00    -0.355 OA
HETATM   40  C   UNL     1      -7.770   0.715 -34.784  1.00  0.00     0.210 C 
ENDBRANCH  34  39
BRANCH  38  41
HETATM   41  O   UNL     1      -3.512  -2.011 -32.252  1.00  0.00    -0.355 OA
HETATM   42  C   UNL     1      -2.990  -3.260 -31.810  1.00  0.00     0.210 C 
ENDBRANCH  38  41
ENDBRANCH   8  33
TORSDOF 8
ENDMDL
MODEL 2
REMARK VINA RESULT:      -9.5      0.158      2.144
REMARK  8 active torsions:
REMARK  status: ('A' for Active; 'I' for Inactive)
REMARK    1  A    between atoms: C_2  and  N_3 
REMARK    2  A    between atoms: C_2  and  C_36 
REMARK       I    between atoms: N_3  and  C_4 
REMARK    3  A    between atoms: C_4  and  C_5 
REMARK    4  A    between atoms: C_5  and  N_6 
REMARK       I    between atoms: N_12  and  C_13 
REMARK    5  A    between atoms: C_13  and  C_14 
REMARK    6  A    between atoms: C_15  and  O_16 
REMARK    7  A    between atoms: C_21  and  O_22 
REMARK    8  A    between atoms: N_27  and  C_28 
ROOT
HETATM    1  N   UNL     1      -4.073   5.754 -32.531  1.00  0.00    -0.325 N 
HETATM    2  C   UNL     1      -3.750   4.516 -32.018  1.00  0.00     0.250 C 
HETATM    3  O   UNL     1      -2.617   4.106 -31.820  1.00  0.00    -0.270 OA
HETATM    4  C   UNL     1      -5.065   3.721 -31.891  1.00  0.00     0.118 C 
HETATM    5  C   UNL     1      -5.101   3.000 -30.533  1.00  0.00     0.061 C 
HETATM    6  C   UNL     1      -4.355   1.670 -30.547  1.00  0.00     0.129 C 
HETATM    7  N   UNL     1      -4.655   0.901 -31.745  1.00  0.00    -0.348 N 
HETATM    8  C   UNL     1      -5.589  -0.140 -31.676  1.00  0.00     0.259 C 
HETATM    9  O   UNL     1      -6.266  -0.373 -30.679  1.00  0.00    -0.267 OA
HETATM   10  C   UNL     1      -4.264   1.561 -32.981  1.00  0.00     0.129 C 
HETATM   11  C   UNL     1      -5.102   2.826 -33.153  1.00  0.00     0.061 C 
HETATM   12  N   UNL     1      -6.078   4.815 -31.983  1.00  0.00    -0.346 N 
HETATM   13  C   UNL     1      -5.477   6.034 -32.508  1.00  0.00     0.254 C 
ENDROOT
BRANCH  12  14
HETATM   14  C   UNL     1      -7.454   4.695 -31.894  1.00  0.00     0.032 A 
HETATM   15  C   UNL     1      -8.190   5.073 -30.758  1.00  0.00     0.029 A 
HETATM   16  C   UNL     1      -9.587   4.966 -30.690  1.00  0.00     0.002 A 
HETATM   17  C   UNL     1     -10.303   4.476 -31.772  1.00  0.00     0.000 A 
HETATM   18  C   UNL     1      -9.617   4.094 -32.915  1.00  0.00     0.002 A 
HETATM   19  C   UNL     1      -8.220   4.204 -32.969  1.00  0.00     0.029 A 
ENDBRANCH  12  14
BRANCH   1  20
HETATM   20  C   UNL     1      -3.133   6.642 -33.190  1.00  0.00     0.230 C 
BRANCH  20  21
HETATM   21  C   UNL     1      -2.269   7.499 -32.267  1.00  0.00     0.236 C 
HETATM   22  N   UNL     1      -1.826   6.851 -31.136  1.00  0.00    -0.351 N 
HETATM   23  H   UNL     1      -1.990   5.851 -31.121  1.00  0.00     0.163 HD
HETATM   24  O   UNL     1      -1.915   8.625 -32.606  1.00  0.00    -0.272 OA
BRANCH  22  25
HETATM   25  C   UNL     1      -0.717   7.314 -30.309  1.00  0.00     0.113 C 
HETATM   26  C   UNL     1       0.668   6.831 -30.747  1.00  0.00     0.037 C 
BRANCH  25  27
HETATM   27  C   UNL     1      -1.020   7.078 -28.839  1.00  0.00    -0.036 A 
HETATM   28  C   UNL     1      -2.295   7.376 -28.330  1.00  0.00     0.009 A 
HETATM   29  C   UNL     1      -2.609   7.129 -26.993  1.00  0.00     0.001 A 
HETATM   30  C   UNL     1      -1.657   6.572 -26.144  1.00  0.00     0.000 A 
HETATM   31  C   UNL     1      -0.391   6.261 -26.632  1.00  0.00     0.001 A 
HETATM   32  C   UNL     1      -0.074   6.510 -27.969  1.00  0.00     0.009 A 
ENDBRANCH  25  27
ENDBRANCH  22  25
ENDBRANCH  20  21
ENDBRANCH   1  20
BRANCH   8  33
HETATM   33  C   UNL     1      -5.672  -1.080 -32.820  1.00  0.00     0.098 A 
HETATM   34  C   UNL     1      -4.597  -1.959 -33.031  1.00  0.00     0.086 A 
HETATM   35  C   UNL     1      -4.624  -2.862 -34.095  1.00  0.00     0.038 A 
HETATM   36  C   UNL     1      -5.708  -2.871 -34.966  1.00  0.00     0.005 A 
HETATM   37  C   UNL     1      -6.786  -2.006 -34.756  1.00  0.00     0.038 A 
HETATM   38  C   UNL     1      -6.788  -1.113 -33.675  1.00  0.00     0.086 A 
BRANCH  34  39
HETATM   39  O   UNL     1      -3.552  -2.044 -32.148  1.00  0.00    -0.355 OA
HETATM   40  C   UNL     1      -3.134  -3.396 -31.973  1.00  0.00     0.210 C 
ENDBRANCH  34  39
BRANCH  38  41
HETATM   41  O   UNL     1      -7.820  -0.260 -33.388  1.00  0.00    -0.355 OA
HETATM   42  C   UNL     1      -8.235   0.644 -34.406  1.00  0.00     0.210 C 
ENDBRANCH  38  41
ENDBRANCH   8  33
TORSDOF 8
ENDMDL
MODEL 3
REMARK VINA RESULT:      -9.2      1.986      8.314
REMARK  8 active torsions:
REMARK  status: ('A' for Active; 'I' for Inactive)
REMARK    1  A    between atoms: C_2  and  N_3 
REMARK    2  A    between atoms: C_2  and  C_36 
REMARK       I    between atoms: N_3  and  C_4 
REMARK    3  A    between atoms: C_4  and  C_5 
REMARK    4  A    between atoms: C_5  and  N_6 
REMARK       I    between atoms: N_12  and  C_13 
REMARK    5  A    between atoms: C_13  and  C_14 
REMARK    6  A    between atoms: C_15  and  O_16 
REMARK    7  A    between atoms: C_21  and  O_22 
REMARK    8  A    between atoms: N_27  and  C_28 
ROOT
HETATM    1  N   UNL     1      -7.594   2.413 -31.572  1.00  0.00    -0.325 N 
HETATM    2  C   UNL     1      -6.731   3.141 -32.363  1.00  0.00     0.250 C 
HETATM    3  O   UNL     1      -6.186   2.732 -33.376  1.00  0.00    -0.270 OA
HETATM    4  C   UNL     1      -6.482   4.482 -31.646  1.00  0.00     0.118 C 
HETATM    5  C   UNL     1      -6.556   5.632 -32.665  1.00  0.00     0.061 C 
HETATM    6  C   UNL     1      -5.246   5.846 -33.415  1.00  0.00     0.129 C 
HETATM    7  N   UNL     1      -4.101   5.790 -32.519  1.00  0.00    -0.348 N 
HETATM    8  C   UNL     1      -3.518   6.984 -32.077  1.00  0.00     0.259 C 
HETATM    9  O   UNL     1      -3.992   8.092 -32.311  1.00  0.00    -0.267 OA
HETATM   10  C   UNL     1      -3.941   4.510 -31.847  1.00  0.00     0.129 C 
HETATM   11  C   UNL     1      -5.131   4.288 -30.916  1.00  0.00     0.061 C 
HETATM   12  N   UNL     1      -7.615   4.509 -30.672  1.00  0.00    -0.346 N 
HETATM   13  C   UNL     1      -8.211   3.187 -30.537  1.00  0.00     0.254 C 
ENDROOT
BRANCH  12  14
HETATM   14  C   UNL     1      -7.924   5.512 -29.770  1.00  0.00     0.032 A 
HETATM   15  C   UNL     1      -7.025   5.976 -28.795  1.00  0.00     0.029 A 
HETATM   16  C   UNL     1      -7.343   7.009 -27.901  1.00  0.00     0.002 A 
HETATM   17  C   UNL     1      -8.585   7.624 -27.959  1.00  0.00     0.000 A 
HETATM   18  C   UNL     1      -9.502   7.201 -28.909  1.00  0.00     0.002 A 
HETATM   19  C   UNL     1      -9.172   6.164 -29.795  1.00  0.00     0.029 A 
ENDBRANCH  12  14
BRANCH   1  20
HETATM   20  C   UNL     1      -7.761   0.972 -31.645  1.00  0.00     0.230 C 
BRANCH  20  21
HETATM   21  C   UNL     1      -6.559   0.141 -31.205  1.00  0.00     0.236 C 
HETATM   22  N   UNL     1      -5.728  -0.250 -32.231  1.00  0.00    -0.351 N 
HETATM   23  H   UNL     1      -5.920   0.183 -33.127  1.00  0.00     0.163 HD
HETATM   24  O   UNL     1      -6.319  -0.032 -30.013  1.00  0.00    -0.272 OA
BRANCH  22  25
HETATM   25  C   UNL     1      -4.360  -0.718 -32.042  1.00  0.00     0.113 C 
HETATM   26  C   UNL     1      -3.272   0.323 -32.320  1.00  0.00     0.037 C 
BRANCH  25  27
HETATM   27  C   UNL     1      -4.150  -2.040 -32.762  1.00  0.00    -0.036 A 
HETATM   28  C   UNL     1      -3.376  -3.047 -32.162  1.00  0.00     0.009 A 
HETATM   29  C   UNL     1      -3.202  -4.284 -32.785  1.00  0.00     0.001 A 
HETATM   30  C   UNL     1      -3.808  -4.539 -34.013  1.00  0.00     0.000 A 
HETATM   31  C   UNL     1      -4.587  -3.556 -34.618  1.00  0.00     0.001 A 
HETATM   32  C   UNL     1      -4.759  -2.317 -33.997  1.00  0.00     0.009 A 
ENDBRANCH  25  27
ENDBRANCH  22  25
ENDBRANCH  20  21
ENDBRANCH   1  20
BRANCH   8  33
HETATM   33  C   UNL     1      -2.200   6.908 -31.403  1.00  0.00     0.098 A 
HETATM   34  C   UNL     1      -1.046   6.929 -32.204  1.00  0.00     0.086 A 
HETATM   35  C   UNL     1       0.219   6.857 -31.620  1.00  0.00     0.038 A 
HETATM   36  C   UNL     1       0.337   6.737 -30.239  1.00  0.00     0.005 A 
HETATM   37  C   UNL     1      -0.807   6.726 -29.434  1.00  0.00     0.038 A 
HETATM   38  C   UNL     1      -2.085   6.827 -30.004  1.00  0.00     0.086 A 
BRANCH  34  39
HETATM   39  O   UNL     1      -1.113   7.134 -33.557  1.00  0.00    -0.355 OA
HETATM   40  C   UNL     1      -1.027   5.903 -34.271  1.00  0.00     0.210 C 
ENDBRANCH  34  39
BRANCH  38  41
HETATM   41  O   UNL     1      -3.246   6.855 -29.279  1.00  0.00    -0.355 OA
HETATM   42  C   UNL     1      -3.476   7.981 -28.439  1.00  0.00     0.210 C 
ENDBRANCH  38  41
ENDBRANCH   8  33
TORSDOF 8
ENDMDL
MODEL 4
REMARK VINA RESULT:      -9.1      1.987      8.281
REMARK  8 active torsions:
REMARK  status: ('A' for Active; 'I' for Inactive)
REMARK    1  A    between atoms: C_2  and  N_3 
REMARK    2  A    between atoms: C_2  and  C_36 
REMARK       I    between atoms: N_3  and  C_4 
REMARK    3  A    between atoms: C_4  and  C_5 
REMARK    4  A    between atoms: C_5  and  N_6 
REMARK       I    between atoms: N_12  and  C_13 
REMARK    5  A    between atoms: C_13  and  C_14 
REMARK    6  A    between atoms: C_15  and  O_16 
REMARK    7  A    between atoms: C_21  and  O_22 
REMARK    8  A    between atoms: N_27  and  C_28 
ROOT
HETATM    1  N   UNL     1      -7.548   2.441 -31.497  1.00  0.00    -0.325 N 
HETATM    2  C   UNL     1      -6.663   3.152 -32.279  1.00  0.00     0.250 C 
HETATM    3  O   UNL     1      -6.088   2.721 -33.266  1.00  0.00    -0.270 OA
HETATM    4  C   UNL     1      -6.439   4.511 -31.588  1.00  0.00     0.118 C 
HETATM    5  C   UNL     1      -6.485   5.636 -32.637  1.00  0.00     0.061 C 
HETATM    6  C   UNL     1      -5.154   5.835 -33.353  1.00  0.00     0.129 C 
HETATM    7  N   UNL     1      -4.036   5.805 -32.423  1.00  0.00    -0.348 N 
HETATM    8  C   UNL     1      -3.469   7.011 -31.993  1.00  0.00     0.259 C 
HETATM    9  O   UNL     1      -3.939   8.111 -32.267  1.00  0.00    -0.267 OA
HETATM   10  C   UNL     1      -3.893   4.542 -31.715  1.00  0.00     0.129 C 
HETATM   11  C   UNL     1      -5.109   4.339 -30.814  1.00  0.00     0.061 C 
HETATM   12  N   UNL     1      -7.600   4.558 -30.650  1.00  0.00    -0.346 N 
HETATM   13  C   UNL     1      -8.197   3.238 -30.500  1.00  0.00     0.254 C 
ENDROOT
BRANCH  12  14
HETATM   14  C   UNL     1      -7.938   5.582 -29.782  1.00  0.00     0.032 A 
HETATM   15  C   UNL     1      -9.208   6.183 -29.755  1.00  0.00     0.029 A 
HETATM   16  C   UNL     1      -9.543   7.206 -28.855  1.00  0.00     0.002 A 
HETATM   17  C   UNL     1      -8.608   7.662 -27.937  1.00  0.00     0.000 A 
HETATM   18  C   UNL     1      -7.344   7.093 -27.925  1.00  0.00     0.002 A 
HETATM   19  C   UNL     1      -7.020   6.073 -28.833  1.00  0.00     0.029 A 
ENDBRANCH  12  14
BRANCH   1  20
HETATM   20  C   UNL     1      -7.709   0.999 -31.540  1.00  0.00     0.230 C 
BRANCH  20  21
HETATM   21  C   UNL     1      -6.497   0.181 -31.100  1.00  0.00     0.236 C 
HETATM   22  N   UNL     1      -5.705  -0.266 -32.133  1.00  0.00    -0.351 N 
HETATM   23  H   UNL     1      -5.925   0.123 -33.043  1.00  0.00     0.163 HD
HETATM   24  O   UNL     1      -6.217   0.065 -29.910  1.00  0.00    -0.272 OA
BRANCH  22  25
HETATM   25  C   UNL     1      -4.333  -0.734 -31.969  1.00  0.00     0.113 C 
HETATM   26  C   UNL     1      -3.251   0.315 -32.239  1.00  0.00     0.037 C 
BRANCH  25  27
HETATM   27  C   UNL     1      -4.129  -2.042 -32.715  1.00  0.00    -0.036 A 
HETATM   28  C   UNL     1      -3.340  -3.056 -32.146  1.00  0.00     0.009 A 
HETATM   29  C   UNL     1      -3.171  -4.281 -32.794  1.00  0.00     0.001 A 
HETATM   30  C   UNL     1      -3.794  -4.516 -34.017  1.00  0.00     0.000 A 
HETATM   31  C   UNL     1      -4.588  -3.527 -34.591  1.00  0.00     0.001 A 
HETATM   32  C   UNL     1      -4.756  -2.300 -33.946  1.00  0.00     0.009 A 
ENDBRANCH  25  27
ENDBRANCH  22  25
ENDBRANCH  20  21
ENDBRANCH   1  20
BRANCH   8  33
HETATM   33  C   UNL     1      -2.171   6.955 -31.278  1.00  0.00     0.098 A 
HETATM   34  C   UNL     1      -2.191   6.965 -29.873  1.00  0.00     0.086 A 
HETATM   35  C   UNL     1      -0.998   6.917 -29.152  1.00  0.00     0.038 A 
HETATM   36  C   UNL     1       0.218   6.887 -29.827  1.00  0.00     0.005 A 
HETATM   37  C   UNL     1       0.245   6.867 -31.226  1.00  0.00     0.038 A 
HETATM   38  C   UNL     1      -0.947   6.885 -31.965  1.00  0.00     0.086 A 
BRANCH  34  39
HETATM   39  O   UNL     1      -3.365   6.904 -29.169  1.00  0.00    -0.355 OA
HETATM   40  C   UNL     1      -3.555   8.077 -28.381  1.00  0.00     0.210 C 
ENDBRANCH  34  39
BRANCH  38  41
HETATM   41  O   UNL     1      -1.000   6.835 -33.332  1.00  0.00    -0.355 OA
HETATM   42  C   UNL     1      -1.026   5.552 -33.949  1.00  0.00     0.210 C 
ENDBRANCH  38  41
ENDBRANCH   8  33
TORSDOF 8
ENDMDL
MODEL 5
REMARK VINA RESULT:      -9.0      2.598      5.057
REMARK  8 active torsions:
REMARK  status: ('A' for Active; 'I' for Inactive)
REMARK    1  A    between atoms: C_2  and  N_3 
REMARK    2  A    between atoms: C_2  and  C_36 
REMARK       I    between atoms: N_3  and  C_4 
REMARK    3  A    between atoms: C_4  and  C_5 
REMARK    4  A    between atoms: C_5  and  N_6 
REMARK       I    between atoms: N_12  and  C_13 
REMARK    5  A    between atoms: C_13  and  C_14 
REMARK    6  A    between atoms: C_15  and  O_16 
REMARK    7  A    between atoms: C_21  and  O_22 
REMARK    8  A    between atoms: N_27  and  C_28 
ROOT
HETATM    1  N   UNL     1      -4.117   7.086 -28.898  1.00  0.00    -0.325 N 
HETATM    2  C   UNL     1      -5.372   6.887 -29.432  1.00  0.00     0.250 C 
HETATM    3  O   UNL     1      -6.427   7.064 -28.844  1.00  0.00    -0.270 OA
HETATM    4  C   UNL     1      -5.176   6.267 -30.829  1.00  0.00     0.118 C 
HETATM    5  C   UNL     1      -6.116   6.956 -31.834  1.00  0.00     0.061 C 
HETATM    6  C   UNL     1      -7.524   6.372 -31.827  1.00  0.00     0.129 C 
HETATM    7  N   UNL     1      -7.500   4.918 -31.789  1.00  0.00    -0.348 N 
HETATM    8  C   UNL     1      -7.696   4.198 -32.974  1.00  0.00     0.259 C 
HETATM    9  O   UNL     1      -7.773   4.727 -34.079  1.00  0.00    -0.267 OA
HETATM   10  C   UNL     1      -6.863   4.370 -30.601  1.00  0.00     0.129 C 
HETATM   11  C   UNL     1      -5.383   4.748 -30.615  1.00  0.00     0.061 C 
HETATM   12  N   UNL     1      -3.737   6.578 -31.089  1.00  0.00    -0.346 N 
HETATM   13  C   UNL     1      -3.061   6.956 -29.855  1.00  0.00     0.254 C 
ENDROOT
BRANCH  12  14
HETATM   14  C   UNL     1      -3.007   6.286 -32.228  1.00  0.00     0.032 A 
HETATM   15  C   UNL     1      -2.260   7.245 -32.932  1.00  0.00     0.029 A 
HETATM   16  C   UNL     1      -1.507   6.930 -34.073  1.00  0.00     0.002 A 
HETATM   17  C   UNL     1      -1.472   5.628 -34.548  1.00  0.00     0.000 A 
HETATM   18  C   UNL     1      -2.191   4.648 -33.881  1.00  0.00     0.002 A 
HETATM   19  C   UNL     1      -2.943   4.976 -32.743  1.00  0.00     0.029 A 
ENDBRANCH  12  14
BRANCH   1  20
HETATM   20  C   UNL     1      -3.842   7.249 -27.481  1.00  0.00     0.230 C 
BRANCH  20  21
HETATM   21  C   UNL     1      -2.374   7.431 -27.106  1.00  0.00     0.236 C 
HETATM   22  N   UNL     1      -1.632   6.272 -27.121  1.00  0.00    -0.351 N 
HETATM   23  H   UNL     1      -2.100   5.468 -27.524  1.00  0.00     0.163 HD
HETATM   24  O   UNL     1      -1.904   8.554 -26.938  1.00  0.00    -0.272 OA
BRANCH  22  25
HETATM   25  C   UNL     1      -0.175   6.233 -27.164  1.00  0.00     0.113 C 
HETATM   26  C   UNL     1       0.529   7.308 -26.332  1.00  0.00     0.037 C 
BRANCH  25  27
HETATM   27  C   UNL     1       0.310   6.146 -28.602  1.00  0.00    -0.036 A 
HETATM   28  C   UNL     1       0.707   4.907 -29.132  1.00  0.00     0.009 A 
HETATM   29  C   UNL     1       1.117   4.795 -30.461  1.00  0.00     0.001 A 
HETATM   30  C   UNL     1       1.128   5.917 -31.285  1.00  0.00     0.000 A 
HETATM   31  C   UNL     1       0.728   7.151 -30.780  1.00  0.00     0.001 A 
HETATM   32  C   UNL     1       0.320   7.266 -29.450  1.00  0.00     0.009 A 
ENDBRANCH  25  27
ENDBRANCH  22  25
ENDBRANCH  20  21
ENDBRANCH   1  20
BRANCH   8  33
HETATM   33  C   UNL     1      -7.946   2.740 -32.871  1.00  0.00     0.098 A 
HETATM   34  C   UNL     1      -9.268   2.310 -32.666  1.00  0.00     0.086 A 
HETATM   35  C   UNL     1      -9.557   0.949 -32.560  1.00  0.00     0.038 A 
HETATM   36  C   UNL     1      -8.528   0.016 -32.629  1.00  0.00     0.005 A 
HETATM   37  C   UNL     1      -7.211   0.436 -32.842  1.00  0.00     0.038 A 
HETATM   38  C   UNL     1      -6.908   1.798 -32.981  1.00  0.00     0.086 A 
BRANCH  34  39
HETATM   39  O   UNL     1     -10.321   3.187 -32.681  1.00  0.00    -0.355 OA
HETATM   40  C   UNL     1     -11.304   2.797 -33.637  1.00  0.00     0.210 C 
ENDBRANCH  34  39
BRANCH  38  41
HETATM   41  O   UNL     1      -5.650   2.281 -33.223  1.00  0.00    -0.355 OA
HETATM   42  C   UNL     1      -4.560   1.664 -32.546  1.00  0.00     0.210 C 
ENDBRANCH  38  41
ENDBRANCH   8  33
TORSDOF 8
ENDMDL
MODEL 6
REMARK VINA RESULT:      -9.0      2.578      5.378
REMARK  8 active torsions:
REMARK  status: ('A' for Active; 'I' for Inactive)
REMARK    1  A    between atoms: C_2  and  N_3 
REMARK    2  A    between atoms: C_2  and  C_36 
REMARK       I    between atoms: N_3  and  C_4 
REMARK    3  A    between atoms: C_4  and  C_5 
REMARK    4  A    between atoms: C_5  and  N_6 
REMARK       I    between atoms: N_12  and  C_13 
REMARK    5  A    between atoms: C_13  and  C_14 
REMARK    6  A    between atoms: C_15  and  O_16 
REMARK    7  A    between atoms: C_21  and  O_22 
REMARK    8  A    between atoms: N_27  and  C_28 
ROOT
HETATM    1  N   UNL     1      -4.217   6.986 -28.945  1.00  0.00    -0.325 N 
HETATM    2  C   UNL     1      -5.473   6.824 -29.487  1.00  0.00     0.250 C 
HETATM    3  O   UNL     1      -6.527   7.032 -28.906  1.00  0.00    -0.270 OA
HETATM    4  C   UNL     1      -5.287   6.201 -30.884  1.00  0.00     0.118 C 
HETATM    5  C   UNL     1      -6.200   6.917 -31.894  1.00  0.00     0.061 C 
HETATM    6  C   UNL     1      -7.624   6.375 -31.896  1.00  0.00     0.129 C 
HETATM    7  N   UNL     1      -7.643   4.921 -31.859  1.00  0.00    -0.348 N 
HETATM    8  C   UNL     1      -7.853   4.208 -33.046  1.00  0.00     0.259 C 
HETATM    9  O   UNL     1      -7.907   4.740 -34.151  1.00  0.00    -0.267 OA
HETATM   10  C   UNL     1      -7.030   4.353 -30.668  1.00  0.00     0.129 C 
HETATM   11  C   UNL     1      -5.540   4.688 -30.672  1.00  0.00     0.061 C 
HETATM   12  N   UNL     1      -3.838   6.469 -31.133  1.00  0.00    -0.346 N 
HETATM   13  C   UNL     1      -3.159   6.826 -29.896  1.00  0.00     0.254 C 
ENDROOT
BRANCH  12  14
HETATM   14  C   UNL     1      -3.110   6.156 -32.268  1.00  0.00     0.032 A 
HETATM   15  C   UNL     1      -2.362   7.103 -32.989  1.00  0.00     0.029 A 
HETATM   16  C   UNL     1      -1.610   6.768 -34.125  1.00  0.00     0.002 A 
HETATM   17  C   UNL     1      -1.578   5.457 -34.579  1.00  0.00     0.000 A 
HETATM   18  C   UNL     1      -2.298   4.490 -33.895  1.00  0.00     0.002 A 
HETATM   19  C   UNL     1      -3.048   4.839 -32.761  1.00  0.00     0.029 A 
ENDBRANCH  12  14
BRANCH   1  20
HETATM   20  C   UNL     1      -3.946   7.139 -27.526  1.00  0.00     0.230 C 
BRANCH  20  21
HETATM   21  C   UNL     1      -2.489   7.400 -27.152  1.00  0.00     0.236 C 
HETATM   22  N   UNL     1      -1.697   6.275 -27.123  1.00  0.00    -0.351 N 
HETATM   23  H   UNL     1      -2.127   5.437 -27.500  1.00  0.00     0.163 HD
HETATM   24  O   UNL     1      -2.071   8.547 -27.022  1.00  0.00    -0.272 OA
BRANCH  22  25
HETATM   25  C   UNL     1      -0.239   6.299 -27.158  1.00  0.00     0.113 C 
HETATM   26  C   UNL     1       0.413   7.413 -26.334  1.00  0.00     0.037 C 
BRANCH  25  27
HETATM   27  C   UNL     1       0.255   6.219 -28.593  1.00  0.00    -0.036 A 
HETATM   28  C   UNL     1       0.669   4.985 -29.123  1.00  0.00     0.009 A 
HETATM   29  C   UNL     1       1.089   4.880 -30.450  1.00  0.00     0.001 A 
HETATM   30  C   UNL     1       1.094   6.003 -31.272  1.00  0.00     0.000 A 
HETATM   31  C   UNL     1       0.679   7.233 -30.767  1.00  0.00     0.001 A 
HETATM   32  C   UNL     1       0.261   7.341 -29.439  1.00  0.00     0.009 A 
ENDBRANCH  25  27
ENDBRANCH  22  25
ENDBRANCH  20  21
ENDBRANCH   1  20
BRANCH   8  33
HETATM   33  C   UNL     1      -8.146   2.758 -32.946  1.00  0.00     0.098 A 
HETATM   34  C   UNL     1      -7.078   1.857 -33.092  1.00  0.00     0.086 A 
HETATM   35  C   UNL     1      -7.300   0.482 -33.009  1.00  0.00     0.038 A 
HETATM   36  C   UNL     1      -8.590   0.001 -32.809  1.00  0.00     0.005 A 
HETATM   37  C   UNL     1      -9.656   0.892 -32.652  1.00  0.00     0.038 A 
HETATM   38  C   UNL     1      -9.445   2.278 -32.704  1.00  0.00     0.086 A 
BRANCH  34  39
HETATM   39  O   UNL     1      -5.782   2.288 -33.203  1.00  0.00    -0.355 OA
HETATM   40  C   UNL     1      -4.874   1.339 -32.649  1.00  0.00     0.210 C 
ENDBRANCH  34  39
BRANCH  38  41
HETATM   41  O   UNL     1     -10.433   3.209 -32.527  1.00  0.00    -0.355 OA
HETATM   42  C   UNL     1     -11.572   3.137 -33.377  1.00  0.00     0.210 C 
ENDBRANCH  38  41
ENDBRANCH   8  33
TORSDOF 8
ENDMDL
MODEL 7
REMARK VINA RESULT:      -9.0      3.411      8.138
REMARK  8 active torsions:
REMARK  status: ('A' for Active; 'I' for Inactive)
REMARK    1  A    between atoms: C_2  and  N_3 
REMARK    2  A    between atoms: C_2  and  C_36 
REMARK       I    between atoms: N_3  and  C_4 
REMARK    3  A    between atoms: C_4  and  C_5 
REMARK    4  A    between atoms: C_5  and  N_6 
REMARK       I    between atoms: N_12  and  C_13 
REMARK    5  A    between atoms: C_13  and  C_14 
REMARK    6  A    between atoms: C_15  and  O_16 
REMARK    7  A    between atoms: C_21  and  O_22 
REMARK    8  A    between atoms: N_27  and  C_28 
ROOT
HETATM    1  N   UNL     1      -5.081   1.606 -30.786  1.00  0.00    -0.325 N 
HETATM    2  C   UNL     1      -6.448   1.469 -30.682  1.00  0.00     0.250 C 
HETATM    3  O   UNL     1      -7.040   0.422 -30.467  1.00  0.00    -0.270 OA
HETATM    4  C   UNL     1      -7.068   2.835 -31.033  1.00  0.00     0.118 C 
HETATM    5  C   UNL     1      -8.180   3.171 -30.024  1.00  0.00     0.061 C 
HETATM    6  C   UNL     1      -9.516   2.528 -30.377  1.00  0.00     0.129 C 
HETATM    7  N   UNL     1      -9.812   2.653 -31.796  1.00  0.00    -0.348 N 
HETATM    8  C   UNL     1     -10.693   3.653 -32.227  1.00  0.00     0.259 C 
HETATM    9  O   UNL     1     -11.148   4.517 -31.483  1.00  0.00    -0.267 OA
HETATM   10  C   UNL     1      -8.843   1.996 -32.660  1.00  0.00     0.129 C 
HETATM   11  C   UNL     1      -7.495   2.700 -32.515  1.00  0.00     0.061 C 
HETATM   12  N   UNL     1      -5.885   3.737 -30.900  1.00  0.00    -0.346 N 
HETATM   13  C   UNL     1      -4.648   2.968 -30.882  1.00  0.00     0.254 C 
ENDROOT
BRANCH  12  14
HETATM   14  C   UNL     1      -5.853   5.111 -31.066  1.00  0.00     0.032 A 
HETATM   15  C   UNL     1      -5.527   5.733 -32.283  1.00  0.00     0.029 A 
HETATM   16  C   UNL     1      -5.520   7.127 -32.444  1.00  0.00     0.002 A 
HETATM   17  C   UNL     1      -5.849   7.953 -31.380  1.00  0.00     0.000 A 
HETATM   18  C   UNL     1      -6.182   7.382 -30.161  1.00  0.00     0.002 A 
HETATM   19  C   UNL     1      -6.182   5.986 -30.013  1.00  0.00     0.029 A 
ENDBRANCH  12  14
BRANCH   1  20
HETATM   20  C   UNL     1      -4.153   0.501 -30.953  1.00  0.00     0.230 C 
BRANCH  20  21
HETATM   21  C   UNL     1      -4.106  -0.123 -32.345  1.00  0.00     0.236 C 
HETATM   22  N   UNL     1      -5.300  -0.658 -32.771  1.00  0.00    -0.351 N 
HETATM   23  H   UNL     1      -6.101  -0.442 -32.188  1.00  0.00     0.163 HD
HETATM   24  O   UNL     1      -3.102  -0.020 -33.044  1.00  0.00    -0.272 OA
BRANCH  22  25
HETATM   25  C   UNL     1      -5.607  -0.969 -34.163  1.00  0.00     0.113 C 
HETATM   26  C   UNL     1      -6.865  -0.296 -34.718  1.00  0.00     0.037 C 
BRANCH  25  27
HETATM   27  C   UNL     1      -5.555  -2.471 -34.392  1.00  0.00    -0.036 A 
HETATM   28  C   UNL     1      -6.674  -3.136 -34.921  1.00  0.00     0.009 A 
HETATM   29  C   UNL     1      -6.636  -4.508 -35.178  1.00  0.00     0.001 A 
HETATM   30  C   UNL     1      -5.477  -5.235 -34.919  1.00  0.00     0.000 A 
HETATM   31  C   UNL     1      -4.356  -4.591 -34.404  1.00  0.00     0.001 A 
HETATM   32  C   UNL     1      -4.393  -3.219 -34.143  1.00  0.00     0.009 A 
ENDBRANCH  25  27
ENDBRANCH  22  25
ENDBRANCH  20  21
ENDBRANCH   1  20
BRANCH   8  33
HETATM   33  C   UNL     1     -11.194   3.587 -33.621  1.00  0.00     0.098 A 
HETATM   34  C   UNL     1     -12.235   2.687 -33.907  1.00  0.00     0.086 A 
HETATM   35  C   UNL     1     -12.741   2.584 -35.203  1.00  0.00     0.038 A 
HETATM   36  C   UNL     1     -12.193   3.356 -36.222  1.00  0.00     0.005 A 
HETATM   37  C   UNL     1     -11.164   4.262 -35.943  1.00  0.00     0.038 A 
HETATM   38  C   UNL     1     -10.664   4.398 -34.640  1.00  0.00     0.086 A 
BRANCH  34  39
HETATM   39  O   UNL     1     -12.861   1.974 -32.919  1.00  0.00    -0.355 OA
HETATM   40  C   UNL     1     -14.219   2.381 -32.770  1.00  0.00     0.210 C 
ENDBRANCH  34  39
BRANCH  38  41
HETATM   41  O   UNL     1      -9.682   5.284 -34.286  1.00  0.00    -0.355 OA
HETATM   42  C   UNL     1      -9.988   6.673 -34.350  1.00  0.00     0.210 C 
ENDBRANCH  38  41
ENDBRANCH   8  33
TORSDOF 8
ENDMDL
MODEL 8
REMARK VINA RESULT:      -8.7      2.572      5.368
REMARK  8 active torsions:
REMARK  status: ('A' for Active; 'I' for Inactive)
REMARK    1  A    between atoms: C_2  and  N_3 
REMARK    2  A    between atoms: C_2  and  C_36 
REMARK       I    between atoms: N_3  and  C_4 
REMARK    3  A    between atoms: C_4  and  C_5 
REMARK    4  A    between atoms: C_5  and  N_6 
REMARK       I    between atoms: N_12  and  C_13 
REMARK    5  A    between atoms: C_13  and  C_14 
REMARK    6  A    between atoms: C_15  and  O_16 
REMARK    7  A    between atoms: C_21  and  O_22 
REMARK    8  A    between atoms: N_27  and  C_28 
ROOT
HETATM    1  N   UNL     1      -5.267   7.288 -28.662  1.00  0.00    -0.325 N 
HETATM    2  C   UNL     1      -6.077   6.893 -29.704  1.00  0.00     0.250 C 
HETATM    3  O   UNL     1      -7.296   6.975 -29.721  1.00  0.00    -0.270 OA
HETATM    4  C   UNL     1      -5.174   6.209 -30.747  1.00  0.00     0.118 C 
HETATM    5  C   UNL     1      -5.550   6.700 -32.156  1.00  0.00     0.061 C 
HETATM    6  C   UNL     1      -6.730   5.943 -32.753  1.00  0.00     0.129 C 
HETATM    7  N   UNL     1      -6.615   4.510 -32.530  1.00  0.00    -0.348 N 
HETATM    8  C   UNL     1      -6.148   3.690 -33.565  1.00  0.00     0.259 C 
HETATM    9  O   UNL     1      -5.714   4.127 -34.627  1.00  0.00    -0.267 OA
HETATM   10  C   UNL     1      -6.602   4.131 -31.125  1.00  0.00     0.129 C 
HETATM   11  C   UNL     1      -5.341   4.694 -30.474  1.00  0.00     0.061 C 
HETATM   12  N   UNL     1      -3.822   6.682 -30.320  1.00  0.00    -0.346 N 
HETATM   13  C   UNL     1      -3.870   7.228 -28.971  1.00  0.00     0.254 C 
ENDROOT
BRANCH  12  14
HETATM   14  C   UNL     1      -2.607   6.408 -30.923  1.00  0.00     0.032 A 
HETATM   15  C   UNL     1      -2.333   5.204 -31.594  1.00  0.00     0.029 A 
HETATM   16  C   UNL     1      -1.104   4.948 -32.220  1.00  0.00     0.002 A 
HETATM   17  C   UNL     1      -0.099   5.903 -32.200  1.00  0.00     0.000 A 
HETATM   18  C   UNL     1      -0.327   7.108 -31.552  1.00  0.00     0.002 A 
HETATM   19  C   UNL     1      -1.560   7.350 -30.928  1.00  0.00     0.029 A 
ENDBRANCH  12  14
BRANCH   1  20
HETATM   20  C   UNL     1      -5.735   7.582 -27.319  1.00  0.00     0.230 C 
BRANCH  20  21
HETATM   21  C   UNL     1      -4.699   8.176 -26.369  1.00  0.00     0.236 C 
HETATM   22  N   UNL     1      -3.905   7.247 -25.736  1.00  0.00    -0.351 N 
HETATM   23  H   UNL     1      -3.992   6.299 -26.085  1.00  0.00     0.163 HD
HETATM   24  O   UNL     1      -4.534   9.392 -26.302  1.00  0.00    -0.272 OA
BRANCH  22  25
HETATM   25  C   UNL     1      -2.637   7.560 -25.087  1.00  0.00     0.113 C 
HETATM   26  C   UNL     1      -2.691   8.707 -24.074  1.00  0.00     0.037 C 
BRANCH  25  27
HETATM   27  C   UNL     1      -1.534   7.699 -26.122  1.00  0.00    -0.036 A 
HETATM   28  C   UNL     1      -1.064   8.974 -26.478  1.00  0.00     0.009 A 
HETATM   29  C   UNL     1      -0.024   9.125 -27.396  1.00  0.00     0.001 A 
HETATM   30  C   UNL     1       0.570   8.003 -27.968  1.00  0.00     0.000 A 
HETATM   31  C   UNL     1       0.124   6.730 -27.621  1.00  0.00     0.001 A 
HETATM   32  C   UNL     1      -0.918   6.578 -26.705  1.00  0.00     0.009 A 
ENDBRANCH  25  27
ENDBRANCH  22  25
ENDBRANCH  20  21
ENDBRANCH   1  20
BRANCH   8  33
HETATM   33  C   UNL     1      -6.301   2.223 -33.416  1.00  0.00     0.098 A 
HETATM   34  C   UNL     1      -5.198   1.487 -32.952  1.00  0.00     0.086 A 
HETATM   35  C   UNL     1      -5.289   0.104 -32.797  1.00  0.00     0.038 A 
HETATM   36  C   UNL     1      -6.469  -0.553 -33.129  1.00  0.00     0.005 A 
HETATM   37  C   UNL     1      -7.575   0.174 -33.582  1.00  0.00     0.038 A 
HETATM   38  C   UNL     1      -7.509   1.568 -33.716  1.00  0.00     0.086 A 
BRANCH  34  39
HETATM   39  O   UNL     1      -4.048   2.102 -32.530  1.00  0.00    -0.355 OA
HETATM   40  C   UNL     1      -3.543   1.493 -31.345  1.00  0.00     0.210 C 
ENDBRANCH  34  39
BRANCH  38  41
HETATM   41  O   UNL     1      -8.559   2.348 -34.121  1.00  0.00    -0.355 OA
HETATM   42  C   UNL     1      -9.867   1.793 -34.044  1.00  0.00     0.210 C 
ENDBRANCH  38  41
ENDBRANCH   8  33
TORSDOF 8
ENDMDL
MODEL 9
REMARK VINA RESULT:      -8.6      3.152      6.531
REMARK  8 active torsions:
REMARK  status: ('A' for Active; 'I' for Inactive)
REMARK    1  A    between atoms: C_2  and  N_3 
REMARK    2  A    between atoms: C_2  and  C_36 
REMARK       I    between atoms: N_3  and  C_4 
REMARK    3  A    between atoms: C_4  and  C_5 
REMARK    4  A    between atoms: C_5  and  N_6 
REMARK       I    between atoms: N_12  and  C_13 
REMARK    5  A    between atoms: C_13  and  C_14 
REMARK    6  A    between atoms: C_15  and  O_16 
REMARK    7  A    between atoms: C_21  and  O_22 
REMARK    8  A    between atoms: N_27  and  C_28 
ROOT
HETATM    1  N   UNL     1      -6.189   4.359 -31.181  1.00  0.00    -0.325 N 
HETATM    2  C   UNL     1      -7.187   5.062 -31.820  1.00  0.00     0.250 C 
HETATM    3  O   UNL     1      -7.449   6.241 -31.639  1.00  0.00    -0.270 OA
HETATM    4  C   UNL     1      -7.979   4.051 -32.672  1.00  0.00     0.118 C 
HETATM    5  C   UNL     1      -8.247   4.649 -34.064  1.00  0.00     0.061 C 
HETATM    6  C   UNL     1      -9.471   5.558 -34.094  1.00  0.00     0.129 C 
HETATM    7  N   UNL     1     -10.587   4.976 -33.366  1.00  0.00    -0.348 N 
HETATM    8  C   UNL     1     -11.609   4.334 -34.076  1.00  0.00     0.259 C 
HETATM    9  O   UNL     1     -11.562   4.128 -35.286  1.00  0.00    -0.267 OA
HETATM   10  C   UNL     1     -10.320   4.758 -31.952  1.00  0.00     0.129 C 
HETATM   11  C   UNL     1      -9.221   3.707 -31.814  1.00  0.00     0.061 C 
HETATM   12  N   UNL     1      -7.028   2.899 -32.720  1.00  0.00    -0.346 N 
HETATM   13  C   UNL     1      -5.998   3.038 -31.699  1.00  0.00     0.254 C 
ENDROOT
BRANCH  12  14
HETATM   14  C   UNL     1      -7.195   1.699 -33.389  1.00  0.00     0.032 A 
HETATM   15  C   UNL     1      -6.884   1.524 -34.748  1.00  0.00     0.029 A 
HETATM   16  C   UNL     1      -7.038   0.295 -35.408  1.00  0.00     0.002 A 
HETATM   17  C   UNL     1      -7.509  -0.812 -34.719  1.00  0.00     0.000 A 
HETATM   18  C   UNL     1      -7.824  -0.686 -33.374  1.00  0.00     0.002 A 
HETATM   19  C   UNL     1      -7.669   0.549 -32.727  1.00  0.00     0.029 A 
ENDBRANCH  12  14
BRANCH   1  20
HETATM   20  C   UNL     1      -5.494   4.815 -29.990  1.00  0.00     0.230 C 
BRANCH  20  21
HETATM   21  C   UNL     1      -4.331   5.776 -30.227  1.00  0.00     0.236 C 
HETATM   22  N   UNL     1      -3.165   5.172 -30.639  1.00  0.00    -0.351 N 
HETATM   23  H   UNL     1      -3.253   4.193 -30.886  1.00  0.00     0.163 HD
HETATM   24  O   UNL     1      -4.501   6.991 -30.168  1.00  0.00    -0.272 OA
BRANCH  22  25
HETATM   25  C   UNL     1      -2.057   5.879 -31.270  1.00  0.00     0.113 C 
HETATM   26  C   UNL     1      -1.441   5.173 -32.481  1.00  0.00     0.037 C 
BRANCH  25  27
HETATM   27  C   UNL     1      -1.043   6.313 -30.224  1.00  0.00    -0.036 A 
HETATM   28  C   UNL     1      -1.050   7.635 -29.750  1.00  0.00     0.009 A 
HETATM   29  C   UNL     1      -0.155   8.046 -28.760  1.00  0.00     0.001 A 
HETATM   30  C   UNL     1       0.754   7.140 -28.221  1.00  0.00     0.000 A 
HETATM   31  C   UNL     1       0.769   5.823 -28.672  1.00  0.00     0.001 A 
HETATM   32  C   UNL     1      -0.123   5.411 -29.664  1.00  0.00     0.009 A 
ENDBRANCH  25  27
ENDBRANCH  22  25
ENDBRANCH  20  21
ENDBRANCH   1  20
BRANCH   8  33
HETATM   33  C   UNL     1     -12.859   4.000 -33.352  1.00  0.00     0.098 A 
HETATM   34  C   UNL     1     -13.131   2.646 -33.094  1.00  0.00     0.086 A 
HETATM   35  C   UNL     1     -14.294   2.278 -32.418  1.00  0.00     0.038 A 
HETATM   36  C   UNL     1     -15.203   3.254 -32.023  1.00  0.00     0.005 A 
HETATM   37  C   UNL     1     -14.934   4.605 -32.266  1.00  0.00     0.038 A 
HETATM   38  C   UNL     1     -13.755   4.994 -32.919  1.00  0.00     0.086 A 
BRANCH  34  39
HETATM   39  O   UNL     1     -12.224   1.661 -33.387  1.00  0.00    -0.355 OA
HETATM   40  C   UNL     1     -12.879   0.438 -33.712  1.00  0.00     0.210 C 
ENDBRANCH  34  39
BRANCH  38  41
HETATM   41  O   UNL     1     -13.409   6.296 -33.163  1.00  0.00    -0.355 OA
HETATM   42  C   UNL     1     -13.355   7.187 -32.054  1.00  0.00     0.210 C 
ENDBRANCH  38  41
ENDBRANCH   8  33
TORSDOF 8
ENDMDL
MODEL 10
REMARK VINA RESULT:      -8.5      3.186      6.437
REMARK  8 active torsions:
REMARK  status: ('A' for Active; 'I' for Inactive)
REMARK    1  A    between atoms: C_2  and  N_3 
REMARK    2  A    between atoms: C_2  and  C_36 
REMARK       I    between atoms: N_3  and  C_4 
REMARK    3  A    between atoms: C_4  and  C_5 
REMARK    4  A    between atoms: C_5  and  N_6 
REMARK       I    between atoms: N_12  and  C_13 
REMARK    5  A    between atoms: C_13  and  C_14 
REMARK    6  A    between atoms: C_15  and  O_16 
REMARK    7  A    between atoms: C_21  and  O_22 
REMARK    8  A    between atoms: N_27  and  C_28 
ROOT
HETATM    1  N   UNL     1      -6.206   4.463 -31.159  1.00  0.00    -0.325 N 
HETATM    2  C   UNL     1      -7.198   5.156 -31.818  1.00  0.00     0.250 C 
HETATM    3  O   UNL     1      -7.456   6.340 -31.665  1.00  0.00    -0.270 OA
HETATM    4  C   UNL     1      -7.992   4.130 -32.650  1.00  0.00     0.118 C 
HETATM    5  C   UNL     1      -8.253   4.698 -34.056  1.00  0.00     0.061 C 
HETATM    6  C   UNL     1      -9.472   5.611 -34.111  1.00  0.00     0.129 C 
HETATM    7  N   UNL     1     -10.594   5.050 -33.373  1.00  0.00    -0.348 N 
HETATM    8  C   UNL     1     -11.616   4.397 -34.073  1.00  0.00     0.259 C 
HETATM    9  O   UNL     1     -11.565   4.164 -35.277  1.00  0.00    -0.267 OA
HETATM   10  C   UNL     1     -10.332   4.863 -31.955  1.00  0.00     0.129 C 
HETATM   11  C   UNL     1      -9.238   3.811 -31.789  1.00  0.00     0.061 C 
HETATM   12  N   UNL     1      -7.046   2.973 -32.668  1.00  0.00    -0.346 N 
HETATM   13  C   UNL     1      -6.019   3.130 -31.647  1.00  0.00     0.254 C 
ENDROOT
BRANCH  12  14
HETATM   14  C   UNL     1      -7.217   1.759 -33.310  1.00  0.00     0.032 A 
HETATM   15  C   UNL     1      -7.805   0.639 -32.699  1.00  0.00     0.029 A 
HETATM   16  C   UNL     1      -7.992  -0.579 -33.369  1.00  0.00     0.002 A 
HETATM   17  C   UNL     1      -7.596  -0.716 -34.691  1.00  0.00     0.000 A 
HETATM   18  C   UNL     1      -7.014   0.365 -35.335  1.00  0.00     0.002 A 
HETATM   19  C   UNL     1      -6.830   1.577 -34.653  1.00  0.00     0.029 A 
ENDBRANCH  12  14
BRANCH   1  20
HETATM   20  C   UNL     1      -5.513   4.943 -29.977  1.00  0.00     0.230 C 
BRANCH  20  21
HETATM   21  C   UNL     1      -4.325   5.868 -30.233  1.00  0.00     0.236 C 
HETATM   22  N   UNL     1      -3.173   5.224 -30.622  1.00  0.00    -0.351 N 
HETATM   23  H   UNL     1      -3.284   4.241 -30.842  1.00  0.00     0.163 HD
HETATM   24  O   UNL     1      -4.465   7.088 -30.208  1.00  0.00    -0.272 OA
BRANCH  22  25
HETATM   25  C   UNL     1      -2.043   5.886 -31.265  1.00  0.00     0.113 C 
HETATM   26  C   UNL     1      -1.429   5.125 -32.443  1.00  0.00     0.037 C 
BRANCH  25  27
HETATM   27  C   UNL     1      -1.033   6.337 -30.223  1.00  0.00    -0.036 A 
HETATM   28  C   UNL     1      -1.040   7.668 -29.773  1.00  0.00     0.009 A 
HETATM   29  C   UNL     1      -0.148   8.095 -28.787  1.00  0.00     0.001 A 
HETATM   30  C   UNL     1       0.760   7.198 -28.230  1.00  0.00     0.000 A 
HETATM   31  C   UNL     1       0.775   5.873 -28.658  1.00  0.00     0.001 A 
HETATM   32  C   UNL     1      -0.115   5.444 -29.645  1.00  0.00     0.009 A 
ENDBRANCH  25  27
ENDBRANCH  22  25
ENDBRANCH  20  21
ENDBRANCH   1  20
BRANCH   8  33
HETATM   33  C   UNL     1     -12.870   4.085 -33.346  1.00  0.00     0.098 A 
HETATM   34  C   UNL     1     -13.738   5.147 -33.043  1.00  0.00     0.086 A 
HETATM   35  C   UNL     1     -14.930   4.909 -32.357  1.00  0.00     0.038 A 
HETATM   36  C   UNL     1     -15.246   3.617 -31.949  1.00  0.00     0.005 A 
HETATM   37  C   UNL     1     -14.392   2.553 -32.257  1.00  0.00     0.038 A 
HETATM   38  C   UNL     1     -13.204   2.772 -32.971  1.00  0.00     0.086 A 
BRANCH  34  39
HETATM   39  O   UNL     1     -13.510   6.418 -33.501  1.00  0.00    -0.355 OA
HETATM   40  C   UNL     1     -13.641   7.376 -32.454  1.00  0.00     0.210 C 
ENDBRANCH  34  39
BRANCH  38  41
HETATM   41  O   UNL     1     -12.336   1.778 -33.335  1.00  0.00    -0.355 OA
HETATM   42  C   UNL     1     -12.889   0.524 -33.720  1.00  0.00     0.210 C 
ENDBRANCH  38  41
ENDBRANCH   8  33
TORSDOF 8
ENDMDL
