MODEL 1
REMARK VINA RESULT:      -9.6      0.000      0.000
REMARK  6 active torsions:
REMARK  status: ('A' for Active; 'I' for Inactive)
REMARK    1  A    between atoms: C_2  and  O_3 
REMARK    2  A    between atoms: O_3  and  C_4 
REMARK    3  A    between atoms: C_5  and  O_6 
REMARK    4  A    between atoms: C_9  and  C_10 
REMARK       I    between atoms: C_10  and  N_11 
REMARK    5  A    between atoms: N_11  and  N_12 
REMARK       I    between atoms: N_12  and  C_13 
REMARK    6  A    between atoms: C_13  and  C_14 
ROOT
HETATM    1  N   UNL     1      -4.055   3.198 -32.026  1.00  0.00    -0.263 N 
HETATM    2  C   UNL     1      -3.772   1.853 -31.909  1.00  0.00     0.270 C 
HETATM    3  O   UNL     1      -2.845   1.443 -31.211  1.00  0.00    -0.266 OA
HETATM    4  H   UNL     1      -4.846   3.595 -32.527  1.00  0.00     0.190 HD
ENDROOT
BRANCH   1   5
HETATM    5  N   UNL     1      -3.277   4.106 -31.303  1.00  0.00    -0.263 N 
HETATM    6  C   UNL     1      -2.211   4.696 -31.948  1.00  0.00     0.270 C 
HETATM    7  O   UNL     1      -1.961   4.495 -33.135  1.00  0.00    -0.266 OA
HETATM    8  H   UNL     1      -3.399   4.087 -30.291  1.00  0.00     0.190 HD
BRANCH   6   9
HETATM    9  C   UNL     1      -1.347   5.588 -31.131  1.00  0.00     0.036 A 
HETATM   10  C   UNL     1      -1.966   6.480 -30.245  1.00  0.00     0.056 A 
HETATM   11  C   UNL     1      -1.198   7.324 -29.435  1.00  0.00     0.102 A 
HETATM   12  C   UNL     1       0.210   7.259 -29.500  1.00  0.00     0.102 A 
HETATM   13  C   UNL     1       0.822   6.363 -30.383  1.00  0.00     0.040 A 
HETATM   14  C   UNL     1       0.048   5.529 -31.195  1.00  0.00     0.020 A 
BRANCH  11  15
HETATM   15  O   UNL     1      -1.720   8.230 -28.546  1.00  0.00    -0.353 OA
HETATM   16  C   UNL     1      -2.448   7.721 -27.437  1.00  0.00     0.210 C 
ENDBRANCH  11  15
BRANCH  12  17
HETATM   17  O   UNL     1       0.890   8.111 -28.666  1.00  0.00    -0.349 OA
BRANCH  17  18
HETATM   18  C   UNL     1       1.358   7.595 -27.423  1.00  0.00     0.171 C 
HETATM   19  C   UNL     1       1.851   8.762 -26.588  1.00  0.00     0.034 C 
ENDBRANCH  17  18
ENDBRANCH  12  17
ENDBRANCH   6   9
ENDBRANCH   1   5
BRANCH   2  20
HETATM   20  C   UNL     1      -4.658   0.903 -32.646  1.00  0.00     0.034 A 
HETATM   21  C   UNL     1      -4.312  -0.443 -32.856  1.00  0.00     0.031 A 
HETATM   22  C   UNL     1      -5.182  -1.280 -33.585  1.00  0.00    -0.000 A 
HETATM   23  C   UNL     1      -6.382  -0.751 -34.066  1.00  0.00     0.043 A 
HETATM   24  C   UNL     1      -5.134  -2.642 -33.990  1.00  0.00    -0.023 A 
HETATM   25  N   UNL     1      -7.039  -1.762 -34.737  1.00  0.00    -0.358 N 
HETATM   26  C   UNL     1      -6.760   0.578 -33.851  1.00  0.00     0.031 A 
HETATM   27  H   UNL     1      -7.939  -1.664 -35.186  1.00  0.00     0.166 HD
HETATM   28  C   UNL     1      -6.286  -2.901 -34.703  1.00  0.00     0.017 A 
HETATM   29  C   UNL     1      -6.667  -4.202 -35.315  1.00  0.00     0.057 C 
HETATM   30  C   UNL     1      -5.430  -5.115 -35.400  1.00  0.00     0.006 C 
HETATM   31  C   UNL     1      -4.596  -5.084 -34.105  1.00  0.00     0.005 C 
HETATM   32  C   UNL     1      -4.074  -3.672 -33.779  1.00  0.00     0.041 C 
HETATM   33  C   UNL     1      -5.876   1.393 -33.135  1.00  0.00     0.019 A 
ENDBRANCH   2  20
TORSDOF 6
ENDMDL
MODEL 2
REMARK VINA RESULT:      -8.7      2.260     11.197
REMARK  6 active torsions:
REMARK  status: ('A' for Active; 'I' for Inactive)
REMARK    1  A    between atoms: C_2  and  O_3 
REMARK    2  A    between atoms: O_3  and  C_4 
REMARK    3  A    between atoms: C_5  and  O_6 
REMARK    4  A    between atoms: C_9  and  C_10 
REMARK       I    between atoms: C_10  and  N_11 
REMARK    5  A    between atoms: N_11  and  N_12 
REMARK       I    between atoms: N_12  and  C_13 
REMARK    6  A    between atoms: C_13  and  C_14 
ROOT
HETATM    1  N   UNL     1      -3.424   4.181 -31.290  1.00  0.00    -0.263 N 
HETATM    2  C   UNL     1      -2.240   4.863 -31.483  1.00  0.00     0.270 C 
HETATM    3  O   UNL     1      -1.386   4.468 -32.275  1.00  0.00    -0.266 OA
HETATM    4  H   UNL     1      -4.197   4.490 -30.705  1.00  0.00     0.190 HD
ENDROOT
BRANCH   1   5
HETATM    5  N   UNL     1      -3.657   3.028 -32.045  1.00  0.00    -0.263 N 
HETATM    6  C   UNL     1      -4.967   2.642 -32.240  1.00  0.00     0.270 C 
HETATM    7  O   UNL     1      -5.920   3.298 -31.826  1.00  0.00    -0.266 OA
HETATM    8  H   UNL     1      -2.851   2.424 -32.191  1.00  0.00     0.190 HD
BRANCH   6   9
HETATM    9  C   UNL     1      -5.183   1.364 -32.969  1.00  0.00     0.036 A 
HETATM   10  C   UNL     1      -4.293   0.309 -32.734  1.00  0.00     0.056 A 
HETATM   11  C   UNL     1      -4.467  -0.922 -33.376  1.00  0.00     0.102 A 
HETATM   12  C   UNL     1      -5.559  -1.104 -34.250  1.00  0.00     0.102 A 
HETATM   13  C   UNL     1      -6.447  -0.047 -34.476  1.00  0.00     0.040 A 
HETATM   14  C   UNL     1      -6.263   1.183 -33.838  1.00  0.00     0.020 A 
BRANCH  11  15
HETATM   15  O   UNL     1      -3.641  -2.007 -33.209  1.00  0.00    -0.353 OA
HETATM   16  C   UNL     1      -3.232  -2.327 -31.887  1.00  0.00     0.210 C 
ENDBRANCH  11  15
BRANCH  12  17
HETATM   17  O   UNL     1      -5.666  -2.343 -34.830  1.00  0.00    -0.349 OA
BRANCH  17  18
HETATM   18  C   UNL     1      -6.808  -3.133 -34.510  1.00  0.00     0.171 C 
HETATM   19  C   UNL     1      -6.664  -4.470 -35.215  1.00  0.00     0.034 C 
ENDBRANCH  17  18
ENDBRANCH  12  17
ENDBRANCH   6   9
ENDBRANCH   1   5
BRANCH   2  20
HETATM   20  C   UNL     1      -2.045   6.124 -30.706  1.00  0.00     0.034 A 
HETATM   21  C   UNL     1      -1.008   6.281 -29.771  1.00  0.00     0.031 A 
HETATM   22  C   UNL     1      -0.897   7.488 -29.051  1.00  0.00    -0.000 A 
HETATM   23  C   UNL     1      -1.816   8.510 -29.300  1.00  0.00     0.043 A 
HETATM   24  C   UNL     1      -0.010   7.961 -28.045  1.00  0.00    -0.023 A 
HETATM   25  N   UNL     1      -1.492   9.566 -28.474  1.00  0.00    -0.358 N 
HETATM   26  C   UNL     1      -2.844   8.387 -30.240  1.00  0.00     0.031 A 
HETATM   27  H   UNL     1      -1.988  10.446 -28.445  1.00  0.00     0.166 HD
HETATM   28  C   UNL     1      -0.410   9.236 -27.708  1.00  0.00     0.017 A 
HETATM   29  C   UNL     1       0.232  10.123 -26.701  1.00  0.00     0.057 C 
HETATM   30  C   UNL     1       1.155   9.289 -25.793  1.00  0.00     0.006 C 
HETATM   31  C   UNL     1       2.005   8.284 -26.595  1.00  0.00     0.005 C 
HETATM   32  C   UNL     1       1.139   7.280 -27.378  1.00  0.00     0.041 C 
HETATM   33  C   UNL     1      -2.941   7.176 -30.936  1.00  0.00     0.019 A 
ENDBRANCH   2  20
TORSDOF 6
ENDMDL
MODEL 3
REMARK VINA RESULT:      -8.6      2.285     11.159
REMARK  6 active torsions:
REMARK  status: ('A' for Active; 'I' for Inactive)
REMARK    1  A    between atoms: C_2  and  O_3 
REMARK    2  A    between atoms: O_3  and  C_4 
REMARK    3  A    between atoms: C_5  and  O_6 
REMARK    4  A    between atoms: C_9  and  C_10 
REMARK       I    between atoms: C_10  and  N_11 
REMARK    5  A    between atoms: N_11  and  N_12 
REMARK       I    between atoms: N_12  and  C_13 
REMARK    6  A    between atoms: C_13  and  C_14 
ROOT
HETATM    1  N   UNL     1      -3.377   3.775 -31.192  1.00  0.00    -0.263 N 
HETATM    2  C   UNL     1      -2.640   4.823 -31.703  1.00  0.00     0.270 C 
HETATM    3  O   UNL     1      -2.105   4.762 -32.809  1.00  0.00    -0.266 OA
HETATM    4  H   UNL     1      -3.901   3.788 -30.320  1.00  0.00     0.190 HD
ENDROOT
BRANCH   1   5
HETATM    5  N   UNL     1      -3.536   2.630 -31.977  1.00  0.00    -0.263 N 
HETATM    6  C   UNL     1      -4.406   1.658 -31.529  1.00  0.00     0.270 C 
HETATM    7  O   UNL     1      -5.077   1.789 -30.507  1.00  0.00    -0.266 OA
HETATM    8  H   UNL     1      -2.826   2.481 -32.693  1.00  0.00     0.190 HD
BRANCH   6   9
HETATM    9  C   UNL     1      -4.488   0.412 -32.336  1.00  0.00     0.036 A 
HETATM   10  C   UNL     1      -5.464   0.336 -33.338  1.00  0.00     0.056 A 
HETATM   11  C   UNL     1      -5.567  -0.805 -34.142  1.00  0.00     0.102 A 
HETATM   12  C   UNL     1      -4.667  -1.874 -33.953  1.00  0.00     0.102 A 
HETATM   13  C   UNL     1      -3.691  -1.789 -32.954  1.00  0.00     0.040 A 
HETATM   14  C   UNL     1      -3.599  -0.650 -32.149  1.00  0.00     0.020 A 
BRANCH  11  15
HETATM   15  O   UNL     1      -6.496  -0.967 -35.141  1.00  0.00    -0.353 OA
HETATM   16  C   UNL     1      -7.525   0.006 -35.249  1.00  0.00     0.210 C 
ENDBRANCH  11  15
BRANCH  12  17
HETATM   17  O   UNL     1      -4.827  -2.950 -34.789  1.00  0.00    -0.349 OA
BRANCH  17  18
HETATM   18  C   UNL     1      -5.475  -4.108 -34.271  1.00  0.00     0.171 C 
HETATM   19  C   UNL     1      -6.636  -4.445 -35.189  1.00  0.00     0.034 C 
ENDBRANCH  17  18
ENDBRANCH  12  17
ENDBRANCH   6   9
ENDBRANCH   1   5
BRANCH   2  20
HETATM   20  C   UNL     1      -2.539   6.056 -30.866  1.00  0.00     0.034 A 
HETATM   21  C   UNL     1      -1.371   6.395 -30.162  1.00  0.00     0.031 A 
HETATM   22  C   UNL     1      -1.351   7.560 -29.367  1.00  0.00    -0.000 A 
HETATM   23  C   UNL     1      -2.493   8.362 -29.315  1.00  0.00     0.043 A 
HETATM   24  C   UNL     1      -0.375   8.169 -28.531  1.00  0.00    -0.023 A 
HETATM   25  N   UNL     1      -2.215   9.422 -28.477  1.00  0.00    -0.358 N 
HETATM   26  C   UNL     1      -3.660   8.058 -30.023  1.00  0.00     0.031 A 
HETATM   27  H   UNL     1      -2.863  10.166 -28.257  1.00  0.00     0.166 HD
HETATM   28  C   UNL     1      -0.943   9.305 -27.993  1.00  0.00     0.017 A 
HETATM   29  C   UNL     1      -0.286  10.262 -27.064  1.00  0.00     0.057 C 
HETATM   30  C   UNL     1       0.972   9.612 -26.458  1.00  0.00     0.006 C 
HETATM   31  C   UNL     1       1.806   8.864 -27.516  1.00  0.00     0.005 C 
HETATM   32  C   UNL     1       1.011   7.730 -28.192  1.00  0.00     0.041 C 
HETATM   33  C   UNL     1      -3.661   6.892 -30.797  1.00  0.00     0.019 A 
ENDBRANCH   2  20
TORSDOF 6
ENDMDL
MODEL 4
REMARK VINA RESULT:      -8.5      7.250     10.940
REMARK  6 active torsions:
REMARK  status: ('A' for Active; 'I' for Inactive)
REMARK    1  A    between atoms: C_2  and  O_3 
REMARK    2  A    between atoms: O_3  and  C_4 
REMARK    3  A    between atoms: C_5  and  O_6 
REMARK    4  A    between atoms: C_9  and  C_10 
REMARK       I    between atoms: C_10  and  N_11 
REMARK    5  A    between atoms: N_11  and  N_12 
REMARK       I    between atoms: N_12  and  C_13 
REMARK    6  A    between atoms: C_13  and  C_14 
ROOT
HETATM    1  N   UNL     1     -10.423   1.388 -33.023  1.00  0.00    -0.263 N 
HETATM    2  C   UNL     1      -9.244   1.827 -32.456  1.00  0.00     0.270 C 
HETATM    3  O   UNL     1      -9.217   2.759 -31.653  1.00  0.00    -0.266 OA
HETATM    4  H   UNL     1     -10.521   0.582 -33.636  1.00  0.00     0.190 HD
ENDROOT
BRANCH   1   5
HETATM    5  N   UNL     1     -11.615   2.009 -32.641  1.00  0.00    -0.263 N 
HETATM    6  C   UNL     1     -12.794   1.505 -33.149  1.00  0.00     0.270 C 
HETATM    7  O   UNL     1     -12.833   0.510 -33.871  1.00  0.00    -0.266 OA
HETATM    8  H   UNL     1     -11.518   2.929 -32.214  1.00  0.00     0.190 HD
BRANCH   6   9
HETATM    9  C   UNL     1     -14.038   2.239 -32.799  1.00  0.00     0.036 A 
HETATM   10  C   UNL     1     -13.935   3.595 -32.462  1.00  0.00     0.056 A 
HETATM   11  C   UNL     1     -15.079   4.337 -32.149  1.00  0.00     0.102 A 
HETATM   12  C   UNL     1     -16.346   3.716 -32.193  1.00  0.00     0.102 A 
HETATM   13  C   UNL     1     -16.442   2.363 -32.534  1.00  0.00     0.040 A 
HETATM   14  C   UNL     1     -15.294   1.626 -32.839  1.00  0.00     0.020 A 
BRANCH  11  15
HETATM   15  O   UNL     1     -15.070   5.665 -31.803  1.00  0.00    -0.353 OA
HETATM   16  C   UNL     1     -14.080   6.494 -32.394  1.00  0.00     0.210 C 
ENDBRANCH  11  15
BRANCH  12  17
HETATM   17  O   UNL     1     -17.418   4.515 -31.884  1.00  0.00    -0.349 OA
BRANCH  17  18
HETATM   18  C   UNL     1     -18.724   3.972 -32.051  1.00  0.00     0.171 C 
HETATM   19  C   UNL     1     -19.300   4.527 -33.342  1.00  0.00     0.034 C 
ENDBRANCH  17  18
ENDBRANCH  12  17
ENDBRANCH   6   9
ENDBRANCH   1   5
BRANCH   2  20
HETATM   20  C   UNL     1      -7.993   1.104 -32.838  1.00  0.00     0.034 A 
HETATM   21  C   UNL     1      -8.001  -0.221 -33.304  1.00  0.00     0.031 A 
HETATM   22  C   UNL     1      -6.782  -0.855 -33.621  1.00  0.00    -0.000 A 
HETATM   23  C   UNL     1      -5.591  -0.137 -33.482  1.00  0.00     0.043 A 
HETATM   24  C   UNL     1      -6.433  -2.154 -34.082  1.00  0.00    -0.023 A 
HETATM   25  N   UNL     1      -4.559  -0.975 -33.849  1.00  0.00    -0.358 N 
HETATM   26  C   UNL     1      -5.559   1.190 -33.041  1.00  0.00     0.031 A 
HETATM   27  H   UNL     1      -3.582  -0.716 -33.850  1.00  0.00     0.166 HD
HETATM   28  C   UNL     1      -5.060  -2.195 -34.202  1.00  0.00     0.017 A 
HETATM   29  C   UNL     1      -4.251  -3.356 -34.660  1.00  0.00     0.057 C 
HETATM   30  C   UNL     1      -5.106  -4.637 -34.599  1.00  0.00     0.006 C 
HETATM   31  C   UNL     1      -6.525  -4.414 -35.155  1.00  0.00     0.005 C 
HETATM   32  C   UNL     1      -7.298  -3.336 -34.372  1.00  0.00     0.041 C 
HETATM   33  C   UNL     1      -6.780   1.795 -32.721  1.00  0.00     0.019 A 
ENDBRANCH   2  20
TORSDOF 6
ENDMDL
MODEL 5
REMARK VINA RESULT:      -8.3      7.044     10.005
REMARK  6 active torsions:
REMARK  status: ('A' for Active; 'I' for Inactive)
REMARK    1  A    between atoms: C_2  and  O_3 
REMARK    2  A    between atoms: O_3  and  C_4 
REMARK    3  A    between atoms: C_5  and  O_6 
REMARK    4  A    between atoms: C_9  and  C_10 
REMARK       I    between atoms: C_10  and  N_11 
REMARK    5  A    between atoms: N_11  and  N_12 
REMARK       I    between atoms: N_12  and  C_13 
REMARK    6  A    between atoms: C_13  and  C_14 
ROOT
HETATM    1  N   UNL     1     -10.044   1.610 -32.488  1.00  0.00    -0.263 N 
HETATM    2  C   UNL     1      -9.231   1.736 -33.596  1.00  0.00     0.270 C 
HETATM    3  O   UNL     1      -9.528   2.471 -34.538  1.00  0.00    -0.266 OA
HETATM    4  H   UNL     1      -9.824   1.078 -31.650  1.00  0.00     0.190 HD
ENDROOT
BRANCH   1   5
HETATM    5  N   UNL     1     -11.218   2.366 -32.436  1.00  0.00    -0.263 N 
HETATM    6  C   UNL     1     -11.240   3.462 -31.598  1.00  0.00     0.270 C 
HETATM    7  O   UNL     1     -10.259   3.821 -30.950  1.00  0.00    -0.266 OA
HETATM    8  H   UNL     1     -12.048   1.924 -32.827  1.00  0.00     0.190 HD
BRANCH   6   9
HETATM    9  C   UNL     1     -12.529   4.195 -31.493  1.00  0.00     0.036 A 
HETATM   10  C   UNL     1     -13.710   3.505 -31.797  1.00  0.00     0.056 A 
HETATM   11  C   UNL     1     -14.951   4.142 -31.690  1.00  0.00     0.102 A 
HETATM   12  C   UNL     1     -15.011   5.482 -31.254  1.00  0.00     0.102 A 
HETATM   13  C   UNL     1     -13.829   6.164 -30.948  1.00  0.00     0.040 A 
HETATM   14  C   UNL     1     -12.591   5.524 -31.065  1.00  0.00     0.020 A 
BRANCH  11  15
HETATM   15  O   UNL     1     -16.155   3.545 -31.972  1.00  0.00    -0.353 OA
HETATM   16  C   UNL     1     -16.132   2.206 -32.446  1.00  0.00     0.210 C 
ENDBRANCH  11  15
BRANCH  12  17
HETATM   17  O   UNL     1     -16.266   6.030 -31.165  1.00  0.00    -0.349 OA
BRANCH  17  18
HETATM   18  C   UNL     1     -16.424   7.212 -30.385  1.00  0.00     0.171 C 
HETATM   19  C   UNL     1     -17.213   6.850 -29.140  1.00  0.00     0.034 C 
ENDBRANCH  17  18
ENDBRANCH  12  17
ENDBRANCH   6   9
ENDBRANCH   1   5
BRANCH   2  20
HETATM   20  C   UNL     1      -7.954   0.962 -33.597  1.00  0.00     0.034 A 
HETATM   21  C   UNL     1      -7.883  -0.373 -34.028  1.00  0.00     0.031 A 
HETATM   22  C   UNL     1      -6.650  -1.057 -33.977  1.00  0.00    -0.000 A 
HETATM   23  C   UNL     1      -5.520  -0.378 -33.513  1.00  0.00     0.043 A 
HETATM   24  C   UNL     1      -6.238  -2.378 -34.303  1.00  0.00    -0.023 A 
HETATM   25  N   UNL     1      -4.461  -1.260 -33.561  1.00  0.00    -0.358 N 
HETATM   26  C   UNL     1      -5.561   0.957 -33.098  1.00  0.00     0.031 A 
HETATM   27  H   UNL     1      -3.514  -1.036 -33.286  1.00  0.00     0.166 HD
HETATM   28  C   UNL     1      -4.890  -2.470 -34.026  1.00  0.00     0.017 A 
HETATM   29  C   UNL     1      -4.032  -3.669 -34.220  1.00  0.00     0.057 C 
HETATM   30  C   UNL     1      -4.919  -4.917 -34.389  1.00  0.00     0.006 C 
HETATM   31  C   UNL     1      -6.112  -4.658 -35.329  1.00  0.00     0.005 C 
HETATM   32  C   UNL     1      -7.032  -3.536 -34.812  1.00  0.00     0.041 C 
HETATM   33  C   UNL     1      -6.797   1.612 -33.148  1.00  0.00     0.019 A 
ENDBRANCH   2  20
TORSDOF 6
ENDMDL
MODEL 6
REMARK VINA RESULT:      -8.3      2.527     11.243
REMARK  6 active torsions:
REMARK  status: ('A' for Active; 'I' for Inactive)
REMARK    1  A    between atoms: C_2  and  O_3 
REMARK    2  A    between atoms: O_3  and  C_4 
REMARK    3  A    between atoms: C_5  and  O_6 
REMARK    4  A    between atoms: C_9  and  C_10 
REMARK       I    between atoms: C_10  and  N_11 
REMARK    5  A    between atoms: N_11  and  N_12 
REMARK       I    between atoms: N_12  and  C_13 
REMARK    6  A    between atoms: C_13  and  C_14 
ROOT
HETATM    1  N   UNL     1      -2.812   3.432 -31.247  1.00  0.00    -0.263 N 
HETATM    2  C   UNL     1      -2.062   4.448 -31.801  1.00  0.00     0.270 C 
HETATM    3  O   UNL     1      -1.841   4.506 -33.010  1.00  0.00    -0.266 OA
HETATM    4  H   UNL     1      -3.089   3.365 -30.271  1.00  0.00     0.190 HD
ENDROOT
BRANCH   1   5
HETATM    5  N   UNL     1      -3.354   2.466 -32.099  1.00  0.00    -0.263 N 
HETATM    6  C   UNL     1      -4.396   1.699 -31.621  1.00  0.00     0.270 C 
HETATM    7  O   UNL     1      -4.892   1.873 -30.510  1.00  0.00    -0.266 OA
HETATM    8  H   UNL     1      -2.792   2.229 -32.915  1.00  0.00     0.190 HD
BRANCH   6   9
HETATM    9  C   UNL     1      -4.894   0.619 -32.514  1.00  0.00     0.036 A 
HETATM   10  C   UNL     1      -6.026   0.878 -33.298  1.00  0.00     0.056 A 
HETATM   11  C   UNL     1      -6.520  -0.096 -34.173  1.00  0.00     0.102 A 
HETATM   12  C   UNL     1      -5.859  -1.338 -34.278  1.00  0.00     0.102 A 
HETATM   13  C   UNL     1      -4.726  -1.588 -33.496  1.00  0.00     0.040 A 
HETATM   14  C   UNL     1      -4.243  -0.613 -32.618  1.00  0.00     0.020 A 
BRANCH  11  15
HETATM   15  O   UNL     1      -7.624   0.069 -34.972  1.00  0.00    -0.353 OA
HETATM   16  C   UNL     1      -8.643   0.948 -34.516  1.00  0.00     0.210 C 
ENDBRANCH  11  15
BRANCH  12  17
HETATM   17  O   UNL     1      -6.399  -2.233 -35.167  1.00  0.00    -0.349 OA
BRANCH  17  18
HETATM   18  C   UNL     1      -6.866  -3.479 -34.658  1.00  0.00     0.171 C 
HETATM   19  C   UNL     1      -6.200  -4.588 -35.452  1.00  0.00     0.034 C 
ENDBRANCH  17  18
ENDBRANCH  12  17
ENDBRANCH   6   9
ENDBRANCH   1   5
BRANCH   2  20
HETATM   20  C   UNL     1      -1.546   5.499 -30.873  1.00  0.00     0.034 A 
HETATM   21  C   UNL     1      -2.277   6.661 -30.570  1.00  0.00     0.031 A 
HETATM   22  C   UNL     1      -1.720   7.627 -29.707  1.00  0.00    -0.000 A 
HETATM   23  C   UNL     1      -0.456   7.395 -29.158  1.00  0.00     0.043 A 
HETATM   24  C   UNL     1      -2.160   8.889 -29.220  1.00  0.00    -0.023 A 
HETATM   25  N   UNL     1      -0.146   8.479 -28.363  1.00  0.00    -0.358 N 
HETATM   26  C   UNL     1       0.281   6.238 -29.427  1.00  0.00     0.031 A 
HETATM   27  H   UNL     1       0.711   8.579 -27.837  1.00  0.00     0.166 HD
HETATM   28  C   UNL     1      -1.165   9.387 -28.406  1.00  0.00     0.017 A 
HETATM   29  C   UNL     1      -1.194  10.681 -27.672  1.00  0.00     0.057 C 
HETATM   30  C   UNL     1      -2.301  11.580 -28.255  1.00  0.00     0.006 C 
HETATM   31  C   UNL     1      -3.608  10.802 -28.506  1.00  0.00     0.005 C 
HETATM   32  C   UNL     1      -3.417   9.644 -29.503  1.00  0.00     0.041 C 
HETATM   33  C   UNL     1      -0.287   5.297 -30.295  1.00  0.00     0.019 A 
ENDBRANCH   2  20
TORSDOF 6
ENDMDL
MODEL 7
REMARK VINA RESULT:      -8.1      6.856      9.859
REMARK  6 active torsions:
REMARK  status: ('A' for Active; 'I' for Inactive)
REMARK    1  A    between atoms: C_2  and  O_3 
REMARK    2  A    between atoms: O_3  and  C_4 
REMARK    3  A    between atoms: C_5  and  O_6 
REMARK    4  A    between atoms: C_9  and  C_10 
REMARK       I    between atoms: C_10  and  N_11 
REMARK    5  A    between atoms: N_11  and  N_12 
REMARK       I    between atoms: N_12  and  C_13 
REMARK    6  A    between atoms: C_13  and  C_14 
ROOT
HETATM    1  N   UNL     1      -9.021   2.813 -34.703  1.00  0.00    -0.263 N 
HETATM    2  C   UNL     1      -9.120   1.507 -34.270  1.00  0.00     0.270 C 
HETATM    3  O   UNL     1     -10.209   0.979 -34.045  1.00  0.00    -0.266 OA
HETATM    4  H   UNL     1      -8.161   3.284 -34.973  1.00  0.00     0.190 HD
ENDROOT
BRANCH   1   5
HETATM    5  N   UNL     1     -10.199   3.534 -34.915  1.00  0.00    -0.263 N 
HETATM    6  C   UNL     1     -10.116   4.910 -34.937  1.00  0.00     0.270 C 
HETATM    7  O   UNL     1      -9.049   5.512 -34.833  1.00  0.00    -0.266 OA
HETATM    8  H   UNL     1     -11.066   3.011 -34.798  1.00  0.00     0.190 HD
BRANCH   6   9
HETATM    9  C   UNL     1     -11.396   5.654 -35.075  1.00  0.00     0.036 A 
HETATM   10  C   UNL     1     -11.373   6.900 -35.715  1.00  0.00     0.056 A 
HETATM   11  C   UNL     1     -12.554   7.629 -35.892  1.00  0.00     0.102 A 
HETATM   12  C   UNL     1     -13.778   7.093 -35.439  1.00  0.00     0.102 A 
HETATM   13  C   UNL     1     -13.795   5.846 -34.805  1.00  0.00     0.040 A 
HETATM   14  C   UNL     1     -12.610   5.127 -34.624  1.00  0.00     0.020 A 
BRANCH  11  15
HETATM   15  O   UNL     1     -12.622   8.857 -36.502  1.00  0.00    -0.353 OA
HETATM   16  C   UNL     1     -11.411   9.423 -36.982  1.00  0.00     0.210 C 
ENDBRANCH  11  15
BRANCH  12  17
HETATM   17  O   UNL     1     -14.891   7.864 -35.662  1.00  0.00    -0.349 OA
BRANCH  17  18
HETATM   18  C   UNL     1     -15.862   7.383 -36.586  1.00  0.00     0.171 C 
HETATM   19  C   UNL     1     -16.794   8.532 -36.927  1.00  0.00     0.034 C 
ENDBRANCH  17  18
ENDBRANCH  12  17
ENDBRANCH   6   9
ENDBRANCH   1   5
BRANCH   2  20
HETATM   20  C   UNL     1      -7.847   0.743 -34.110  1.00  0.00     0.034 A 
HETATM   21  C   UNL     1      -7.737  -0.618 -34.442  1.00  0.00     0.031 A 
HETATM   22  C   UNL     1      -6.512  -1.287 -34.240  1.00  0.00    -0.000 A 
HETATM   23  C   UNL     1      -5.427  -0.570 -33.728  1.00  0.00     0.043 A 
HETATM   24  C   UNL     1      -6.072  -2.624 -34.439  1.00  0.00    -0.023 A 
HETATM   25  N   UNL     1      -4.366  -1.446 -33.626  1.00  0.00    -0.358 N 
HETATM   26  C   UNL     1      -5.505   0.789 -33.410  1.00  0.00     0.031 A 
HETATM   27  H   UNL     1      -3.447  -1.197 -33.287  1.00  0.00     0.166 HD
HETATM   28  C   UNL     1      -4.752  -2.687 -34.043  1.00  0.00     0.017 A 
HETATM   29  C   UNL     1      -3.879  -3.891 -34.081  1.00  0.00     0.057 C 
HETATM   30  C   UNL     1      -4.747  -5.154 -34.240  1.00  0.00     0.006 C 
HETATM   31  C   UNL     1      -5.856  -4.967 -35.294  1.00  0.00     0.005 C 
HETATM   32  C   UNL     1      -6.818  -3.819 -34.934  1.00  0.00     0.041 C 
HETATM   33  C   UNL     1      -6.734   1.430 -33.609  1.00  0.00     0.019 A 
ENDBRANCH   2  20
TORSDOF 6
ENDMDL
MODEL 8
REMARK VINA RESULT:      -7.9      4.731     11.256
REMARK  6 active torsions:
REMARK  status: ('A' for Active; 'I' for Inactive)
REMARK    1  A    between atoms: C_2  and  O_3 
REMARK    2  A    between atoms: O_3  and  C_4 
REMARK    3  A    between atoms: C_5  and  O_6 
REMARK    4  A    between atoms: C_9  and  C_10 
REMARK       I    between atoms: C_10  and  N_11 
REMARK    5  A    between atoms: N_11  and  N_12 
REMARK       I    between atoms: N_12  and  C_13 
REMARK    6  A    between atoms: C_13  and  C_14 
ROOT
HETATM    1  N   UNL     1      -6.555   3.750 -32.432  1.00  0.00    -0.263 N 
HETATM    2  C   UNL     1      -5.816   4.543 -33.285  1.00  0.00     0.270 C 
HETATM    3  O   UNL     1      -6.294   5.003 -34.321  1.00  0.00    -0.266 OA
HETATM    4  H   UNL     1      -6.243   3.399 -31.530  1.00  0.00     0.190 HD
ENDROOT
BRANCH   1   5
HETATM    5  N   UNL     1      -7.892   3.495 -32.752  1.00  0.00    -0.263 N 
HETATM    6  C   UNL     1      -8.221   2.223 -33.171  1.00  0.00     0.270 C 
HETATM    7  O   UNL     1      -7.402   1.307 -33.217  1.00  0.00    -0.266 OA
HETATM    8  H   UNL     1      -8.479   4.316 -32.888  1.00  0.00     0.190 HD
BRANCH   6   9
HETATM    9  C   UNL     1      -9.631   2.004 -33.591  1.00  0.00     0.036 A 
HETATM   10  C   UNL     1     -10.222   2.944 -34.444  1.00  0.00     0.056 A 
HETATM   11  C   UNL     1     -11.537   2.771 -34.888  1.00  0.00     0.102 A 
HETATM   12  C   UNL     1     -12.263   1.630 -34.487  1.00  0.00     0.102 A 
HETATM   13  C   UNL     1     -11.665   0.692 -33.639  1.00  0.00     0.040 A 
HETATM   14  C   UNL     1     -10.353   0.875 -33.193  1.00  0.00     0.020 A 
BRANCH  11  15
HETATM   15  O   UNL     1     -12.196   3.644 -35.718  1.00  0.00    -0.353 OA
HETATM   16  C   UNL     1     -12.527   4.925 -35.200  1.00  0.00     0.210 C 
ENDBRANCH  11  15
BRANCH  12  17
HETATM   17  O   UNL     1     -13.542   1.528 -34.975  1.00  0.00    -0.349 OA
BRANCH  17  18
HETATM   18  C   UNL     1     -14.466   0.713 -34.260  1.00  0.00     0.171 C 
HETATM   19  C   UNL     1     -15.140   1.580 -33.212  1.00  0.00     0.034 C 
ENDBRANCH  17  18
ENDBRANCH  12  17
ENDBRANCH   6   9
ENDBRANCH   1   5
BRANCH   2  20
HETATM   20  C   UNL     1      -4.409   4.847 -32.886  1.00  0.00     0.034 A 
HETATM   21  C   UNL     1      -4.095   5.555 -31.713  1.00  0.00     0.031 A 
HETATM   22  C   UNL     1      -2.746   5.833 -31.409  1.00  0.00    -0.000 A 
HETATM   23  C   UNL     1      -1.750   5.379 -32.277  1.00  0.00     0.043 A 
HETATM   24  C   UNL     1      -2.094   6.524 -30.351  1.00  0.00    -0.023 A 
HETATM   25  N   UNL     1      -0.536   5.780 -31.758  1.00  0.00    -0.358 N 
HETATM   26  C   UNL     1      -2.036   4.654 -33.438  1.00  0.00     0.031 A 
HETATM   27  H   UNL     1       0.361   5.584 -32.179  1.00  0.00     0.166 HD
HETATM   28  C   UNL     1      -0.738   6.480 -30.603  1.00  0.00     0.017 A 
HETATM   29  C   UNL     1       0.333   7.068 -29.756  1.00  0.00     0.057 C 
HETATM   30  C   UNL     1      -0.283   8.081 -28.774  1.00  0.00     0.006 C 
HETATM   31  C   UNL     1      -1.576   7.550 -28.127  1.00  0.00     0.005 C 
HETATM   32  C   UNL     1      -2.665   7.236 -29.170  1.00  0.00     0.041 C 
HETATM   33  C   UNL     1      -3.382   4.399 -33.726  1.00  0.00     0.019 A 
ENDBRANCH   2  20
TORSDOF 6
ENDMDL
MODEL 9
REMARK VINA RESULT:      -7.8      6.548     10.944
REMARK  6 active torsions:
REMARK  status: ('A' for Active; 'I' for Inactive)
REMARK    1  A    between atoms: C_2  and  O_3 
REMARK    2  A    between atoms: O_3  and  C_4 
REMARK    3  A    between atoms: C_5  and  O_6 
REMARK    4  A    between atoms: C_9  and  C_10 
REMARK       I    between atoms: C_10  and  N_11 
REMARK    5  A    between atoms: N_11  and  N_12 
REMARK       I    between atoms: N_12  and  C_13 
REMARK    6  A    between atoms: C_13  and  C_14 
ROOT
HETATM    1  N   UNL     1      -9.912   1.872 -34.775  1.00  0.00    -0.263 N 
HETATM    2  C   UNL     1      -9.796   3.188 -34.378  1.00  0.00     0.270 C 
HETATM    3  O   UNL     1      -8.713   3.674 -34.052  1.00  0.00    -0.266 OA
HETATM    4  H   UNL     1     -10.761   1.431 -35.121  1.00  0.00     0.190 HD
ENDROOT
BRANCH   1   5
HETATM    5  N   UNL     1      -8.756   1.090 -34.833  1.00  0.00    -0.263 N 
HETATM    6  C   UNL     1      -8.587   0.118 -33.870  1.00  0.00     0.270 C 
HETATM    7  O   UNL     1      -9.434  -0.117 -33.010  1.00  0.00    -0.266 OA
HETATM    8  H   UNL     1      -8.009   1.448 -35.427  1.00  0.00     0.190 HD
BRANCH   6   9
HETATM    9  C   UNL     1      -7.307  -0.638 -33.901  1.00  0.00     0.036 A 
HETATM   10  C   UNL     1      -6.201  -0.094 -33.237  1.00  0.00     0.056 A 
HETATM   11  C   UNL     1      -4.980  -0.777 -33.215  1.00  0.00     0.102 A 
HETATM   12  C   UNL     1      -4.872  -2.031 -33.852  1.00  0.00     0.102 A 
HETATM   13  C   UNL     1      -5.983  -2.571 -34.510  1.00  0.00     0.040 A 
HETATM   14  C   UNL     1      -7.197  -1.879 -34.534  1.00  0.00     0.020 A 
BRANCH  11  15
HETATM   15  O   UNL     1      -3.845  -0.316 -32.595  1.00  0.00    -0.353 OA
HETATM   16  C   UNL     1      -3.862  -0.216 -31.178  1.00  0.00     0.210 C 
ENDBRANCH  11  15
BRANCH  12  17
HETATM   17  O   UNL     1      -3.646  -2.642 -33.775  1.00  0.00    -0.349 OA
BRANCH  17  18
HETATM   18  C   UNL     1      -3.576  -3.925 -33.161  1.00  0.00     0.171 C 
HETATM   19  C   UNL     1      -2.969  -3.751 -31.781  1.00  0.00     0.034 C 
ENDBRANCH  17  18
ENDBRANCH  12  17
ENDBRANCH   6   9
ENDBRANCH   1   5
BRANCH   2  20
HETATM   20  C   UNL     1     -11.040   4.015 -34.383  1.00  0.00     0.034 A 
HETATM   21  C   UNL     1     -11.170   5.176 -35.163  1.00  0.00     0.031 A 
HETATM   22  C   UNL     1     -12.362   5.927 -35.101  1.00  0.00    -0.000 A 
HETATM   23  C   UNL     1     -13.397   5.484 -34.274  1.00  0.00     0.043 A 
HETATM   24  C   UNL     1     -12.808   7.127 -35.720  1.00  0.00    -0.023 A 
HETATM   25  N   UNL     1     -14.434   6.385 -34.392  1.00  0.00    -0.358 N 
HETATM   26  C   UNL     1     -13.300   4.320 -33.504  1.00  0.00     0.031 A 
HETATM   27  H   UNL     1     -15.317   6.312 -33.906  1.00  0.00     0.166 HD
HETATM   28  C   UNL     1     -14.080   7.384 -35.254  1.00  0.00     0.017 A 
HETATM   29  C   UNL     1     -14.942   8.534 -35.636  1.00  0.00     0.057 C 
HETATM   30  C   UNL     1     -14.082   9.622 -36.308  1.00  0.00     0.006 C 
HETATM   31  C   UNL     1     -13.086   9.029 -37.324  1.00  0.00     0.005 C 
HETATM   32  C   UNL     1     -12.104   8.039 -36.670  1.00  0.00     0.041 C 
HETATM   33  C   UNL     1     -12.104   3.597 -33.573  1.00  0.00     0.019 A 
ENDBRANCH   2  20
TORSDOF 6
ENDMDL
MODEL 10
REMARK VINA RESULT:      -7.8      6.865     10.952
REMARK  6 active torsions:
REMARK  status: ('A' for Active; 'I' for Inactive)
REMARK    1  A    between atoms: C_2  and  O_3 
REMARK    2  A    between atoms: O_3  and  C_4 
REMARK    3  A    between atoms: C_5  and  O_6 
REMARK    4  A    between atoms: C_9  and  C_10 
REMARK       I    between atoms: C_10  and  N_11 
REMARK    5  A    between atoms: N_11  and  N_12 
REMARK       I    between atoms: N_12  and  C_13 
REMARK    6  A    between atoms: C_13  and  C_14 
ROOT
HETATM    1  N   UNL     1     -10.652   1.844 -33.436  1.00  0.00    -0.263 N 
HETATM    2  C   UNL     1     -10.492   3.154 -33.033  1.00  0.00     0.270 C 
HETATM    3  O   UNL     1      -9.381   3.678 -32.955  1.00  0.00    -0.266 OA
HETATM    4  H   UNL     1     -11.542   1.376 -33.588  1.00  0.00     0.190 HD
ENDROOT
BRANCH   1   5
HETATM    5  N   UNL     1      -9.514   1.115 -33.791  1.00  0.00    -0.263 N 
HETATM    6  C   UNL     1      -8.916   0.342 -32.818  1.00  0.00     0.270 C 
HETATM    7  O   UNL     1      -9.377   0.232 -31.683  1.00  0.00    -0.266 OA
HETATM    8  H   UNL     1      -9.067   1.389 -34.664  1.00  0.00     0.190 HD
BRANCH   6   9
HETATM    9  C   UNL     1      -7.658  -0.352 -33.198  1.00  0.00     0.036 A 
HETATM   10  C   UNL     1      -6.618  -0.397 -32.261  1.00  0.00     0.056 A 
HETATM   11  C   UNL     1      -5.422  -1.059 -32.559  1.00  0.00     0.102 A 
HETATM   12  C   UNL     1      -5.274  -1.703 -33.806  1.00  0.00     0.102 A 
HETATM   13  C   UNL     1      -6.319  -1.658 -34.736  1.00  0.00     0.040 A 
HETATM   14  C   UNL     1      -7.508  -0.988 -34.434  1.00  0.00     0.020 A 
BRANCH  11  15
HETATM   15  O   UNL     1      -4.351  -1.147 -31.704  1.00  0.00    -0.353 OA
HETATM   16  C   UNL     1      -3.901   0.050 -31.086  1.00  0.00     0.210 C 
ENDBRANCH  11  15
BRANCH  12  17
HETATM   17  O   UNL     1      -4.077  -2.339 -34.016  1.00  0.00    -0.349 OA
BRANCH  17  18
HETATM   18  C   UNL     1      -4.107  -3.725 -34.346  1.00  0.00     0.171 C 
HETATM   19  C   UNL     1      -3.437  -4.489 -33.218  1.00  0.00     0.034 C 
ENDBRANCH  17  18
ENDBRANCH  12  17
ENDBRANCH   6   9
ENDBRANCH   1   5
BRANCH   2  20
HETATM   20  C   UNL     1     -11.731   3.927 -32.718  1.00  0.00     0.034 A 
HETATM   21  C   UNL     1     -12.987   3.313 -32.578  1.00  0.00     0.031 A 
HETATM   22  C   UNL     1     -14.122   4.104 -32.307  1.00  0.00    -0.000 A 
HETATM   23  C   UNL     1     -13.965   5.485 -32.165  1.00  0.00     0.043 A 
HETATM   24  C   UNL     1     -15.505   3.822 -32.133  1.00  0.00    -0.023 A 
HETATM   25  N   UNL     1     -15.212   6.018 -31.911  1.00  0.00    -0.358 N 
HETATM   26  C   UNL     1     -12.723   6.117 -32.279  1.00  0.00     0.031 A 
HETATM   27  H   UNL     1     -15.396   7.001 -31.761  1.00  0.00     0.166 HD
HETATM   28  C   UNL     1     -16.145   5.022 -31.901  1.00  0.00     0.017 A 
HETATM   29  C   UNL     1     -17.600   5.209 -31.655  1.00  0.00     0.057 C 
HETATM   30  C   UNL     1     -18.365   3.946 -32.092  1.00  0.00     0.006 C 
HETATM   31  C   UNL     1     -17.662   2.654 -31.631  1.00  0.00     0.005 C 
HETATM   32  C   UNL     1     -16.239   2.524 -32.208  1.00  0.00     0.041 C 
HETATM   33  C   UNL     1     -11.611   5.313 -32.558  1.00  0.00     0.019 A 
ENDBRANCH   2  20
TORSDOF 6
ENDMDL
