MODEL 1
REMARK VINA RESULT:      -8.3      0.000      0.000
REMARK  6 active torsions:
REMARK  status: ('A' for Active; 'I' for Inactive)
REMARK    1  A    between atoms: C_2  and  N_3 
REMARK    2  A    between atoms: C_2  and  C_16 
REMARK    3  A    between atoms: N_3  and  C_6 
REMARK    4  A    between atoms: C_16  and  C_17 
REMARK       I    between atoms: C_17  and  N_18 
REMARK    5  A    between atoms: N_18  and  C_19 
REMARK    6  A    between atoms: C_21  and  O_22 
ROOT
HETATM    1  C   UNL     1      -3.169   1.390 -31.192  1.00  0.00     0.040 C 
HETATM    2  C   UNL     1      -4.215   2.484 -30.988  1.00  0.00     0.191 C 
ENDROOT
BRANCH   2   3
HETATM    3  N   UNL     1      -3.602   3.867 -31.189  1.00  0.00    -0.063 N 
HETATM    4  H   UNL     1      -4.396   4.508 -31.314  1.00  0.00     0.278 HD
HETATM    5  H   UNL     1      -3.203   4.152 -30.284  1.00  0.00     0.278 HD
BRANCH   3   6
HETATM    6  C   UNL     1      -2.584   4.230 -32.265  1.00  0.00     0.221 C 
HETATM    7  C   UNL     1      -1.481   5.151 -31.795  1.00  0.00    -0.011 A 
HETATM    8  C   UNL     1      -1.181   6.361 -32.443  1.00  0.00     0.009 A 
HETATM    9  C   UNL     1      -0.690   4.774 -30.687  1.00  0.00     0.011 A 
HETATM   10  C   UNL     1      -0.192   7.209 -31.928  1.00  0.00     0.019 A 
HETATM   11  S   UNL     1      -1.997   6.872 -33.939  1.00  0.00    -0.129 SA
HETATM   12  C   UNL     1       0.542   6.843 -30.801  1.00  0.00     0.001 A 
HETATM   13  C   UNL     1       0.304   5.619 -30.190  1.00  0.00     0.001 A 
HETATM   14  C   UNL     1      -2.417   5.238 -34.596  1.00  0.00     0.082 C 
HETATM   15  C   UNL     1      -3.310   4.550 -33.581  1.00  0.00     0.048 C 
ENDBRANCH   3   6
ENDBRANCH   2   3
BRANCH   2  16
HETATM   16  C   UNL     1      -5.483   2.264 -31.815  1.00  0.00     0.135 C 
BRANCH  16  17
HETATM   17  C   UNL     1      -5.772   0.787 -32.001  1.00  0.00     0.224 C 
HETATM   18  N   UNL     1      -5.402   0.340 -33.254  1.00  0.00    -0.327 N 
HETATM   19  H   UNL     1      -4.972   1.008 -33.885  1.00  0.00     0.169 HD
HETATM   20  O   UNL     1      -6.311   0.144 -31.108  1.00  0.00    -0.273 OA
BRANCH  18  21
HETATM   21  C   UNL     1      -5.528  -0.968 -33.776  1.00  0.00     0.037 A 
HETATM   22  C   UNL     1      -4.492  -1.908 -33.794  1.00  0.00     0.066 A 
HETATM   23  C   UNL     1      -4.702  -3.182 -34.334  1.00  0.00     0.070 A 
HETATM   24  C   UNL     1      -5.952  -3.509 -34.863  1.00  0.00     0.037 A 
HETATM   25  C   UNL     1      -6.990  -2.582 -34.846  1.00  0.00     0.005 A 
HETATM   26  C   UNL     1      -6.779  -1.317 -34.302  1.00  0.00     0.029 A 
BRANCH  23  27
HETATM   27  O   UNL     1      -3.777  -4.187 -34.408  1.00  0.00    -0.356 OA
HETATM   28  C   UNL     1      -3.393  -4.809 -33.189  1.00  0.00     0.210 C 
ENDBRANCH  23  27
ENDBRANCH  18  21
ENDBRANCH  16  17
ENDBRANCH   2  16
TORSDOF 6
ENDMDL
MODEL 2
REMARK VINA RESULT:      -8.3      3.439      8.324
REMARK  6 active torsions:
REMARK  status: ('A' for Active; 'I' for Inactive)
REMARK    1  A    between atoms: C_2  and  N_3 
REMARK    2  A    between atoms: C_2  and  C_16 
REMARK    3  A    between atoms: N_3  and  C_6 
REMARK    4  A    between atoms: C_16  and  C_17 
REMARK       I    between atoms: C_17  and  N_18 
REMARK    5  A    between atoms: N_18  and  C_19 
REMARK    6  A    between atoms: C_21  and  O_22 
ROOT
HETATM    1  C   UNL     1      -6.898   3.236 -30.068  1.00  0.00     0.040 C 
HETATM    2  C   UNL     1      -6.063   2.855 -31.289  1.00  0.00     0.191 C 
ENDROOT
BRANCH   2   3
HETATM    3  N   UNL     1      -5.761   1.359 -31.296  1.00  0.00    -0.063 N 
HETATM    4  H   UNL     1      -5.574   1.108 -30.316  1.00  0.00     0.278 HD
HETATM    5  H   UNL     1      -6.646   0.875 -31.503  1.00  0.00     0.278 HD
BRANCH   3   6
HETATM    6  C   UNL     1      -4.673   0.685 -32.126  1.00  0.00     0.221 C 
HETATM    7  C   UNL     1      -5.188  -0.328 -33.124  1.00  0.00    -0.011 A 
HETATM    8  C   UNL     1      -4.716  -1.650 -33.168  1.00  0.00     0.009 A 
HETATM    9  C   UNL     1      -6.152   0.069 -34.077  1.00  0.00     0.011 A 
HETATM   10  C   UNL     1      -5.273  -2.566 -34.070  1.00  0.00     0.019 A 
HETATM   11  S   UNL     1      -3.394  -2.228 -32.128  1.00  0.00    -0.129 SA
HETATM   12  C   UNL     1      -6.261  -2.168 -34.968  1.00  0.00     0.001 A 
HETATM   13  C   UNL     1      -6.690  -0.848 -34.983  1.00  0.00     0.001 A 
HETATM   14  C   UNL     1      -2.525  -0.659 -31.887  1.00  0.00     0.082 C 
HETATM   15  C   UNL     1      -3.491   0.303 -31.222  1.00  0.00     0.048 C 
ENDBRANCH   3   6
ENDBRANCH   2   3
BRANCH   2  16
HETATM   16  C   UNL     1      -6.662   3.352 -32.605  1.00  0.00     0.135 C 
BRANCH  16  17
HETATM   17  C   UNL     1      -5.722   4.309 -33.313  1.00  0.00     0.224 C 
HETATM   18  N   UNL     1      -4.541   4.485 -32.620  1.00  0.00    -0.327 N 
HETATM   19  H   UNL     1      -4.417   3.963 -31.760  1.00  0.00     0.169 HD
HETATM   20  O   UNL     1      -6.063   4.853 -34.357  1.00  0.00    -0.273 OA
BRANCH  18  21
HETATM   21  C   UNL     1      -3.445   5.304 -32.977  1.00  0.00     0.037 A 
HETATM   22  C   UNL     1      -3.257   6.610 -32.513  1.00  0.00     0.066 A 
HETATM   23  C   UNL     1      -2.143   7.353 -32.921  1.00  0.00     0.070 A 
HETATM   24  C   UNL     1      -1.221   6.785 -33.801  1.00  0.00     0.037 A 
HETATM   25  C   UNL     1      -1.397   5.485 -34.266  1.00  0.00     0.005 A 
HETATM   26  C   UNL     1      -2.504   4.746 -33.852  1.00  0.00     0.029 A 
BRANCH  23  27
HETATM   27  O   UNL     1      -1.845   8.632 -32.539  1.00  0.00    -0.356 OA
HETATM   28  C   UNL     1      -2.245   9.032 -31.235  1.00  0.00     0.210 C 
ENDBRANCH  23  27
ENDBRANCH  18  21
ENDBRANCH  16  17
ENDBRANCH   2  16
TORSDOF 6
ENDMDL
MODEL 3
REMARK VINA RESULT:      -8.1      2.926      7.811
REMARK  6 active torsions:
REMARK  status: ('A' for Active; 'I' for Inactive)
REMARK    1  A    between atoms: C_2  and  N_3 
REMARK    2  A    between atoms: C_2  and  C_16 
REMARK    3  A    between atoms: N_3  and  C_6 
REMARK    4  A    between atoms: C_16  and  C_17 
REMARK       I    between atoms: C_17  and  N_18 
REMARK    5  A    between atoms: N_18  and  C_19 
REMARK    6  A    between atoms: C_21  and  O_22 
ROOT
HETATM    1  C   UNL     1      -9.096   0.474 -32.155  1.00  0.00     0.040 C 
HETATM    2  C   UNL     1      -7.800   1.181 -31.762  1.00  0.00     0.191 C 
ENDROOT
BRANCH   2   3
HETATM    3  N   UNL     1      -6.725   0.169 -31.378  1.00  0.00    -0.063 N 
HETATM    4  H   UNL     1      -6.498   0.364 -30.394  1.00  0.00     0.278 HD
HETATM    5  H   UNL     1      -7.180  -0.753 -31.341  1.00  0.00     0.278 HD
BRANCH   3   6
HETATM    6  C   UNL     1      -5.392  -0.013 -32.096  1.00  0.00     0.221 C 
HETATM    7  C   UNL     1      -5.388  -1.115 -33.132  1.00  0.00    -0.011 A 
HETATM    8  C   UNL     1      -4.443  -2.155 -33.123  1.00  0.00     0.009 A 
HETATM    9  C   UNL     1      -6.339  -1.087 -34.175  1.00  0.00     0.011 A 
HETATM   10  C   UNL     1      -4.523  -3.186 -34.068  1.00  0.00     0.019 A 
HETATM   11  S   UNL     1      -3.100  -2.217 -31.959  1.00  0.00    -0.129 SA
HETATM   12  C   UNL     1      -5.504  -3.168 -35.058  1.00  0.00     0.001 A 
HETATM   13  C   UNL     1      -6.401  -2.111 -35.122  1.00  0.00     0.001 A 
HETATM   14  C   UNL     1      -2.924  -0.442 -31.646  1.00  0.00     0.082 C 
HETATM   15  C   UNL     1      -4.240   0.058 -31.081  1.00  0.00     0.048 C 
ENDBRANCH   3   6
ENDBRANCH   2   3
BRANCH   2  16
HETATM   16  C   UNL     1      -7.327   2.192 -32.808  1.00  0.00     0.135 C 
BRANCH  16  17
HETATM   17  C   UNL     1      -6.200   3.053 -32.273  1.00  0.00     0.224 C 
HETATM   18  N   UNL     1      -5.260   3.339 -33.244  1.00  0.00    -0.327 N 
HETATM   19  H   UNL     1      -5.425   2.982 -34.179  1.00  0.00     0.169 HD
HETATM   20  O   UNL     1      -6.177   3.382 -31.093  1.00  0.00    -0.273 OA
BRANCH  18  21
HETATM   21  C   UNL     1      -4.082   4.107 -33.105  1.00  0.00     0.037 A 
HETATM   22  C   UNL     1      -3.056   3.813 -32.199  1.00  0.00     0.066 A 
HETATM   23  C   UNL     1      -1.922   4.630 -32.123  1.00  0.00     0.070 A 
HETATM   24  C   UNL     1      -1.822   5.748 -32.953  1.00  0.00     0.037 A 
HETATM   25  C   UNL     1      -2.835   6.047 -33.860  1.00  0.00     0.005 A 
HETATM   26  C   UNL     1      -3.959   5.227 -33.937  1.00  0.00     0.029 A 
BRANCH  23  27
HETATM   27  O   UNL     1      -0.855   4.450 -31.287  1.00  0.00    -0.356 OA
HETATM   28  C   UNL     1       0.090   5.509 -31.201  1.00  0.00     0.210 C 
ENDBRANCH  23  27
ENDBRANCH  18  21
ENDBRANCH  16  17
ENDBRANCH   2  16
TORSDOF 6
ENDMDL
MODEL 4
REMARK VINA RESULT:      -8.1      3.811      8.079
REMARK  6 active torsions:
REMARK  status: ('A' for Active; 'I' for Inactive)
REMARK    1  A    between atoms: C_2  and  N_3 
REMARK    2  A    between atoms: C_2  and  C_16 
REMARK    3  A    between atoms: N_3  and  C_6 
REMARK    4  A    between atoms: C_16  and  C_17 
REMARK       I    between atoms: C_17  and  N_18 
REMARK    5  A    between atoms: N_18  and  C_19 
REMARK    6  A    between atoms: C_21  and  O_22 
ROOT
HETATM    1  C   UNL     1      -7.623   0.312 -35.343  1.00  0.00     0.040 C 
HETATM    2  C   UNL     1      -8.168  -0.117 -33.982  1.00  0.00     0.191 C 
ENDROOT
BRANCH   2   3
HETATM    3  N   UNL     1      -7.055  -0.688 -33.107  1.00  0.00    -0.063 N 
HETATM    4  H   UNL     1      -7.062  -0.126 -32.246  1.00  0.00     0.278 HD
HETATM    5  H   UNL     1      -7.369  -1.616 -32.790  1.00  0.00     0.278 HD
BRANCH   3   6
HETATM    6  C   UNL     1      -5.593  -0.822 -33.520  1.00  0.00     0.221 C 
HETATM    7  C   UNL     1      -5.138  -2.246 -33.749  1.00  0.00    -0.011 A 
HETATM    8  C   UNL     1      -4.019  -2.794 -33.100  1.00  0.00     0.009 A 
HETATM    9  C   UNL     1      -5.832  -3.053 -34.677  1.00  0.00     0.011 A 
HETATM   10  C   UNL     1      -3.678  -4.138 -33.299  1.00  0.00     0.019 A 
HETATM   11  S   UNL     1      -2.969  -1.835 -32.031  1.00  0.00    -0.129 SA
HETATM   12  C   UNL     1      -4.409  -4.933 -34.179  1.00  0.00     0.001 A 
HETATM   13  C   UNL     1      -5.476  -4.387 -34.881  1.00  0.00     0.001 A 
HETATM   14  C   UNL     1      -3.241  -0.204 -32.767  1.00  0.00     0.082 C 
HETATM   15  C   UNL     1      -4.723   0.107 -32.660  1.00  0.00     0.048 C 
ENDBRANCH   3   6
ENDBRANCH   2   3
BRANCH   2  16
HETATM   16  C   UNL     1      -8.976   0.978 -33.286  1.00  0.00     0.135 C 
BRANCH  16  17
HETATM   17  C   UNL     1      -8.417   2.355 -33.590  1.00  0.00     0.224 C 
HETATM   18  N   UNL     1      -7.187   2.558 -32.996  1.00  0.00    -0.327 N 
HETATM   19  H   UNL     1      -6.789   1.793 -32.462  1.00  0.00     0.169 HD
HETATM   20  O   UNL     1      -9.064   3.152 -34.260  1.00  0.00    -0.273 OA
BRANCH  18  21
HETATM   21  C   UNL     1      -6.380   3.717 -33.058  1.00  0.00     0.037 A 
HETATM   22  C   UNL     1      -5.526   4.023 -34.123  1.00  0.00     0.066 A 
HETATM   23  C   UNL     1      -4.758   5.193 -34.101  1.00  0.00     0.070 A 
HETATM   24  C   UNL     1      -4.842   6.052 -33.005  1.00  0.00     0.037 A 
HETATM   25  C   UNL     1      -5.691   5.759 -31.941  1.00  0.00     0.005 A 
HETATM   26  C   UNL     1      -6.459   4.597 -31.970  1.00  0.00     0.029 A 
BRANCH  23  27
HETATM   27  O   UNL     1      -3.892   5.605 -35.076  1.00  0.00    -0.356 OA
HETATM   28  C   UNL     1      -2.506   5.375 -34.856  1.00  0.00     0.210 C 
ENDBRANCH  23  27
ENDBRANCH  18  21
ENDBRANCH  16  17
ENDBRANCH   2  16
TORSDOF 6
ENDMDL
MODEL 5
REMARK VINA RESULT:      -7.9      3.177      7.879
REMARK  6 active torsions:
REMARK  status: ('A' for Active; 'I' for Inactive)
REMARK    1  A    between atoms: C_2  and  N_3 
REMARK    2  A    between atoms: C_2  and  C_16 
REMARK    3  A    between atoms: N_3  and  C_6 
REMARK    4  A    between atoms: C_16  and  C_17 
REMARK       I    between atoms: C_17  and  N_18 
REMARK    5  A    between atoms: N_18  and  C_19 
REMARK    6  A    between atoms: C_21  and  O_22 
ROOT
HETATM    1  C   UNL     1      -8.197   3.330 -33.594  1.00  0.00     0.040 C 
HETATM    2  C   UNL     1      -6.715   2.967 -33.661  1.00  0.00     0.191 C 
ENDROOT
BRANCH   2   3
HETATM    3  N   UNL     1      -6.511   1.651 -34.408  1.00  0.00    -0.063 N 
HETATM    4  H   UNL     1      -7.221   1.641 -35.152  1.00  0.00     0.278 HD
HETATM    5  H   UNL     1      -5.624   1.733 -34.923  1.00  0.00     0.278 HD
BRANCH   3   6
HETATM    6  C   UNL     1      -6.538   0.266 -33.771  1.00  0.00     0.221 C 
HETATM    7  C   UNL     1      -5.308  -0.070 -32.958  1.00  0.00    -0.011 A 
HETATM    8  C   UNL     1      -4.548  -1.231 -33.186  1.00  0.00     0.009 A 
HETATM    9  C   UNL     1      -4.919   0.785 -31.904  1.00  0.00     0.011 A 
HETATM   10  C   UNL     1      -3.380  -1.462 -32.448  1.00  0.00     0.019 A 
HETATM   11  S   UNL     1      -5.021  -2.465 -34.376  1.00  0.00    -0.129 SA
HETATM   12  C   UNL     1      -2.984  -0.577 -31.447  1.00  0.00     0.001 A 
HETATM   13  C   UNL     1      -3.762   0.538 -31.164  1.00  0.00     0.001 A 
HETATM   14  C   UNL     1      -6.811  -2.196 -34.356  1.00  0.00     0.082 C 
HETATM   15  C   UNL     1      -7.064  -0.762 -34.784  1.00  0.00     0.048 C 
ENDBRANCH   3   6
ENDBRANCH   2   3
BRANCH   2  16
HETATM   16  C   UNL     1      -5.842   4.102 -34.197  1.00  0.00     0.135 C 
BRANCH  16  17
HETATM   17  C   UNL     1      -4.810   4.536 -33.175  1.00  0.00     0.224 C 
HETATM   18  N   UNL     1      -3.699   5.103 -33.768  1.00  0.00    -0.327 N 
HETATM   19  H   UNL     1      -3.696   5.189 -34.778  1.00  0.00     0.169 HD
HETATM   20  O   UNL     1      -4.999   4.336 -31.981  1.00  0.00    -0.273 OA
BRANCH  18  21
HETATM   21  C   UNL     1      -2.545   5.612 -33.129  1.00  0.00     0.037 A 
HETATM   22  C   UNL     1      -1.598   4.820 -32.470  1.00  0.00     0.066 A 
HETATM   23  C   UNL     1      -0.485   5.408 -31.859  1.00  0.00     0.070 A 
HETATM   24  C   UNL     1      -0.327   6.794 -31.903  1.00  0.00     0.037 A 
HETATM   25  C   UNL     1      -1.261   7.591 -32.559  1.00  0.00     0.005 A 
HETATM   26  C   UNL     1      -2.365   7.001 -33.171  1.00  0.00     0.029 A 
BRANCH  23  27
HETATM   27  O   UNL     1       0.508   4.747 -31.190  1.00  0.00    -0.356 OA
HETATM   28  C   UNL     1       0.584   4.939 -29.783  1.00  0.00     0.210 C 
ENDBRANCH  23  27
ENDBRANCH  18  21
ENDBRANCH  16  17
ENDBRANCH   2  16
TORSDOF 6
ENDMDL
MODEL 6
REMARK VINA RESULT:      -7.8      1.759      2.443
REMARK  6 active torsions:
REMARK  status: ('A' for Active; 'I' for Inactive)
REMARK    1  A    between atoms: C_2  and  N_3 
REMARK    2  A    between atoms: C_2  and  C_16 
REMARK    3  A    between atoms: N_3  and  C_6 
REMARK    4  A    between atoms: C_16  and  C_17 
REMARK       I    between atoms: C_17  and  N_18 
REMARK    5  A    between atoms: N_18  and  C_19 
REMARK    6  A    between atoms: C_21  and  O_22 
ROOT
HETATM    1  C   UNL     1      -5.630   2.408 -30.127  1.00  0.00     0.040 C 
HETATM    2  C   UNL     1      -4.541   2.958 -31.045  1.00  0.00     0.191 C 
ENDROOT
BRANCH   2   3
HETATM    3  N   UNL     1      -4.114   4.356 -30.606  1.00  0.00    -0.063 N 
HETATM    4  H   UNL     1      -4.590   4.524 -29.710  1.00  0.00     0.278 HD
HETATM    5  H   UNL     1      -3.121   4.298 -30.342  1.00  0.00     0.278 HD
BRANCH   3   6
HETATM    6  C   UNL     1      -4.290   5.628 -31.428  1.00  0.00     0.221 C 
HETATM    7  C   UNL     1      -3.216   5.850 -32.470  1.00  0.00    -0.011 A 
HETATM    8  C   UNL     1      -2.470   7.040 -32.542  1.00  0.00     0.009 A 
HETATM    9  C   UNL     1      -2.969   4.849 -33.434  1.00  0.00     0.011 A 
HETATM   10  C   UNL     1      -1.442   7.169 -33.485  1.00  0.00     0.019 A 
HETATM   11  S   UNL     1      -2.792   8.435 -31.488  1.00  0.00    -0.129 SA
HETATM   12  C   UNL     1      -1.180   6.146 -34.395  1.00  0.00     0.001 A 
HETATM   13  C   UNL     1      -1.953   4.993 -34.380  1.00  0.00     0.001 A 
HETATM   14  C   UNL     1      -4.552   8.148 -31.177  1.00  0.00     0.082 C 
HETATM   15  C   UNL     1      -4.684   6.793 -30.507  1.00  0.00     0.048 C 
ENDBRANCH   3   6
ENDBRANCH   2   3
BRANCH   2  16
HETATM   16  C   UNL     1      -3.363   2.000 -31.222  1.00  0.00     0.135 C 
BRANCH  16  17
HETATM   17  C   UNL     1      -3.835   0.599 -31.560  1.00  0.00     0.224 C 
HETATM   18  N   UNL     1      -4.448   0.542 -32.796  1.00  0.00    -0.327 N 
HETATM   19  H   UNL     1      -4.495   1.397 -33.338  1.00  0.00     0.169 HD
HETATM   20  O   UNL     1      -3.689  -0.315 -30.756  1.00  0.00    -0.273 OA
BRANCH  18  21
HETATM   21  C   UNL     1      -5.010  -0.590 -33.429  1.00  0.00     0.037 A 
HETATM   22  C   UNL     1      -4.297  -1.756 -33.730  1.00  0.00     0.066 A 
HETATM   23  C   UNL     1      -4.933  -2.831 -34.363  1.00  0.00     0.070 A 
HETATM   24  C   UNL     1      -6.283  -2.732 -34.700  1.00  0.00     0.037 A 
HETATM   25  C   UNL     1      -7.003  -1.578 -34.401  1.00  0.00     0.005 A 
HETATM   26  C   UNL     1      -6.368  -0.513 -33.765  1.00  0.00     0.029 A 
BRANCH  23  27
HETATM   27  O   UNL     1      -4.351  -4.020 -34.707  1.00  0.00    -0.356 OA
HETATM   28  C   UNL     1      -3.772  -4.788 -33.661  1.00  0.00     0.210 C 
ENDBRANCH  23  27
ENDBRANCH  18  21
ENDBRANCH  16  17
ENDBRANCH   2  16
TORSDOF 6
ENDMDL
MODEL 7
REMARK VINA RESULT:      -7.8      3.929      8.348
REMARK  6 active torsions:
REMARK  status: ('A' for Active; 'I' for Inactive)
REMARK    1  A    between atoms: C_2  and  N_3 
REMARK    2  A    between atoms: C_2  and  C_16 
REMARK    3  A    between atoms: N_3  and  C_6 
REMARK    4  A    between atoms: C_16  and  C_17 
REMARK       I    between atoms: C_17  and  N_18 
REMARK    5  A    between atoms: N_18  and  C_19 
REMARK    6  A    between atoms: C_21  and  O_22 
ROOT
HETATM    1  C   UNL     1      -7.604   0.310 -35.398  1.00  0.00     0.040 C 
HETATM    2  C   UNL     1      -8.183  -0.215 -34.085  1.00  0.00     0.191 C 
ENDROOT
BRANCH   2   3
HETATM    3  N   UNL     1      -7.084  -0.786 -33.195  1.00  0.00    -0.063 N 
HETATM    4  H   UNL     1      -7.144  -0.267 -32.309  1.00  0.00     0.278 HD
HETATM    5  H   UNL     1      -7.373  -1.740 -32.935  1.00  0.00     0.278 HD
BRANCH   3   6
HETATM    6  C   UNL     1      -5.603  -0.847 -33.556  1.00  0.00     0.221 C 
HETATM    7  C   UNL     1      -5.057  -2.248 -33.717  1.00  0.00    -0.011 A 
HETATM    8  C   UNL     1      -3.930  -2.704 -33.012  1.00  0.00     0.009 A 
HETATM    9  C   UNL     1      -5.671  -3.128 -34.635  1.00  0.00     0.011 A 
HETATM   10  C   UNL     1      -3.505  -4.031 -33.148  1.00  0.00     0.019 A 
HETATM   11  S   UNL     1      -2.976  -1.646 -31.947  1.00  0.00    -0.129 SA
HETATM   12  C   UNL     1      -4.157  -4.901 -34.021  1.00  0.00     0.001 A 
HETATM   13  C   UNL     1      -5.229  -4.445 -34.776  1.00  0.00     0.001 A 
HETATM   14  C   UNL     1      -3.319  -0.061 -32.752  1.00  0.00     0.082 C 
HETATM   15  C   UNL     1      -4.819   0.163 -32.704  1.00  0.00     0.048 C 
ENDBRANCH   3   6
ENDBRANCH   2   3
BRANCH   2  16
HETATM   16  C   UNL     1      -9.066   0.807 -33.368  1.00  0.00     0.135 C 
BRANCH  16  17
HETATM   17  C   UNL     1      -8.411   1.306 -32.094  1.00  0.00     0.224 C 
HETATM   18  N   UNL     1      -7.871   2.568 -32.248  1.00  0.00    -0.327 N 
HETATM   19  H   UNL     1      -7.984   3.022 -33.147  1.00  0.00     0.169 HD
HETATM   20  O   UNL     1      -8.372   0.593 -31.098  1.00  0.00    -0.273 OA
BRANCH  18  21
HETATM   21  C   UNL     1      -7.186   3.337 -31.280  1.00  0.00     0.037 A 
HETATM   22  C   UNL     1      -7.799   3.934 -30.173  1.00  0.00     0.066 A 
HETATM   23  C   UNL     1      -7.044   4.683 -29.264  1.00  0.00     0.070 A 
HETATM   24  C   UNL     1      -5.673   4.839 -29.471  1.00  0.00     0.037 A 
HETATM   25  C   UNL     1      -5.052   4.247 -30.566  1.00  0.00     0.005 A 
HETATM   26  C   UNL     1      -5.806   3.496 -31.466  1.00  0.00     0.029 A 
BRANCH  23  27
HETATM   27  O   UNL     1      -7.522   5.312 -28.147  1.00  0.00    -0.356 OA
HETATM   28  C   UNL     1      -8.275   6.501 -28.341  1.00  0.00     0.210 C 
ENDBRANCH  23  27
ENDBRANCH  18  21
ENDBRANCH  16  17
ENDBRANCH   2  16
TORSDOF 6
ENDMDL
MODEL 8
REMARK VINA RESULT:      -7.8      3.284      8.314
REMARK  6 active torsions:
REMARK  status: ('A' for Active; 'I' for Inactive)
REMARK    1  A    between atoms: C_2  and  N_3 
REMARK    2  A    between atoms: C_2  and  C_16 
REMARK    3  A    between atoms: N_3  and  C_6 
REMARK    4  A    between atoms: C_16  and  C_17 
REMARK       I    between atoms: C_17  and  N_18 
REMARK    5  A    between atoms: N_18  and  C_19 
REMARK    6  A    between atoms: C_21  and  O_22 
ROOT
HETATM    1  C   UNL     1      -5.834   3.360 -29.898  1.00  0.00     0.040 C 
HETATM    2  C   UNL     1      -5.511   2.005 -30.526  1.00  0.00     0.191 C 
ENDROOT
BRANCH   2   3
HETATM    3  N   UNL     1      -6.684   1.042 -30.374  1.00  0.00    -0.063 N 
HETATM    4  H   UNL     1      -6.269   0.102 -30.330  1.00  0.00     0.278 HD
HETATM    5  H   UNL     1      -7.065   1.180 -29.427  1.00  0.00     0.278 HD
BRANCH   3   6
HETATM    6  C   UNL     1      -7.870   0.942 -31.328  1.00  0.00     0.221 C 
HETATM    7  C   UNL     1      -7.524   0.401 -32.697  1.00  0.00    -0.011 A 
HETATM    8  C   UNL     1      -7.845   1.086 -33.881  1.00  0.00     0.009 A 
HETATM    9  C   UNL     1      -6.890  -0.856 -32.805  1.00  0.00     0.011 A 
HETATM   10  C   UNL     1      -7.445   0.572 -35.122  1.00  0.00     0.019 A 
HETATM   11  S   UNL     1      -8.781   2.599 -33.887  1.00  0.00    -0.129 SA
HETATM   12  C   UNL     1      -6.773  -0.646 -35.203  1.00  0.00     0.001 A 
HETATM   13  C   UNL     1      -6.509  -1.368 -34.046  1.00  0.00     0.001 A 
HETATM   14  C   UNL     1      -9.723   2.347 -32.362  1.00  0.00     0.082 C 
HETATM   15  C   UNL     1      -8.728   2.212 -31.225  1.00  0.00     0.048 C 
ENDBRANCH   3   6
ENDBRANCH   2   3
BRANCH   2  16
HETATM   16  C   UNL     1      -5.008   2.115 -31.966  1.00  0.00     0.135 C 
BRANCH  16  17
HETATM   17  C   UNL     1      -3.776   2.996 -32.056  1.00  0.00     0.224 C 
HETATM   18  N   UNL     1      -3.955   4.051 -32.928  1.00  0.00    -0.327 N 
HETATM   19  H   UNL     1      -4.858   4.141 -33.380  1.00  0.00     0.169 HD
HETATM   20  O   UNL     1      -2.764   2.711 -31.425  1.00  0.00    -0.273 OA
BRANCH  18  21
HETATM   21  C   UNL     1      -3.025   5.062 -33.261  1.00  0.00     0.037 A 
HETATM   22  C   UNL     1      -2.980   6.320 -32.650  1.00  0.00     0.066 A 
HETATM   23  C   UNL     1      -2.026   7.265 -33.045  1.00  0.00     0.070 A 
HETATM   24  C   UNL     1      -1.123   6.950 -34.060  1.00  0.00     0.037 A 
HETATM   25  C   UNL     1      -1.157   5.701 -34.673  1.00  0.00     0.005 A 
HETATM   26  C   UNL     1      -2.103   4.759 -34.272  1.00  0.00     0.029 A 
BRANCH  23  27
HETATM   27  O   UNL     1      -1.877   8.522 -32.526  1.00  0.00    -0.356 OA
HETATM   28  C   UNL     1      -2.509   8.792 -31.282  1.00  0.00     0.210 C 
ENDBRANCH  23  27
ENDBRANCH  18  21
ENDBRANCH  16  17
ENDBRANCH   2  16
TORSDOF 6
ENDMDL
MODEL 9
REMARK VINA RESULT:      -7.6      4.333      7.281
REMARK  6 active torsions:
REMARK  status: ('A' for Active; 'I' for Inactive)
REMARK    1  A    between atoms: C_2  and  N_3 
REMARK    2  A    between atoms: C_2  and  C_16 
REMARK    3  A    between atoms: N_3  and  C_6 
REMARK    4  A    between atoms: C_16  and  C_17 
REMARK       I    between atoms: C_17  and  N_18 
REMARK    5  A    between atoms: N_18  and  C_19 
REMARK    6  A    between atoms: C_21  and  O_22 
ROOT
HETATM    1  C   UNL     1      -5.310   4.277 -29.884  1.00  0.00     0.040 C 
HETATM    2  C   UNL     1      -5.895   3.823 -31.220  1.00  0.00     0.191 C 
ENDROOT
BRANCH   2   3
HETATM    3  N   UNL     1      -5.881   2.301 -31.331  1.00  0.00    -0.063 N 
HETATM    4  H   UNL     1      -5.787   1.952 -30.368  1.00  0.00     0.278 HD
HETATM    5  H   UNL     1      -6.831   2.011 -31.600  1.00  0.00     0.278 HD
BRANCH   3   6
HETATM    6  C   UNL     1      -4.905   1.491 -32.177  1.00  0.00     0.221 C 
HETATM    7  C   UNL     1      -5.564   0.598 -33.205  1.00  0.00    -0.011 A 
HETATM    8  C   UNL     1      -5.301  -0.780 -33.286  1.00  0.00     0.009 A 
HETATM    9  C   UNL     1      -6.449   1.165 -34.149  1.00  0.00     0.011 A 
HETATM   10  C   UNL     1      -5.987  -1.574 -34.215  1.00  0.00     0.019 A 
HETATM   11  S   UNL     1      -4.091  -1.584 -32.261  1.00  0.00    -0.129 SA
HETATM   12  C   UNL     1      -6.897  -1.003 -35.103  1.00  0.00     0.001 A 
HETATM   13  C   UNL     1      -7.116   0.368 -35.081  1.00  0.00     0.001 A 
HETATM   14  C   UNL     1      -2.992  -0.175 -31.973  1.00  0.00     0.082 C 
HETATM   15  C   UNL     1      -3.802   0.906 -31.282  1.00  0.00     0.048 C 
ENDBRANCH   3   6
ENDBRANCH   2   3
BRANCH   2  16
HETATM   16  C   UNL     1      -7.266   4.433 -31.512  1.00  0.00     0.135 C 
BRANCH  16  17
HETATM   17  C   UNL     1      -8.365   3.391 -31.429  1.00  0.00     0.224 C 
HETATM   18  N   UNL     1      -8.976   3.182 -32.649  1.00  0.00    -0.327 N 
HETATM   19  H   UNL     1      -8.628   3.704 -33.446  1.00  0.00     0.169 HD
HETATM   20  O   UNL     1      -8.644   2.870 -30.355  1.00  0.00    -0.273 OA
BRANCH  18  21
HETATM   21  C   UNL     1     -10.035   2.293 -32.943  1.00  0.00     0.037 A 
HETATM   22  C   UNL     1     -11.318   2.699 -33.324  1.00  0.00     0.066 A 
HETATM   23  C   UNL     1     -12.311   1.750 -33.592  1.00  0.00     0.070 A 
HETATM   24  C   UNL     1     -12.016   0.391 -33.471  1.00  0.00     0.037 A 
HETATM   25  C   UNL     1     -10.742  -0.024 -33.096  1.00  0.00     0.005 A 
HETATM   26  C   UNL     1      -9.754   0.924 -32.835  1.00  0.00     0.029 A 
BRANCH  23  27
HETATM   27  O   UNL     1     -13.597   2.017 -33.974  1.00  0.00    -0.356 OA
HETATM   28  C   UNL     1     -14.586   1.046 -33.654  1.00  0.00     0.210 C 
ENDBRANCH  23  27
ENDBRANCH  18  21
ENDBRANCH  16  17
ENDBRANCH   2  16
TORSDOF 6
ENDMDL
MODEL 10
REMARK VINA RESULT:      -7.6     16.382     18.440
REMARK  6 active torsions:
REMARK  status: ('A' for Active; 'I' for Inactive)
REMARK    1  A    between atoms: C_2  and  N_3 
REMARK    2  A    between atoms: C_2  and  C_16 
REMARK    3  A    between atoms: N_3  and  C_6 
REMARK    4  A    between atoms: C_16  and  C_17 
REMARK       I    between atoms: C_17  and  N_18 
REMARK    5  A    between atoms: N_18  and  C_19 
REMARK    6  A    between atoms: C_21  and  O_22 
ROOT
HETATM    1  C   UNL     1      -7.534 -13.511 -36.652  1.00  0.00     0.040 C 
HETATM    2  C   UNL     1      -6.219 -13.521 -37.430  1.00  0.00     0.191 C 
ENDROOT
BRANCH   2   3
HETATM    3  N   UNL     1      -6.305 -12.615 -38.654  1.00  0.00    -0.063 N 
HETATM    4  H   UNL     1      -6.946 -11.854 -38.394  1.00  0.00     0.278 HD
HETATM    5  H   UNL     1      -5.394 -12.142 -38.742  1.00  0.00     0.278 HD
BRANCH   3   6
HETATM    6  C   UNL     1      -6.718 -13.063 -40.052  1.00  0.00     0.221 C 
HETATM    7  C   UNL     1      -8.208 -13.250 -40.232  1.00  0.00    -0.011 A 
HETATM    8  C   UNL     1      -8.765 -14.446 -40.716  1.00  0.00     0.009 A 
HETATM    9  C   UNL     1      -9.080 -12.177 -39.943  1.00  0.00     0.011 A 
HETATM   10  C   UNL     1     -10.156 -14.590 -40.802  1.00  0.00     0.019 A 
HETATM   11  S   UNL     1      -7.767 -15.812 -41.263  1.00  0.00    -0.129 SA
HETATM   12  C   UNL     1     -11.002 -13.536 -40.461  1.00  0.00     0.001 A 
HETATM   13  C   UNL     1     -10.464 -12.325 -40.047  1.00  0.00     0.001 A 
HETATM   14  C   UNL     1      -6.293 -14.892 -41.770  1.00  0.00     0.082 C 
HETATM   15  C   UNL     1      -5.766 -14.161 -40.549  1.00  0.00     0.048 C 
ENDBRANCH   3   6
ENDBRANCH   2   3
BRANCH   2  16
HETATM   16  C   UNL     1      -5.000 -13.232 -36.553  1.00  0.00     0.135 C 
BRANCH  16  17
HETATM   17  C   UNL     1      -3.760 -12.993 -37.391  1.00  0.00     0.224 C 
HETATM   18  N   UNL     1      -3.099 -14.169 -37.687  1.00  0.00    -0.327 N 
HETATM   19  H   UNL     1      -3.505 -15.035 -37.349  1.00  0.00     0.169 HD
HETATM   20  O   UNL     1      -3.428 -11.853 -37.697  1.00  0.00    -0.273 OA
BRANCH  18  21
HETATM   21  C   UNL     1      -1.912 -14.326 -38.438  1.00  0.00     0.037 A 
HETATM   22  C   UNL     1      -0.667 -14.643 -37.883  1.00  0.00     0.066 A 
HETATM   23  C   UNL     1       0.460 -14.776 -38.702  1.00  0.00     0.070 A 
HETATM   24  C   UNL     1       0.338 -14.584 -40.079  1.00  0.00     0.037 A 
HETATM   25  C   UNL     1      -0.896 -14.273 -40.642  1.00  0.00     0.005 A 
HETATM   26  C   UNL     1      -2.018 -14.147 -39.824  1.00  0.00     0.029 A 
BRANCH  23  27
HETATM   27  O   UNL     1       1.726 -15.084 -38.285  1.00  0.00    -0.356 OA
HETATM   28  C   UNL     1       1.850 -15.994 -37.200  1.00  0.00     0.210 C 
ENDBRANCH  23  27
ENDBRANCH  18  21
ENDBRANCH  16  17
ENDBRANCH   2  16
TORSDOF 6
ENDMDL
