MODEL 1
REMARK VINA RESULT:      -9.2      0.000      0.000
REMARK  6 active torsions:
REMARK  status: ('A' for Active; 'I' for Inactive)
REMARK    1  A    between atoms: O_2  and  C_3 
REMARK    2  A    between atoms: C_4  and  C_5 
REMARK    3  A    between atoms: N_7  and  C_8 
REMARK    4  A    between atoms: C_15  and  C_16 
REMARK       I    between atoms: C_16  and  N_17 
REMARK    5  A    between atoms: N_17  and  N_18 
REMARK       I    between atoms: N_18  and  C_19 
REMARK    6  A    between atoms: C_19  and  C_20 
ROOT
HETATM    1  C   UNL     1      -5.715   0.744 -32.511  1.00  0.00     0.107 A 
HETATM    2  N   UNL     1      -6.240  -0.278 -33.203  1.00  0.00    -0.166 NA
HETATM    3  N   UNL     1      -5.242  -1.171 -33.355  1.00  0.00    -0.244 N 
HETATM    4  C   UNL     1      -4.057  -0.682 -32.856  1.00  0.00     0.138 A 
HETATM    5  C   UNL     1      -4.317   0.555 -32.290  1.00  0.00     0.082 A 
ENDROOT
BRANCH   5   6
HETATM    6  C   UNL     1      -3.374   1.436 -31.612  1.00  0.00     0.274 C 
HETATM    7  N   UNL     1      -3.495   2.779 -31.919  1.00  0.00    -0.263 N 
HETATM    8  H   UNL     1      -4.233   3.167 -32.499  1.00  0.00     0.190 HD
HETATM    9  O   UNL     1      -2.533   1.044 -30.806  1.00  0.00    -0.266 OA
BRANCH   7  10
HETATM   10  N   UNL     1      -2.706   3.704 -31.223  1.00  0.00    -0.262 N 
HETATM   11  C   UNL     1      -1.913   4.571 -31.944  1.00  0.00     0.286 C 
HETATM   12  O   UNL     1      -1.840   4.505 -33.171  1.00  0.00    -0.264 OA
HETATM   13  H   UNL     1      -2.846   3.765 -30.218  1.00  0.00     0.190 HD
BRANCH  11  14
HETATM   14  C   UNL     1      -1.187   5.551 -31.169  1.00  0.00     0.102 A 
HETATM   15  N   UNL     1      -1.655   5.988 -29.946  1.00  0.00    -0.361 N 
HETATM   16  H   UNL     1      -2.516   5.659 -29.524  1.00  0.00     0.165 HD
HETATM   17  C   UNL     1      -0.801   6.912 -29.411  1.00  0.00     0.088 A 
HETATM   18  C   UNL     1       0.242   7.080 -30.290  1.00  0.00     0.019 A 
HETATM   19  C   UNL     1       0.002   6.227 -31.397  1.00  0.00     0.036 A 
ENDBRANCH  11  14
ENDBRANCH   7  10
ENDBRANCH   5   6
BRANCH   1  20
HETATM   20  C   UNL     1      -6.567   1.866 -32.118  1.00  0.00     0.029 A 
HETATM   21  C   UNL     1      -6.639   3.039 -32.888  1.00  0.00     0.080 A 
HETATM   22  C   UNL     1      -7.475   4.094 -32.505  1.00  0.00     0.037 A 
HETATM   23  C   UNL     1      -8.215   4.004 -31.327  1.00  0.00     0.003 A 
HETATM   24  C   UNL     1      -8.131   2.858 -30.540  1.00  0.00     0.001 A 
HETATM   25  C   UNL     1      -7.311   1.795 -30.932  1.00  0.00     0.017 A 
BRANCH  21  26
HETATM   26  O   UNL     1      -5.957   3.143 -34.075  1.00  0.00    -0.355 OA
HETATM   27  C   UNL     1      -5.474   4.476 -34.248  1.00  0.00     0.210 C 
ENDBRANCH  21  26
ENDBRANCH   1  20
BRANCH   3  28
HETATM   28  C   UNL     1      -5.482  -2.435 -33.966  1.00  0.00     0.058 A 
HETATM   29  C   UNL     1      -4.468  -3.407 -33.958  1.00  0.00     0.031 A 
HETATM   30  C   UNL     1      -4.673  -4.646 -34.566  1.00  0.00     0.002 A 
HETATM   31  C   UNL     1      -5.889  -4.928 -35.185  1.00  0.00     0.000 A 
HETATM   32  C   UNL     1      -6.902  -3.971 -35.195  1.00  0.00     0.002 A 
HETATM   33  C   UNL     1      -6.704  -2.726 -34.590  1.00  0.00     0.031 A 
ENDBRANCH   3  28
TORSDOF 6
ENDMDL
MODEL 2
REMARK VINA RESULT:      -9.2      0.913      1.665
REMARK  6 active torsions:
REMARK  status: ('A' for Active; 'I' for Inactive)
REMARK    1  A    between atoms: O_2  and  C_3 
REMARK    2  A    between atoms: C_4  and  C_5 
REMARK    3  A    between atoms: N_7  and  C_8 
REMARK    4  A    between atoms: C_15  and  C_16 
REMARK       I    between atoms: C_16  and  N_17 
REMARK    5  A    between atoms: N_17  and  N_18 
REMARK       I    between atoms: N_18  and  C_19 
REMARK    6  A    between atoms: C_19  and  C_20 
ROOT
HETATM    1  C   UNL     1      -5.512   0.998 -33.106  1.00  0.00     0.107 A 
HETATM    2  N   UNL     1      -6.006  -0.045 -33.789  1.00  0.00    -0.166 NA
HETATM    3  N   UNL     1      -5.139  -1.059 -33.590  1.00  0.00    -0.244 N 
HETATM    4  C   UNL     1      -4.044  -0.642 -32.870  1.00  0.00     0.138 A 
HETATM    5  C   UNL     1      -4.245   0.685 -32.526  1.00  0.00     0.082 A 
ENDROOT
BRANCH   5   6
HETATM    6  C   UNL     1      -3.367   1.539 -31.738  1.00  0.00     0.274 C 
HETATM    7  N   UNL     1      -3.361   2.874 -32.098  1.00  0.00    -0.263 N 
HETATM    8  H   UNL     1      -3.978   3.278 -32.797  1.00  0.00     0.190 HD
HETATM    9  O   UNL     1      -2.683   1.135 -30.800  1.00  0.00    -0.266 OA
BRANCH   7  10
HETATM   10  N   UNL     1      -2.635   3.782 -31.317  1.00  0.00    -0.262 N 
HETATM   11  C   UNL     1      -1.803   4.682 -31.949  1.00  0.00     0.286 C 
HETATM   12  O   UNL     1      -1.643   4.660 -33.170  1.00  0.00    -0.264 OA
HETATM   13  H   UNL     1      -2.846   3.806 -30.323  1.00  0.00     0.190 HD
BRANCH  11  14
HETATM   14  C   UNL     1      -1.146   5.641 -31.091  1.00  0.00     0.102 A 
HETATM   15  N   UNL     1      -1.746   6.096 -29.934  1.00  0.00    -0.361 N 
HETATM   16  H   UNL     1      -2.661   5.796 -29.620  1.00  0.00     0.165 HD
HETATM   17  C   UNL     1      -0.933   6.994 -29.299  1.00  0.00     0.088 A 
HETATM   18  C   UNL     1       0.213   7.127 -30.045  1.00  0.00     0.019 A 
HETATM   19  C   UNL     1       0.082   6.279 -31.173  1.00  0.00     0.036 A 
ENDBRANCH  11  14
ENDBRANCH   7  10
ENDBRANCH   5   6
BRANCH   1  20
HETATM   20  C   UNL     1      -6.260   2.255 -33.061  1.00  0.00     0.029 A 
HETATM   21  C   UNL     1      -7.308   2.453 -32.147  1.00  0.00     0.080 A 
HETATM   22  C   UNL     1      -7.999   3.669 -32.107  1.00  0.00     0.037 A 
HETATM   23  C   UNL     1      -7.676   4.684 -33.006  1.00  0.00     0.003 A 
HETATM   24  C   UNL     1      -6.658   4.489 -33.936  1.00  0.00     0.001 A 
HETATM   25  C   UNL     1      -5.953   3.282 -33.965  1.00  0.00     0.017 A 
BRANCH  21  26
HETATM   26  O   UNL     1      -7.622   1.491 -31.219  1.00  0.00    -0.355 OA
HETATM   27  C   UNL     1      -8.850   0.852 -31.572  1.00  0.00     0.210 C 
ENDBRANCH  21  26
ENDBRANCH   1  20
BRANCH   3  28
HETATM   28  C   UNL     1      -5.412  -2.361 -34.099  1.00  0.00     0.058 A 
HETATM   29  C   UNL     1      -4.398  -3.333 -34.080  1.00  0.00     0.031 A 
HETATM   30  C   UNL     1      -4.636  -4.610 -34.589  1.00  0.00     0.002 A 
HETATM   31  C   UNL     1      -5.884  -4.930 -35.118  1.00  0.00     0.000 A 
HETATM   32  C   UNL     1      -6.898  -3.973 -35.138  1.00  0.00     0.002 A 
HETATM   33  C   UNL     1      -6.667  -2.690 -34.632  1.00  0.00     0.031 A 
ENDBRANCH   3  28
TORSDOF 6
ENDMDL
MODEL 3
REMARK VINA RESULT:      -9.0      3.710      6.103
REMARK  6 active torsions:
REMARK  status: ('A' for Active; 'I' for Inactive)
REMARK    1  A    between atoms: O_2  and  C_3 
REMARK    2  A    between atoms: C_4  and  C_5 
REMARK    3  A    between atoms: N_7  and  C_8 
REMARK    4  A    between atoms: C_15  and  C_16 
REMARK       I    between atoms: C_16  and  N_17 
REMARK    5  A    between atoms: N_17  and  N_18 
REMARK       I    between atoms: N_18  and  C_19 
REMARK    6  A    between atoms: C_19  and  C_20 
ROOT
HETATM    1  C   UNL     1      -8.943   1.198 -33.565  1.00  0.00     0.107 A 
HETATM    2  N   UNL     1     -10.208   0.756 -33.514  1.00  0.00    -0.166 NA
HETATM    3  N   UNL     1     -10.982   1.857 -33.447  1.00  0.00    -0.244 N 
HETATM    4  C   UNL     1     -10.217   2.997 -33.350  1.00  0.00     0.138 A 
HETATM    5  C   UNL     1      -8.886   2.619 -33.432  1.00  0.00     0.082 A 
ENDROOT
BRANCH   5   6
HETATM    6  C   UNL     1      -7.715   3.486 -33.406  1.00  0.00     0.274 C 
HETATM    7  N   UNL     1      -6.792   3.204 -32.416  1.00  0.00    -0.263 N 
HETATM    8  H   UNL     1      -6.851   2.402 -31.795  1.00  0.00     0.190 HD
HETATM    9  O   UNL     1      -7.525   4.400 -34.206  1.00  0.00    -0.266 OA
BRANCH   7  10
HETATM   10  N   UNL     1      -5.585   3.913 -32.397  1.00  0.00    -0.262 N 
HETATM   11  C   UNL     1      -4.401   3.205 -32.417  1.00  0.00     0.286 C 
HETATM   12  O   UNL     1      -4.388   1.974 -32.391  1.00  0.00    -0.264 OA
HETATM   13  H   UNL     1      -5.642   4.924 -32.483  1.00  0.00     0.190 HD
BRANCH  11  14
HETATM   14  C   UNL     1      -3.195   3.999 -32.476  1.00  0.00     0.102 A 
HETATM   15  N   UNL     1      -2.475   4.294 -31.336  1.00  0.00    -0.361 N 
HETATM   16  H   UNL     1      -2.739   3.982 -30.408  1.00  0.00     0.165 HD
HETATM   17  C   UNL     1      -1.382   5.056 -31.646  1.00  0.00     0.088 A 
HETATM   18  C   UNL     1      -1.383   5.259 -33.006  1.00  0.00     0.019 A 
HETATM   19  C   UNL     1      -2.522   4.597 -33.530  1.00  0.00     0.036 A 
ENDBRANCH  11  14
ENDBRANCH   7  10
ENDBRANCH   5   6
BRANCH   1  20
HETATM   20  C   UNL     1      -7.846   0.242 -33.711  1.00  0.00     0.029 A 
HETATM   21  C   UNL     1      -7.065  -0.154 -32.612  1.00  0.00     0.080 A 
HETATM   22  C   UNL     1      -6.032  -1.084 -32.769  1.00  0.00     0.037 A 
HETATM   23  C   UNL     1      -5.743  -1.598 -34.032  1.00  0.00     0.003 A 
HETATM   24  C   UNL     1      -6.492  -1.193 -35.135  1.00  0.00     0.001 A 
HETATM   25  C   UNL     1      -7.537  -0.277 -34.977  1.00  0.00     0.017 A 
BRANCH  21  26
HETATM   26  O   UNL     1      -7.351   0.299 -31.348  1.00  0.00    -0.355 OA
HETATM   27  C   UNL     1      -6.329  -0.110 -30.437  1.00  0.00     0.210 C 
ENDBRANCH  21  26
ENDBRANCH   1  20
BRANCH   3  28
HETATM   28  C   UNL     1     -12.402   1.754 -33.479  1.00  0.00     0.058 A 
HETATM   29  C   UNL     1     -13.175   2.656 -32.730  1.00  0.00     0.031 A 
HETATM   30  C   UNL     1     -14.567   2.564 -32.732  1.00  0.00     0.002 A 
HETATM   31  C   UNL     1     -15.200   1.574 -33.481  1.00  0.00     0.000 A 
HETATM   32  C   UNL     1     -14.442   0.676 -34.230  1.00  0.00     0.002 A 
HETATM   33  C   UNL     1     -13.046   0.761 -34.232  1.00  0.00     0.031 A 
ENDBRANCH   3  28
TORSDOF 6
ENDMDL
MODEL 4
REMARK VINA RESULT:      -8.9      3.788      7.441
REMARK  6 active torsions:
REMARK  status: ('A' for Active; 'I' for Inactive)
REMARK    1  A    between atoms: O_2  and  C_3 
REMARK    2  A    between atoms: C_4  and  C_5 
REMARK    3  A    between atoms: N_7  and  C_8 
REMARK    4  A    between atoms: C_15  and  C_16 
REMARK       I    between atoms: C_16  and  N_17 
REMARK    5  A    between atoms: N_17  and  N_18 
REMARK       I    between atoms: N_18  and  C_19 
REMARK    6  A    between atoms: C_19  and  C_20 
ROOT
HETATM    1  C   UNL     1      -6.472   1.141 -33.236  1.00  0.00     0.107 A 
HETATM    2  N   UNL     1      -5.695   0.111 -33.604  1.00  0.00    -0.166 NA
HETATM    3  N   UNL     1      -6.501  -0.968 -33.629  1.00  0.00    -0.244 N 
HETATM    4  C   UNL     1      -7.764  -0.656 -33.181  1.00  0.00     0.138 A 
HETATM    5  C   UNL     1      -7.795   0.705 -32.923  1.00  0.00     0.082 A 
ENDROOT
BRANCH   5   6
HETATM    6  C   UNL     1      -8.929   1.493 -32.459  1.00  0.00     0.274 C 
HETATM    7  N   UNL     1     -10.039   1.475 -33.283  1.00  0.00    -0.263 N 
HETATM    8  H   UNL     1     -10.124   0.892 -34.111  1.00  0.00     0.190 HD
HETATM    9  O   UNL     1      -8.935   2.126 -31.405  1.00  0.00    -0.266 OA
BRANCH   7  10
HETATM   10  N   UNL     1     -11.211   2.110 -32.853  1.00  0.00    -0.262 N 
HETATM   11  C   UNL     1     -12.410   1.746 -33.428  1.00  0.00     0.286 C 
HETATM   12  O   UNL     1     -12.460   0.926 -34.345  1.00  0.00    -0.264 OA
HETATM   13  H   UNL     1     -11.131   2.731 -32.052  1.00  0.00     0.190 HD
BRANCH  11  14
HETATM   14  C   UNL     1     -13.588   2.381 -32.883  1.00  0.00     0.102 A 
HETATM   15  N   UNL     1     -14.641   1.637 -32.391  1.00  0.00    -0.361 N 
HETATM   16  H   UNL     1     -14.657   0.624 -32.380  1.00  0.00     0.165 HD
HETATM   17  C   UNL     1     -15.634   2.460 -31.935  1.00  0.00     0.088 A 
HETATM   18  C   UNL     1     -15.226   3.759 -32.128  1.00  0.00     0.019 A 
HETATM   19  C   UNL     1     -13.940   3.713 -32.724  1.00  0.00     0.036 A 
ENDBRANCH  11  14
ENDBRANCH   7  10
ENDBRANCH   5   6
BRANCH   1  20
HETATM   20  C   UNL     1      -5.908   2.489 -33.176  1.00  0.00     0.029 A 
HETATM   21  C   UNL     1      -5.100   2.900 -32.102  1.00  0.00     0.080 A 
HETATM   22  C   UNL     1      -4.554   4.188 -32.072  1.00  0.00     0.037 A 
HETATM   23  C   UNL     1      -4.842   5.091 -33.094  1.00  0.00     0.003 A 
HETATM   24  C   UNL     1      -5.664   4.705 -34.150  1.00  0.00     0.001 A 
HETATM   25  C   UNL     1      -6.196   3.412 -34.191  1.00  0.00     0.017 A 
BRANCH  21  26
HETATM   26  O   UNL     1      -4.761   2.022 -31.102  1.00  0.00    -0.355 OA
HETATM   27  C   UNL     1      -3.389   1.641 -31.229  1.00  0.00     0.210 C 
ENDBRANCH  21  26
ENDBRANCH   1  20
BRANCH   3  28
HETATM   28  C   UNL     1      -6.016  -2.230 -34.079  1.00  0.00     0.058 A 
HETATM   29  C   UNL     1      -6.915  -3.151 -34.643  1.00  0.00     0.031 A 
HETATM   30  C   UNL     1      -6.467  -4.400 -35.075  1.00  0.00     0.002 A 
HETATM   31  C   UNL     1      -5.122  -4.740 -34.950  1.00  0.00     0.000 A 
HETATM   32  C   UNL     1      -4.222  -3.832 -34.394  1.00  0.00     0.002 A 
HETATM   33  C   UNL     1      -4.663  -2.579 -33.958  1.00  0.00     0.031 A 
ENDBRANCH   3  28
TORSDOF 6
ENDMDL
MODEL 5
REMARK VINA RESULT:      -8.7      3.629      8.763
REMARK  6 active torsions:
REMARK  status: ('A' for Active; 'I' for Inactive)
REMARK    1  A    between atoms: O_2  and  C_3 
REMARK    2  A    between atoms: C_4  and  C_5 
REMARK    3  A    between atoms: N_7  and  C_8 
REMARK    4  A    between atoms: C_15  and  C_16 
REMARK       I    between atoms: C_16  and  N_17 
REMARK    5  A    between atoms: N_17  and  N_18 
REMARK       I    between atoms: N_18  and  C_19 
REMARK    6  A    between atoms: C_19  and  C_20 
ROOT
HETATM    1  C   UNL     1      -5.711   1.312 -32.653  1.00  0.00     0.107 A 
HETATM    2  N   UNL     1      -4.606   2.070 -32.583  1.00  0.00    -0.166 NA
HETATM    3  N   UNL     1      -4.959   3.171 -31.889  1.00  0.00    -0.244 N 
HETATM    4  C   UNL     1      -6.305   3.170 -31.605  1.00  0.00     0.138 A 
HETATM    5  C   UNL     1      -6.833   1.978 -32.074  1.00  0.00     0.082 A 
ENDROOT
BRANCH   5   6
HETATM    6  C   UNL     1      -8.213   1.520 -31.972  1.00  0.00     0.274 C 
HETATM    7  N   UNL     1      -9.153   2.334 -32.577  1.00  0.00    -0.263 N 
HETATM    8  H   UNL     1      -8.923   3.151 -33.136  1.00  0.00     0.190 HD
HETATM    9  O   UNL     1      -8.546   0.478 -31.413  1.00  0.00    -0.266 OA
BRANCH   7  10
HETATM   10  N   UNL     1     -10.485   1.906 -32.627  1.00  0.00    -0.262 N 
HETATM   11  C   UNL     1     -11.274   2.322 -33.679  1.00  0.00     0.286 C 
HETATM   12  O   UNL     1     -10.850   3.103 -34.530  1.00  0.00    -0.264 OA
HETATM   13  H   UNL     1     -10.773   1.214 -31.941  1.00  0.00     0.190 HD
BRANCH  11  14
HETATM   14  C   UNL     1     -12.613   1.780 -33.713  1.00  0.00     0.102 A 
HETATM   15  N   UNL     1     -13.534   2.081 -32.729  1.00  0.00    -0.361 N 
HETATM   16  H   UNL     1     -13.335   2.686 -31.940  1.00  0.00     0.165 HD
HETATM   17  C   UNL     1     -14.721   1.451 -32.979  1.00  0.00     0.088 A 
HETATM   18  C   UNL     1     -14.579   0.729 -34.140  1.00  0.00     0.019 A 
HETATM   19  C   UNL     1     -13.255   0.933 -34.604  1.00  0.00     0.036 A 
ENDBRANCH  11  14
ENDBRANCH   7  10
ENDBRANCH   5   6
BRANCH   1  20
HETATM   20  C   UNL     1      -5.649  -0.001 -33.294  1.00  0.00     0.029 A 
HETATM   21  C   UNL     1      -4.803  -1.014 -32.812  1.00  0.00     0.080 A 
HETATM   22  C   UNL     1      -4.772  -2.271 -33.427  1.00  0.00     0.037 A 
HETATM   23  C   UNL     1      -5.556  -2.514 -34.553  1.00  0.00     0.003 A 
HETATM   24  C   UNL     1      -6.378  -1.510 -35.058  1.00  0.00     0.001 A 
HETATM   25  C   UNL     1      -6.425  -0.260 -34.433  1.00  0.00     0.017 A 
BRANCH  21  26
HETATM   26  O   UNL     1      -4.052  -0.822 -31.679  1.00  0.00    -0.355 OA
HETATM   27  C   UNL     1      -2.688  -1.166 -31.931  1.00  0.00     0.210 C 
ENDBRANCH  21  26
ENDBRANCH   1  20
BRANCH   3  28
HETATM   28  C   UNL     1      -3.989   4.155 -31.541  1.00  0.00     0.058 A 
HETATM   29  C   UNL     1      -2.654   3.975 -31.939  1.00  0.00     0.031 A 
HETATM   30  C   UNL     1      -1.682   4.916 -31.594  1.00  0.00     0.002 A 
HETATM   31  C   UNL     1      -2.033   6.043 -30.854  1.00  0.00     0.000 A 
HETATM   32  C   UNL     1      -3.356   6.231 -30.458  1.00  0.00     0.002 A 
HETATM   33  C   UNL     1      -4.335   5.292 -30.797  1.00  0.00     0.031 A 
ENDBRANCH   3  28
TORSDOF 6
ENDMDL
MODEL 6
REMARK VINA RESULT:      -8.6      1.666      2.458
REMARK  6 active torsions:
REMARK  status: ('A' for Active; 'I' for Inactive)
REMARK    1  A    between atoms: O_2  and  C_3 
REMARK    2  A    between atoms: C_4  and  C_5 
REMARK    3  A    between atoms: N_7  and  C_8 
REMARK    4  A    between atoms: C_15  and  C_16 
REMARK       I    between atoms: C_16  and  N_17 
REMARK    5  A    between atoms: N_17  and  N_18 
REMARK       I    between atoms: N_18  and  C_19 
REMARK    6  A    between atoms: C_19  and  C_20 
ROOT
HETATM    1  C   UNL     1      -7.225   1.063 -33.294  1.00  0.00     0.107 A 
HETATM    2  N   UNL     1      -7.298  -0.198 -33.746  1.00  0.00    -0.166 NA
HETATM    3  N   UNL     1      -6.035  -0.668 -33.732  1.00  0.00    -0.244 N 
HETATM    4  C   UNL     1      -5.143   0.315 -33.372  1.00  0.00     0.138 A 
HETATM    5  C   UNL     1      -5.870   1.455 -33.069  1.00  0.00     0.082 A 
ENDROOT
BRANCH   5   6
HETATM    6  C   UNL     1      -5.357   2.739 -32.611  1.00  0.00     0.274 C 
HETATM    7  N   UNL     1      -4.494   2.680 -31.533  1.00  0.00    -0.263 N 
HETATM    8  H   UNL     1      -4.151   1.815 -31.124  1.00  0.00     0.190 HD
HETATM    9  O   UNL     1      -5.638   3.813 -33.138  1.00  0.00    -0.266 OA
BRANCH   7  10
HETATM   10  N   UNL     1      -3.864   3.856 -31.106  1.00  0.00    -0.262 N 
HETATM   11  C   UNL     1      -2.691   4.239 -31.721  1.00  0.00     0.286 C 
HETATM   12  O   UNL     1      -2.161   3.540 -32.586  1.00  0.00    -0.264 OA
HETATM   13  H   UNL     1      -4.368   4.432 -30.437  1.00  0.00     0.190 HD
BRANCH  11  14
HETATM   14  C   UNL     1      -2.137   5.501 -31.289  1.00  0.00     0.102 A 
HETATM   15  N   UNL     1      -2.209   5.902 -29.969  1.00  0.00    -0.361 N 
HETATM   16  H   UNL     1      -2.644   5.351 -29.238  1.00  0.00     0.165 HD
HETATM   17  C   UNL     1      -1.621   7.126 -29.810  1.00  0.00     0.088 A 
HETATM   18  C   UNL     1      -1.155   7.532 -31.038  1.00  0.00     0.019 A 
HETATM   19  C   UNL     1      -1.478   6.514 -31.970  1.00  0.00     0.036 A 
ENDBRANCH  11  14
ENDBRANCH   7  10
ENDBRANCH   5   6
BRANCH   1  20
HETATM   20  C   UNL     1      -8.450   1.844 -33.123  1.00  0.00     0.029 A 
HETATM   21  C   UNL     1      -8.863   2.295 -31.858  1.00  0.00     0.080 A 
HETATM   22  C   UNL     1     -10.028   3.056 -31.717  1.00  0.00     0.037 A 
HETATM   23  C   UNL     1     -10.813   3.342 -32.834  1.00  0.00     0.003 A 
HETATM   24  C   UNL     1     -10.429   2.877 -34.090  1.00  0.00     0.001 A 
HETATM   25  C   UNL     1      -9.255   2.132 -34.235  1.00  0.00     0.017 A 
BRANCH  21  26
HETATM   26  O   UNL     1      -8.091   2.069 -30.746  1.00  0.00    -0.355 OA
HETATM   27  C   UNL     1      -7.924   3.283 -30.010  1.00  0.00     0.210 C 
ENDBRANCH  21  26
ENDBRANCH   1  20
BRANCH   3  28
HETATM   28  C   UNL     1      -5.759  -2.026 -34.062  1.00  0.00     0.058 A 
HETATM   29  C   UNL     1      -6.781  -2.824 -34.601  1.00  0.00     0.031 A 
HETATM   30  C   UNL     1      -6.539  -4.162 -34.916  1.00  0.00     0.002 A 
HETATM   31  C   UNL     1      -5.279  -4.714 -34.698  1.00  0.00     0.000 A 
HETATM   32  C   UNL     1      -4.258  -3.929 -34.165  1.00  0.00     0.002 A 
HETATM   33  C   UNL     1      -4.492  -2.588 -33.846  1.00  0.00     0.031 A 
ENDBRANCH   3  28
TORSDOF 6
ENDMDL
MODEL 7
REMARK VINA RESULT:      -8.5      3.824      8.854
REMARK  6 active torsions:
REMARK  status: ('A' for Active; 'I' for Inactive)
REMARK    1  A    between atoms: O_2  and  C_3 
REMARK    2  A    between atoms: C_4  and  C_5 
REMARK    3  A    between atoms: N_7  and  C_8 
REMARK    4  A    between atoms: C_15  and  C_16 
REMARK       I    between atoms: C_16  and  N_17 
REMARK    5  A    between atoms: N_17  and  N_18 
REMARK       I    between atoms: N_18  and  C_19 
REMARK    6  A    between atoms: C_19  and  C_20 
ROOT
HETATM    1  C   UNL     1      -6.164   2.881 -33.656  1.00  0.00     0.107 A 
HETATM    2  N   UNL     1      -4.916   3.351 -33.804  1.00  0.00    -0.166 NA
HETATM    3  N   UNL     1      -4.997   4.682 -33.609  1.00  0.00    -0.244 N 
HETATM    4  C   UNL     1      -6.302   5.080 -33.438  1.00  0.00     0.138 A 
HETATM    5  C   UNL     1      -7.095   3.945 -33.451  1.00  0.00     0.082 A 
ENDROOT
BRANCH   5   6
HETATM    6  C   UNL     1      -8.540   3.870 -33.276  1.00  0.00     0.274 C 
HETATM    7  N   UNL     1      -9.223   3.205 -34.278  1.00  0.00    -0.263 N 
HETATM    8  H   UNL     1      -8.773   2.715 -35.045  1.00  0.00     0.190 HD
HETATM    9  O   UNL     1      -9.135   4.338 -32.308  1.00  0.00    -0.266 OA
BRANCH   7  10
HETATM   10  N   UNL     1     -10.598   2.986 -34.127  1.00  0.00    -0.262 N 
HETATM   11  C   UNL     1     -11.039   1.705 -33.868  1.00  0.00     0.286 C 
HETATM   12  O   UNL     1     -10.260   0.753 -33.830  1.00  0.00    -0.264 OA
HETATM   13  H   UNL     1     -11.196   3.807 -34.103  1.00  0.00     0.190 HD
BRANCH  11  14
HETATM   14  C   UNL     1     -12.460   1.562 -33.645  1.00  0.00     0.102 A 
HETATM   15  N   UNL     1     -13.133   2.384 -32.762  1.00  0.00    -0.361 N 
HETATM   16  H   UNL     1     -12.686   3.121 -32.228  1.00  0.00     0.165 HD
HETATM   17  C   UNL     1     -14.459   2.054 -32.722  1.00  0.00     0.088 A 
HETATM   18  C   UNL     1     -14.660   1.006 -33.589  1.00  0.00     0.019 A 
HETATM   19  C   UNL     1     -13.405   0.694 -34.170  1.00  0.00     0.036 A 
ENDBRANCH  11  14
ENDBRANCH   7  10
ENDBRANCH   5   6
BRANCH   1  20
HETATM   20  C   UNL     1      -6.412   1.443 -33.741  1.00  0.00     0.029 A 
HETATM   21  C   UNL     1      -6.280   0.606 -32.620  1.00  0.00     0.080 A 
HETATM   22  C   UNL     1      -6.540  -0.765 -32.718  1.00  0.00     0.037 A 
HETATM   23  C   UNL     1      -6.898  -1.320 -33.946  1.00  0.00     0.003 A 
HETATM   24  C   UNL     1      -7.006  -0.506 -35.071  1.00  0.00     0.001 A 
HETATM   25  C   UNL     1      -6.764   0.867 -34.971  1.00  0.00     0.017 A 
BRANCH  21  26
HETATM   26  O   UNL     1      -5.973   1.127 -31.388  1.00  0.00    -0.355 OA
HETATM   27  C   UNL     1      -4.942   0.353 -30.771  1.00  0.00     0.210 C 
ENDBRANCH  21  26
ENDBRANCH   1  20
BRANCH   3  28
HETATM   28  C   UNL     1      -3.823   5.489 -33.597  1.00  0.00     0.058 A 
HETATM   29  C   UNL     1      -2.801   5.231 -34.525  1.00  0.00     0.031 A 
HETATM   30  C   UNL     1      -1.635   5.998 -34.521  1.00  0.00     0.002 A 
HETATM   31  C   UNL     1      -1.479   7.027 -33.596  1.00  0.00     0.000 A 
HETATM   32  C   UNL     1      -2.489   7.292 -32.672  1.00  0.00     0.002 A 
HETATM   33  C   UNL     1      -3.659   6.528 -32.668  1.00  0.00     0.031 A 
ENDBRANCH   3  28
TORSDOF 6
ENDMDL
MODEL 8
REMARK VINA RESULT:      -8.4      3.044      8.469
REMARK  6 active torsions:
REMARK  status: ('A' for Active; 'I' for Inactive)
REMARK    1  A    between atoms: O_2  and  C_3 
REMARK    2  A    between atoms: C_4  and  C_5 
REMARK    3  A    between atoms: N_7  and  C_8 
REMARK    4  A    between atoms: C_15  and  C_16 
REMARK       I    between atoms: C_16  and  N_17 
REMARK    5  A    between atoms: N_17  and  N_18 
REMARK       I    between atoms: N_18  and  C_19 
REMARK    6  A    between atoms: C_19  and  C_20 
ROOT
HETATM    1  C   UNL     1      -4.252   1.744 -32.627  1.00  0.00     0.107 A 
HETATM    2  N   UNL     1      -3.180   2.541 -32.740  1.00  0.00    -0.166 NA
HETATM    3  N   UNL     1      -3.647   3.802 -32.649  1.00  0.00    -0.244 N 
HETATM    4  C   UNL     1      -5.021   3.819 -32.581  1.00  0.00     0.138 A 
HETATM    5  C   UNL     1      -5.458   2.505 -32.554  1.00  0.00     0.082 A 
ENDROOT
BRANCH   5   6
HETATM    6  C   UNL     1      -6.832   2.029 -32.454  1.00  0.00     0.274 C 
HETATM    7  N   UNL     1      -7.575   2.122 -33.617  1.00  0.00    -0.263 N 
HETATM    8  H   UNL     1      -7.196   2.411 -34.514  1.00  0.00     0.190 HD
HETATM    9  O   UNL     1      -7.317   1.556 -31.429  1.00  0.00    -0.266 OA
BRANCH   7  10
HETATM   10  N   UNL     1      -8.865   1.578 -33.638  1.00  0.00    -0.262 N 
HETATM   11  C   UNL     1      -9.901   2.352 -34.118  1.00  0.00     0.286 C 
HETATM   12  O   UNL     1      -9.723   3.519 -34.467  1.00  0.00    -0.264 OA
HETATM   13  H   UNL     1      -8.955   0.594 -33.402  1.00  0.00     0.190 HD
BRANCH  11  14
HETATM   14  C   UNL     1     -11.191   1.703 -34.187  1.00  0.00     0.102 A 
HETATM   15  N   UNL     1     -11.546   0.716 -33.290  1.00  0.00    -0.361 N 
HETATM   16  H   UNL     1     -10.940   0.390 -32.545  1.00  0.00     0.165 HD
HETATM   17  C   UNL     1     -12.805   0.257 -33.560  1.00  0.00     0.088 A 
HETATM   18  C   UNL     1     -13.284   0.954 -34.644  1.00  0.00     0.019 A 
HETATM   19  C   UNL     1     -12.271   1.863 -35.042  1.00  0.00     0.036 A 
ENDBRANCH  11  14
ENDBRANCH   7  10
ENDBRANCH   5   6
BRANCH   1  20
HETATM   20  C   UNL     1      -4.077   0.291 -32.619  1.00  0.00     0.029 A 
HETATM   21  C   UNL     1      -4.821  -0.542 -33.471  1.00  0.00     0.080 A 
HETATM   22  C   UNL     1      -4.626  -1.928 -33.463  1.00  0.00     0.037 A 
HETATM   23  C   UNL     1      -3.715  -2.497 -32.575  1.00  0.00     0.003 A 
HETATM   24  C   UNL     1      -2.991  -1.684 -31.705  1.00  0.00     0.001 A 
HETATM   25  C   UNL     1      -3.171  -0.298 -31.726  1.00  0.00     0.017 A 
BRANCH  21  26
HETATM   26  O   UNL     1      -5.694  -0.010 -34.388  1.00  0.00    -0.355 OA
HETATM   27  C   UNL     1      -6.598  -1.017 -34.846  1.00  0.00     0.210 C 
ENDBRANCH  21  26
ENDBRANCH   1  20
BRANCH   3  28
HETATM   28  C   UNL     1      -2.753   4.911 -32.632  1.00  0.00     0.058 A 
HETATM   29  C   UNL     1      -1.666   4.906 -31.743  1.00  0.00     0.031 A 
HETATM   30  C   UNL     1      -0.787   5.989 -31.696  1.00  0.00     0.002 A 
HETATM   31  C   UNL     1      -0.983   7.084 -32.534  1.00  0.00     0.000 A 
HETATM   32  C   UNL     1      -2.058   7.097 -33.422  1.00  0.00     0.002 A 
HETATM   33  C   UNL     1      -2.943   6.017 -33.474  1.00  0.00     0.031 A 
ENDBRANCH   3  28
TORSDOF 6
ENDMDL
MODEL 9
REMARK VINA RESULT:      -8.3      3.785      7.168
REMARK  6 active torsions:
REMARK  status: ('A' for Active; 'I' for Inactive)
REMARK    1  A    between atoms: O_2  and  C_3 
REMARK    2  A    between atoms: C_4  and  C_5 
REMARK    3  A    between atoms: N_7  and  C_8 
REMARK    4  A    between atoms: C_15  and  C_16 
REMARK       I    between atoms: C_16  and  N_17 
REMARK    5  A    between atoms: N_17  and  N_18 
REMARK       I    between atoms: N_18  and  C_19 
REMARK    6  A    between atoms: C_19  and  C_20 
ROOT
HETATM    1  C   UNL     1      -6.762   1.179 -32.688  1.00  0.00     0.107 A 
HETATM    2  N   UNL     1      -6.030   0.065 -32.834  1.00  0.00    -0.166 NA
HETATM    3  N   UNL     1      -6.771  -0.766 -33.594  1.00  0.00    -0.244 N 
HETATM    4  C   UNL     1      -8.012  -0.232 -33.849  1.00  0.00     0.138 A 
HETATM    5  C   UNL     1      -8.050   1.034 -33.288  1.00  0.00     0.082 A 
ENDROOT
BRANCH   5   6
HETATM    6  C   UNL     1      -9.149   1.990 -33.329  1.00  0.00     0.274 C 
HETATM    7  N   UNL     1     -10.193   1.727 -32.461  1.00  0.00    -0.263 N 
HETATM    8  H   UNL     1     -10.185   0.983 -31.769  1.00  0.00     0.190 HD
HETATM    9  O   UNL     1      -9.167   2.979 -34.059  1.00  0.00    -0.266 OA
BRANCH   7  10
HETATM   10  N   UNL     1     -11.232   2.659 -32.353  1.00  0.00    -0.262 N 
HETATM   11  C   UNL     1     -12.454   2.356 -32.917  1.00  0.00     0.286 C 
HETATM   12  O   UNL     1     -12.626   1.319 -33.559  1.00  0.00    -0.264 OA
HETATM   13  H   UNL     1     -11.066   3.470 -31.763  1.00  0.00     0.190 HD
BRANCH  11  14
HETATM   14  C   UNL     1     -13.504   3.325 -32.701  1.00  0.00     0.102 A 
HETATM   15  N   UNL     1     -13.553   4.503 -33.420  1.00  0.00    -0.361 N 
HETATM   16  H   UNL     1     -12.873   4.757 -34.128  1.00  0.00     0.165 HD
HETATM   17  C   UNL     1     -14.631   5.251 -33.036  1.00  0.00     0.088 A 
HETATM   18  C   UNL     1     -15.298   4.556 -32.056  1.00  0.00     0.019 A 
HETATM   19  C   UNL     1     -14.592   3.346 -31.842  1.00  0.00     0.036 A 
ENDBRANCH  11  14
ENDBRANCH   7  10
ENDBRANCH   5   6
BRANCH   1  20
HETATM   20  C   UNL     1      -6.208   2.321 -31.960  1.00  0.00     0.029 A 
HETATM   21  C   UNL     1      -5.668   3.429 -32.634  1.00  0.00     0.080 A 
HETATM   22  C   UNL     1      -5.160   4.520 -31.920  1.00  0.00     0.037 A 
HETATM   23  C   UNL     1      -5.151   4.497 -30.526  1.00  0.00     0.003 A 
HETATM   24  C   UNL     1      -5.658   3.392 -29.847  1.00  0.00     0.001 A 
HETATM   25  C   UNL     1      -6.183   2.309 -30.558  1.00  0.00     0.017 A 
BRANCH  21  26
HETATM   26  O   UNL     1      -5.702   3.503 -34.004  1.00  0.00    -0.355 OA
HETATM   27  C   UNL     1      -5.077   4.710 -34.446  1.00  0.00     0.210 C 
ENDBRANCH  21  26
ENDBRANCH   1  20
BRANCH   3  28
HETATM   28  C   UNL     1      -6.247  -2.017 -34.029  1.00  0.00     0.058 A 
HETATM   29  C   UNL     1      -7.127  -3.004 -34.503  1.00  0.00     0.031 A 
HETATM   30  C   UNL     1      -6.639  -4.244 -34.919  1.00  0.00     0.002 A 
HETATM   31  C   UNL     1      -5.273  -4.510 -34.867  1.00  0.00     0.000 A 
HETATM   32  C   UNL     1      -4.392  -3.536 -34.400  1.00  0.00     0.002 A 
HETATM   33  C   UNL     1      -4.872  -2.292 -33.981  1.00  0.00     0.031 A 
ENDBRANCH   3  28
TORSDOF 6
ENDMDL
MODEL 10
REMARK VINA RESULT:      -8.3      3.676      6.549
REMARK  6 active torsions:
REMARK  status: ('A' for Active; 'I' for Inactive)
REMARK    1  A    between atoms: O_2  and  C_3 
REMARK    2  A    between atoms: C_4  and  C_5 
REMARK    3  A    between atoms: N_7  and  C_8 
REMARK    4  A    between atoms: C_15  and  C_16 
REMARK       I    between atoms: C_16  and  N_17 
REMARK    5  A    between atoms: N_17  and  N_18 
REMARK       I    between atoms: N_18  and  C_19 
REMARK    6  A    between atoms: C_19  and  C_20 
ROOT
HETATM    1  C   UNL     1      -7.009   1.137 -32.552  1.00  0.00     0.107 A 
HETATM    2  N   UNL     1      -6.241   0.042 -32.651  1.00  0.00    -0.166 NA
HETATM    3  N   UNL     1      -6.851  -0.757 -33.549  1.00  0.00    -0.244 N 
HETATM    4  C   UNL     1      -8.056  -0.226 -33.948  1.00  0.00     0.138 A 
HETATM    5  C   UNL     1      -8.197   1.008 -33.334  1.00  0.00     0.082 A 
ENDROOT
BRANCH   5   6
HETATM    6  C   UNL     1      -9.299   1.950 -33.479  1.00  0.00     0.274 C 
HETATM    7  N   UNL     1      -9.442   2.503 -34.738  1.00  0.00    -0.263 N 
HETATM    8  H   UNL     1      -8.894   2.227 -35.547  1.00  0.00     0.190 HD
HETATM    9  O   UNL     1     -10.074   2.238 -32.570  1.00  0.00    -0.266 OA
BRANCH   7  10
HETATM   10  N   UNL     1     -10.546   3.326 -34.992  1.00  0.00    -0.262 N 
HETATM   11  C   UNL     1     -10.350   4.689 -35.077  1.00  0.00     0.286 C 
HETATM   12  O   UNL     1      -9.245   5.192 -34.874  1.00  0.00    -0.264 OA
HETATM   13  H   UNL     1     -11.424   2.865 -35.216  1.00  0.00     0.190 HD
BRANCH  11  14
HETATM   14  C   UNL     1     -11.515   5.472 -35.420  1.00  0.00     0.102 A 
HETATM   15  N   UNL     1     -11.428   6.834 -35.625  1.00  0.00    -0.361 N 
HETATM   16  H   UNL     1     -10.565   7.360 -35.549  1.00  0.00     0.165 HD
HETATM   17  C   UNL     1     -12.657   7.349 -35.934  1.00  0.00     0.088 A 
HETATM   18  C   UNL     1     -13.560   6.312 -35.934  1.00  0.00     0.019 A 
HETATM   19  C   UNL     1     -12.845   5.131 -35.611  1.00  0.00     0.036 A 
ENDBRANCH  11  14
ENDBRANCH   7  10
ENDBRANCH   5   6
BRANCH   1  20
HETATM   20  C   UNL     1      -6.585   2.244 -31.695  1.00  0.00     0.029 A 
HETATM   21  C   UNL     1      -5.658   3.203 -32.139  1.00  0.00     0.080 A 
HETATM   22  C   UNL     1      -5.280   4.266 -31.311  1.00  0.00     0.037 A 
HETATM   23  C   UNL     1      -5.793   4.359 -30.018  1.00  0.00     0.003 A 
HETATM   24  C   UNL     1      -6.691   3.400 -29.557  1.00  0.00     0.001 A 
HETATM   25  C   UNL     1      -7.085   2.347 -30.389  1.00  0.00     0.017 A 
BRANCH  21  26
HETATM   26  O   UNL     1      -5.168   3.165 -33.421  1.00  0.00    -0.355 OA
HETATM   27  C   UNL     1      -5.695   4.255 -34.180  1.00  0.00     0.210 C 
ENDBRANCH  21  26
ENDBRANCH   1  20
BRANCH   3  28
HETATM   28  C   UNL     1      -6.247  -1.976 -33.971  1.00  0.00     0.058 A 
HETATM   29  C   UNL     1      -7.051  -2.990 -34.514  1.00  0.00     0.031 A 
HETATM   30  C   UNL     1      -6.484  -4.200 -34.918  1.00  0.00     0.002 A 
HETATM   31  C   UNL     1      -5.113  -4.407 -34.785  1.00  0.00     0.000 A 
HETATM   32  C   UNL     1      -4.306  -3.405 -34.249  1.00  0.00     0.002 A 
HETATM   33  C   UNL     1      -4.867  -2.191 -33.841  1.00  0.00     0.031 A 
ENDBRANCH   3  28
TORSDOF 6
ENDMDL
