MODEL 1
REMARK VINA RESULT:      -9.9      0.000      0.000
REMARK  5 active torsions:
REMARK  status: ('A' for Active; 'I' for Inactive)
REMARK    1  A    between atoms: C_18  and  C_19 
REMARK       I    between atoms: C_19  and  N_20 
REMARK    2  A    between atoms: N_20  and  C_21 
REMARK    3  A    between atoms: C_21  and  C_22 
REMARK    4  A    between atoms: C_22  and  C_23 
REMARK    5  A    between atoms: C_26  and  O_27 
ROOT
HETATM    1  C   UNL     1      -3.664   0.041 -31.117  1.00  0.00     0.016 C 
HETATM    2  C   UNL     1      -4.371   1.317 -30.739  1.00  0.00    -0.028 C 
HETATM    3  C   UNL     1      -3.606   2.780 -31.449  1.00  0.00     0.058 C 
HETATM    4  C   UNL     1      -4.870   4.176 -31.626  1.00  0.00     0.095 C 
HETATM    5  N   UNL     1      -5.352   4.398 -32.975  1.00  0.00    -0.334 N 
HETATM    6  C   UNL     1      -4.532   4.833 -33.979  1.00  0.00     0.255 C 
HETATM    7  O   UNL     1      -4.826   4.699 -35.159  1.00  0.00    -0.268 OA
HETATM    8  C   UNL     1      -3.286   5.489 -33.542  1.00  0.00     0.053 A 
HETATM    9  C   UNL     1      -3.141   5.754 -32.172  1.00  0.00     0.026 A 
HETATM   10  N   UNL     1      -4.167   5.420 -31.261  1.00  0.00    -0.265 NA
HETATM   11  C   UNL     1      -2.307   5.856 -34.467  1.00  0.00     0.019 A 
HETATM   12  C   UNL     1      -1.159   6.505 -34.023  1.00  0.00     0.001 A 
HETATM   13  C   UNL     1      -1.013   6.808 -32.669  1.00  0.00     0.002 A 
HETATM   14  C   UNL     1      -2.008   6.455 -31.750  1.00  0.00     0.024 A 
HETATM   15  C   UNL     1      -6.232   3.912 -30.557  1.00  0.00     0.030 C 
HETATM   16  C   UNL     1      -7.014   2.479 -29.900  1.00  0.00     0.009 C 
HETATM   17  C   UNL     1      -5.763   1.066 -29.635  1.00  0.00     0.010 C 
HETATM   18  C   UNL     1      -5.466   1.874 -31.446  1.00  0.00     0.086 C 
HETATM   19  C   UNL     1      -5.241   3.115 -29.966  1.00  0.00     0.023 C 
HETATM   20  H   UNL     1      -6.205   3.954 -33.288  1.00  0.00     0.164 HD
HETATM   21  H   UNL     1      -3.840   5.442 -30.300  1.00  0.00     0.130 HD
ENDROOT
BRANCH  18  22
HETATM   22  C   UNL     1      -6.464   0.784 -32.094  1.00  0.00     0.222 C 
HETATM   23  N   UNL     1      -7.018   1.298 -33.255  1.00  0.00    -0.360 N 
HETATM   24  H   UNL     1      -6.696   2.202 -33.579  1.00  0.00     0.162 HD
HETATM   25  O   UNL     1      -6.788  -0.311 -31.662  1.00  0.00    -0.273 OA
BRANCH  23  26
HETATM   26  C   UNL     1      -7.898   0.585 -34.160  1.00  0.00     0.127 C 
BRANCH  26  27
HETATM   27  C   UNL     1      -7.125  -0.080 -35.312  1.00  0.00     0.058 C 
BRANCH  27  28
HETATM   28  C   UNL     1      -6.471  -1.390 -34.925  1.00  0.00    -0.057 A 
HETATM   29  C   UNL     1      -5.119  -1.452 -34.571  1.00  0.00     0.010 A 
HETATM   30  C   UNL     1      -4.510  -2.688 -34.333  1.00  0.00     0.037 A 
HETATM   31  C   UNL     1      -5.238  -3.876 -34.427  1.00  0.00     0.068 A 
HETATM   32  C   UNL     1      -6.587  -3.819 -34.771  1.00  0.00     0.037 A 
HETATM   33  C   UNL     1      -7.198  -2.585 -35.016  1.00  0.00     0.010 A 
BRANCH  31  34
HETATM   34  O   UNL     1      -4.521  -5.015 -34.184  1.00  0.00    -0.356 OA
HETATM   35  C   UNL     1      -3.406  -4.886 -33.309  1.00  0.00     0.210 C 
ENDBRANCH  31  34
ENDBRANCH  27  28
ENDBRANCH  26  27
ENDBRANCH  23  26
ENDBRANCH  18  22
TORSDOF 5
ENDMDL
MODEL 2
REMARK VINA RESULT:      -9.4      1.283      1.680
REMARK  5 active torsions:
REMARK  status: ('A' for Active; 'I' for Inactive)
REMARK    1  A    between atoms: C_18  and  C_19 
REMARK       I    between atoms: C_19  and  N_20 
REMARK    2  A    between atoms: N_20  and  C_21 
REMARK    3  A    between atoms: C_21  and  C_22 
REMARK    4  A    between atoms: C_22  and  C_23 
REMARK    5  A    between atoms: C_26  and  O_27 
ROOT
HETATM    1  C   UNL     1      -5.354   1.789 -29.973  1.00  0.00     0.016 C 
HETATM    2  C   UNL     1      -5.939   3.143 -30.284  1.00  0.00    -0.028 C 
HETATM    3  C   UNL     1      -4.776   4.236 -31.109  1.00  0.00     0.058 C 
HETATM    4  C   UNL     1      -5.692   5.530 -32.141  1.00  0.00     0.095 C 
HETATM    5  N   UNL     1      -5.690   5.286 -33.570  1.00  0.00    -0.334 N 
HETATM    6  C   UNL     1      -4.542   5.313 -34.312  1.00  0.00     0.255 C 
HETATM    7  O   UNL     1      -4.471   4.787 -35.415  1.00  0.00    -0.268 OA
HETATM    8  C   UNL     1      -3.409   6.033 -33.703  1.00  0.00     0.053 A 
HETATM    9  C   UNL     1      -3.658   6.753 -32.524  1.00  0.00     0.026 A 
HETATM   10  N   UNL     1      -4.955   6.796 -31.967  1.00  0.00    -0.265 NA
HETATM   11  C   UNL     1      -2.146   6.017 -34.299  1.00  0.00     0.019 A 
HETATM   12  C   UNL     1      -1.108   6.736 -33.715  1.00  0.00     0.001 A 
HETATM   13  C   UNL     1      -1.346   7.485 -32.562  1.00  0.00     0.002 A 
HETATM   14  C   UNL     1      -2.619   7.513 -31.982  1.00  0.00     0.024 A 
HETATM   15  C   UNL     1      -7.343   5.707 -31.583  1.00  0.00     0.030 C 
HETATM   16  C   UNL     1      -8.501   4.623 -30.820  1.00  0.00     0.009 C 
HETATM   17  C   UNL     1      -7.627   3.345 -29.709  1.00  0.00     0.010 C 
HETATM   18  C   UNL     1      -6.660   3.459 -31.462  1.00  0.00     0.086 C 
HETATM   19  C   UNL     1      -6.719   5.129 -30.467  1.00  0.00     0.023 C 
HETATM   20  H   UNL     1      -6.461   4.793 -34.001  1.00  0.00     0.164 HD
HETATM   21  H   UNL     1      -4.944   7.139 -31.012  1.00  0.00     0.130 HD
ENDROOT
BRANCH  18  22
HETATM   22  C   UNL     1      -7.562   2.251 -32.037  1.00  0.00     0.222 C 
HETATM   23  N   UNL     1      -7.538   2.273 -33.421  1.00  0.00    -0.360 N 
HETATM   24  H   UNL     1      -6.937   2.949 -33.877  1.00  0.00     0.162 HD
HETATM   25  O   UNL     1      -8.245   1.445 -31.422  1.00  0.00    -0.273 OA
BRANCH  23  26
HETATM   26  C   UNL     1      -8.160   1.297 -34.295  1.00  0.00     0.127 C 
BRANCH  26  27
HETATM   27  C   UNL     1      -7.147   0.658 -35.260  1.00  0.00     0.058 C 
BRANCH  27  28
HETATM   28  C   UNL     1      -6.298  -0.421 -34.620  1.00  0.00    -0.057 A 
HETATM   29  C   UNL     1      -5.244  -0.101 -33.757  1.00  0.00     0.010 A 
HETATM   30  C   UNL     1      -4.402  -1.107 -33.273  1.00  0.00     0.037 A 
HETATM   31  C   UNL     1      -4.605  -2.443 -33.626  1.00  0.00     0.068 A 
HETATM   32  C   UNL     1      -5.658  -2.767 -34.478  1.00  0.00     0.037 A 
HETATM   33  C   UNL     1      -6.499  -1.763 -34.969  1.00  0.00     0.010 A 
BRANCH  31  34
HETATM   34  O   UNL     1      -3.703  -3.324 -33.096  1.00  0.00    -0.356 OA
HETATM   35  C   UNL     1      -3.586  -4.581 -33.752  1.00  0.00     0.210 C 
ENDBRANCH  31  34
ENDBRANCH  27  28
ENDBRANCH  26  27
ENDBRANCH  23  26
ENDBRANCH  18  22
TORSDOF 5
ENDMDL
MODEL 3
REMARK VINA RESULT:      -9.1      1.968      7.260
REMARK  5 active torsions:
REMARK  status: ('A' for Active; 'I' for Inactive)
REMARK    1  A    between atoms: C_18  and  C_19 
REMARK       I    between atoms: C_19  and  N_20 
REMARK    2  A    between atoms: N_20  and  C_21 
REMARK    3  A    between atoms: C_21  and  C_22 
REMARK    4  A    between atoms: C_22  and  C_23 
REMARK    5  A    between atoms: C_26  and  O_27 
ROOT
HETATM    1  C   UNL     1      -6.279   0.346 -29.317  1.00  0.00     0.016 C 
HETATM    2  C   UNL     1      -5.287   0.509 -30.439  1.00  0.00    -0.028 C 
HETATM    3  C   UNL     1      -5.361  -0.826 -31.640  1.00  0.00     0.058 C 
HETATM    4  C   UNL     1      -4.738  -0.243 -33.327  1.00  0.00     0.095 C 
HETATM    5  N   UNL     1      -5.775   0.012 -34.308  1.00  0.00    -0.334 N 
HETATM    6  C   UNL     1      -6.574  -0.983 -34.798  1.00  0.00     0.255 C 
HETATM    7  O   UNL     1      -7.644  -0.746 -35.343  1.00  0.00    -0.268 OA
HETATM    8  C   UNL     1      -6.051  -2.352 -34.643  1.00  0.00     0.053 A 
HETATM    9  C   UNL     1      -4.736  -2.493 -34.173  1.00  0.00     0.026 A 
HETATM   10  N   UNL     1      -3.949  -1.356 -33.885  1.00  0.00    -0.265 NA
HETATM   11  C   UNL     1      -6.830  -3.460 -34.981  1.00  0.00     0.019 A 
HETATM   12  C   UNL     1      -6.291  -4.737 -34.854  1.00  0.00     0.001 A 
HETATM   13  C   UNL     1      -4.974  -4.894 -34.421  1.00  0.00     0.002 A 
HETATM   14  C   UNL     1      -4.192  -3.777 -34.104  1.00  0.00     0.024 A 
HETATM   15  C   UNL     1      -3.738   1.185 -33.155  1.00  0.00     0.030 C 
HETATM   16  C   UNL     1      -3.696   2.520 -32.009  1.00  0.00     0.009 C 
HETATM   17  C   UNL     1      -4.246   1.961 -30.272  1.00  0.00     0.010 C 
HETATM   18  C   UNL     1      -5.529   1.236 -31.631  1.00  0.00     0.086 C 
HETATM   19  C   UNL     1      -3.692   0.640 -31.863  1.00  0.00     0.023 C 
HETATM   20  H   UNL     1      -6.144   0.947 -34.425  1.00  0.00     0.164 HD
HETATM   21  H   UNL     1      -3.128  -1.594 -33.338  1.00  0.00     0.130 HD
ENDROOT
BRANCH  18  22
HETATM   22  C   UNL     1      -6.464   2.537 -31.441  1.00  0.00     0.222 C 
HETATM   23  N   UNL     1      -6.966   2.930 -32.671  1.00  0.00    -0.360 N 
HETATM   24  H   UNL     1      -6.764   2.350 -33.476  1.00  0.00     0.162 HD
HETATM   25  O   UNL     1      -6.690   3.176 -30.424  1.00  0.00    -0.273 OA
BRANCH  23  26
HETATM   26  C   UNL     1      -7.910   4.008 -32.894  1.00  0.00     0.127 C 
BRANCH  26  27
HETATM   27  C   UNL     1      -7.329   5.104 -33.804  1.00  0.00     0.058 C 
BRANCH  27  28
HETATM   28  C   UNL     1      -5.844   5.331 -33.606  1.00  0.00    -0.057 A 
HETATM   29  C   UNL     1      -5.358   6.048 -32.508  1.00  0.00     0.010 A 
HETATM   30  C   UNL     1      -3.995   6.346 -32.409  1.00  0.00     0.037 A 
HETATM   31  C   UNL     1      -3.097   5.921 -33.390  1.00  0.00     0.068 A 
HETATM   32  C   UNL     1      -3.574   5.198 -34.481  1.00  0.00     0.037 A 
HETATM   33  C   UNL     1      -4.938   4.904 -34.586  1.00  0.00     0.010 A 
BRANCH  31  34
HETATM   34  O   UNL     1      -1.796   6.289 -33.181  1.00  0.00    -0.356 OA
HETATM   35  C   UNL     1      -0.989   5.373 -32.451  1.00  0.00     0.210 C 
ENDBRANCH  31  34
ENDBRANCH  27  28
ENDBRANCH  26  27
ENDBRANCH  23  26
ENDBRANCH  18  22
TORSDOF 5
ENDMDL
MODEL 4
REMARK VINA RESULT:      -9.1      3.206      7.171
REMARK  5 active torsions:
REMARK  status: ('A' for Active; 'I' for Inactive)
REMARK    1  A    between atoms: C_18  and  C_19 
REMARK       I    between atoms: C_19  and  N_20 
REMARK    2  A    between atoms: N_20  and  C_21 
REMARK    3  A    between atoms: C_21  and  C_22 
REMARK    4  A    between atoms: C_22  and  C_23 
REMARK    5  A    between atoms: C_26  and  O_27 
ROOT
HETATM    1  C   UNL     1      -6.243   0.434 -29.315  1.00  0.00     0.016 C 
HETATM    2  C   UNL     1      -5.307   0.624 -30.480  1.00  0.00    -0.028 C 
HETATM    3  C   UNL     1      -5.362  -0.736 -31.654  1.00  0.00     0.058 C 
HETATM    4  C   UNL     1      -4.838  -0.155 -33.376  1.00  0.00     0.095 C 
HETATM    5  N   UNL     1      -5.925   0.029 -34.316  1.00  0.00    -0.334 N 
HETATM    6  C   UNL     1      -6.692  -1.014 -34.756  1.00  0.00     0.255 C 
HETATM    7  O   UNL     1      -7.793  -0.841 -35.261  1.00  0.00    -0.268 OA
HETATM    8  C   UNL     1      -6.094  -2.352 -34.599  1.00  0.00     0.053 A 
HETATM    9  C   UNL     1      -4.756  -2.418 -34.181  1.00  0.00     0.026 A 
HETATM   10  N   UNL     1      -4.016  -1.239 -33.946  1.00  0.00    -0.265 NA
HETATM   11  C   UNL     1      -6.830  -3.504 -34.885  1.00  0.00     0.019 A 
HETATM   12  C   UNL     1      -6.223  -4.750 -34.758  1.00  0.00     0.001 A 
HETATM   13  C   UNL     1      -4.883  -4.833 -34.378  1.00  0.00     0.002 A 
HETATM   14  C   UNL     1      -4.146  -3.673 -34.112  1.00  0.00     0.024 A 
HETATM   15  C   UNL     1      -3.904   1.324 -33.269  1.00  0.00     0.030 C 
HETATM   16  C   UNL     1      -3.883   2.681 -32.149  1.00  0.00     0.009 C 
HETATM   17  C   UNL     1      -4.334   2.129 -30.382  1.00  0.00     0.010 C 
HETATM   18  C   UNL     1      -5.633   1.315 -31.674  1.00  0.00     0.086 C 
HETATM   19  C   UNL     1      -3.779   0.807 -31.971  1.00  0.00     0.023 C 
HETATM   20  H   UNL     1      -6.344   0.942 -34.435  1.00  0.00     0.164 HD
HETATM   21  H   UNL     1      -3.163  -1.425 -33.429  1.00  0.00     0.130 HD
ENDROOT
BRANCH  18  22
HETATM   22  C   UNL     1      -6.624   2.572 -31.468  1.00  0.00     0.222 C 
HETATM   23  N   UNL     1      -7.517   2.635 -32.525  1.00  0.00    -0.360 N 
HETATM   24  H   UNL     1      -7.494   1.893 -33.214  1.00  0.00     0.162 HD
HETATM   25  O   UNL     1      -6.614   3.419 -30.589  1.00  0.00    -0.273 OA
BRANCH  23  26
HETATM   26  C   UNL     1      -8.612   3.577 -32.652  1.00  0.00     0.127 C 
BRANCH  26  27
HETATM   27  C   UNL     1      -9.060   3.746 -34.114  1.00  0.00     0.058 C 
BRANCH  27  28
HETATM   28  C   UNL     1     -10.359   3.035 -34.436  1.00  0.00    -0.057 A 
HETATM   29  C   UNL     1     -11.324   3.620 -35.263  1.00  0.00     0.010 A 
HETATM   30  C   UNL     1     -12.562   2.998 -35.448  1.00  0.00     0.037 A 
HETATM   31  C   UNL     1     -12.851   1.780 -34.830  1.00  0.00     0.068 A 
HETATM   32  C   UNL     1     -11.891   1.188 -34.013  1.00  0.00     0.037 A 
HETATM   33  C   UNL     1     -10.653   1.811 -33.819  1.00  0.00     0.010 A 
BRANCH  31  34
HETATM   34  O   UNL     1     -14.102   1.285 -35.084  1.00  0.00    -0.356 OA
HETATM   35  C   UNL     1     -14.843   0.832 -33.957  1.00  0.00     0.210 C 
ENDBRANCH  31  34
ENDBRANCH  27  28
ENDBRANCH  26  27
ENDBRANCH  23  26
ENDBRANCH  18  22
TORSDOF 5
ENDMDL
MODEL 5
REMARK VINA RESULT:      -9.0      1.967      3.119
REMARK  5 active torsions:
REMARK  status: ('A' for Active; 'I' for Inactive)
REMARK    1  A    between atoms: C_18  and  C_19 
REMARK       I    between atoms: C_19  and  N_20 
REMARK    2  A    between atoms: N_20  and  C_21 
REMARK    3  A    between atoms: C_21  and  C_22 
REMARK    4  A    between atoms: C_22  and  C_23 
REMARK    5  A    between atoms: C_26  and  O_27 
ROOT
HETATM    1  C   UNL     1      -7.787   5.460 -29.478  1.00  0.00     0.016 C 
HETATM    2  C   UNL     1      -7.427   5.512 -30.940  1.00  0.00    -0.028 C 
HETATM    3  C   UNL     1      -5.678   5.818 -31.222  1.00  0.00     0.058 C 
HETATM    4  C   UNL     1      -5.140   5.126 -32.897  1.00  0.00     0.095 C 
HETATM    5  N   UNL     1      -4.390   3.887 -32.834  1.00  0.00    -0.334 N 
HETATM    6  C   UNL     1      -3.153   3.813 -32.256  1.00  0.00     0.255 C 
HETATM    7  O   UNL     1      -2.669   2.749 -31.894  1.00  0.00    -0.268 OA
HETATM    8  C   UNL     1      -2.439   5.095 -32.118  1.00  0.00     0.053 A 
HETATM    9  C   UNL     1      -3.007   6.222 -32.733  1.00  0.00     0.026 A 
HETATM   10  N   UNL     1      -4.205   6.111 -33.472  1.00  0.00    -0.265 NA
HETATM   11  C   UNL     1      -1.229   5.171 -31.425  1.00  0.00     0.019 A 
HETATM   12  C   UNL     1      -0.565   6.391 -31.344  1.00  0.00     0.001 A 
HETATM   13  C   UNL     1      -1.097   7.514 -31.978  1.00  0.00     0.002 A 
HETATM   14  C   UNL     1      -2.300   7.426 -32.689  1.00  0.00     0.024 A 
HETATM   15  C   UNL     1      -6.524   4.915 -33.950  1.00  0.00     0.030 C 
HETATM   16  C   UNL     1      -8.227   4.565 -33.679  1.00  0.00     0.009 C 
HETATM   17  C   UNL     1      -8.835   5.309 -32.034  1.00  0.00     0.010 C 
HETATM   18  C   UNL     1      -7.082   4.386 -31.728  1.00  0.00     0.086 C 
HETATM   19  C   UNL     1      -7.009   5.841 -33.015  1.00  0.00     0.023 C 
HETATM   20  H   UNL     1      -4.867   3.000 -32.927  1.00  0.00     0.164 HD
HETATM   21  H   UNL     1      -4.622   7.019 -33.652  1.00  0.00     0.130 HD
ENDROOT
BRANCH  18  22
HETATM   22  C   UNL     1      -7.866   3.031 -31.333  1.00  0.00     0.222 C 
HETATM   23  N   UNL     1      -7.281   1.954 -31.977  1.00  0.00    -0.360 N 
HETATM   24  H   UNL     1      -6.442   2.120 -32.520  1.00  0.00     0.162 HD
HETATM   25  O   UNL     1      -8.864   2.897 -30.641  1.00  0.00    -0.273 OA
BRANCH  23  26
HETATM   26  C   UNL     1      -7.654   0.562 -31.808  1.00  0.00     0.127 C 
BRANCH  26  27
HETATM   27  C   UNL     1      -7.917  -0.132 -33.156  1.00  0.00     0.058 C 
BRANCH  27  28
HETATM   28  C   UNL     1      -6.807  -1.073 -33.579  1.00  0.00    -0.057 A 
HETATM   29  C   UNL     1      -7.055  -2.151 -34.436  1.00  0.00     0.010 A 
HETATM   30  C   UNL     1      -6.041  -3.073 -34.717  1.00  0.00     0.037 A 
HETATM   31  C   UNL     1      -4.767  -2.927 -34.165  1.00  0.00     0.068 A 
HETATM   32  C   UNL     1      -4.513  -1.850 -33.318  1.00  0.00     0.037 A 
HETATM   33  C   UNL     1      -5.526  -0.930 -33.029  1.00  0.00     0.010 A 
BRANCH  31  34
HETATM   34  O   UNL     1      -3.873  -3.903 -34.509  1.00  0.00    -0.356 OA
HETATM   35  C   UNL     1      -3.435  -4.759 -33.459  1.00  0.00     0.210 C 
ENDBRANCH  31  34
ENDBRANCH  27  28
ENDBRANCH  26  27
ENDBRANCH  23  26
ENDBRANCH  18  22
TORSDOF 5
ENDMDL
MODEL 6
REMARK VINA RESULT:      -8.7      2.954      8.096
REMARK  5 active torsions:
REMARK  status: ('A' for Active; 'I' for Inactive)
REMARK    1  A    between atoms: C_18  and  C_19 
REMARK       I    between atoms: C_19  and  N_20 
REMARK    2  A    between atoms: N_20  and  C_21 
REMARK    3  A    between atoms: C_21  and  C_22 
REMARK    4  A    between atoms: C_22  and  C_23 
REMARK    5  A    between atoms: C_26  and  O_27 
ROOT
HETATM    1  C   UNL     1      -5.743   0.643 -29.565  1.00  0.00     0.016 C 
HETATM    2  C   UNL     1      -5.921   0.216 -30.999  1.00  0.00    -0.028 C 
HETATM    3  C   UNL     1      -7.422   0.868 -31.744  1.00  0.00     0.058 C 
HETATM    4  C   UNL     1      -7.237   0.992 -33.622  1.00  0.00     0.095 C 
HETATM    5  N   UNL     1      -7.013   2.332 -34.127  1.00  0.00    -0.334 N 
HETATM    6  C   UNL     1      -7.955   3.317 -34.022  1.00  0.00     0.255 C 
HETATM    7  O   UNL     1      -7.667   4.503 -34.124  1.00  0.00    -0.268 OA
HETATM    8  C   UNL     1      -9.336   2.854 -33.796  1.00  0.00     0.053 A 
HETATM    9  C   UNL     1      -9.577   1.474 -33.882  1.00  0.00     0.026 A 
HETATM   10  N   UNL     1      -8.532   0.578 -34.194  1.00  0.00    -0.265 NA
HETATM   11  C   UNL     1     -10.364   3.763 -33.538  1.00  0.00     0.019 A 
HETATM   12  C   UNL     1     -11.662   3.293 -33.365  1.00  0.00     0.001 A 
HETATM   13  C   UNL     1     -11.927   1.928 -33.481  1.00  0.00     0.002 A 
HETATM   14  C   UNL     1     -10.894   1.025 -33.760  1.00  0.00     0.024 A 
HETATM   15  C   UNL     1      -5.958  -0.064 -34.186  1.00  0.00     0.030 C 
HETATM   16  C   UNL     1      -4.463  -0.663 -33.477  1.00  0.00     0.009 C 
HETATM   17  C   UNL     1      -4.626  -0.875 -31.591  1.00  0.00     0.010 C 
HETATM   18  C   UNL     1      -5.388   0.902 -32.119  1.00  0.00     0.086 C 
HETATM   19  C   UNL     1      -6.269  -0.625 -32.938  1.00  0.00     0.023 C 
HETATM   20  H   UNL     1      -6.070   2.663 -34.286  1.00  0.00     0.164 HD
HETATM   21  H   UNL     1      -8.784  -0.383 -33.988  1.00  0.00     0.130 HD
ENDROOT
BRANCH  18  22
HETATM   22  C   UNL     1      -3.953   1.594 -31.855  1.00  0.00     0.222 C 
HETATM   23  N   UNL     1      -3.879   2.785 -32.557  1.00  0.00    -0.360 N 
HETATM   24  H   UNL     1      -4.702   3.098 -33.055  1.00  0.00     0.162 HD
HETATM   25  O   UNL     1      -3.005   1.170 -31.211  1.00  0.00    -0.273 OA
BRANCH  23  26
HETATM   26  C   UNL     1      -2.779   3.730 -32.506  1.00  0.00     0.127 C 
BRANCH  26  27
HETATM   27  C   UNL     1      -3.193   5.061 -31.854  1.00  0.00     0.058 C 
BRANCH  27  28
HETATM   28  C   UNL     1      -2.070   5.737 -31.094  1.00  0.00    -0.057 A 
HETATM   29  C   UNL     1      -0.760   5.248 -31.143  1.00  0.00     0.010 A 
HETATM   30  C   UNL     1       0.234   5.818 -30.341  1.00  0.00     0.037 A 
HETATM   31  C   UNL     1      -0.056   6.890 -29.494  1.00  0.00     0.068 A 
HETATM   32  C   UNL     1      -1.357   7.386 -29.448  1.00  0.00     0.037 A 
HETATM   33  C   UNL     1      -2.355   6.815 -30.244  1.00  0.00     0.010 A 
BRANCH  31  34
HETATM   34  O   UNL     1       1.001   7.344 -28.754  1.00  0.00    -0.356 OA
HETATM   35  C   UNL     1       0.742   8.445 -27.890  1.00  0.00     0.210 C 
ENDBRANCH  31  34
ENDBRANCH  27  28
ENDBRANCH  26  27
ENDBRANCH  23  26
ENDBRANCH  18  22
TORSDOF 5
ENDMDL
MODEL 7
REMARK VINA RESULT:      -8.6      3.004      8.498
REMARK  5 active torsions:
REMARK  status: ('A' for Active; 'I' for Inactive)
REMARK    1  A    between atoms: C_18  and  C_19 
REMARK       I    between atoms: C_19  and  N_20 
REMARK    2  A    between atoms: N_20  and  C_21 
REMARK    3  A    between atoms: C_21  and  C_22 
REMARK    4  A    between atoms: C_22  and  C_23 
REMARK    5  A    between atoms: C_26  and  O_27 
ROOT
HETATM    1  C   UNL     1      -5.396   4.572 -34.569  1.00  0.00     0.016 C 
HETATM    2  C   UNL     1      -6.071   3.813 -33.457  1.00  0.00    -0.028 C 
HETATM    3  C   UNL     1      -5.987   2.030 -33.672  1.00  0.00     0.058 C 
HETATM    4  C   UNL     1      -6.107   1.148 -32.004  1.00  0.00     0.095 C 
HETATM    5  N   UNL     1      -4.852   0.633 -31.493  1.00  0.00    -0.334 N 
HETATM    6  C   UNL     1      -4.165  -0.368 -32.122  1.00  0.00     0.255 C 
HETATM    7  O   UNL     1      -2.977  -0.572 -31.910  1.00  0.00    -0.268 OA
HETATM    8  C   UNL     1      -4.956  -1.191 -33.055  1.00  0.00     0.053 A 
HETATM    9  C   UNL     1      -6.344  -0.987 -33.081  1.00  0.00     0.026 A 
HETATM   10  N   UNL     1      -6.949  -0.042 -32.224  1.00  0.00    -0.265 NA
HETATM   11  C   UNL     1      -4.342  -2.155 -33.857  1.00  0.00     0.019 A 
HETATM   12  C   UNL     1      -5.124  -2.938 -34.701  1.00  0.00     0.001 A 
HETATM   13  C   UNL     1      -6.510  -2.773 -34.714  1.00  0.00     0.002 A 
HETATM   14  C   UNL     1      -7.119  -1.819 -33.892  1.00  0.00     0.024 A 
HETATM   15  C   UNL     1      -6.837   2.196 -30.804  1.00  0.00     0.030 C 
HETATM   16  C   UNL     1      -6.878   3.939 -30.563  1.00  0.00     0.009 C 
HETATM   17  C   UNL     1      -6.834   4.870 -32.224  1.00  0.00     0.010 C 
HETATM   18  C   UNL     1      -5.444   3.426 -32.246  1.00  0.00     0.086 C 
HETATM   19  C   UNL     1      -7.264   2.785 -32.004  1.00  0.00     0.023 C 
HETATM   20  H   UNL     1      -4.299   1.187 -30.852  1.00  0.00     0.164 HD
HETATM   21  H   UNL     1      -7.899   0.172 -32.509  1.00  0.00     0.130 HD
ENDROOT
BRANCH  18  22
HETATM   22  C   UNL     1      -4.347   4.476 -31.699  1.00  0.00     0.222 C 
HETATM   23  N   UNL     1      -3.378   4.678 -32.667  1.00  0.00    -0.360 N 
HETATM   24  H   UNL     1      -3.504   4.236 -33.569  1.00  0.00     0.162 HD
HETATM   25  O   UNL     1      -4.270   5.001 -30.598  1.00  0.00    -0.273 OA
BRANCH  23  26
HETATM   26  C   UNL     1      -2.273   5.615 -32.577  1.00  0.00     0.127 C 
BRANCH  26  27
HETATM   27  C   UNL     1      -1.042   4.990 -31.899  1.00  0.00     0.058 C 
BRANCH  27  28
HETATM   28  C   UNL     1      -0.642   5.683 -30.613  1.00  0.00    -0.057 A 
HETATM   29  C   UNL     1      -1.104   6.967 -30.304  1.00  0.00     0.010 A 
HETATM   30  C   UNL     1      -0.627   7.632 -29.170  1.00  0.00     0.037 A 
HETATM   31  C   UNL     1       0.300   7.025 -28.320  1.00  0.00     0.068 A 
HETATM   32  C   UNL     1       0.755   5.743 -28.617  1.00  0.00     0.037 A 
HETATM   33  C   UNL     1       0.286   5.077 -29.755  1.00  0.00     0.010 A 
BRANCH  31  34
HETATM   34  O   UNL     1       0.694   7.788 -27.255  1.00  0.00    -0.356 OA
HETATM   35  C   UNL     1       1.711   8.750 -27.507  1.00  0.00     0.210 C 
ENDBRANCH  31  34
ENDBRANCH  27  28
ENDBRANCH  26  27
ENDBRANCH  23  26
ENDBRANCH  18  22
TORSDOF 5
ENDMDL
MODEL 8
REMARK VINA RESULT:      -8.6      3.253      8.101
REMARK  5 active torsions:
REMARK  status: ('A' for Active; 'I' for Inactive)
REMARK    1  A    between atoms: C_18  and  C_19 
REMARK       I    between atoms: C_19  and  N_20 
REMARK    2  A    between atoms: N_20  and  C_21 
REMARK    3  A    between atoms: C_21  and  C_22 
REMARK    4  A    between atoms: C_22  and  C_23 
REMARK    5  A    between atoms: C_26  and  O_27 
ROOT
HETATM    1  C   UNL     1      -7.774   3.241 -29.701  1.00  0.00     0.016 C 
HETATM    2  C   UNL     1      -7.650   2.287 -30.860  1.00  0.00    -0.028 C 
HETATM    3  C   UNL     1      -9.203   2.034 -31.729  1.00  0.00     0.058 C 
HETATM    4  C   UNL     1      -8.889   1.521 -33.522  1.00  0.00     0.095 C 
HETATM    5  N   UNL     1      -9.099   2.567 -34.503  1.00  0.00    -0.334 N 
HETATM    6  C   UNL     1     -10.332   3.111 -34.735  1.00  0.00     0.255 C 
HETATM    7  O   UNL     1     -10.469   4.195 -35.287  1.00  0.00    -0.268 OA
HETATM    8  C   UNL     1     -11.479   2.297 -34.293  1.00  0.00     0.053 A 
HETATM    9  C   UNL     1     -11.213   0.995 -33.843  1.00  0.00     0.026 A 
HETATM   10  N   UNL     1      -9.894   0.489 -33.840  1.00  0.00    -0.265 NA
HETATM   11  C   UNL     1     -12.780   2.801 -34.351  1.00  0.00     0.019 A 
HETATM   12  C   UNL     1     -13.842   1.992 -33.958  1.00  0.00     0.001 A 
HETATM   13  C   UNL     1     -13.600   0.683 -33.540  1.00  0.00     0.002 A 
HETATM   14  C   UNL     1     -12.294   0.179 -33.504  1.00  0.00     0.024 A 
HETATM   15  C   UNL     1      -7.273   0.870 -33.703  1.00  0.00     0.030 C 
HETATM   16  C   UNL     1      -5.740   1.154 -32.887  1.00  0.00     0.009 C 
HETATM   17  C   UNL     1      -6.003   1.602 -31.054  1.00  0.00     0.010 C 
HETATM   18  C   UNL     1      -7.283   2.660 -32.177  1.00  0.00     0.086 C 
HETATM   19  C   UNL     1      -7.489   0.732 -32.324  1.00  0.00     0.023 C 
HETATM   20  H   UNL     1      -8.322   3.133 -34.816  1.00  0.00     0.164 HD
HETATM   21  H   UNL     1      -9.814  -0.352 -33.278  1.00  0.00     0.130 HD
ENDROOT
BRANCH  18  22
HETATM   22  C   UNL     1      -6.215   3.867 -32.255  1.00  0.00     0.222 C 
HETATM   23  N   UNL     1      -6.173   4.365 -33.547  1.00  0.00    -0.360 N 
HETATM   24  H   UNL     1      -6.827   3.992 -34.223  1.00  0.00     0.162 HD
HETATM   25  O   UNL     1      -5.472   4.290 -31.382  1.00  0.00    -0.273 OA
BRANCH  23  26
HETATM   26  C   UNL     1      -5.395   5.507 -33.989  1.00  0.00     0.127 C 
BRANCH  26  27
HETATM   27  C   UNL     1      -4.082   5.080 -34.669  1.00  0.00     0.058 C 
BRANCH  27  28
HETATM   28  C   UNL     1      -2.844   5.437 -33.872  1.00  0.00    -0.057 A 
HETATM   29  C   UNL     1      -2.322   4.566 -32.910  1.00  0.00     0.010 A 
HETATM   30  C   UNL     1      -1.250   4.966 -32.106  1.00  0.00     0.037 A 
HETATM   31  C   UNL     1      -0.674   6.230 -32.257  1.00  0.00     0.068 A 
HETATM   32  C   UNL     1      -1.184   7.097 -33.220  1.00  0.00     0.037 A 
HETATM   33  C   UNL     1      -2.261   6.703 -34.022  1.00  0.00     0.010 A 
BRANCH  31  34
HETATM   34  O   UNL     1       0.357   6.501 -31.400  1.00  0.00    -0.356 OA
HETATM   35  C   UNL     1       0.656   5.501 -30.433  1.00  0.00     0.210 C 
ENDBRANCH  31  34
ENDBRANCH  27  28
ENDBRANCH  26  27
ENDBRANCH  23  26
ENDBRANCH  18  22
TORSDOF 5
ENDMDL
MODEL 9
REMARK VINA RESULT:      -8.5      3.951      6.393
REMARK  5 active torsions:
REMARK  status: ('A' for Active; 'I' for Inactive)
REMARK    1  A    between atoms: C_18  and  C_19 
REMARK       I    between atoms: C_19  and  N_20 
REMARK    2  A    between atoms: N_20  and  C_21 
REMARK    3  A    between atoms: C_21  and  C_22 
REMARK    4  A    between atoms: C_22  and  C_23 
REMARK    5  A    between atoms: C_26  and  O_27 
ROOT
HETATM    1  C   UNL     1      -1.533   7.822 -32.662  1.00  0.00     0.016 C 
HETATM    2  C   UNL     1      -0.883   7.406 -31.369  1.00  0.00    -0.028 C 
HETATM    3  C   UNL     1      -1.546   8.271 -29.940  1.00  0.00     0.058 C 
HETATM    4  C   UNL     1      -1.321   7.241 -28.370  1.00  0.00     0.095 C 
HETATM    5  N   UNL     1      -2.521   6.585 -27.891  1.00  0.00    -0.334 N 
HETATM    6  C   UNL     1      -3.602   7.288 -27.434  1.00  0.00     0.255 C 
HETATM    7  O   UNL     1      -4.715   6.786 -27.354  1.00  0.00    -0.268 OA
HETATM    8  C   UNL     1      -3.330   8.679 -27.029  1.00  0.00     0.053 A 
HETATM    9  C   UNL     1      -1.989   9.090 -26.987  1.00  0.00     0.026 A 
HETATM   10  N   UNL     1      -0.949   8.188 -27.302  1.00  0.00    -0.265 NA
HETATM   11  C   UNL     1      -4.371   9.538 -26.673  1.00  0.00     0.019 A 
HETATM   12  C   UNL     1      -4.075  10.835 -26.262  1.00  0.00     0.001 A 
HETATM   13  C   UNL     1      -2.745  11.250 -26.181  1.00  0.00     0.002 A 
HETATM   14  C   UNL     1      -1.705  10.376 -26.520  1.00  0.00     0.024 A 
HETATM   15  C   UNL     1      -0.056   6.049 -28.592  1.00  0.00     0.030 C 
HETATM   16  C   UNL     1       0.561   5.163 -29.981  1.00  0.00     0.009 C 
HETATM   17  C   UNL     1       0.423   6.192 -31.578  1.00  0.00     0.010 C 
HETATM   18  C   UNL     1      -1.304   6.315 -30.567  1.00  0.00     0.086 C 
HETATM   19  C   UNL     1       0.243   6.981 -29.597  1.00  0.00     0.023 C 
HETATM   20  H   UNL     1      -2.721   5.631 -28.161  1.00  0.00     0.164 HD
HETATM   21  H   UNL     1      -0.070   8.668 -27.465  1.00  0.00     0.130 HD
ENDROOT
BRANCH  18  22
HETATM   22  C   UNL     1      -1.880   5.059 -31.401  1.00  0.00     0.222 C 
HETATM   23  N   UNL     1      -3.076   4.642 -30.842  1.00  0.00    -0.360 N 
HETATM   24  H   UNL     1      -3.461   5.184 -30.079  1.00  0.00     0.162 HD
HETATM   25  O   UNL     1      -1.373   4.466 -32.342  1.00  0.00    -0.273 OA
BRANCH  23  26
HETATM   26  C   UNL     1      -3.934   3.594 -31.363  1.00  0.00     0.127 C 
BRANCH  26  27
HETATM   27  C   UNL     1      -3.291   2.203 -31.227  1.00  0.00     0.058 C 
BRANCH  27  28
HETATM   28  C   UNL     1      -3.984   1.133 -32.046  1.00  0.00    -0.057 A 
HETATM   29  C   UNL     1      -3.351  -0.078 -32.345  1.00  0.00     0.010 A 
HETATM   30  C   UNL     1      -3.964  -0.999 -33.200  1.00  0.00     0.037 A 
HETATM   31  C   UNL     1      -5.219  -0.737 -33.756  1.00  0.00     0.068 A 
HETATM   32  C   UNL     1      -5.857   0.464 -33.453  1.00  0.00     0.037 A 
HETATM   33  C   UNL     1      -5.243   1.391 -32.604  1.00  0.00     0.010 A 
BRANCH  31  34
HETATM   34  O   UNL     1      -5.700  -1.713 -34.585  1.00  0.00    -0.356 OA
HETATM   35  C   UNL     1      -4.937  -2.912 -34.659  1.00  0.00     0.210 C 
ENDBRANCH  31  34
ENDBRANCH  27  28
ENDBRANCH  26  27
ENDBRANCH  23  26
ENDBRANCH  18  22
TORSDOF 5
ENDMDL
MODEL 10
REMARK VINA RESULT:      -8.5      3.187      5.119
REMARK  5 active torsions:
REMARK  status: ('A' for Active; 'I' for Inactive)
REMARK    1  A    between atoms: C_18  and  C_19 
REMARK       I    between atoms: C_19  and  N_20 
REMARK    2  A    between atoms: N_20  and  C_21 
REMARK    3  A    between atoms: C_21  and  C_22 
REMARK    4  A    between atoms: C_22  and  C_23 
REMARK    5  A    between atoms: C_26  and  O_27 
ROOT
HETATM    1  C   UNL     1      -5.042   4.847 -30.430  1.00  0.00     0.016 C 
HETATM    2  C   UNL     1      -4.037   5.749 -31.098  1.00  0.00    -0.028 C 
HETATM    3  C   UNL     1      -2.822   6.416 -29.953  1.00  0.00     0.058 C 
HETATM    4  C   UNL     1      -1.219   6.850 -30.856  1.00  0.00     0.095 C 
HETATM    5  N   UNL     1      -0.133   5.909 -30.663  1.00  0.00    -0.334 N 
HETATM    6  C   UNL     1       0.451   5.714 -29.442  1.00  0.00     0.255 C 
HETATM    7  O   UNL     1       1.108   4.713 -29.191  1.00  0.00    -0.268 OA
HETATM    8  C   UNL     1       0.252   6.797 -28.462  1.00  0.00     0.053 A 
HETATM    9  C   UNL     1      -0.358   7.976 -28.915  1.00  0.00     0.026 A 
HETATM   10  N   UNL     1      -0.741   8.115 -30.268  1.00  0.00    -0.265 NA
HETATM   11  C   UNL     1       0.684   6.656 -27.141  1.00  0.00     0.019 A 
HETATM   12  C   UNL     1       0.511   7.712 -26.252  1.00  0.00     0.001 A 
HETATM   13  C   UNL     1      -0.062   8.905 -26.694  1.00  0.00     0.002 A 
HETATM   14  C   UNL     1      -0.474   9.045 -28.025  1.00  0.00     0.024 A 
HETATM   15  C   UNL     1      -1.514   7.052 -32.571  1.00  0.00     0.030 C 
HETATM   16  C   UNL     1      -2.670   6.362 -33.705  1.00  0.00     0.009 C 
HETATM   17  C   UNL     1      -4.330   5.976 -32.853  1.00  0.00     0.010 C 
HETATM   18  C   UNL     1      -2.832   5.309 -31.701  1.00  0.00     0.086 C 
HETATM   19  C   UNL     1      -2.798   7.225 -32.033  1.00  0.00     0.023 C 
HETATM   20  H   UNL     1       0.015   5.162 -31.327  1.00  0.00     0.164 HD
HETATM   21  H   UNL     1      -1.373   8.897 -30.402  1.00  0.00     0.130 HD
ENDROOT
BRANCH  18  22
HETATM   22  C   UNL     1      -2.931   3.863 -32.410  1.00  0.00     0.222 C 
HETATM   23  N   UNL     1      -3.302   2.913 -31.474  1.00  0.00    -0.360 N 
HETATM   24  H   UNL     1      -3.528   3.227 -30.538  1.00  0.00     0.162 HD
HETATM   25  O   UNL     1      -2.671   3.557 -33.564  1.00  0.00    -0.273 OA
BRANCH  23  26
HETATM   26  C   UNL     1      -3.574   1.515 -31.749  1.00  0.00     0.127 C 
BRANCH  26  27
HETATM   27  C   UNL     1      -4.998   1.300 -32.288  1.00  0.00     0.058 C 
BRANCH  27  28
HETATM   28  C   UNL     1      -5.178  -0.017 -33.015  1.00  0.00    -0.057 A 
HETATM   29  C   UNL     1      -4.142  -0.954 -33.090  1.00  0.00     0.010 A 
HETATM   30  C   UNL     1      -4.292  -2.108 -33.866  1.00  0.00     0.037 A 
HETATM   31  C   UNL     1      -5.477  -2.354 -34.563  1.00  0.00     0.068 A 
HETATM   32  C   UNL     1      -6.515  -1.428 -34.484  1.00  0.00     0.037 A 
HETATM   33  C   UNL     1      -6.366  -0.270 -33.714  1.00  0.00     0.010 A 
BRANCH  31  34
HETATM   34  O   UNL     1      -5.489  -3.510 -35.293  1.00  0.00    -0.356 OA
HETATM   35  C   UNL     1      -6.482  -4.468 -34.946  1.00  0.00     0.210 C 
ENDBRANCH  31  34
ENDBRANCH  27  28
ENDBRANCH  26  27
ENDBRANCH  23  26
ENDBRANCH  18  22
TORSDOF 5
ENDMDL
