MODEL 1
REMARK VINA RESULT:      -9.6      0.000      0.000
REMARK  4 active torsions:
REMARK  status: ('A' for Active; 'I' for Inactive)
REMARK    1  A    between atoms: C_7  and  C_8 
REMARK    2  A    between atoms: N_9  and  N_10 
REMARK       I    between atoms: N_10  and  C_11 
REMARK    3  A    between atoms: C_11  and  C_12 
REMARK    4  A    between atoms: C_16  and  C_17 
ROOT
HETATM    1  N   UNL     1      -2.510   4.132 -31.223  1.00  0.00    -0.242 N 
HETATM    2  C   UNL     1      -1.407   4.903 -31.555  1.00  0.00     0.289 C 
HETATM    3  O   UNL     1      -1.011   5.087 -32.704  1.00  0.00    -0.264 OA
HETATM    4  H   UNL     1      -2.786   4.018 -30.258  1.00  0.00     0.192 HD
ENDROOT
BRANCH   2   5
HETATM    5  C   UNL     1      -0.726   5.500 -30.433  1.00  0.00     0.121 A 
HETATM    6  N   UNL     1       0.147   4.775 -29.672  1.00  0.00    -0.272 N 
HETATM    7  H   UNL     1       0.398   3.799 -29.804  1.00  0.00     0.189 HD
HETATM    8  N   UNL     1       0.704   5.462 -28.666  1.00  0.00    -0.174 NA
HETATM    9  C   UNL     1       0.181   6.694 -28.759  1.00  0.00     0.089 A 
HETATM   10  C   UNL     1      -0.724   6.757 -29.860  1.00  0.00     0.071 A 
BRANCH   9  11
HETATM   11  C   UNL     1       0.550   7.758 -27.815  1.00  0.00    -0.003 A 
HETATM   12  C   UNL     1       1.553   7.558 -26.853  1.00  0.00     0.053 A 
HETATM   13  C   UNL     1       1.854   8.597 -25.994  1.00  0.00     0.106 A 
HETATM   14  C   UNL     1       1.205   9.807 -26.056  1.00  0.00     0.105 A 
HETATM   15  O   UNL     1       2.794   8.563 -25.011  1.00  0.00    -0.323 OA
HETATM   16  O   UNL     1       1.654  10.687 -25.122  1.00  0.00    -0.323 OA
HETATM   17  C   UNL     1       0.218  10.048 -26.982  1.00  0.00     0.040 A 
HETATM   18  C   UNL     1       2.662   9.893 -24.463  1.00  0.00     0.352 A 
HETATM   19  C   UNL     1      -0.109   9.012 -27.866  1.00  0.00     0.017 A 
ENDBRANCH   9  11
ENDBRANCH   2   5
BRANCH   1  20
HETATM   20  N   UNL     1      -3.234   3.517 -32.206  1.00  0.00    -0.183 NA
HETATM   21  C   UNL     1      -4.336   2.952 -31.834  1.00  0.00     0.153 C 
BRANCH  21  22
HETATM   22  C   UNL     1      -5.177   2.273 -32.804  1.00  0.00     0.018 A 
HETATM   23  C   UNL     1      -6.102   2.855 -33.662  1.00  0.00     0.018 A 
HETATM   24  C   UNL     1      -6.506   4.275 -33.853  1.00  0.00     0.069 C 
HETATM   25  N   UNL     1      -6.673   1.851 -34.404  1.00  0.00    -0.358 N 
HETATM   26  H   UNL     1      -7.382   1.985 -35.111  1.00  0.00     0.166 HD
HETATM   27  C   UNL     1      -6.147   0.631 -34.056  1.00  0.00     0.043 A 
HETATM   28  C   UNL     1      -5.204   0.860 -33.054  1.00  0.00     0.004 A 
HETATM   29  C   UNL     1      -6.436  -0.646 -34.552  1.00  0.00     0.030 A 
HETATM   30  C   UNL     1      -4.515  -0.251 -32.521  1.00  0.00     0.014 A 
HETATM   31  C   UNL     1      -4.791  -1.535 -33.005  1.00  0.00     0.001 A 
HETATM   32  C   UNL     1      -5.738  -1.727 -34.007  1.00  0.00     0.002 A 
ENDBRANCH  21  22
ENDBRANCH   1  20
TORSDOF 4
ENDMDL
MODEL 2
REMARK VINA RESULT:      -9.1      1.752      2.470
REMARK  4 active torsions:
REMARK  status: ('A' for Active; 'I' for Inactive)
REMARK    1  A    between atoms: C_7  and  C_8 
REMARK    2  A    between atoms: N_9  and  N_10 
REMARK       I    between atoms: N_10  and  C_11 
REMARK    3  A    between atoms: C_11  and  C_12 
REMARK    4  A    between atoms: C_16  and  C_17 
ROOT
HETATM    1  N   UNL     1      -3.556   3.103 -31.989  1.00  0.00    -0.242 N 
HETATM    2  C   UNL     1      -2.967   4.189 -32.618  1.00  0.00     0.289 C 
HETATM    3  O   UNL     1      -3.201   4.530 -33.774  1.00  0.00    -0.264 OA
HETATM    4  H   UNL     1      -3.322   2.872 -31.033  1.00  0.00     0.192 HD
ENDROOT
BRANCH   2   5
HETATM    5  C   UNL     1      -2.030   4.924 -31.804  1.00  0.00     0.121 A 
HETATM    6  N   UNL     1      -0.715   5.023 -32.162  1.00  0.00    -0.272 N 
HETATM    7  H   UNL     1      -0.280   4.618 -32.985  1.00  0.00     0.189 HD
HETATM    8  N   UNL     1       0.035   5.737 -31.311  1.00  0.00    -0.174 NA
HETATM    9  C   UNL     1      -0.814   6.128 -30.348  1.00  0.00     0.089 A 
HETATM   10  C   UNL     1      -2.124   5.635 -30.624  1.00  0.00     0.071 A 
BRANCH   9  11
HETATM   11  C   UNL     1      -0.363   6.945 -29.213  1.00  0.00    -0.003 A 
HETATM   12  C   UNL     1      -0.851   8.247 -29.017  1.00  0.00     0.053 A 
HETATM   13  C   UNL     1      -0.388   8.965 -27.931  1.00  0.00     0.106 A 
HETATM   14  C   UNL     1       0.527   8.443 -27.048  1.00  0.00     0.105 A 
HETATM   15  O   UNL     1      -0.760  10.232 -27.604  1.00  0.00    -0.323 OA
HETATM   16  O   UNL     1       0.846   9.314 -26.055  1.00  0.00    -0.323 OA
HETATM   17  C   UNL     1       1.031   7.173 -27.200  1.00  0.00     0.040 A 
HETATM   18  C   UNL     1       0.027  10.447 -26.412  1.00  0.00     0.352 A 
HETATM   19  C   UNL     1       0.580   6.423 -28.292  1.00  0.00     0.017 A 
ENDBRANCH   9  11
ENDBRANCH   2   5
BRANCH   1  20
HETATM   20  N   UNL     1      -4.462   2.333 -32.663  1.00  0.00    -0.183 NA
HETATM   21  C   UNL     1      -4.920   1.303 -32.029  1.00  0.00     0.153 C 
BRANCH  21  22
HETATM   22  C   UNL     1      -5.887   0.422 -32.659  1.00  0.00     0.018 A 
HETATM   23  C   UNL     1      -7.268   0.574 -32.678  1.00  0.00     0.018 A 
HETATM   24  C   UNL     1      -8.148   1.623 -32.095  1.00  0.00     0.069 C 
HETATM   25  N   UNL     1      -7.794  -0.482 -33.380  1.00  0.00    -0.358 N 
HETATM   26  H   UNL     1      -8.779  -0.629 -33.553  1.00  0.00     0.166 HD
HETATM   27  C   UNL     1      -6.798  -1.318 -33.820  1.00  0.00     0.043 A 
HETATM   28  C   UNL     1      -5.587  -0.779 -33.385  1.00  0.00     0.004 A 
HETATM   29  C   UNL     1      -6.881  -2.500 -34.565  1.00  0.00     0.030 A 
HETATM   30  C   UNL     1      -4.397  -1.463 -33.714  1.00  0.00     0.014 A 
HETATM   31  C   UNL     1      -4.461  -2.647 -34.458  1.00  0.00     0.001 A 
HETATM   32  C   UNL     1      -5.687  -3.156 -34.877  1.00  0.00     0.002 A 
ENDBRANCH  21  22
ENDBRANCH   1  20
TORSDOF 4
ENDMDL
MODEL 3
REMARK VINA RESULT:      -9.0      3.069     11.163
REMARK  4 active torsions:
REMARK  status: ('A' for Active; 'I' for Inactive)
REMARK    1  A    between atoms: C_7  and  C_8 
REMARK    2  A    between atoms: N_9  and  N_10 
REMARK       I    between atoms: N_10  and  C_11 
REMARK    3  A    between atoms: C_11  and  C_12 
REMARK    4  A    between atoms: C_16  and  C_17 
ROOT
HETATM    1  N   UNL     1      -3.206   5.515 -30.770  1.00  0.00    -0.242 N 
HETATM    2  C   UNL     1      -2.629   4.385 -31.329  1.00  0.00     0.289 C 
HETATM    3  O   UNL     1      -1.421   4.231 -31.488  1.00  0.00    -0.264 OA
HETATM    4  H   UNL     1      -4.209   5.583 -30.665  1.00  0.00     0.192 HD
ENDROOT
BRANCH   2   5
HETATM    5  C   UNL     1      -3.565   3.362 -31.726  1.00  0.00     0.121 A 
HETATM    6  N   UNL     1      -4.884   3.442 -31.380  1.00  0.00    -0.272 N 
HETATM    7  H   UNL     1      -5.325   4.182 -30.841  1.00  0.00     0.189 HD
HETATM    8  N   UNL     1      -5.632   2.421 -31.821  1.00  0.00    -0.174 NA
HETATM    9  C   UNL     1      -4.777   1.628 -32.485  1.00  0.00     0.089 A 
HETATM   10  C   UNL     1      -3.466   2.188 -32.447  1.00  0.00     0.071 A 
BRANCH   9  11
HETATM   11  C   UNL     1      -5.224   0.384 -33.126  1.00  0.00    -0.003 A 
HETATM   12  C   UNL     1      -4.378  -0.734 -33.209  1.00  0.00     0.053 A 
HETATM   13  C   UNL     1      -4.857  -1.875 -33.823  1.00  0.00     0.106 A 
HETATM   14  C   UNL     1      -6.125  -1.943 -34.350  1.00  0.00     0.105 A 
HETATM   15  O   UNL     1      -4.165  -3.035 -33.985  1.00  0.00    -0.323 OA
HETATM   16  O   UNL     1      -6.392  -3.154 -34.907  1.00  0.00    -0.323 OA
HETATM   17  C   UNL     1      -6.988  -0.874 -34.290  1.00  0.00     0.040 A 
HETATM   18  C   UNL     1      -5.146  -3.842 -34.672  1.00  0.00     0.352 A 
HETATM   19  C   UNL     1      -6.529   0.296 -33.673  1.00  0.00     0.017 A 
ENDBRANCH   9  11
ENDBRANCH   2   5
BRANCH   1  20
HETATM   20  N   UNL     1      -2.416   6.549 -30.355  1.00  0.00    -0.183 NA
HETATM   21  C   UNL     1      -2.683   7.040 -29.188  1.00  0.00     0.153 C 
BRANCH  21  22
HETATM   22  C   UNL     1      -1.901   8.142 -28.657  1.00  0.00     0.018 A 
HETATM   23  C   UNL     1      -2.236   9.490 -28.675  1.00  0.00     0.018 A 
HETATM   24  C   UNL     1      -3.431  10.198 -29.210  1.00  0.00     0.069 C 
HETATM   25  N   UNL     1      -1.216  10.182 -28.070  1.00  0.00    -0.358 N 
HETATM   26  H   UNL     1      -1.192  11.184 -27.942  1.00  0.00     0.166 HD
HETATM   27  C   UNL     1      -0.225   9.325 -27.657  1.00  0.00     0.043 A 
HETATM   28  C   UNL     1      -0.624   8.036 -28.011  1.00  0.00     0.004 A 
HETATM   29  C   UNL     1       0.982   9.596 -27.004  1.00  0.00     0.030 A 
HETATM   30  C   UNL     1       0.235   6.962 -27.692  1.00  0.00     0.014 A 
HETATM   31  C   UNL     1       1.447   7.215 -27.038  1.00  0.00     0.001 A 
HETATM   32  C   UNL     1       1.813   8.515 -26.700  1.00  0.00     0.002 A 
ENDBRANCH  21  22
ENDBRANCH   1  20
TORSDOF 4
ENDMDL
MODEL 4
REMARK VINA RESULT:      -8.9      3.574     11.330
REMARK  4 active torsions:
REMARK  status: ('A' for Active; 'I' for Inactive)
REMARK    1  A    between atoms: C_7  and  C_8 
REMARK    2  A    between atoms: N_9  and  N_10 
REMARK       I    between atoms: N_10  and  C_11 
REMARK    3  A    between atoms: C_11  and  C_12 
REMARK    4  A    between atoms: C_16  and  C_17 
ROOT
HETATM    1  N   UNL     1      -4.045   4.291 -31.592  1.00  0.00    -0.242 N 
HETATM    2  C   UNL     1      -4.856   3.309 -31.047  1.00  0.00     0.289 C 
HETATM    3  O   UNL     1      -5.291   3.329 -29.899  1.00  0.00    -0.264 OA
HETATM    4  H   UNL     1      -3.717   4.218 -32.546  1.00  0.00     0.192 HD
ENDROOT
BRANCH   2   5
HETATM    5  C   UNL     1      -5.172   2.221 -31.939  1.00  0.00     0.121 A 
HETATM    6  N   UNL     1      -5.861   2.439 -33.099  1.00  0.00    -0.272 N 
HETATM    7  H   UNL     1      -6.203   3.333 -33.440  1.00  0.00     0.189 HD
HETATM    8  N   UNL     1      -6.080   1.335 -33.826  1.00  0.00    -0.174 NA
HETATM    9  C   UNL     1      -5.517   0.341 -33.122  1.00  0.00     0.089 A 
HETATM   10  C   UNL     1      -4.935   0.860 -31.927  1.00  0.00     0.071 A 
BRANCH   9  11
HETATM   11  C   UNL     1      -5.547  -1.049 -33.597  1.00  0.00    -0.003 A 
HETATM   12  C   UNL     1      -4.458  -1.911 -33.389  1.00  0.00     0.053 A 
HETATM   13  C   UNL     1      -4.548  -3.207 -33.860  1.00  0.00     0.106 A 
HETATM   14  C   UNL     1      -5.662  -3.668 -34.519  1.00  0.00     0.105 A 
HETATM   15  O   UNL     1      -3.585  -4.160 -33.740  1.00  0.00    -0.323 OA
HETATM   16  O   UNL     1      -5.542  -4.968 -34.897  1.00  0.00    -0.323 OA
HETATM   17  C   UNL     1      -6.752  -2.860 -34.745  1.00  0.00     0.040 A 
HETATM   18  C   UNL     1      -4.223  -5.275 -34.399  1.00  0.00     0.352 A 
HETATM   19  C   UNL     1      -6.689  -1.542 -34.278  1.00  0.00     0.017 A 
ENDBRANCH   9  11
ENDBRANCH   2   5
BRANCH   1  20
HETATM   20  N   UNL     1      -3.680   5.371 -30.839  1.00  0.00    -0.183 NA
HETATM   21  C   UNL     1      -2.503   5.856 -31.067  1.00  0.00     0.153 C 
BRANCH  21  22
HETATM   22  C   UNL     1      -2.023   7.003 -30.319  1.00  0.00     0.018 A 
HETATM   23  C   UNL     1      -2.519   8.300 -30.366  1.00  0.00     0.018 A 
HETATM   24  C   UNL     1      -3.636   8.895 -31.151  1.00  0.00     0.069 C 
HETATM   25  N   UNL     1      -1.775   9.065 -29.504  1.00  0.00    -0.358 N 
HETATM   26  H   UNL     1      -1.915  10.051 -29.336  1.00  0.00     0.166 HD
HETATM   27  C   UNL     1      -0.806   8.306 -28.894  1.00  0.00     0.043 A 
HETATM   28  C   UNL     1      -0.934   7.006 -29.384  1.00  0.00     0.004 A 
HETATM   29  C   UNL     1       0.164   8.673 -27.955  1.00  0.00     0.030 A 
HETATM   30  C   UNL     1      -0.041   6.023 -28.905  1.00  0.00     0.014 A 
HETATM   31  C   UNL     1       0.936   6.373 -27.965  1.00  0.00     0.001 A 
HETATM   32  C   UNL     1       1.034   7.680 -27.497  1.00  0.00     0.002 A 
ENDBRANCH  21  22
ENDBRANCH   1  20
TORSDOF 4
ENDMDL
MODEL 5
REMARK VINA RESULT:      -8.9      1.559      2.128
REMARK  4 active torsions:
REMARK  status: ('A' for Active; 'I' for Inactive)
REMARK    1  A    between atoms: C_7  and  C_8 
REMARK    2  A    between atoms: N_9  and  N_10 
REMARK       I    between atoms: N_10  and  C_11 
REMARK    3  A    between atoms: C_11  and  C_12 
REMARK    4  A    between atoms: C_16  and  C_17 
ROOT
HETATM    1  N   UNL     1      -2.758   3.846 -31.245  1.00  0.00    -0.242 N 
HETATM    2  C   UNL     1      -1.919   4.824 -31.757  1.00  0.00     0.289 C 
HETATM    3  O   UNL     1      -1.412   4.785 -32.875  1.00  0.00    -0.264 OA
HETATM    4  H   UNL     1      -3.145   3.935 -30.316  1.00  0.00     0.192 HD
ENDROOT
BRANCH   2   5
HETATM    5  C   UNL     1      -1.667   5.932 -30.869  1.00  0.00     0.121 A 
HETATM    6  N   UNL     1      -2.531   6.988 -30.799  1.00  0.00    -0.272 N 
HETATM    7  H   UNL     1      -3.390   7.103 -31.329  1.00  0.00     0.189 HD
HETATM    8  N   UNL     1      -2.167   7.940 -29.929  1.00  0.00    -0.174 NA
HETATM    9  C   UNL     1      -1.014   7.502 -29.399  1.00  0.00     0.089 A 
HETATM   10  C   UNL     1      -0.668   6.239 -29.967  1.00  0.00     0.071 A 
BRANCH   9  11
HETATM   11  C   UNL     1      -0.289   8.282 -28.387  1.00  0.00    -0.003 A 
HETATM   12  C   UNL     1      -0.951   9.232 -27.593  1.00  0.00     0.053 A 
HETATM   13  C   UNL     1      -0.213   9.933 -26.658  1.00  0.00     0.106 A 
HETATM   14  C   UNL     1       1.135   9.727 -26.489  1.00  0.00     0.105 A 
HETATM   15  O   UNL     1      -0.703  10.883 -25.816  1.00  0.00    -0.323 OA
HETATM   16  O   UNL     1       1.665  10.520 -25.519  1.00  0.00    -0.323 OA
HETATM   17  C   UNL     1       1.824   8.807 -27.243  1.00  0.00     0.040 A 
HETATM   18  C   UNL     1       0.494  11.250 -25.096  1.00  0.00     0.352 A 
HETATM   19  C   UNL     1       1.101   8.082 -28.199  1.00  0.00     0.017 A 
ENDBRANCH   9  11
ENDBRANCH   2   5
BRANCH   1  20
HETATM   20  N   UNL     1      -3.068   2.750 -31.999  1.00  0.00    -0.183 NA
HETATM   21  C   UNL     1      -4.260   2.271 -31.848  1.00  0.00     0.153 C 
BRANCH  21  22
HETATM   22  C   UNL     1      -4.686   1.107 -32.604  1.00  0.00     0.018 A 
HETATM   23  C   UNL     1      -5.683   1.057 -33.570  1.00  0.00     0.018 A 
HETATM   24  C   UNL     1      -6.581   2.114 -34.110  1.00  0.00     0.069 C 
HETATM   25  N   UNL     1      -5.757  -0.235 -34.028  1.00  0.00    -0.358 N 
HETATM   26  H   UNL     1      -6.397  -0.562 -34.738  1.00  0.00     0.166 HD
HETATM   27  C   UNL     1      -4.837  -1.030 -33.389  1.00  0.00     0.043 A 
HETATM   28  C   UNL     1      -4.148  -0.218 -32.488  1.00  0.00     0.004 A 
HETATM   29  C   UNL     1      -4.569  -2.395 -33.542  1.00  0.00     0.030 A 
HETATM   30  C   UNL     1      -3.137  -0.808 -31.699  1.00  0.00     0.014 A 
HETATM   31  C   UNL     1      -2.855  -2.172 -31.839  1.00  0.00     0.001 A 
HETATM   32  C   UNL     1      -3.563  -2.953 -32.749  1.00  0.00     0.002 A 
ENDBRANCH  21  22
ENDBRANCH   1  20
TORSDOF 4
ENDMDL
MODEL 6
REMARK VINA RESULT:      -8.9      1.911      2.656
REMARK  4 active torsions:
REMARK  status: ('A' for Active; 'I' for Inactive)
REMARK    1  A    between atoms: C_7  and  C_8 
REMARK    2  A    between atoms: N_9  and  N_10 
REMARK       I    between atoms: N_10  and  C_11 
REMARK    3  A    between atoms: C_11  and  C_12 
REMARK    4  A    between atoms: C_16  and  C_17 
ROOT
HETATM    1  N   UNL     1      -3.533   2.638 -31.981  1.00  0.00    -0.242 N 
HETATM    2  C   UNL     1      -2.821   3.727 -32.458  1.00  0.00     0.289 C 
HETATM    3  O   UNL     1      -2.382   3.821 -33.601  1.00  0.00    -0.264 OA
HETATM    4  H   UNL     1      -3.869   2.620 -31.028  1.00  0.00     0.192 HD
ENDROOT
BRANCH   2   5
HETATM    5  C   UNL     1      -2.620   4.786 -31.499  1.00  0.00     0.121 A 
HETATM    6  N   UNL     1      -3.678   5.488 -30.993  1.00  0.00    -0.272 N 
HETATM    7  H   UNL     1      -4.659   5.351 -31.220  1.00  0.00     0.189 HD
HETATM    8  N   UNL     1      -3.337   6.438 -30.112  1.00  0.00    -0.174 NA
HETATM    9  C   UNL     1      -2.000   6.368 -30.028  1.00  0.00     0.089 A 
HETATM   10  C   UNL     1      -1.512   5.339 -30.887  1.00  0.00     0.071 A 
BRANCH   9  11
HETATM   11  C   UNL     1      -1.238   7.266 -29.149  1.00  0.00    -0.003 A 
HETATM   12  C   UNL     1      -0.091   6.818 -28.474  1.00  0.00     0.053 A 
HETATM   13  C   UNL     1       0.582   7.710 -27.662  1.00  0.00     0.106 A 
HETATM   14  C   UNL     1       0.162   9.009 -27.499  1.00  0.00     0.105 A 
HETATM   15  O   UNL     1       1.703   7.433 -26.943  1.00  0.00    -0.323 OA
HETATM   16  O   UNL     1       0.966   9.714 -26.659  1.00  0.00    -0.323 OA
HETATM   17  C   UNL     1      -0.954   9.491 -28.141  1.00  0.00     0.040 A 
HETATM   18  C   UNL     1       1.941   8.709 -26.310  1.00  0.00     0.352 A 
HETATM   19  C   UNL     1      -1.656   8.608 -28.971  1.00  0.00     0.017 A 
ENDBRANCH   9  11
ENDBRANCH   2   5
BRANCH   1  20
HETATM   20  N   UNL     1      -3.785   1.575 -32.802  1.00  0.00    -0.183 NA
HETATM   21  C   UNL     1      -4.882   0.928 -32.578  1.00  0.00     0.153 C 
BRANCH  21  22
HETATM   22  C   UNL     1      -5.240  -0.216 -33.397  1.00  0.00     0.018 A 
HETATM   23  C   UNL     1      -6.200  -0.260 -34.400  1.00  0.00     0.018 A 
HETATM   24  C   UNL     1      -7.115   0.789 -34.929  1.00  0.00     0.069 C 
HETATM   25  N   UNL     1      -6.213  -1.533 -34.912  1.00  0.00    -0.358 N 
HETATM   26  H   UNL     1      -6.816  -1.852 -35.658  1.00  0.00     0.166 HD
HETATM   27  C   UNL     1      -5.289  -2.323 -34.273  1.00  0.00     0.043 A 
HETATM   28  C   UNL     1      -4.661  -1.527 -33.315  1.00  0.00     0.004 A 
HETATM   29  C   UNL     1      -4.968  -3.671 -34.471  1.00  0.00     0.030 A 
HETATM   30  C   UNL     1      -3.658  -2.115 -32.514  1.00  0.00     0.014 A 
HETATM   31  C   UNL     1      -3.324  -3.462 -32.699  1.00  0.00     0.001 A 
HETATM   32  C   UNL     1      -3.971  -4.227 -33.665  1.00  0.00     0.002 A 
ENDBRANCH  21  22
ENDBRANCH   1  20
TORSDOF 4
ENDMDL
MODEL 7
REMARK VINA RESULT:      -8.5      3.838     11.487
REMARK  4 active torsions:
REMARK  status: ('A' for Active; 'I' for Inactive)
REMARK    1  A    between atoms: C_7  and  C_8 
REMARK    2  A    between atoms: N_9  and  N_10 
REMARK       I    between atoms: N_10  and  C_11 
REMARK    3  A    between atoms: C_11  and  C_12 
REMARK    4  A    between atoms: C_16  and  C_17 
ROOT
HETATM    1  N   UNL     1      -3.904   4.274 -31.511  1.00  0.00    -0.242 N 
HETATM    2  C   UNL     1      -4.773   3.321 -31.004  1.00  0.00     0.289 C 
HETATM    3  O   UNL     1      -5.242   3.345 -29.869  1.00  0.00    -0.264 OA
HETATM    4  H   UNL     1      -3.552   4.200 -32.455  1.00  0.00     0.192 HD
ENDROOT
BRANCH   2   5
HETATM    5  C   UNL     1      -5.110   2.260 -31.921  1.00  0.00     0.121 A 
HETATM    6  N   UNL     1      -5.748   2.525 -33.100  1.00  0.00    -0.272 N 
HETATM    7  H   UNL     1      -6.036   3.438 -33.440  1.00  0.00     0.189 HD
HETATM    8  N   UNL     1      -5.994   1.441 -33.849  1.00  0.00    -0.174 NA
HETATM    9  C   UNL     1      -5.501   0.413 -33.140  1.00  0.00     0.089 A 
HETATM   10  C   UNL     1      -4.936   0.890 -31.920  1.00  0.00     0.071 A 
BRANCH   9  11
HETATM   11  C   UNL     1      -5.580  -0.968 -33.636  1.00  0.00    -0.003 A 
HETATM   12  C   UNL     1      -4.519  -1.868 -33.446  1.00  0.00     0.053 A 
HETATM   13  C   UNL     1      -4.654  -3.153 -33.936  1.00  0.00     0.106 A 
HETATM   14  C   UNL     1      -5.787  -3.568 -34.595  1.00  0.00     0.105 A 
HETATM   15  O   UNL     1      -3.722  -4.139 -33.835  1.00  0.00    -0.323 OA
HETATM   16  O   UNL     1      -5.711  -4.865 -34.992  1.00  0.00    -0.323 OA
HETATM   17  C   UNL     1      -6.850  -2.721 -34.802  1.00  0.00     0.040 A 
HETATM   18  C   UNL     1      -4.400  -5.223 -34.507  1.00  0.00     0.352 A 
HETATM   19  C   UNL     1      -6.741  -1.412 -34.317  1.00  0.00     0.017 A 
ENDBRANCH   9  11
ENDBRANCH   2   5
BRANCH   1  20
HETATM   20  N   UNL     1      -3.516   5.327 -30.731  1.00  0.00    -0.183 NA
HETATM   21  C   UNL     1      -2.331   5.796 -30.953  1.00  0.00     0.153 C 
BRANCH  21  22
HETATM   22  C   UNL     1      -1.826   6.914 -30.177  1.00  0.00     0.018 A 
HETATM   23  C   UNL     1      -0.715   6.920 -29.343  1.00  0.00     0.018 A 
HETATM   24  C   UNL     1       0.258   5.848 -28.997  1.00  0.00     0.069 C 
HETATM   25  N   UNL     1      -0.600   8.179 -28.808  1.00  0.00    -0.358 N 
HETATM   26  H   UNL     1       0.122   8.471 -28.164  1.00  0.00     0.166 HD
HETATM   27  C   UNL     1      -1.603   8.996 -29.269  1.00  0.00     0.043 A 
HETATM   28  C   UNL     1      -2.391   8.233 -30.131  1.00  0.00     0.004 A 
HETATM   29  C   UNL     1      -1.867  10.341 -28.987  1.00  0.00     0.030 A 
HETATM   30  C   UNL     1      -3.502   8.853 -30.741  1.00  0.00     0.014 A 
HETATM   31  C   UNL     1      -3.781  10.198 -30.471  1.00  0.00     0.001 A 
HETATM   32  C   UNL     1      -2.973  10.930 -29.606  1.00  0.00     0.002 A 
ENDBRANCH  21  22
ENDBRANCH   1  20
TORSDOF 4
ENDMDL
MODEL 8
REMARK VINA RESULT:      -8.2      9.199     12.056
REMARK  4 active torsions:
REMARK  status: ('A' for Active; 'I' for Inactive)
REMARK    1  A    between atoms: C_7  and  C_8 
REMARK    2  A    between atoms: N_9  and  N_10 
REMARK       I    between atoms: N_10  and  C_11 
REMARK    3  A    between atoms: C_11  and  C_12 
REMARK    4  A    between atoms: C_16  and  C_17 
ROOT
HETATM    1  N   UNL     1     -10.585   3.675 -35.082  1.00  0.00    -0.242 N 
HETATM    2  C   UNL     1     -11.163   2.538 -34.540  1.00  0.00     0.289 C 
HETATM    3  O   UNL     1     -12.373   2.352 -34.450  1.00  0.00    -0.264 OA
HETATM    4  H   UNL     1      -9.580   3.770 -35.128  1.00  0.00     0.192 HD
ENDROOT
BRANCH   2   5
HETATM    5  C   UNL     1     -10.225   1.547 -34.073  1.00  0.00     0.121 A 
HETATM    6  N   UNL     1     -10.546   0.701 -33.049  1.00  0.00    -0.272 N 
HETATM    7  H   UNL     1     -11.424   0.677 -32.537  1.00  0.00     0.189 HD
HETATM    8  N   UNL     1      -9.577  -0.165 -32.725  1.00  0.00    -0.174 NA
HETATM    9  C   UNL     1      -8.569   0.115 -33.565  1.00  0.00     0.089 A 
HETATM   10  C   UNL     1      -8.940   1.187 -34.430  1.00  0.00     0.071 A 
BRANCH   9  11
HETATM   11  C   UNL     1      -7.305  -0.633 -33.523  1.00  0.00    -0.003 A 
HETATM   12  C   UNL     1      -6.368  -0.418 -32.499  1.00  0.00     0.053 A 
HETATM   13  C   UNL     1      -5.198  -1.152 -32.515  1.00  0.00     0.106 A 
HETATM   14  C   UNL     1      -4.930  -2.077 -33.497  1.00  0.00     0.105 A 
HETATM   15  O   UNL     1      -4.196  -1.062 -31.600  1.00  0.00    -0.323 OA
HETATM   16  O   UNL     1      -3.727  -2.685 -33.324  1.00  0.00    -0.323 OA
HETATM   17  C   UNL     1      -5.818  -2.321 -34.518  1.00  0.00     0.040 A 
HETATM   18  C   UNL     1      -3.266  -2.037 -32.119  1.00  0.00     0.352 A 
HETATM   19  C   UNL     1      -7.012  -1.590 -34.527  1.00  0.00     0.017 A 
ENDBRANCH   9  11
ENDBRANCH   2   5
BRANCH   1  20
HETATM   20  N   UNL     1     -11.377   4.682 -35.558  1.00  0.00    -0.183 NA
HETATM   21  C   UNL     1     -11.059   5.881 -35.191  1.00  0.00     0.153 C 
BRANCH  21  22
HETATM   22  C   UNL     1     -11.839   7.019 -35.644  1.00  0.00     0.018 A 
HETATM   23  C   UNL     1     -13.145   7.332 -35.291  1.00  0.00     0.018 A 
HETATM   24  C   UNL     1     -14.110   6.645 -34.388  1.00  0.00     0.069 C 
HETATM   25  N   UNL     1     -13.491   8.487 -35.947  1.00  0.00    -0.358 N 
HETATM   26  H   UNL     1     -14.387   8.948 -35.876  1.00  0.00     0.166 HD
HETATM   27  C   UNL     1     -12.448   8.938 -36.719  1.00  0.00     0.043 A 
HETATM   28  C   UNL     1     -11.395   8.038 -36.551  1.00  0.00     0.004 A 
HETATM   29  C   UNL     1     -12.363  10.065 -37.545  1.00  0.00     0.030 A 
HETATM   30  C   UNL     1     -10.193   8.284 -37.250  1.00  0.00     0.014 A 
HETATM   31  C   UNL     1     -10.090   9.406 -38.080  1.00  0.00     0.001 A 
HETATM   32  C   UNL     1     -11.161  10.283 -38.223  1.00  0.00     0.002 A 
ENDBRANCH  21  22
ENDBRANCH   1  20
TORSDOF 4
ENDMDL
MODEL 9
REMARK VINA RESULT:      -8.2      4.946     12.017
REMARK  4 active torsions:
REMARK  status: ('A' for Active; 'I' for Inactive)
REMARK    1  A    between atoms: C_7  and  C_8 
REMARK    2  A    between atoms: N_9  and  N_10 
REMARK       I    between atoms: N_10  and  C_11 
REMARK    3  A    between atoms: C_11  and  C_12 
REMARK    4  A    between atoms: C_16  and  C_17 
ROOT
HETATM    1  N   UNL     1      -5.612   5.898 -32.657  1.00  0.00    -0.242 N 
HETATM    2  C   UNL     1      -5.908   5.160 -33.791  1.00  0.00     0.289 C 
HETATM    3  O   UNL     1      -5.113   4.938 -34.701  1.00  0.00    -0.264 OA
HETATM    4  H   UNL     1      -6.310   6.047 -31.941  1.00  0.00     0.192 HD
ENDROOT
BRANCH   2   5
HETATM    5  C   UNL     1      -7.255   4.647 -33.845  1.00  0.00     0.121 A 
HETATM    6  N   UNL     1      -8.316   5.478 -34.069  1.00  0.00    -0.272 N 
HETATM    7  H   UNL     1      -8.278   6.482 -34.215  1.00  0.00     0.189 HD
HETATM    8  N   UNL     1      -9.505   4.859 -34.093  1.00  0.00    -0.174 NA
HETATM    9  C   UNL     1      -9.225   3.565 -33.874  1.00  0.00     0.089 A 
HETATM   10  C   UNL     1      -7.818   3.392 -33.713  1.00  0.00     0.071 A 
BRANCH   9  11
HETATM   11  C   UNL     1     -10.284   2.548 -33.826  1.00  0.00    -0.003 A 
HETATM   12  C   UNL     1     -11.556   2.799 -34.367  1.00  0.00     0.053 A 
HETATM   13  C   UNL     1     -12.509   1.802 -34.290  1.00  0.00     0.106 A 
HETATM   14  C   UNL     1     -12.249   0.586 -33.704  1.00  0.00     0.105 A 
HETATM   15  O   UNL     1     -13.782   1.888 -34.763  1.00  0.00    -0.323 OA
HETATM   16  O   UNL     1     -13.322  -0.247 -33.735  1.00  0.00    -0.323 OA
HETATM   17  C   UNL     1     -11.019   0.297 -33.163  1.00  0.00     0.040 A 
HETATM   18  C   UNL     1     -14.292   0.584 -34.408  1.00  0.00     0.352 A 
HETATM   19  C   UNL     1     -10.033   1.289 -33.226  1.00  0.00     0.017 A 
ENDBRANCH   9  11
ENDBRANCH   2   5
BRANCH   1  20
HETATM   20  N   UNL     1      -4.365   6.433 -32.497  1.00  0.00    -0.183 NA
HETATM   21  C   UNL     1      -3.543   5.759 -31.760  1.00  0.00     0.153 C 
BRANCH  21  22
HETATM   22  C   UNL     1      -2.194   6.244 -31.530  1.00  0.00     0.018 A 
HETATM   23  C   UNL     1      -1.163   6.319 -32.458  1.00  0.00     0.018 A 
HETATM   24  C   UNL     1      -1.111   5.951 -33.900  1.00  0.00     0.069 C 
HETATM   25  N   UNL     1      -0.063   6.834 -31.819  1.00  0.00    -0.358 N 
HETATM   26  H   UNL     1       0.835   7.000 -32.254  1.00  0.00     0.166 HD
HETATM   27  C   UNL     1      -0.345   7.098 -30.501  1.00  0.00     0.043 A 
HETATM   28  C   UNL     1      -1.676   6.738 -30.287  1.00  0.00     0.004 A 
HETATM   29  C   UNL     1       0.474   7.622 -29.494  1.00  0.00     0.030 A 
HETATM   30  C   UNL     1      -2.212   6.914 -28.993  1.00  0.00     0.014 A 
HETATM   31  C   UNL     1      -1.408   7.438 -27.974  1.00  0.00     0.001 A 
HETATM   32  C   UNL     1      -0.084   7.787 -28.224  1.00  0.00     0.002 A 
ENDBRANCH  21  22
ENDBRANCH   1  20
TORSDOF 4
ENDMDL
MODEL 10
REMARK VINA RESULT:      -7.9      4.428     11.147
REMARK  4 active torsions:
REMARK  status: ('A' for Active; 'I' for Inactive)
REMARK    1  A    between atoms: C_7  and  C_8 
REMARK    2  A    between atoms: N_9  and  N_10 
REMARK       I    between atoms: N_10  and  C_11 
REMARK    3  A    between atoms: C_11  and  C_12 
REMARK    4  A    between atoms: C_16  and  C_17 
ROOT
HETATM    1  N   UNL     1      -4.179   4.268 -30.963  1.00  0.00    -0.242 N 
HETATM    2  C   UNL     1      -3.142   3.446 -31.373  1.00  0.00     0.289 C 
HETATM    3  O   UNL     1      -1.968   3.800 -31.453  1.00  0.00    -0.264 OA
HETATM    4  H   UNL     1      -5.127   3.919 -30.917  1.00  0.00     0.192 HD
ENDROOT
BRANCH   2   5
HETATM    5  C   UNL     1      -3.534   2.100 -31.713  1.00  0.00     0.121 A 
HETATM    6  N   UNL     1      -3.044   1.029 -31.022  1.00  0.00    -0.272 N 
HETATM    7  H   UNL     1      -2.391   1.058 -30.243  1.00  0.00     0.189 HD
HETATM    8  N   UNL     1      -3.498  -0.157 -31.449  1.00  0.00    -0.174 NA
HETATM    9  C   UNL     1      -4.323   0.135 -32.465  1.00  0.00     0.089 A 
HETATM   10  C   UNL     1      -4.372   1.548 -32.661  1.00  0.00     0.071 A 
BRANCH   9  11
HETATM   11  C   UNL     1      -5.030  -0.917 -33.208  1.00  0.00    -0.003 A 
HETATM   12  C   UNL     1      -4.411  -2.146 -33.490  1.00  0.00     0.053 A 
HETATM   13  C   UNL     1      -5.128  -3.096 -34.192  1.00  0.00     0.106 A 
HETATM   14  C   UNL     1      -6.416  -2.871 -34.617  1.00  0.00     0.105 A 
HETATM   15  O   UNL     1      -4.673  -4.329 -34.544  1.00  0.00    -0.323 OA
HETATM   16  O   UNL     1      -6.935  -3.933 -35.288  1.00  0.00    -0.323 OA
HETATM   17  C   UNL     1      -7.061  -1.684 -34.363  1.00  0.00     0.040 A 
HETATM   18  C   UNL     1      -5.825  -4.855 -35.238  1.00  0.00     0.352 A 
HETATM   19  C   UNL     1      -6.358  -0.703 -33.653  1.00  0.00     0.017 A 
ENDBRANCH   9  11
ENDBRANCH   2   5
BRANCH   1  20
HETATM   20  N   UNL     1      -3.926   5.565 -30.615  1.00  0.00    -0.183 NA
HETATM   21  C   UNL     1      -4.270   6.466 -31.477  1.00  0.00     0.153 C 
BRANCH  21  22
HETATM   22  C   UNL     1      -4.043   7.873 -31.200  1.00  0.00     0.018 A 
HETATM   23  C   UNL     1      -2.819   8.530 -31.159  1.00  0.00     0.018 A 
HETATM   24  C   UNL     1      -1.431   8.035 -31.372  1.00  0.00     0.069 C 
HETATM   25  N   UNL     1      -3.062   9.848 -30.863  1.00  0.00    -0.358 N 
HETATM   26  H   UNL     1      -2.353  10.561 -30.770  1.00  0.00     0.166 HD
HETATM   27  C   UNL     1      -4.409  10.071 -30.710  1.00  0.00     0.043 A 
HETATM   28  C   UNL     1      -5.053   8.851 -30.916  1.00  0.00     0.004 A 
HETATM   29  C   UNL     1      -5.095  11.253 -30.408  1.00  0.00     0.030 A 
HETATM   30  C   UNL     1      -6.461   8.816 -30.812  1.00  0.00     0.014 A 
HETATM   31  C   UNL     1      -7.164   9.988 -30.510  1.00  0.00     0.001 A 
HETATM   32  C   UNL     1      -6.488  11.189 -30.312  1.00  0.00     0.002 A 
ENDBRANCH  21  22
ENDBRANCH   1  20
TORSDOF 4
ENDMDL
