MODEL 1
REMARK VINA RESULT:      -9.6      0.000      0.000
REMARK  3 active torsions:
REMARK  status: ('A' for Active; 'I' for Inactive)
REMARK    1  A    between atoms: N_7  and  N_8 
REMARK       I    between atoms: N_8  and  C_9 
REMARK    2  A    between atoms: C_9  and  C_10 
REMARK    3  A    between atoms: C_14  and  C_15 
ROOT
HETATM    1  N   UNL     1     -11.072   2.051 -33.687  1.00  0.00    -0.241 N 
HETATM    2  C   UNL     1      -9.924   1.860 -32.937  1.00  0.00     0.289 C 
HETATM    3  O   UNL     1      -9.704   2.401 -31.856  1.00  0.00    -0.264 OA
HETATM    4  H   UNL     1     -11.183   1.582 -34.585  1.00  0.00     0.192 HD
ENDROOT
BRANCH   2   5
HETATM    5  C   UNL     1      -8.964   0.962 -33.531  1.00  0.00     0.121 A 
HETATM    6  N   UNL     1      -8.729   0.960 -34.876  1.00  0.00    -0.272 N 
HETATM    7  H   UNL     1      -9.170   1.558 -35.569  1.00  0.00     0.189 HD
HETATM    8  N   UNL     1      -7.829   0.051 -35.277  1.00  0.00    -0.174 NA
HETATM    9  C   UNL     1      -7.433  -0.558 -34.148  1.00  0.00     0.089 A 
HETATM   10  C   UNL     1      -8.127  -0.014 -33.028  1.00  0.00     0.071 A 
BRANCH   9  11
HETATM   11  C   UNL     1      -6.435  -1.632 -34.161  1.00  0.00    -0.006 A 
HETATM   12  C   UNL     1      -6.731  -2.892 -34.704  1.00  0.00     0.015 A 
HETATM   13  C   UNL     1      -5.768  -3.907 -34.717  1.00  0.00     0.024 A 
HETATM   14  C   UNL     1      -4.502  -3.669 -34.188  1.00  0.00     0.034 A 
HETATM   15 CL   UNL     1      -3.319  -4.918 -34.210  1.00  0.00    -0.084 Cl
HETATM   16  C   UNL     1      -4.190  -2.428 -33.641  1.00  0.00     0.024 A 
HETATM   17  C   UNL     1      -5.154  -1.416 -33.626  1.00  0.00     0.015 A 
ENDBRANCH   9  11
ENDBRANCH   2   5
BRANCH   1  18
HETATM   18  N   UNL     1     -12.058   2.899 -33.263  1.00  0.00    -0.165 NA
HETATM   19  C   UNL     1     -13.230   2.376 -33.096  1.00  0.00     0.157 A 
HETATM   20  C   UNL     1     -14.427   3.083 -32.661  1.00  0.00     0.027 A 
HETATM   21  C   UNL     1     -13.660   0.921 -33.313  1.00  0.00     0.277 A 
HETATM   22  C   UNL     1     -14.621   4.408 -32.327  1.00  0.00     0.016 A 
HETATM   23  C   UNL     1     -15.456   2.142 -32.628  1.00  0.00     0.048 A 
HETATM   24  C   UNL     1     -15.913   4.780 -31.947  1.00  0.00     0.001 A 
HETATM   25  C   UNL     1     -16.959   3.833 -31.912  1.00  0.00     0.002 A 
HETATM   26  C   UNL     1     -16.735   2.493 -32.256  1.00  0.00     0.030 A 
HETATM   27  N   UNL     1     -15.003   0.881 -33.011  1.00  0.00    -0.321 N 
HETATM   28  H   UNL     1     -15.562   0.043 -33.065  1.00  0.00     0.169 HD
HETATM   29  O   UNL     1     -12.921   0.030 -33.679  1.00  0.00    -0.266 OA
ENDBRANCH   1  18
TORSDOF 3
ENDMDL
MODEL 2
REMARK VINA RESULT:      -9.2      7.754     10.894
REMARK  3 active torsions:
REMARK  status: ('A' for Active; 'I' for Inactive)
REMARK    1  A    between atoms: N_7  and  N_8 
REMARK       I    between atoms: N_8  and  C_9 
REMARK    2  A    between atoms: C_9  and  C_10 
REMARK    3  A    between atoms: C_14  and  C_15 
ROOT
HETATM    1  N   UNL     1      -4.082   1.660 -32.505  1.00  0.00    -0.241 N 
HETATM    2  C   UNL     1      -4.659   2.888 -32.775  1.00  0.00     0.289 C 
HETATM    3  O   UNL     1      -5.581   3.062 -33.569  1.00  0.00    -0.264 OA
HETATM    4  H   UNL     1      -3.308   1.589 -31.846  1.00  0.00     0.192 HD
ENDROOT
BRANCH   2   5
HETATM    5  C   UNL     1      -4.082   3.993 -32.050  1.00  0.00     0.121 A 
HETATM    6  N   UNL     1      -4.815   5.103 -31.742  1.00  0.00    -0.272 N 
HETATM    7  H   UNL     1      -5.793   5.266 -31.968  1.00  0.00     0.189 HD
HETATM    8  N   UNL     1      -4.130   6.052 -31.088  1.00  0.00    -0.174 NA
HETATM    9  C   UNL     1      -2.898   5.540 -30.935  1.00  0.00     0.089 A 
HETATM   10  C   UNL     1      -2.828   4.246 -31.529  1.00  0.00     0.071 A 
BRANCH   9  11
HETATM   11  C   UNL     1      -1.834   6.282 -30.254  1.00  0.00    -0.006 A 
HETATM   12  C   UNL     1      -2.104   7.486 -29.584  1.00  0.00     0.015 A 
HETATM   13  C   UNL     1      -1.080   8.183 -28.931  1.00  0.00     0.024 A 
HETATM   14  C   UNL     1       0.218   7.681 -28.942  1.00  0.00     0.034 A 
HETATM   15 CL   UNL     1       1.473   8.539 -28.136  1.00  0.00    -0.084 Cl
HETATM   16  C   UNL     1       0.507   6.491 -29.604  1.00  0.00     0.024 A 
HETATM   17  C   UNL     1      -0.516   5.798 -30.258  1.00  0.00     0.015 A 
ENDBRANCH   9  11
ENDBRANCH   2   5
BRANCH   1  18
HETATM   18  N   UNL     1      -4.507   0.526 -33.141  1.00  0.00    -0.165 NA
HETATM   19  C   UNL     1      -3.961  -0.584 -32.760  1.00  0.00     0.157 A 
HETATM   20  C   UNL     1      -4.248  -1.907 -33.297  1.00  0.00     0.027 A 
HETATM   21  C   UNL     1      -2.893  -0.794 -31.680  1.00  0.00     0.277 A 
HETATM   22  C   UNL     1      -5.124  -2.309 -34.285  1.00  0.00     0.016 A 
HETATM   23  C   UNL     1      -3.432  -2.804 -32.608  1.00  0.00     0.048 A 
HETATM   24  C   UNL     1      -5.163  -3.674 -34.576  1.00  0.00     0.001 A 
HETATM   25  C   UNL     1      -4.339  -4.586 -33.883  1.00  0.00     0.002 A 
HETATM   26  C   UNL     1      -3.459  -4.153 -32.884  1.00  0.00     0.030 A 
HETATM   27  N   UNL     1      -2.642  -2.149 -31.665  1.00  0.00    -0.321 N 
HETATM   28  H   UNL     1      -1.974  -2.585 -31.047  1.00  0.00     0.169 HD
HETATM   29  O   UNL     1      -2.406   0.092 -31.009  1.00  0.00    -0.266 OA
ENDBRANCH   1  18
TORSDOF 3
ENDMDL
MODEL 3
REMARK VINA RESULT:      -8.9      8.581     10.936
REMARK  3 active torsions:
REMARK  status: ('A' for Active; 'I' for Inactive)
REMARK    1  A    between atoms: N_7  and  N_8 
REMARK       I    between atoms: N_8  and  C_9 
REMARK    2  A    between atoms: C_9  and  C_10 
REMARK    3  A    between atoms: C_14  and  C_15 
ROOT
HETATM    1  N   UNL     1      -3.633   3.885 -31.949  1.00  0.00    -0.241 N 
HETATM    2  C   UNL     1      -2.819   4.882 -32.460  1.00  0.00     0.289 C 
HETATM    3  O   UNL     1      -2.941   5.369 -33.581  1.00  0.00    -0.264 OA
HETATM    4  H   UNL     1      -3.466   3.514 -31.015  1.00  0.00     0.192 HD
ENDROOT
BRANCH   2   5
HETATM    5  C   UNL     1      -1.776   5.319 -31.565  1.00  0.00     0.121 A 
HETATM    6  N   UNL     1      -0.461   5.050 -31.820  1.00  0.00    -0.272 N 
HETATM    7  H   UNL     1      -0.090   4.548 -32.622  1.00  0.00     0.189 HD
HETATM    8  N   UNL     1       0.385   5.500 -30.882  1.00  0.00    -0.174 NA
HETATM    9  C   UNL     1      -0.399   6.114 -29.981  1.00  0.00     0.089 A 
HETATM   10  C   UNL     1      -1.765   6.019 -30.375  1.00  0.00     0.071 A 
BRANCH   9  11
HETATM   11  C   UNL     1       0.156   6.751 -28.784  1.00  0.00    -0.006 A 
HETATM   12  C   UNL     1      -0.080   6.223 -27.505  1.00  0.00     0.015 A 
HETATM   13  C   UNL     1       0.462   6.837 -26.369  1.00  0.00     0.024 A 
HETATM   14  C   UNL     1       1.244   7.981 -26.505  1.00  0.00     0.034 A 
HETATM   15 CL   UNL     1       1.911   8.730 -25.107  1.00  0.00    -0.084 Cl
HETATM   16  C   UNL     1       1.485   8.523 -27.764  1.00  0.00     0.024 A 
HETATM   17  C   UNL     1       0.942   7.911 -28.897  1.00  0.00     0.015 A 
ENDBRANCH   9  11
ENDBRANCH   2   5
BRANCH   1  18
HETATM   18  N   UNL     1      -4.647   3.351 -32.696  1.00  0.00    -0.165 NA
HETATM   19  C   UNL     1      -4.743   2.061 -32.692  1.00  0.00     0.157 A 
HETATM   20  C   UNL     1      -5.733   1.275 -33.416  1.00  0.00     0.027 A 
HETATM   21  C   UNL     1      -3.862   1.046 -31.954  1.00  0.00     0.277 A 
HETATM   22  C   UNL     1      -6.768   1.666 -34.240  1.00  0.00     0.016 A 
HETATM   23  C   UNL     1      -5.462  -0.064 -33.136  1.00  0.00     0.048 A 
HETATM   24  C   UNL     1      -7.551   0.651 -34.795  1.00  0.00     0.001 A 
HETATM   25  C   UNL     1      -7.281  -0.706 -34.517  1.00  0.00     0.002 A 
HETATM   26  C   UNL     1      -6.223  -1.077 -33.677  1.00  0.00     0.030 A 
HETATM   27  N   UNL     1      -4.367  -0.193 -32.282  1.00  0.00    -0.321 N 
HETATM   28  H   UNL     1      -3.983  -1.061 -31.940  1.00  0.00     0.169 HD
HETATM   29  O   UNL     1      -2.924   1.336 -31.241  1.00  0.00    -0.266 OA
ENDBRANCH   1  18
TORSDOF 3
ENDMDL
MODEL 4
REMARK VINA RESULT:      -8.9      7.191      9.945
REMARK  3 active torsions:
REMARK  status: ('A' for Active; 'I' for Inactive)
REMARK    1  A    between atoms: N_7  and  N_8 
REMARK       I    between atoms: N_8  and  C_9 
REMARK    2  A    between atoms: C_9  and  C_10 
REMARK    3  A    between atoms: C_14  and  C_15 
ROOT
HETATM    1  N   UNL     1      -4.045   5.058 -31.510  1.00  0.00    -0.241 N 
HETATM    2  C   UNL     1      -4.897   4.091 -31.004  1.00  0.00     0.289 C 
HETATM    3  O   UNL     1      -5.329   4.080 -29.854  1.00  0.00    -0.264 OA
HETATM    4  H   UNL     1      -3.711   4.998 -32.470  1.00  0.00     0.192 HD
ENDROOT
BRANCH   2   5
HETATM    5  C   UNL     1      -5.247   3.054 -31.943  1.00  0.00     0.121 A 
HETATM    6  N   UNL     1      -5.899   3.339 -33.109  1.00  0.00    -0.272 N 
HETATM    7  H   UNL     1      -6.186   4.259 -33.432  1.00  0.00     0.189 HD
HETATM    8  N   UNL     1      -6.177   2.265 -33.862  1.00  0.00    -0.174 NA
HETATM    9  C   UNL     1      -5.667   1.228 -33.178  1.00  0.00     0.089 A 
HETATM   10  C   UNL     1      -5.076   1.684 -31.965  1.00  0.00     0.071 A 
BRANCH   9  11
HETATM   11  C   UNL     1      -5.765  -0.146 -33.679  1.00  0.00    -0.006 A 
HETATM   12  C   UNL     1      -6.953  -0.627 -34.251  1.00  0.00     0.015 A 
HETATM   13  C   UNL     1      -7.032  -1.940 -34.732  1.00  0.00     0.024 A 
HETATM   14  C   UNL     1      -5.924  -2.779 -34.645  1.00  0.00     0.034 A 
HETATM   15 CL   UNL     1      -6.024  -4.390 -35.240  1.00  0.00    -0.084 Cl
HETATM   16  C   UNL     1      -4.738  -2.321 -34.077  1.00  0.00     0.024 A 
HETATM   17  C   UNL     1      -4.662  -1.012 -33.595  1.00  0.00     0.015 A 
ENDBRANCH   9  11
ENDBRANCH   2   5
BRANCH   1  18
HETATM   18  N   UNL     1      -3.604   6.088 -30.724  1.00  0.00    -0.165 NA
HETATM   19  C   UNL     1      -2.336   6.108 -30.466  1.00  0.00     0.157 A 
HETATM   20  C   UNL     1      -1.645   7.098 -29.650  1.00  0.00     0.027 A 
HETATM   21  C   UNL     1      -1.257   5.122 -30.928  1.00  0.00     0.277 A 
HETATM   22  C   UNL     1      -2.121   8.208 -28.982  1.00  0.00     0.016 A 
HETATM   23  C   UNL     1      -0.300   6.731 -29.631  1.00  0.00     0.048 A 
HETATM   24  C   UNL     1      -1.188   8.965 -28.272  1.00  0.00     0.001 A 
HETATM   25  C   UNL     1       0.175   8.599 -28.248  1.00  0.00     0.002 A 
HETATM   26  C   UNL     1       0.633   7.467 -28.934  1.00  0.00     0.030 A 
HETATM   27  N   UNL     1      -0.079   5.576 -30.379  1.00  0.00    -0.321 N 
HETATM   28  H   UNL     1       0.811   5.119 -30.512  1.00  0.00     0.169 HD
HETATM   29  O   UNL     1      -1.462   4.156 -31.634  1.00  0.00    -0.266 OA
ENDBRANCH   1  18
TORSDOF 3
ENDMDL
MODEL 5
REMARK VINA RESULT:      -8.5      8.558     10.686
REMARK  3 active torsions:
REMARK  status: ('A' for Active; 'I' for Inactive)
REMARK    1  A    between atoms: N_7  and  N_8 
REMARK       I    between atoms: N_8  and  C_9 
REMARK    2  A    between atoms: C_9  and  C_10 
REMARK    3  A    between atoms: C_14  and  C_15 
ROOT
HETATM    1  N   UNL     1      -3.049   3.443 -31.962  1.00  0.00    -0.241 N 
HETATM    2  C   UNL     1      -2.234   4.324 -32.653  1.00  0.00     0.289 C 
HETATM    3  O   UNL     1      -2.146   4.373 -33.877  1.00  0.00    -0.264 OA
HETATM    4  H   UNL     1      -3.061   3.445 -30.944  1.00  0.00     0.192 HD
ENDROOT
BRANCH   2   5
HETATM    5  C   UNL     1      -1.459   5.204 -31.813  1.00  0.00     0.121 A 
HETATM    6  N   UNL     1      -0.755   6.250 -32.337  1.00  0.00    -0.272 N 
HETATM    7  H   UNL     1      -0.705   6.518 -33.316  1.00  0.00     0.189 HD
HETATM    8  N   UNL     1      -0.065   6.959 -31.432  1.00  0.00    -0.174 NA
HETATM    9  C   UNL     1      -0.342   6.372 -30.256  1.00  0.00     0.089 A 
HETATM   10  C   UNL     1      -1.214   5.263 -30.455  1.00  0.00     0.071 A 
BRANCH   9  11
HETATM   11  C   UNL     1       0.229   6.862 -28.998  1.00  0.00    -0.006 A 
HETATM   12  C   UNL     1       0.009   6.183 -27.789  1.00  0.00     0.015 A 
HETATM   13  C   UNL     1       0.565   6.656 -26.595  1.00  0.00     0.024 A 
HETATM   14  C   UNL     1       1.344   7.810 -26.601  1.00  0.00     0.034 A 
HETATM   15 CL   UNL     1       2.029   8.386 -25.132  1.00  0.00    -0.084 Cl
HETATM   16  C   UNL     1       1.570   8.500 -27.789  1.00  0.00     0.024 A 
HETATM   17  C   UNL     1       1.012   8.028 -28.980  1.00  0.00     0.015 A 
ENDBRANCH   9  11
ENDBRANCH   2   5
BRANCH   1  18
HETATM   18  N   UNL     1      -3.820   2.529 -32.627  1.00  0.00    -0.165 NA
HETATM   19  C   UNL     1      -4.986   2.287 -32.119  1.00  0.00     0.157 A 
HETATM   20  C   UNL     1      -5.970   1.350 -32.646  1.00  0.00     0.027 A 
HETATM   21  C   UNL     1      -5.619   2.895 -30.862  1.00  0.00     0.277 A 
HETATM   22  C   UNL     1      -5.931   0.530 -33.754  1.00  0.00     0.016 A 
HETATM   23  C   UNL     1      -7.067   1.400 -31.787  1.00  0.00     0.048 A 
HETATM   24  C   UNL     1      -7.054  -0.267 -33.989  1.00  0.00     0.001 A 
HETATM   25  C   UNL     1      -8.167  -0.222 -33.123  1.00  0.00     0.002 A 
HETATM   26  C   UNL     1      -8.182   0.621 -32.004  1.00  0.00     0.030 A 
HETATM   27  N   UNL     1      -6.857   2.304 -30.747  1.00  0.00    -0.321 N 
HETATM   28  H   UNL     1      -7.507   2.511 -30.003  1.00  0.00     0.169 HD
HETATM   29  O   UNL     1      -5.086   3.725 -30.155  1.00  0.00    -0.266 OA
ENDBRANCH   1  18
TORSDOF 3
ENDMDL
MODEL 6
REMARK VINA RESULT:      -8.4      6.373      9.040
REMARK  3 active torsions:
REMARK  status: ('A' for Active; 'I' for Inactive)
REMARK    1  A    between atoms: N_7  and  N_8 
REMARK       I    between atoms: N_8  and  C_9 
REMARK    2  A    between atoms: C_9  and  C_10 
REMARK    3  A    between atoms: C_14  and  C_15 
ROOT
HETATM    1  N   UNL     1      -4.907   4.027 -31.496  1.00  0.00    -0.241 N 
HETATM    2  C   UNL     1      -5.826   4.007 -32.531  1.00  0.00     0.289 C 
HETATM    3  O   UNL     1      -6.422   4.997 -32.948  1.00  0.00    -0.264 OA
HETATM    4  H   UNL     1      -4.459   3.165 -31.189  1.00  0.00     0.192 HD
ENDROOT
BRANCH   2   5
HETATM    5  C   UNL     1      -6.054   2.702 -33.102  1.00  0.00     0.121 A 
HETATM    6  N   UNL     1      -7.116   2.463 -33.927  1.00  0.00    -0.272 N 
HETATM    7  H   UNL     1      -7.818   3.136 -34.222  1.00  0.00     0.189 HD
HETATM    8  N   UNL     1      -7.206   1.195 -34.355  1.00  0.00    -0.174 NA
HETATM    9  C   UNL     1      -6.147   0.575 -33.811  1.00  0.00     0.089 A 
HETATM   10  C   UNL     1      -5.400   1.490 -33.014  1.00  0.00     0.071 A 
BRANCH   9  11
HETATM   11  C   UNL     1      -5.884  -0.847 -34.045  1.00  0.00    -0.006 A 
HETATM   12  C   UNL     1      -4.635  -1.414 -33.743  1.00  0.00     0.015 A 
HETATM   13  C   UNL     1      -4.398  -2.776 -33.965  1.00  0.00     0.024 A 
HETATM   14  C   UNL     1      -5.406  -3.580 -34.489  1.00  0.00     0.034 A 
HETATM   15 CL   UNL     1      -5.112  -5.253 -34.756  1.00  0.00    -0.084 Cl
HETATM   16  C   UNL     1      -6.650  -3.036 -34.799  1.00  0.00     0.024 A 
HETATM   17  C   UNL     1      -6.885  -1.676 -34.579  1.00  0.00     0.015 A 
ENDBRANCH   9  11
ENDBRANCH   2   5
BRANCH   1  18
HETATM   18  N   UNL     1      -4.611   5.190 -30.839  1.00  0.00    -0.165 NA
HETATM   19  C   UNL     1      -3.356   5.500 -30.760  1.00  0.00     0.157 A 
HETATM   20  C   UNL     1      -2.807   6.678 -30.105  1.00  0.00     0.027 A 
HETATM   21  C   UNL     1      -2.152   4.728 -31.312  1.00  0.00     0.277 A 
HETATM   22  C   UNL     1      -3.430   7.715 -29.441  1.00  0.00     0.016 A 
HETATM   23  C   UNL     1      -1.422   6.607 -30.252  1.00  0.00     0.048 A 
HETATM   24  C   UNL     1      -2.607   8.711 -28.911  1.00  0.00     0.001 A 
HETATM   25  C   UNL     1      -1.205   8.644 -29.056  1.00  0.00     0.002 A 
HETATM   26  C   UNL     1      -0.596   7.581 -29.734  1.00  0.00     0.030 A 
HETATM   27  N   UNL     1      -1.044   5.466 -30.957  1.00  0.00    -0.321 N 
HETATM   28  H   UNL     1      -0.099   5.199 -31.187  1.00  0.00     0.169 HD
HETATM   29  O   UNL     1      -2.224   3.684 -31.927  1.00  0.00    -0.266 OA
ENDBRANCH   1  18
TORSDOF 3
ENDMDL
MODEL 7
REMARK VINA RESULT:      -8.4      4.903      9.851
REMARK  3 active torsions:
REMARK  status: ('A' for Active; 'I' for Inactive)
REMARK    1  A    between atoms: N_7  and  N_8 
REMARK       I    between atoms: N_8  and  C_9 
REMARK    2  A    between atoms: C_9  and  C_10 
REMARK    3  A    between atoms: C_14  and  C_15 
ROOT
HETATM    1  N   UNL     1      -5.949   1.378 -33.392  1.00  0.00    -0.241 N 
HETATM    2  C   UNL     1      -6.979   1.892 -32.622  1.00  0.00     0.289 C 
HETATM    3  O   UNL     1      -7.255   1.508 -31.488  1.00  0.00    -0.264 OA
HETATM    4  H   UNL     1      -5.785   1.732 -34.333  1.00  0.00     0.192 HD
ENDROOT
BRANCH   2   5
HETATM    5  C   UNL     1      -7.742   2.934 -33.263  1.00  0.00     0.121 A 
HETATM    6  N   UNL     1      -7.159   4.108 -33.650  1.00  0.00    -0.272 N 
HETATM    7  H   UNL     1      -6.181   4.362 -33.544  1.00  0.00     0.189 HD
HETATM    8  N   UNL     1      -8.005   4.986 -34.207  1.00  0.00    -0.174 NA
HETATM    9  C   UNL     1      -9.193   4.359 -34.212  1.00  0.00     0.089 A 
HETATM   10  C   UNL     1      -9.068   3.067 -33.625  1.00  0.00     0.071 A 
BRANCH   9  11
HETATM   11  C   UNL     1     -10.397   4.996 -34.753  1.00  0.00    -0.006 A 
HETATM   12  C   UNL     1     -10.433   6.374 -35.016  1.00  0.00     0.015 A 
HETATM   13  C   UNL     1     -11.587   6.970 -35.539  1.00  0.00     0.024 A 
HETATM   14  C   UNL     1     -12.712   6.193 -35.802  1.00  0.00     0.034 A 
HETATM   15 CL   UNL     1     -14.126   6.928 -36.447  1.00  0.00    -0.084 Cl
HETATM   16  C   UNL     1     -12.697   4.825 -35.543  1.00  0.00     0.024 A 
HETATM   17  C   UNL     1     -11.546   4.232 -35.019  1.00  0.00     0.015 A 
ENDBRANCH   9  11
ENDBRANCH   2   5
BRANCH   1  18
HETATM   18  N   UNL     1      -5.159   0.363 -32.925  1.00  0.00    -0.165 NA
HETATM   19  C   UNL     1      -5.230  -0.759 -33.567  1.00  0.00     0.157 A 
HETATM   20  C   UNL     1      -4.493  -1.974 -33.248  1.00  0.00     0.027 A 
HETATM   21  C   UNL     1      -6.090  -1.100 -34.789  1.00  0.00     0.277 A 
HETATM   22  C   UNL     1      -3.577  -2.238 -32.250  1.00  0.00     0.016 A 
HETATM   23  C   UNL     1      -4.880  -2.933 -34.184  1.00  0.00     0.048 A 
HETATM   24  C   UNL     1      -3.042  -3.527 -32.210  1.00  0.00     0.001 A 
HETATM   25  C   UNL     1      -3.430  -4.502 -33.153  1.00  0.00     0.002 A 
HETATM   26  C   UNL     1      -4.361  -4.209 -34.157  1.00  0.00     0.030 A 
HETATM   27  N   UNL     1      -5.813  -2.418 -35.081  1.00  0.00    -0.321 N 
HETATM   28  H   UNL     1      -6.239  -2.921 -35.845  1.00  0.00     0.169 HD
HETATM   29  O   UNL     1      -6.843  -0.325 -35.341  1.00  0.00    -0.266 OA
ENDBRANCH   1  18
TORSDOF 3
ENDMDL
MODEL 8
REMARK VINA RESULT:      -8.2      7.098     10.093
REMARK  3 active torsions:
REMARK  status: ('A' for Active; 'I' for Inactive)
REMARK    1  A    between atoms: N_7  and  N_8 
REMARK       I    between atoms: N_8  and  C_9 
REMARK    2  A    between atoms: C_9  and  C_10 
REMARK    3  A    between atoms: C_14  and  C_15 
ROOT
HETATM    1  N   UNL     1      -3.998   0.731 -32.813  1.00  0.00    -0.241 N 
HETATM    2  C   UNL     1      -4.205   1.201 -31.527  1.00  0.00     0.289 C 
HETATM    3  O   UNL     1      -4.283   0.485 -30.532  1.00  0.00    -0.264 OA
HETATM    4  H   UNL     1      -3.960   1.380 -33.597  1.00  0.00     0.192 HD
ENDROOT
BRANCH   2   5
HETATM    5  C   UNL     1      -4.341   2.633 -31.429  1.00  0.00     0.121 A 
HETATM    6  N   UNL     1      -5.556   3.243 -31.556  1.00  0.00    -0.272 N 
HETATM    7  H   UNL     1      -6.449   2.787 -31.717  1.00  0.00     0.189 HD
HETATM    8  N   UNL     1      -5.513   4.581 -31.466  1.00  0.00    -0.174 NA
HETATM    9  C   UNL     1      -4.220   4.866 -31.246  1.00  0.00     0.089 A 
HETATM   10  C   UNL     1      -3.451   3.667 -31.218  1.00  0.00     0.071 A 
BRANCH   9  11
HETATM   11  C   UNL     1      -3.753   6.246 -31.085  1.00  0.00    -0.006 A 
HETATM   12  C   UNL     1      -4.632   7.331 -31.228  1.00  0.00     0.015 A 
HETATM   13  C   UNL     1      -4.176   8.645 -31.064  1.00  0.00     0.024 A 
HETATM   14  C   UNL     1      -2.839   8.882 -30.756  1.00  0.00     0.034 A 
HETATM   15 CL   UNL     1      -2.284  10.497 -30.553  1.00  0.00    -0.084 Cl
HETATM   16  C   UNL     1      -1.951   7.820 -30.614  1.00  0.00     0.024 A 
HETATM   17  C   UNL     1      -2.407   6.509 -30.781  1.00  0.00     0.015 A 
ENDBRANCH   9  11
ENDBRANCH   2   5
BRANCH   1  18
HETATM   18  N   UNL     1      -3.880  -0.609 -33.063  1.00  0.00    -0.165 NA
HETATM   19  C   UNL     1      -4.870  -1.165 -33.685  1.00  0.00     0.157 A 
HETATM   20  C   UNL     1      -4.969  -2.572 -34.049  1.00  0.00     0.027 A 
HETATM   21  C   UNL     1      -6.165  -0.512 -34.181  1.00  0.00     0.277 A 
HETATM   22  C   UNL     1      -4.094  -3.619 -33.849  1.00  0.00     0.016 A 
HETATM   23  C   UNL     1      -6.197  -2.732 -34.690  1.00  0.00     0.048 A 
HETATM   24  C   UNL     1      -4.490  -4.872 -34.321  1.00  0.00     0.001 A 
HETATM   25  C   UNL     1      -5.732  -5.041 -34.970  1.00  0.00     0.002 A 
HETATM   26  C   UNL     1      -6.603  -3.961 -35.161  1.00  0.00     0.030 A 
HETATM   27  N   UNL     1      -6.892  -1.526 -34.764  1.00  0.00    -0.321 N 
HETATM   28  H   UNL     1      -7.801  -1.392 -35.182  1.00  0.00     0.169 HD
HETATM   29  O   UNL     1      -6.438   0.664 -34.055  1.00  0.00    -0.266 OA
ENDBRANCH   1  18
TORSDOF 3
ENDMDL
MODEL 9
REMARK VINA RESULT:      -8.2      8.841     11.378
REMARK  3 active torsions:
REMARK  status: ('A' for Active; 'I' for Inactive)
REMARK    1  A    between atoms: N_7  and  N_8 
REMARK       I    between atoms: N_8  and  C_9 
REMARK    2  A    between atoms: C_9  and  C_10 
REMARK    3  A    between atoms: C_14  and  C_15 
ROOT
HETATM    1  N   UNL     1      -1.685   5.289 -30.298  1.00  0.00    -0.241 N 
HETATM    2  C   UNL     1      -1.716   5.025 -31.656  1.00  0.00     0.289 C 
HETATM    3  O   UNL     1      -0.875   5.423 -32.459  1.00  0.00    -0.264 OA
HETATM    4  H   UNL     1      -2.425   4.940 -29.690  1.00  0.00     0.192 HD
ENDROOT
BRANCH   2   5
HETATM    5  C   UNL     1      -2.843   4.235 -32.087  1.00  0.00     0.121 A 
HETATM    6  N   UNL     1      -4.057   4.807 -32.342  1.00  0.00    -0.272 N 
HETATM    7  H   UNL     1      -4.289   5.793 -32.270  1.00  0.00     0.189 HD
HETATM    8  N   UNL     1      -5.009   3.937 -32.708  1.00  0.00    -0.174 NA
HETATM    9  C   UNL     1      -4.395   2.743 -32.719  1.00  0.00     0.089 A 
HETATM   10  C   UNL     1      -3.032   2.889 -32.332  1.00  0.00     0.071 A 
BRANCH   9  11
HETATM   11  C   UNL     1      -5.108   1.514 -33.077  1.00  0.00    -0.006 A 
HETATM   12  C   UNL     1      -6.281   1.553 -33.847  1.00  0.00     0.015 A 
HETATM   13  C   UNL     1      -6.950   0.372 -34.188  1.00  0.00     0.024 A 
HETATM   14  C   UNL     1      -6.450  -0.857 -33.763  1.00  0.00     0.034 A 
HETATM   15 CL   UNL     1      -7.273  -2.306 -34.188  1.00  0.00    -0.084 Cl
HETATM   16  C   UNL     1      -5.291  -0.916 -32.996  1.00  0.00     0.024 A 
HETATM   17  C   UNL     1      -4.625   0.264 -32.653  1.00  0.00     0.015 A 
ENDBRANCH   9  11
ENDBRANCH   2   5
BRANCH   1  18
HETATM   18  N   UNL     1      -0.690   6.051 -29.750  1.00  0.00    -0.165 NA
HETATM   19  C   UNL     1      -1.070   7.029 -28.992  1.00  0.00     0.157 A 
HETATM   20  C   UNL     1      -0.193   7.974 -28.312  1.00  0.00     0.027 A 
HETATM   21  C   UNL     1      -2.498   7.447 -28.625  1.00  0.00     0.277 A 
HETATM   22  C   UNL     1       1.183   8.072 -28.289  1.00  0.00     0.016 A 
HETATM   23  C   UNL     1      -1.020   8.858 -27.619  1.00  0.00     0.048 A 
HETATM   24  C   UNL     1       1.729   9.110 -27.532  1.00  0.00     0.001 A 
HETATM   25  C   UNL     1       0.898  10.009 -26.829  1.00  0.00     0.002 A 
HETATM   26  C   UNL     1      -0.497   9.888 -26.868  1.00  0.00     0.030 A 
HETATM   27  N   UNL     1      -2.366   8.546 -27.806  1.00  0.00    -0.321 N 
HETATM   28  H   UNL     1      -3.148   9.042 -27.406  1.00  0.00     0.169 HD
HETATM   29  O   UNL     1      -3.502   6.883 -29.011  1.00  0.00    -0.266 OA
ENDBRANCH   1  18
TORSDOF 3
ENDMDL
MODEL 10
REMARK VINA RESULT:      -8.1      5.678      6.752
REMARK  3 active torsions:
REMARK  status: ('A' for Active; 'I' for Inactive)
REMARK    1  A    between atoms: N_7  and  N_8 
REMARK       I    between atoms: N_8  and  C_9 
REMARK    2  A    between atoms: C_9  and  C_10 
REMARK    3  A    between atoms: C_14  and  C_15 
ROOT
HETATM    1  N   UNL     1      -5.266   3.668 -29.824  1.00  0.00    -0.241 N 
HETATM    2  C   UNL     1      -4.590   3.550 -31.026  1.00  0.00     0.289 C 
HETATM    3  O   UNL     1      -4.088   4.492 -31.635  1.00  0.00    -0.264 OA
HETATM    4  H   UNL     1      -5.673   2.846 -29.380  1.00  0.00     0.192 HD
ENDROOT
BRANCH   2   5
HETATM    5  C   UNL     1      -4.519   2.206 -31.543  1.00  0.00     0.121 A 
HETATM    6  N   UNL     1      -3.465   1.387 -31.255  1.00  0.00    -0.272 N 
HETATM    7  H   UNL     1      -2.663   1.614 -30.673  1.00  0.00     0.189 HD
HETATM    8  N   UNL     1      -3.533   0.178 -31.830  1.00  0.00    -0.174 NA
HETATM    9  C   UNL     1      -4.692   0.187 -32.508  1.00  0.00     0.089 A 
HETATM   10  C   UNL     1      -5.340   1.447 -32.354  1.00  0.00     0.071 A 
BRANCH   9  11
HETATM   11  C   UNL     1      -5.140  -0.973 -33.283  1.00  0.00    -0.006 A 
HETATM   12  C   UNL     1      -4.227  -1.932 -33.748  1.00  0.00     0.015 A 
HETATM   13  C   UNL     1      -4.668  -3.040 -34.482  1.00  0.00     0.024 A 
HETATM   14  C   UNL     1      -6.024  -3.197 -34.754  1.00  0.00     0.034 A 
HETATM   15 CL   UNL     1      -6.563  -4.562 -35.652  1.00  0.00    -0.084 Cl
HETATM   16  C   UNL     1      -6.946  -2.255 -34.305  1.00  0.00     0.024 A 
HETATM   17  C   UNL     1      -6.504  -1.148 -33.575  1.00  0.00     0.015 A 
ENDBRANCH   9  11
ENDBRANCH   2   5
BRANCH   1  18
HETATM   18  N   UNL     1      -5.438   4.888 -29.229  1.00  0.00    -0.165 NA
HETATM   19  C   UNL     1      -6.657   5.312 -29.133  1.00  0.00     0.157 A 
HETATM   20  C   UNL     1      -7.079   6.578 -28.548  1.00  0.00     0.027 A 
HETATM   21  C   UNL     1      -7.942   4.620 -29.602  1.00  0.00     0.277 A 
HETATM   22  C   UNL     1      -6.344   7.595 -27.973  1.00  0.00     0.016 A 
HETATM   23  C   UNL     1      -8.467   6.628 -28.663  1.00  0.00     0.048 A 
HETATM   24  C   UNL     1      -7.057   8.699 -27.501  1.00  0.00     0.001 A 
HETATM   25  C   UNL     1      -8.463   8.756 -27.616  1.00  0.00     0.002 A 
HETATM   26  C   UNL     1      -9.185   7.710 -28.204  1.00  0.00     0.030 A 
HETATM   27  N   UNL     1      -8.967   5.482 -29.280  1.00  0.00    -0.321 N 
HETATM   28  H   UNL     1      -9.939   5.290 -29.473  1.00  0.00     0.169 HD
HETATM   29  O   UNL     1      -7.983   3.534 -30.142  1.00  0.00    -0.266 OA
ENDBRANCH   1  18
TORSDOF 3
ENDMDL
