MODEL 1
REMARK VINA RESULT:      -8.9      0.000      0.000
REMARK  8 active torsions:
REMARK  status: ('A' for Active; 'I' for Inactive)
REMARK    1  A    between atoms: C_2  and  N_3 
REMARK       I    between atoms: N_3  and  C_4 
REMARK       I    between atoms: C_4  and  N_5 
REMARK       I    between atoms: N_5  and  C_6 
REMARK    2  A    between atoms: C_6  and  C_7 
REMARK    3  A    between atoms: C_7  and  S_8 
REMARK    4  A    between atoms: C_7  and  C_29 
REMARK    5  A    between atoms: S_8  and  C_9 
REMARK    6  A    between atoms: N_10  and  C_11 
REMARK    7  A    between atoms: C_18  and  C_19 
REMARK    8  A    between atoms: C_19  and  N_20 
ROOT
HETATM    1  C   UNL     1      -8.094   3.612 -31.462  1.00  0.00     0.197 A 
HETATM    2  N   UNL     1      -6.722   3.465 -31.338  1.00  0.00    -0.274 N 
HETATM    3  C   UNL     1      -6.278   4.773 -31.183  1.00  0.00     0.161 A 
HETATM    4  N   UNL     1      -7.298   5.609 -31.266  1.00  0.00    -0.132 NA
HETATM    5  N   UNL     1      -8.426   4.880 -31.448  1.00  0.00    -0.122 NA
ENDROOT
BRANCH   1   6
HETATM    6  S   UNL     1      -9.266   2.345 -31.342  1.00  0.00    -0.071 SA
BRANCH   6   7
HETATM    7  C   UNL     1      -9.553   1.926 -33.113  1.00  0.00     0.175 C 
BRANCH   7   8
HETATM    8  C   UNL     1     -11.045   1.694 -33.420  1.00  0.00     0.224 C 
HETATM    9  N   UNL     1     -11.863   2.810 -33.398  1.00  0.00    -0.178 NA
HETATM   10  C   UNL     1     -12.836   2.926 -34.332  1.00  0.00     0.300 C 
HETATM   11  H   UNL     1     -11.315   3.662 -33.455  1.00  0.00     0.141 HD
HETATM   12  N   UNL     1     -13.957   2.179 -34.216  1.00  0.00    -0.348 N 
HETATM   13  O   UNL     1     -12.720   3.747 -35.239  1.00  0.00    -0.254 OA
HETATM   14  H   UNL     1     -14.638   2.375 -34.941  1.00  0.00     0.163 HD
HETATM   15  O   UNL     1     -11.482   0.543 -33.490  1.00  0.00    -0.278 OA
BRANCH  12  16
HETATM   16  C   UNL     1     -14.415   1.426 -33.063  1.00  0.00     0.119 C 
HETATM   17  C   UNL     1     -15.332   2.261 -32.192  1.00  0.00     0.026 C 
ENDBRANCH  12  16
ENDBRANCH   7   8
BRANCH   7  18
HETATM   18  C   UNL     1      -8.584   0.878 -33.663  1.00  0.00    -0.035 A 
HETATM   19  C   UNL     1      -8.250  -0.294 -32.965  1.00  0.00     0.009 A 
HETATM   20  C   UNL     1      -7.375  -1.236 -33.517  1.00  0.00     0.001 A 
HETATM   21  C   UNL     1      -6.813  -1.020 -34.771  1.00  0.00     0.000 A 
HETATM   22  C   UNL     1      -7.128   0.136 -35.480  1.00  0.00     0.001 A 
HETATM   23  C   UNL     1      -8.009   1.073 -34.934  1.00  0.00     0.009 A 
ENDBRANCH   7  18
ENDBRANCH   6   7
ENDBRANCH   1   6
BRANCH   2  24
HETATM   24  C   UNL     1      -5.952   2.276 -31.377  1.00  0.00     0.043 A 
HETATM   25  C   UNL     1      -5.882   1.457 -30.239  1.00  0.00     0.033 A 
HETATM   26  C   UNL     1      -5.148   0.268 -30.279  1.00  0.00     0.044 A 
HETATM   27  C   UNL     1      -4.482  -0.091 -31.442  1.00  0.00     0.116 A 
HETATM   28  F   UNL     1      -3.781  -1.231 -31.480  1.00  0.00    -0.206 F 
HETATM   29  C   UNL     1      -4.528   0.721 -32.569  1.00  0.00     0.044 A 
HETATM   30  C   UNL     1      -5.259   1.911 -32.541  1.00  0.00     0.033 A 
ENDBRANCH   2  24
BRANCH   3  31
HETATM   31  C   UNL     1      -4.883   5.270 -31.068  1.00  0.00     0.315 C 
BRANCH  31  32
HETATM   32  N   UNL     1      -4.125   4.951 -32.354  1.00  0.00    -0.064 N 
HETATM   33  H   UNL     1      -4.337   3.950 -32.517  1.00  0.00     0.280 HD
HETATM   34  C   UNL     1      -4.678   5.698 -33.544  1.00  0.00     0.235 C 
HETATM   35  C   UNL     1      -4.028   5.173 -34.816  1.00  0.00     0.028 C 
HETATM   36  C   UNL     1      -2.508   5.258 -34.742  1.00  0.00     0.003 C 
HETATM   37  C   UNL     1      -1.972   4.564 -33.494  1.00  0.00     0.028 C 
HETATM   38  C   UNL     1      -2.636   5.083 -32.224  1.00  0.00     0.235 C 
ENDBRANCH  31  32
ENDBRANCH   3  31
TORSDOF 8
ENDMDL
MODEL 2
REMARK VINA RESULT:      -8.5      2.917      4.399
REMARK  8 active torsions:
REMARK  status: ('A' for Active; 'I' for Inactive)
REMARK    1  A    between atoms: C_2  and  N_3 
REMARK       I    between atoms: N_3  and  C_4 
REMARK       I    between atoms: C_4  and  N_5 
REMARK       I    between atoms: N_5  and  C_6 
REMARK    2  A    between atoms: C_6  and  C_7 
REMARK    3  A    between atoms: C_7  and  S_8 
REMARK    4  A    between atoms: C_7  and  C_29 
REMARK    5  A    between atoms: S_8  and  C_9 
REMARK    6  A    between atoms: N_10  and  C_11 
REMARK    7  A    between atoms: C_18  and  C_19 
REMARK    8  A    between atoms: C_19  and  N_20 
ROOT
HETATM    1  C   UNL     1      -4.477   2.031 -31.124  1.00  0.00     0.197 A 
HETATM    2  N   UNL     1      -4.750   3.388 -31.176  1.00  0.00    -0.274 N 
HETATM    3  C   UNL     1      -3.528   3.942 -31.536  1.00  0.00     0.161 A 
HETATM    4  N   UNL     1      -2.612   2.994 -31.630  1.00  0.00    -0.132 NA
HETATM    5  N   UNL     1      -3.207   1.806 -31.366  1.00  0.00    -0.122 NA
ENDROOT
BRANCH   1   6
HETATM    6  S   UNL     1      -5.649   0.760 -31.067  1.00  0.00    -0.071 SA
BRANCH   6   7
HETATM    7  C   UNL     1      -6.152   0.630 -32.834  1.00  0.00     0.175 C 
BRANCH   7   8
HETATM    8  C   UNL     1      -7.581   1.158 -33.071  1.00  0.00     0.224 C 
HETATM    9  N   UNL     1      -8.536   0.806 -32.132  1.00  0.00    -0.178 NA
HETATM   10  C   UNL     1      -9.456   1.726 -31.761  1.00  0.00     0.300 C 
HETATM   11  H   UNL     1      -8.099   0.483 -31.276  1.00  0.00     0.141 HD
HETATM   12  N   UNL     1     -10.477   2.017 -32.597  1.00  0.00    -0.348 N 
HETATM   13  O   UNL     1      -9.391   2.242 -30.647  1.00  0.00    -0.254 OA
HETATM   14  H   UNL     1     -11.131   2.683 -32.204  1.00  0.00     0.163 HD
HETATM   15  O   UNL     1      -7.861   1.699 -34.143  1.00  0.00    -0.278 OA
BRANCH  12  16
HETATM   16  C   UNL     1     -10.904   1.285 -33.776  1.00  0.00     0.119 C 
HETATM   17  C   UNL     1     -12.406   1.085 -33.782  1.00  0.00     0.026 C 
ENDBRANCH  12  16
ENDBRANCH   7   8
BRANCH   7  18
HETATM   18  C   UNL     1      -5.822  -0.721 -33.471  1.00  0.00    -0.035 A 
HETATM   19  C   UNL     1      -4.533  -1.277 -33.456  1.00  0.00     0.009 A 
HETATM   20  C   UNL     1      -4.282  -2.526 -34.033  1.00  0.00     0.001 A 
HETATM   21  C   UNL     1      -5.311  -3.237 -34.642  1.00  0.00     0.000 A 
HETATM   22  C   UNL     1      -6.596  -2.704 -34.671  1.00  0.00     0.001 A 
HETATM   23  C   UNL     1      -6.851  -1.461 -34.087  1.00  0.00     0.009 A 
ENDBRANCH   7  18
ENDBRANCH   6   7
ENDBRANCH   1   6
BRANCH   2  24
HETATM   24  C   UNL     1      -5.972   4.056 -30.909  1.00  0.00     0.043 A 
HETATM   25  C   UNL     1      -6.382   4.245 -29.580  1.00  0.00     0.033 A 
HETATM   26  C   UNL     1      -7.571   4.927 -29.307  1.00  0.00     0.044 A 
HETATM   27  C   UNL     1      -8.346   5.405 -30.354  1.00  0.00     0.116 A 
HETATM   28  F   UNL     1      -9.483   6.061 -30.092  1.00  0.00    -0.206 F 
HETATM   29  C   UNL     1      -7.960   5.208 -31.674  1.00  0.00     0.044 A 
HETATM   30  C   UNL     1      -6.773   4.527 -31.958  1.00  0.00     0.033 A 
ENDBRANCH   2  24
BRANCH   3  31
HETATM   31  C   UNL     1      -3.169   5.376 -31.687  1.00  0.00     0.315 C 
BRANCH  31  32
HETATM   32  N   UNL     1      -1.912   5.671 -30.872  1.00  0.00    -0.064 N 
HETATM   33  H   UNL     1      -1.704   4.766 -30.412  1.00  0.00     0.280 HD
HETATM   34  C   UNL     1      -0.721   5.979 -31.750  1.00  0.00     0.235 C 
HETATM   35  C   UNL     1       0.534   6.045 -30.893  1.00  0.00     0.028 C 
HETATM   36  C   UNL     1       0.383   7.052 -29.759  1.00  0.00     0.003 C 
HETATM   37  C   UNL     1      -0.866   6.772 -28.929  1.00  0.00     0.028 C 
HETATM   38  C   UNL     1      -2.119   6.692 -29.793  1.00  0.00     0.235 C 
ENDBRANCH  31  32
ENDBRANCH   3  31
TORSDOF 8
ENDMDL
MODEL 3
REMARK VINA RESULT:      -8.5      1.459      2.115
REMARK  8 active torsions:
REMARK  status: ('A' for Active; 'I' for Inactive)
REMARK    1  A    between atoms: C_2  and  N_3 
REMARK       I    between atoms: N_3  and  C_4 
REMARK       I    between atoms: C_4  and  N_5 
REMARK       I    between atoms: N_5  and  C_6 
REMARK    2  A    between atoms: C_6  and  C_7 
REMARK    3  A    between atoms: C_7  and  S_8 
REMARK    4  A    between atoms: C_7  and  C_29 
REMARK    5  A    between atoms: S_8  and  C_9 
REMARK    6  A    between atoms: N_10  and  C_11 
REMARK    7  A    between atoms: C_18  and  C_19 
REMARK    8  A    between atoms: C_19  and  N_20 
ROOT
HETATM    1  C   UNL     1      -6.910   4.012 -31.703  1.00  0.00     0.197 A 
HETATM    2  N   UNL     1      -5.623   3.530 -31.528  1.00  0.00    -0.274 N 
HETATM    3  C   UNL     1      -4.881   4.686 -31.318  1.00  0.00     0.161 A 
HETATM    4  N   UNL     1      -5.660   5.749 -31.417  1.00  0.00    -0.132 NA
HETATM    5  N   UNL     1      -6.923   5.323 -31.665  1.00  0.00    -0.122 NA
ENDROOT
BRANCH   1   6
HETATM    6  S   UNL     1      -8.361   3.069 -31.667  1.00  0.00    -0.071 SA
BRANCH   6   7
HETATM    7  C   UNL     1      -8.531   2.570 -33.431  1.00  0.00     0.175 C 
BRANCH   7   8
HETATM    8  C   UNL     1      -9.934   2.880 -33.990  1.00  0.00     0.224 C 
HETATM    9  N   UNL     1     -10.570   1.856 -34.670  1.00  0.00    -0.178 NA
HETATM   10  C   UNL     1     -11.901   1.681 -34.491  1.00  0.00     0.300 C 
HETATM   11  H   UNL     1     -10.138   0.962 -34.465  1.00  0.00     0.141 HD
HETATM   12  N   UNL     1     -12.766   2.531 -35.087  1.00  0.00    -0.348 N 
HETATM   13  O   UNL     1     -12.310   0.721 -33.842  1.00  0.00    -0.254 OA
HETATM   14  H   UNL     1     -13.736   2.284 -34.926  1.00  0.00     0.163 HD
HETATM   15  O   UNL     1     -10.353   4.040 -33.976  1.00  0.00    -0.278 OA
BRANCH  12  16
HETATM   16  C   UNL     1     -12.494   3.493 -36.140  1.00  0.00     0.119 C 
HETATM   17  C   UNL     1     -12.902   4.892 -35.722  1.00  0.00     0.026 C 
ENDBRANCH  12  16
ENDBRANCH   7   8
BRANCH   7  18
HETATM   18  C   UNL     1      -7.983   1.174 -33.733  1.00  0.00    -0.035 A 
HETATM   19  C   UNL     1      -8.060   0.110 -32.820  1.00  0.00     0.009 A 
HETATM   20  C   UNL     1      -7.564  -1.156 -33.147  1.00  0.00     0.001 A 
HETATM   21  C   UNL     1      -6.975  -1.380 -34.387  1.00  0.00     0.000 A 
HETATM   22  C   UNL     1      -6.885  -0.339 -35.307  1.00  0.00     0.001 A 
HETATM   23  C   UNL     1      -7.389   0.924 -34.986  1.00  0.00     0.009 A 
ENDBRANCH   7  18
ENDBRANCH   6   7
ENDBRANCH   1   6
BRANCH   2  24
HETATM   24  C   UNL     1      -5.166   2.189 -31.571  1.00  0.00     0.043 A 
HETATM   25  C   UNL     1      -4.566   1.699 -32.742  1.00  0.00     0.033 A 
HETATM   26  C   UNL     1      -4.087   0.387 -32.784  1.00  0.00     0.044 A 
HETATM   27  C   UNL     1      -4.217  -0.429 -31.668  1.00  0.00     0.116 A 
HETATM   28  F   UNL     1      -3.756  -1.685 -31.708  1.00  0.00    -0.206 F 
HETATM   29  C   UNL     1      -4.826   0.039 -30.510  1.00  0.00     0.044 A 
HETATM   30  C   UNL     1      -5.308   1.349 -30.458  1.00  0.00     0.033 A 
ENDBRANCH   2  24
BRANCH   3  31
HETATM   31  C   UNL     1      -3.413   4.824 -31.132  1.00  0.00     0.315 C 
BRANCH  31  32
HETATM   32  N   UNL     1      -2.799   5.427 -32.393  1.00  0.00    -0.064 N 
HETATM   33  H   UNL     1      -3.601   5.895 -32.853  1.00  0.00     0.280 HD
HETATM   34  C   UNL     1      -1.801   6.517 -32.077  1.00  0.00     0.235 C 
HETATM   35  C   UNL     1      -1.396   7.219 -33.364  1.00  0.00     0.028 C 
HETATM   36  C   UNL     1      -0.859   6.231 -34.393  1.00  0.00     0.003 C 
HETATM   37  C   UNL     1      -1.847   5.096 -34.644  1.00  0.00     0.028 C 
HETATM   38  C   UNL     1      -2.261   4.405 -33.350  1.00  0.00     0.235 C 
ENDBRANCH  31  32
ENDBRANCH   3  31
TORSDOF 8
ENDMDL
MODEL 4
REMARK VINA RESULT:      -8.2      4.735      8.568
REMARK  8 active torsions:
REMARK  status: ('A' for Active; 'I' for Inactive)
REMARK    1  A    between atoms: C_2  and  N_3 
REMARK       I    between atoms: N_3  and  C_4 
REMARK       I    between atoms: C_4  and  N_5 
REMARK       I    between atoms: N_5  and  C_6 
REMARK    2  A    between atoms: C_6  and  C_7 
REMARK    3  A    between atoms: C_7  and  S_8 
REMARK    4  A    between atoms: C_7  and  C_29 
REMARK    5  A    between atoms: S_8  and  C_9 
REMARK    6  A    between atoms: N_10  and  C_11 
REMARK    7  A    between atoms: C_18  and  C_19 
REMARK    8  A    between atoms: C_19  and  N_20 
ROOT
HETATM    1  C   UNL     1      -5.856   5.105 -30.642  1.00  0.00     0.197 A 
HETATM    2  N   UNL     1      -5.504   4.307 -31.718  1.00  0.00    -0.274 N 
HETATM    3  C   UNL     1      -6.397   3.247 -31.629  1.00  0.00     0.161 A 
HETATM    4  N   UNL     1      -7.164   3.390 -30.562  1.00  0.00    -0.132 NA
HETATM    5  N   UNL     1      -6.817   4.546 -29.947  1.00  0.00    -0.122 NA
ENDROOT
BRANCH   1   6
HETATM    6  S   UNL     1      -5.358   6.742 -30.385  1.00  0.00    -0.071 SA
BRANCH   6   7
HETATM    7  C   UNL     1      -3.705   6.516 -29.605  1.00  0.00     0.175 C 
BRANCH   7   8
HETATM    8  C   UNL     1      -3.612   7.207 -28.230  1.00  0.00     0.224 C 
HETATM    9  N   UNL     1      -3.636   6.382 -27.119  1.00  0.00    -0.178 NA
HETATM   10  C   UNL     1      -2.826   6.672 -26.073  1.00  0.00     0.300 C 
HETATM   11  H   UNL     1      -3.432   5.423 -27.376  1.00  0.00     0.141 HD
HETATM   12  N   UNL     1      -3.152   7.691 -25.246  1.00  0.00    -0.348 N 
HETATM   13  O   UNL     1      -1.840   5.973 -25.850  1.00  0.00    -0.254 OA
HETATM   14  H   UNL     1      -2.504   7.793 -24.473  1.00  0.00     0.163 HD
HETATM   15  O   UNL     1      -3.704   8.435 -28.158  1.00  0.00    -0.278 OA
BRANCH  12  16
HETATM   16  C   UNL     1      -4.417   8.394 -25.149  1.00  0.00     0.119 C 
HETATM   17  C   UNL     1      -4.203   9.880 -24.940  1.00  0.00     0.026 C 
ENDBRANCH  12  16
ENDBRANCH   7   8
BRANCH   7  18
HETATM   18  C   UNL     1      -2.534   6.761 -30.559  1.00  0.00    -0.035 A 
HETATM   19  C   UNL     1      -1.270   6.176 -30.382  1.00  0.00     0.009 A 
HETATM   20  C   UNL     1      -0.234   6.412 -31.291  1.00  0.00     0.001 A 
HETATM   21  C   UNL     1      -0.440   7.242 -32.389  1.00  0.00     0.000 A 
HETATM   22  C   UNL     1      -1.684   7.835 -32.583  1.00  0.00     0.001 A 
HETATM   23  C   UNL     1      -2.723   7.593 -31.680  1.00  0.00     0.009 A 
ENDBRANCH   7  18
ENDBRANCH   6   7
ENDBRANCH   1   6
BRANCH   2  24
HETATM   24  C   UNL     1      -4.472   4.508 -32.669  1.00  0.00     0.043 A 
HETATM   25  C   UNL     1      -3.208   3.938 -32.451  1.00  0.00     0.033 A 
HETATM   26  C   UNL     1      -2.194   4.108 -33.398  1.00  0.00     0.044 A 
HETATM   27  C   UNL     1      -2.440   4.849 -34.545  1.00  0.00     0.116 A 
HETATM   28  F   UNL     1      -1.469   5.009 -35.452  1.00  0.00    -0.206 F 
HETATM   29  C   UNL     1      -3.682   5.434 -34.763  1.00  0.00     0.044 A 
HETATM   30  C   UNL     1      -4.703   5.270 -33.823  1.00  0.00     0.033 A 
ENDBRANCH   2  24
BRANCH   3  31
HETATM   31  C   UNL     1      -6.475   2.027 -32.474  1.00  0.00     0.315 C 
BRANCH  31  32
HETATM   32  N   UNL     1      -5.169   1.246 -32.355  1.00  0.00    -0.064 N 
HETATM   33  H   UNL     1      -4.448   1.934 -32.641  1.00  0.00     0.280 HD
HETATM   34  C   UNL     1      -4.852   0.876 -30.924  1.00  0.00     0.235 C 
HETATM   35  C   UNL     1      -3.445   0.301 -30.852  1.00  0.00     0.028 C 
HETATM   36  C   UNL     1      -3.277  -0.881 -31.799  1.00  0.00     0.003 C 
HETATM   37  C   UNL     1      -3.674  -0.512 -33.225  1.00  0.00     0.028 C 
HETATM   38  C   UNL     1      -5.078   0.077 -33.292  1.00  0.00     0.235 C 
ENDBRANCH  31  32
ENDBRANCH   3  31
TORSDOF 8
ENDMDL
MODEL 5
REMARK VINA RESULT:      -8.1      2.918      4.644
REMARK  8 active torsions:
REMARK  status: ('A' for Active; 'I' for Inactive)
REMARK    1  A    between atoms: C_2  and  N_3 
REMARK       I    between atoms: N_3  and  C_4 
REMARK       I    between atoms: C_4  and  N_5 
REMARK       I    between atoms: N_5  and  C_6 
REMARK    2  A    between atoms: C_6  and  C_7 
REMARK    3  A    between atoms: C_7  and  S_8 
REMARK    4  A    between atoms: C_7  and  C_29 
REMARK    5  A    between atoms: S_8  and  C_9 
REMARK    6  A    between atoms: N_10  and  C_11 
REMARK    7  A    between atoms: C_18  and  C_19 
REMARK    8  A    between atoms: C_19  and  N_20 
ROOT
HETATM    1  C   UNL     1      -4.909   3.042 -30.921  1.00  0.00     0.197 A 
HETATM    2  N   UNL     1      -4.309   4.254 -31.222  1.00  0.00    -0.274 N 
HETATM    3  C   UNL     1      -4.826   5.109 -30.256  1.00  0.00     0.161 A 
HETATM    4  N   UNL     1      -5.692   4.462 -29.496  1.00  0.00    -0.132 NA
HETATM    5  N   UNL     1      -5.745   3.176 -29.920  1.00  0.00    -0.122 NA
ENDROOT
BRANCH   1   6
HETATM    6  S   UNL     1      -4.433   1.495 -31.532  1.00  0.00    -0.071 SA
BRANCH   6   7
HETATM    7  C   UNL     1      -5.771   1.139 -32.746  1.00  0.00     0.175 C 
BRANCH   7   8
HETATM    8  C   UNL     1      -7.168   1.474 -32.185  1.00  0.00     0.224 C 
HETATM    9  N   UNL     1      -7.766   2.628 -32.661  1.00  0.00    -0.178 NA
HETATM   10  C   UNL     1      -9.096   2.617 -32.913  1.00  0.00     0.300 C 
HETATM   11  H   UNL     1      -7.320   2.941 -33.516  1.00  0.00     0.141 HD
HETATM   12  N   UNL     1      -9.966   2.667 -31.880  1.00  0.00    -0.348 N 
HETATM   13  O   UNL     1      -9.499   2.624 -34.074  1.00  0.00    -0.254 OA
HETATM   14  H   UNL     1     -10.933   2.700 -32.180  1.00  0.00     0.163 HD
HETATM   15  O   UNL     1      -7.612   0.831 -31.231  1.00  0.00    -0.278 OA
BRANCH  12  16
HETATM   16  C   UNL     1      -9.691   2.998 -30.494  1.00  0.00     0.119 C 
HETATM   17  C   UNL     1      -9.600   4.499 -30.297  1.00  0.00     0.026 C 
ENDBRANCH  12  16
ENDBRANCH   7   8
BRANCH   7  18
HETATM   18  C   UNL     1      -5.633  -0.219 -33.435  1.00  0.00    -0.035 A 
HETATM   19  C   UNL     1      -4.461  -0.990 -33.377  1.00  0.00     0.009 A 
HETATM   20  C   UNL     1      -4.387  -2.237 -34.005  1.00  0.00     0.001 A 
HETATM   21  C   UNL     1      -5.480  -2.733 -34.709  1.00  0.00     0.000 A 
HETATM   22  C   UNL     1      -6.652  -1.985 -34.783  1.00  0.00     0.001 A 
HETATM   23  C   UNL     1      -6.731  -0.743 -34.147  1.00  0.00     0.009 A 
ENDBRANCH   7  18
ENDBRANCH   6   7
ENDBRANCH   1   6
BRANCH   2  24
HETATM   24  C   UNL     1      -3.404   4.558 -32.269  1.00  0.00     0.043 A 
HETATM   25  C   UNL     1      -3.893   4.784 -33.565  1.00  0.00     0.033 A 
HETATM   26  C   UNL     1      -3.011   5.113 -34.597  1.00  0.00     0.044 A 
HETATM   27  C   UNL     1      -1.651   5.204 -34.337  1.00  0.00     0.116 A 
HETATM   28  F   UNL     1      -0.806   5.521 -35.326  1.00  0.00    -0.206 F 
HETATM   29  C   UNL     1      -1.151   4.964 -33.062  1.00  0.00     0.044 A 
HETATM   30  C   UNL     1      -2.026   4.635 -32.023  1.00  0.00     0.033 A 
ENDBRANCH   2  24
BRANCH   3  31
HETATM   31  C   UNL     1      -4.605   6.569 -30.098  1.00  0.00     0.315 C 
BRANCH  31  32
HETATM   32  N   UNL     1      -3.259   6.806 -29.419  1.00  0.00    -0.064 N 
HETATM   33  H   UNL     1      -2.815   5.870 -29.428  1.00  0.00     0.280 HD
HETATM   34  C   UNL     1      -2.359   7.707 -30.232  1.00  0.00     0.235 C 
HETATM   35  C   UNL     1      -0.969   7.723 -29.614  1.00  0.00     0.028 C 
HETATM   36  C   UNL     1      -1.016   8.135 -28.147  1.00  0.00     0.003 C 
HETATM   37  C   UNL     1      -1.987   7.264 -27.356  1.00  0.00     0.028 C 
HETATM   38  C   UNL     1      -3.374   7.239 -27.986  1.00  0.00     0.235 C 
ENDBRANCH  31  32
ENDBRANCH   3  31
TORSDOF 8
ENDMDL
MODEL 6
REMARK VINA RESULT:      -8.0      3.162      7.625
REMARK  8 active torsions:
REMARK  status: ('A' for Active; 'I' for Inactive)
REMARK    1  A    between atoms: C_2  and  N_3 
REMARK       I    between atoms: N_3  and  C_4 
REMARK       I    between atoms: C_4  and  N_5 
REMARK       I    between atoms: N_5  and  C_6 
REMARK    2  A    between atoms: C_6  and  C_7 
REMARK    3  A    between atoms: C_7  and  S_8 
REMARK    4  A    between atoms: C_7  and  C_29 
REMARK    5  A    between atoms: S_8  and  C_9 
REMARK    6  A    between atoms: N_10  and  C_11 
REMARK    7  A    between atoms: C_18  and  C_19 
REMARK    8  A    between atoms: C_19  and  N_20 
ROOT
HETATM    1  C   UNL     1      -7.088   2.376 -31.038  1.00  0.00     0.197 A 
HETATM    2  N   UNL     1      -7.442   1.251 -31.765  1.00  0.00    -0.274 N 
HETATM    3  C   UNL     1      -8.827   1.231 -31.659  1.00  0.00     0.161 A 
HETATM    4  N   UNL     1      -9.237   2.227 -30.892  1.00  0.00    -0.132 NA
HETATM    5  N   UNL     1      -8.148   2.933 -30.502  1.00  0.00    -0.122 NA
ENDROOT
BRANCH   1   6
HETATM    6  S   UNL     1      -5.543   3.155 -31.060  1.00  0.00    -0.071 SA
BRANCH   6   7
HETATM    7  C   UNL     1      -5.571   4.005 -32.693  1.00  0.00     0.175 C 
BRANCH   7   8
HETATM    8  C   UNL     1      -4.233   4.704 -33.007  1.00  0.00     0.224 C 
HETATM    9  N   UNL     1      -3.464   5.087 -31.922  1.00  0.00    -0.178 NA
HETATM   10  C   UNL     1      -2.121   4.936 -31.987  1.00  0.00     0.300 C 
HETATM   11  H   UNL     1      -3.761   4.605 -31.080  1.00  0.00     0.141 HD
HETATM   12  N   UNL     1      -1.392   5.800 -32.729  1.00  0.00    -0.348 N 
HETATM   13  O   UNL     1      -1.570   4.056 -31.329  1.00  0.00    -0.254 OA
HETATM   14  H   UNL     1      -0.396   5.625 -32.673  1.00  0.00     0.163 HD
HETATM   15  O   UNL     1      -3.985   5.054 -34.163  1.00  0.00    -0.278 OA
BRANCH  12  16
HETATM   16  C   UNL     1      -1.812   7.073 -33.287  1.00  0.00     0.119 C 
HETATM   17  C   UNL     1      -1.759   8.172 -32.245  1.00  0.00     0.026 C 
ENDBRANCH  12  16
ENDBRANCH   7   8
BRANCH   7  18
HETATM   18  C   UNL     1      -6.833   4.835 -32.935  1.00  0.00    -0.035 A 
HETATM   19  C   UNL     1      -7.812   4.479 -33.876  1.00  0.00     0.009 A 
HETATM   20  C   UNL     1      -8.962   5.257 -34.048  1.00  0.00     0.001 A 
HETATM   21  C   UNL     1      -9.150   6.408 -33.290  1.00  0.00     0.000 A 
HETATM   22  C   UNL     1      -8.190   6.782 -32.353  1.00  0.00     0.001 A 
HETATM   23  C   UNL     1      -7.046   6.001 -32.172  1.00  0.00     0.009 A 
ENDBRANCH   7  18
ENDBRANCH   6   7
ENDBRANCH   1   6
BRANCH   2  24
HETATM   24  C   UNL     1      -6.599   0.331 -32.437  1.00  0.00     0.043 A 
HETATM   25  C   UNL     1      -6.690   0.198 -33.832  1.00  0.00     0.033 A 
HETATM   26  C   UNL     1      -5.844  -0.686 -34.505  1.00  0.00     0.044 A 
HETATM   27  C   UNL     1      -4.923  -1.438 -33.789  1.00  0.00     0.116 A 
HETATM   28  F   UNL     1      -4.111  -2.284 -34.435  1.00  0.00    -0.206 F 
HETATM   29  C   UNL     1      -4.837  -1.330 -32.406  1.00  0.00     0.044 A 
HETATM   30  C   UNL     1      -5.678  -0.448 -31.723  1.00  0.00     0.033 A 
ENDBRANCH   2  24
BRANCH   3  31
HETATM   31  C   UNL     1      -9.781   0.218 -32.179  1.00  0.00     0.315 C 
BRANCH  31  32
HETATM   32  N   UNL     1     -10.852   0.915 -33.016  1.00  0.00    -0.064 N 
HETATM   33  H   UNL     1     -11.219   1.645 -32.379  1.00  0.00     0.280 HD
HETATM   34  C   UNL     1     -10.266   1.646 -34.201  1.00  0.00     0.235 C 
HETATM   35  C   UNL     1     -11.347   2.491 -34.857  1.00  0.00     0.028 C 
HETATM   36  C   UNL     1     -12.555   1.646 -35.246  1.00  0.00     0.003 C 
HETATM   37  C   UNL     1     -13.088   0.856 -34.055  1.00  0.00     0.028 C 
HETATM   38  C   UNL     1     -11.999   0.023 -33.391  1.00  0.00     0.235 C 
ENDBRANCH  31  32
ENDBRANCH   3  31
TORSDOF 8
ENDMDL
MODEL 7
REMARK VINA RESULT:      -8.0      3.244      7.692
REMARK  8 active torsions:
REMARK  status: ('A' for Active; 'I' for Inactive)
REMARK    1  A    between atoms: C_2  and  N_3 
REMARK       I    between atoms: N_3  and  C_4 
REMARK       I    between atoms: C_4  and  N_5 
REMARK       I    between atoms: N_5  and  C_6 
REMARK    2  A    between atoms: C_6  and  C_7 
REMARK    3  A    between atoms: C_7  and  S_8 
REMARK    4  A    between atoms: C_7  and  C_29 
REMARK    5  A    between atoms: S_8  and  C_9 
REMARK    6  A    between atoms: N_10  and  C_11 
REMARK    7  A    between atoms: C_18  and  C_19 
REMARK    8  A    between atoms: C_19  and  N_20 
ROOT
HETATM    1  C   UNL     1      -7.379   4.172 -33.974  1.00  0.00     0.197 A 
HETATM    2  N   UNL     1      -8.270   3.114 -34.055  1.00  0.00    -0.274 N 
HETATM    3  C   UNL     1      -9.498   3.749 -34.205  1.00  0.00     0.161 A 
HETATM    4  N   UNL     1      -9.338   5.060 -34.160  1.00  0.00    -0.132 NA
HETATM    5  N   UNL     1      -8.016   5.318 -34.009  1.00  0.00    -0.122 NA
ENDROOT
BRANCH   1   6
HETATM    6  S   UNL     1      -5.658   4.063 -34.122  1.00  0.00    -0.071 SA
BRANCH   6   7
HETATM    7  C   UNL     1      -5.129   4.036 -32.358  1.00  0.00     0.175 C 
BRANCH   7   8
HETATM    8  C   UNL     1      -3.850   4.864 -32.123  1.00  0.00     0.224 C 
HETATM    9  N   UNL     1      -2.949   4.924 -33.171  1.00  0.00    -0.178 NA
HETATM   10  C   UNL     1      -2.322   6.096 -33.427  1.00  0.00     0.300 C 
HETATM   11  H   UNL     1      -3.387   4.644 -34.042  1.00  0.00     0.141 HD
HETATM   12  N   UNL     1      -1.314   6.498 -32.620  1.00  0.00    -0.348 N 
HETATM   13  O   UNL     1      -2.631   6.753 -34.419  1.00  0.00    -0.254 OA
HETATM   14  H   UNL     1      -0.885   7.363 -32.927  1.00  0.00     0.163 HD
HETATM   15  O   UNL     1      -3.591   5.277 -30.990  1.00  0.00    -0.278 OA
BRANCH  12  16
HETATM   16  C   UNL     1      -0.598   5.717 -31.628  1.00  0.00     0.119 C 
HETATM   17  C   UNL     1       0.534   6.518 -31.015  1.00  0.00     0.026 C 
ENDBRANCH  12  16
ENDBRANCH   7   8
BRANCH   7  18
HETATM   18  C   UNL     1      -5.149   2.641 -31.730  1.00  0.00    -0.035 A 
HETATM   19  C   UNL     1      -5.767   2.367 -30.500  1.00  0.00     0.009 A 
HETATM   20  C   UNL     1      -5.780   1.071 -29.974  1.00  0.00     0.001 A 
HETATM   21  C   UNL     1      -5.168   0.028 -30.663  1.00  0.00     0.000 A 
HETATM   22  C   UNL     1      -4.546   0.278 -31.883  1.00  0.00     0.001 A 
HETATM   23  C   UNL     1      -4.541   1.570 -32.415  1.00  0.00     0.009 A 
ENDBRANCH   7  18
ENDBRANCH   6   7
ENDBRANCH   1   6
BRANCH   2  24
HETATM   24  C   UNL     1      -8.003   1.724 -33.983  1.00  0.00     0.043 A 
HETATM   25  C   UNL     1      -7.364   1.084 -35.057  1.00  0.00     0.033 A 
HETATM   26  C   UNL     1      -7.072  -0.280 -34.982  1.00  0.00     0.044 A 
HETATM   27  C   UNL     1      -7.426  -0.998 -33.848  1.00  0.00     0.116 A 
HETATM   28  F   UNL     1      -7.143  -2.305 -33.776  1.00  0.00    -0.206 F 
HETATM   29  C   UNL     1      -8.075  -0.380 -32.786  1.00  0.00     0.044 A 
HETATM   30  C   UNL     1      -8.372   0.984 -32.851  1.00  0.00     0.033 A 
ENDBRANCH   2  24
BRANCH   3  31
HETATM   31  C   UNL     1     -10.851   3.141 -34.280  1.00  0.00     0.315 C 
BRANCH  31  32
HETATM   32  N   UNL     1     -11.528   3.244 -32.916  1.00  0.00    -0.064 N 
HETATM   33  H   UNL     1     -11.614   2.256 -32.614  1.00  0.00     0.280 HD
HETATM   34  C   UNL     1     -10.648   3.922 -31.891  1.00  0.00     0.235 C 
HETATM   35  C   UNL     1     -11.286   3.794 -30.516  1.00  0.00     0.028 C 
HETATM   36  C   UNL     1     -12.707   4.347 -30.507  1.00  0.00     0.003 C 
HETATM   37  C   UNL     1     -13.560   3.707 -31.597  1.00  0.00     0.028 C 
HETATM   38  C   UNL     1     -12.911   3.824 -32.971  1.00  0.00     0.235 C 
ENDBRANCH  31  32
ENDBRANCH   3  31
TORSDOF 8
ENDMDL
MODEL 8
REMARK VINA RESULT:      -7.9      4.636      8.738
REMARK  8 active torsions:
REMARK  status: ('A' for Active; 'I' for Inactive)
REMARK    1  A    between atoms: C_2  and  N_3 
REMARK       I    between atoms: N_3  and  C_4 
REMARK       I    between atoms: C_4  and  N_5 
REMARK       I    between atoms: N_5  and  C_6 
REMARK    2  A    between atoms: C_6  and  C_7 
REMARK    3  A    between atoms: C_7  and  S_8 
REMARK    4  A    between atoms: C_7  and  C_29 
REMARK    5  A    between atoms: S_8  and  C_9 
REMARK    6  A    between atoms: N_10  and  C_11 
REMARK    7  A    between atoms: C_18  and  C_19 
REMARK    8  A    between atoms: C_19  and  N_20 
ROOT
HETATM    1  C   UNL     1      -5.844   4.796 -30.331  1.00  0.00     0.197 A 
HETATM    2  N   UNL     1      -5.473   4.011 -31.411  1.00  0.00    -0.274 N 
HETATM    3  C   UNL     1      -6.240   2.864 -31.244  1.00  0.00     0.161 A 
HETATM    4  N   UNL     1      -6.953   2.954 -30.135  1.00  0.00    -0.132 NA
HETATM    5  N   UNL     1      -6.697   4.157 -29.566  1.00  0.00    -0.122 NA
ENDROOT
BRANCH   1   6
HETATM    6  S   UNL     1      -5.511   6.483 -30.140  1.00  0.00    -0.071 SA
BRANCH   6   7
HETATM    7  C   UNL     1      -3.803   6.455 -29.453  1.00  0.00     0.175 C 
BRANCH   7   8
HETATM    8  C   UNL     1      -3.708   7.193 -28.103  1.00  0.00     0.224 C 
HETATM    9  N   UNL     1      -3.559   6.405 -26.975  1.00  0.00    -0.178 NA
HETATM   10  C   UNL     1      -2.726   6.821 -25.992  1.00  0.00     0.300 C 
HETATM   11  H   UNL     1      -3.256   5.470 -27.225  1.00  0.00     0.141 HD
HETATM   12  N   UNL     1      -3.120   7.817 -25.168  1.00  0.00    -0.348 N 
HETATM   13  O   UNL     1      -1.650   6.252 -25.821  1.00  0.00    -0.254 OA
HETATM   14  H   UNL     1      -2.442   8.019 -24.442  1.00  0.00     0.163 HD
HETATM   15  O   UNL     1      -3.944   8.402 -28.051  1.00  0.00    -0.278 OA
BRANCH  12  16
HETATM   16  C   UNL     1      -4.454   8.364 -25.001  1.00  0.00     0.119 C 
HETATM   17  C   UNL     1      -4.414   9.875 -24.885  1.00  0.00     0.026 C 
ENDBRANCH  12  16
ENDBRANCH   7   8
BRANCH   7  18
HETATM   18  C   UNL     1      -2.720   6.793 -30.479  1.00  0.00    -0.035 A 
HETATM   19  C   UNL     1      -1.396   6.339 -30.370  1.00  0.00     0.009 A 
HETATM   20  C   UNL     1      -0.443   6.655 -31.344  1.00  0.00     0.001 A 
HETATM   21  C   UNL     1      -0.794   7.438 -32.440  1.00  0.00     0.000 A 
HETATM   22  C   UNL     1      -2.100   7.903 -32.567  1.00  0.00     0.001 A 
HETATM   23  C   UNL     1      -3.055   7.579 -31.600  1.00  0.00     0.009 A 
ENDBRANCH   7  18
ENDBRANCH   6   7
ENDBRANCH   1   6
BRANCH   2  24
HETATM   24  C   UNL     1      -4.528   4.295 -32.428  1.00  0.00     0.043 A 
HETATM   25  C   UNL     1      -3.208   3.834 -32.296  1.00  0.00     0.033 A 
HETATM   26  C   UNL     1      -2.277   4.085 -33.307  1.00  0.00     0.044 A 
HETATM   27  C   UNL     1      -2.661   4.798 -34.434  1.00  0.00     0.116 A 
HETATM   28  F   UNL     1      -1.769   5.036 -35.404  1.00  0.00    -0.206 F 
HETATM   29  C   UNL     1      -3.959   5.276 -34.568  1.00  0.00     0.044 A 
HETATM   30  C   UNL     1      -4.898   5.030 -33.563  1.00  0.00     0.033 A 
ENDBRANCH   2  24
BRANCH   3  31
HETATM   31  C   UNL     1      -6.236   1.621 -32.057  1.00  0.00     0.315 C 
BRANCH  31  32
HETATM   32  N   UNL     1      -7.574   1.484 -32.778  1.00  0.00    -0.064 N 
HETATM   33  H   UNL     1      -7.332   0.963 -33.640  1.00  0.00     0.280 HD
HETATM   34  C   UNL     1      -8.546   0.611 -32.019  1.00  0.00     0.235 C 
HETATM   35  C   UNL     1      -9.764   0.338 -32.888  1.00  0.00     0.028 C 
HETATM   36  C   UNL     1     -10.411   1.634 -33.364  1.00  0.00     0.003 C 
HETATM   37  C   UNL     1      -9.398   2.537 -34.062  1.00  0.00     0.028 C 
HETATM   38  C   UNL     1      -8.172   2.796 -33.194  1.00  0.00     0.235 C 
ENDBRANCH  31  32
ENDBRANCH   3  31
TORSDOF 8
ENDMDL
MODEL 9
REMARK VINA RESULT:      -7.8      1.474      2.177
REMARK  8 active torsions:
REMARK  status: ('A' for Active; 'I' for Inactive)
REMARK    1  A    between atoms: C_2  and  N_3 
REMARK       I    between atoms: N_3  and  C_4 
REMARK       I    between atoms: C_4  and  N_5 
REMARK       I    between atoms: N_5  and  C_6 
REMARK    2  A    between atoms: C_6  and  C_7 
REMARK    3  A    between atoms: C_7  and  S_8 
REMARK    4  A    between atoms: C_7  and  C_29 
REMARK    5  A    between atoms: S_8  and  C_9 
REMARK    6  A    between atoms: N_10  and  C_11 
REMARK    7  A    between atoms: C_18  and  C_19 
REMARK    8  A    between atoms: C_19  and  N_20 
ROOT
HETATM    1  C   UNL     1      -6.792   4.123 -32.959  1.00  0.00     0.197 A 
HETATM    2  N   UNL     1      -5.517   3.592 -32.857  1.00  0.00    -0.274 N 
HETATM    3  C   UNL     1      -4.710   4.617 -33.336  1.00  0.00     0.161 A 
HETATM    4  N   UNL     1      -5.456   5.632 -33.733  1.00  0.00    -0.132 NA
HETATM    5  N   UNL     1      -6.754   5.316 -33.503  1.00  0.00    -0.122 NA
ENDROOT
BRANCH   1   6
HETATM    6  S   UNL     1      -8.219   3.489 -32.214  1.00  0.00    -0.071 SA
BRANCH   6   7
HETATM    7  C   UNL     1      -8.998   2.572 -33.608  1.00  0.00     0.175 C 
BRANCH   7   8
HETATM    8  C   UNL     1     -10.536   2.560 -33.508  1.00  0.00     0.224 C 
HETATM    9  N   UNL     1     -11.232   3.048 -34.601  1.00  0.00    -0.178 NA
HETATM   10  C   UNL     1     -12.366   2.417 -34.988  1.00  0.00     0.300 C 
HETATM   11  H   UNL     1     -10.637   3.086 -35.421  1.00  0.00     0.141 HD
HETATM   12  N   UNL     1     -13.497   2.590 -34.269  1.00  0.00    -0.348 N 
HETATM   13  O   UNL     1     -12.372   1.745 -36.017  1.00  0.00    -0.254 OA
HETATM   14  H   UNL     1     -14.295   2.111 -34.669  1.00  0.00     0.163 HD
HETATM   15  O   UNL     1     -11.075   2.301 -32.430  1.00  0.00    -0.278 OA
BRANCH  12  16
HETATM   16  C   UNL     1     -13.766   3.587 -33.249  1.00  0.00     0.119 C 
HETATM   17  C   UNL     1     -14.467   2.972 -32.053  1.00  0.00     0.026 C 
ENDBRANCH  12  16
ENDBRANCH   7   8
BRANCH   7  18
HETATM   18  C   UNL     1      -8.335   1.226 -33.908  1.00  0.00    -0.035 A 
HETATM   19  C   UNL     1      -7.699   0.943 -35.127  1.00  0.00     0.009 A 
HETATM   20  C   UNL     1      -7.087  -0.295 -35.349  1.00  0.00     0.001 A 
HETATM   21  C   UNL     1      -7.108  -1.275 -34.361  1.00  0.00     0.000 A 
HETATM   22  C   UNL     1      -7.735  -1.017 -33.146  1.00  0.00     0.001 A 
HETATM   23  C   UNL     1      -8.338   0.223 -32.918  1.00  0.00     0.009 A 
ENDBRANCH   7  18
ENDBRANCH   6   7
ENDBRANCH   1   6
BRANCH   2  24
HETATM   24  C   UNL     1      -5.126   2.310 -32.396  1.00  0.00     0.043 A 
HETATM   25  C   UNL     1      -5.292   1.980 -31.042  1.00  0.00     0.033 A 
HETATM   26  C   UNL     1      -4.935   0.709 -30.584  1.00  0.00     0.044 A 
HETATM   27  C   UNL     1      -4.409  -0.219 -31.472  1.00  0.00     0.116 A 
HETATM   28  F   UNL     1      -4.070  -1.438 -31.033  1.00  0.00    -0.206 F 
HETATM   29  C   UNL     1      -4.223   0.101 -32.811  1.00  0.00     0.044 A 
HETATM   30  C   UNL     1      -4.576   1.370 -33.279  1.00  0.00     0.033 A 
ENDBRANCH   2  24
BRANCH   3  31
HETATM   31  C   UNL     1      -3.238   4.621 -33.536  1.00  0.00     0.315 C 
BRANCH  31  32
HETATM   32  N   UNL     1      -2.613   5.715 -32.674  1.00  0.00    -0.064 N 
HETATM   33  H   UNL     1      -3.174   6.555 -32.906  1.00  0.00     0.280 HD
HETATM   34  C   UNL     1      -2.819   5.467 -31.198  1.00  0.00     0.235 C 
HETATM   35  C   UNL     1      -2.372   6.692 -30.414  1.00  0.00     0.028 C 
HETATM   36  C   UNL     1      -0.929   7.065 -30.736  1.00  0.00     0.003 C 
HETATM   37  C   UNL     1      -0.722   7.236 -32.237  1.00  0.00     0.028 C 
HETATM   38  C   UNL     1      -1.184   6.013 -33.020  1.00  0.00     0.235 C 
ENDBRANCH  31  32
ENDBRANCH   3  31
TORSDOF 8
ENDMDL
MODEL 10
REMARK VINA RESULT:      -7.8      2.182      3.970
REMARK  8 active torsions:
REMARK  status: ('A' for Active; 'I' for Inactive)
REMARK    1  A    between atoms: C_2  and  N_3 
REMARK       I    between atoms: N_3  and  C_4 
REMARK       I    between atoms: C_4  and  N_5 
REMARK       I    between atoms: N_5  and  C_6 
REMARK    2  A    between atoms: C_6  and  C_7 
REMARK    3  A    between atoms: C_7  and  S_8 
REMARK    4  A    between atoms: C_7  and  C_29 
REMARK    5  A    between atoms: S_8  and  C_9 
REMARK    6  A    between atoms: N_10  and  C_11 
REMARK    7  A    between atoms: C_18  and  C_19 
REMARK    8  A    between atoms: C_19  and  N_20 
ROOT
HETATM    1  C   UNL     1      -7.853   2.509 -31.499  1.00  0.00     0.197 A 
HETATM    2  N   UNL     1      -6.666   1.985 -31.984  1.00  0.00    -0.274 N 
HETATM    3  C   UNL     1      -5.702   2.804 -31.408  1.00  0.00     0.161 A 
HETATM    4  N   UNL     1      -6.283   3.753 -30.694  1.00  0.00    -0.132 NA
HETATM    5  N   UNL     1      -7.623   3.568 -30.761  1.00  0.00    -0.122 NA
ENDROOT
BRANCH   1   6
HETATM    6  S   UNL     1      -9.403   1.742 -31.563  1.00  0.00    -0.071 SA
BRANCH   6   7
HETATM    7  C   UNL     1     -10.112   2.453 -33.107  1.00  0.00     0.175 C 
BRANCH   7   8
HETATM    8  C   UNL     1     -10.093   3.995 -33.099  1.00  0.00     0.224 C 
HETATM    9  N   UNL     1      -9.218   4.609 -33.977  1.00  0.00    -0.178 NA
HETATM   10  C   UNL     1      -9.620   5.729 -34.623  1.00  0.00     0.300 C 
HETATM   11  H   UNL     1      -8.915   3.962 -34.697  1.00  0.00     0.141 HD
HETATM   12  N   UNL     1      -9.668   6.900 -33.951  1.00  0.00    -0.348 N 
HETATM   13  O   UNL     1      -9.878   5.683 -35.824  1.00  0.00    -0.254 OA
HETATM   14  H   UNL     1      -9.938   7.681 -34.538  1.00  0.00     0.163 HD
HETATM   15  O   UNL     1     -10.698   4.607 -32.215  1.00  0.00    -0.278 OA
BRANCH  12  16
HETATM   16  C   UNL     1      -9.091   7.212 -32.656  1.00  0.00     0.119 C 
HETATM   17  C   UNL     1     -10.021   8.089 -31.840  1.00  0.00     0.026 C 
ENDBRANCH  12  16
ENDBRANCH   7   8
BRANCH   7  18
HETATM   18  C   UNL     1     -11.426   1.801 -33.539  1.00  0.00    -0.035 A 
HETATM   19  C   UNL     1     -12.456   2.510 -34.179  1.00  0.00     0.009 A 
HETATM   20  C   UNL     1     -13.633   1.867 -34.576  1.00  0.00     0.001 A 
HETATM   21  C   UNL     1     -13.806   0.508 -34.333  1.00  0.00     0.000 A 
HETATM   22  C   UNL     1     -12.800  -0.214 -33.698  1.00  0.00     0.001 A 
HETATM   23  C   UNL     1     -11.619   0.424 -33.310  1.00  0.00     0.009 A 
ENDBRANCH   7  18
ENDBRANCH   6   7
ENDBRANCH   1   6
BRANCH   2  24
HETATM   24  C   UNL     1      -6.476   0.894 -32.868  1.00  0.00     0.043 A 
HETATM   25  C   UNL     1      -5.909  -0.297 -32.388  1.00  0.00     0.033 A 
HETATM   26  C   UNL     1      -5.744  -1.387 -33.246  1.00  0.00     0.044 A 
HETATM   27  C   UNL     1      -6.133  -1.282 -34.574  1.00  0.00     0.116 A 
HETATM   28  F   UNL     1      -5.977  -2.328 -35.396  1.00  0.00    -0.206 F 
HETATM   29  C   UNL     1      -6.678  -0.103 -35.067  1.00  0.00     0.044 A 
HETATM   30  C   UNL     1      -6.848   0.993 -34.217  1.00  0.00     0.033 A 
ENDBRANCH   2  24
BRANCH   3  31
HETATM   31  C   UNL     1      -4.230   2.781 -31.604  1.00  0.00     0.315 C 
BRANCH  31  32
HETATM   32  N   UNL     1      -3.826   3.919 -32.537  1.00  0.00    -0.064 N 
HETATM   33  H   UNL     1      -3.987   4.769 -31.966  1.00  0.00     0.280 HD
HETATM   34  C   UNL     1      -2.350   3.901 -32.857  1.00  0.00     0.235 C 
HETATM   35  C   UNL     1      -1.979   5.174 -33.602  1.00  0.00     0.028 C 
HETATM   36  C   UNL     1      -2.833   5.357 -34.852  1.00  0.00     0.003 C 
HETATM   37  C   UNL     1      -4.321   5.298 -34.522  1.00  0.00     0.028 C 
HETATM   38  C   UNL     1      -4.686   4.028 -33.762  1.00  0.00     0.235 C 
ENDBRANCH  31  32
ENDBRANCH   3  31
TORSDOF 8
ENDMDL
