MODEL 1
REMARK VINA RESULT:      -7.9      0.000      0.000
REMARK  11 active torsions:
REMARK  status: ('A' for Active; 'I' for Inactive)
REMARK    1  A    between atoms: C_2  and  N_3 
REMARK    2  A    between atoms: N_3  and  C_5 
REMARK    3  A    between atoms: N_3  and  C_34 
REMARK    4  A    between atoms: C_5  and  C_6 
REMARK    5  A    between atoms: C_6  and  C_7 
REMARK    6  A    between atoms: C_7  and  N_8 
REMARK       I    between atoms: N_8  and  C_9 
REMARK    7  A    between atoms: C_9  and  C_10 
REMARK    8  A    between atoms: C_10  and  O_11 
REMARK    9  A    between atoms: N_12  and  C_13 
REMARK   10  A    between atoms: C_14  and  O_15 
REMARK   11  A    between atoms: C_18  and  O_19 
ROOT
HETATM    1  C   UNL     1      -7.194   2.004 -32.534  1.00  0.00     0.256 C 
HETATM    2  N   UNL     1      -6.541   0.843 -31.919  1.00  0.00    -0.251 N 
HETATM    3  C   UNL     1      -6.557   0.667 -30.546  1.00  0.00     0.330 C 
HETATM    4  O   UNL     1      -6.326  -0.389 -29.958  1.00  0.00    -0.246 OA
HETATM    5  N   UNL     1      -6.812   1.775 -29.785  1.00  0.00    -0.308 N 
HETATM    6  C   UNL     1      -6.968   3.063 -30.286  1.00  0.00     0.048 A 
HETATM    7  C   UNL     1      -7.115   3.238 -31.657  1.00  0.00     0.035 A 
HETATM    8  C   UNL     1      -6.970   4.154 -29.415  1.00  0.00     0.031 A 
HETATM    9  C   UNL     1      -7.113   5.445 -29.926  1.00  0.00     0.021 A 
HETATM   10  C   UNL     1      -7.264   5.633 -31.298  1.00  0.00     0.011 A 
HETATM   11 BR   UNL     1      -7.475   7.378 -31.989  1.00  0.00    -0.051 Br
HETATM   12  C   UNL     1      -7.272   4.540 -32.163  1.00  0.00     0.034 A 
HETATM   13  H   UNL     1      -6.684   1.633 -28.791  1.00  0.00     0.170 HD
ENDROOT
BRANCH   1  14
HETATM   14  C   UNL     1      -8.736   1.713 -32.823  1.00  0.00     0.279 C 
HETATM   15  N   UNL     1      -9.155   1.772 -34.147  1.00  0.00    -0.356 N 
HETATM   16  H   UNL     1      -8.668   2.473 -34.703  1.00  0.00     0.162 HD
HETATM   17  O   UNL     1      -9.501   1.343 -31.927  1.00  0.00    -0.268 OA
BRANCH  15  18
HETATM   18  C   UNL     1     -10.533   1.489 -34.486  1.00  0.00     0.124 C 
BRANCH  18  19
HETATM   19  C   UNL     1     -11.362   2.770 -34.568  1.00  0.00     0.047 C 
BRANCH  19  20
HETATM   20  C   UNL     1     -12.712   2.476 -35.216  1.00  0.00     0.236 C 
BRANCH  20  21
HETATM   21  N   UNL     1     -13.865   2.427 -34.223  1.00  0.00    -0.072 N 
HETATM   22  H   UNL     1     -14.566   3.085 -34.593  1.00  0.00     0.279 HD
BRANCH  21  23
HETATM   23  C   UNL     1     -13.537   2.947 -32.829  1.00  0.00     0.230 C 
HETATM   24  C   UNL     1     -14.741   2.866 -31.908  1.00  0.00     0.034 C 
ENDBRANCH  21  23
BRANCH  21  25
HETATM   25  C   UNL     1     -14.587   1.093 -34.132  1.00  0.00     0.230 C 
HETATM   26  C   UNL     1     -13.624  -0.045 -33.846  1.00  0.00     0.034 C 
ENDBRANCH  21  25
ENDBRANCH  20  21
ENDBRANCH  19  20
ENDBRANCH  18  19
ENDBRANCH  15  18
ENDBRANCH   1  14
BRANCH   1  27
HETATM   27  O   UNL     1      -6.532   2.345 -33.753  1.00  0.00    -0.359 OA
HETATM   28  H   UNL     1      -6.498   1.527 -34.278  1.00  0.00     0.213 HD
ENDBRANCH   1  27
BRANCH   2  29
HETATM   29  C   UNL     1      -6.141  -0.236 -32.760  1.00  0.00     0.076 A 
HETATM   30  C   UNL     1      -4.797  -0.487 -33.088  1.00  0.00     0.098 A 
HETATM   31  C   UNL     1      -4.471  -1.550 -33.948  1.00  0.00     0.075 A 
HETATM   32  C   UNL     1      -5.480  -2.332 -34.517  1.00  0.00     0.070 A 
HETATM   33  C   UNL     1      -6.812  -2.071 -34.199  1.00  0.00     0.039 A 
HETATM   34  C   UNL     1      -7.142  -1.032 -33.328  1.00  0.00     0.035 A 
BRANCH  30  35
HETATM   35  O   UNL     1      -3.828   0.264 -32.462  1.00  0.00    -0.354 OA
HETATM   36  C   UNL     1      -2.986  -0.519 -31.613  1.00  0.00     0.210 C 
ENDBRANCH  30  35
BRANCH  32  37
HETATM   37  O   UNL     1      -5.301  -3.381 -35.375  1.00  0.00    -0.356 OA
HETATM   38  C   UNL     1      -6.192  -4.481 -35.252  1.00  0.00     0.210 C 
ENDBRANCH  32  37
ENDBRANCH   2  29
TORSDOF 11
ENDMDL
MODEL 2
REMARK VINA RESULT:      -7.8      3.240      7.242
REMARK  11 active torsions:
REMARK  status: ('A' for Active; 'I' for Inactive)
REMARK    1  A    between atoms: C_2  and  N_3 
REMARK    2  A    between atoms: N_3  and  C_5 
REMARK    3  A    between atoms: N_3  and  C_34 
REMARK    4  A    between atoms: C_5  and  C_6 
REMARK    5  A    between atoms: C_6  and  C_7 
REMARK    6  A    between atoms: C_7  and  N_8 
REMARK       I    between atoms: N_8  and  C_9 
REMARK    7  A    between atoms: C_9  and  C_10 
REMARK    8  A    between atoms: C_10  and  O_11 
REMARK    9  A    between atoms: N_12  and  C_13 
REMARK   10  A    between atoms: C_14  and  O_15 
REMARK   11  A    between atoms: C_18  and  O_19 
ROOT
HETATM    1  C   UNL     1      -7.777   0.947 -33.121  1.00  0.00     0.256 C 
HETATM    2  N   UNL     1      -8.970   1.447 -32.429  1.00  0.00    -0.251 N 
HETATM    3  C   UNL     1      -8.861   2.104 -31.215  1.00  0.00     0.330 C 
HETATM    4  O   UNL     1      -9.725   2.820 -30.709  1.00  0.00    -0.246 OA
HETATM    5  N   UNL     1      -7.709   1.901 -30.506  1.00  0.00    -0.308 N 
HETATM    6  C   UNL     1      -6.693   1.026 -30.874  1.00  0.00     0.048 A 
HETATM    7  C   UNL     1      -6.706   0.483 -32.154  1.00  0.00     0.035 A 
HETATM    8  C   UNL     1      -5.687   0.702 -29.963  1.00  0.00     0.031 A 
HETATM    9  C   UNL     1      -4.678  -0.188 -30.335  1.00  0.00     0.021 A 
HETATM   10  C   UNL     1      -4.678  -0.737 -31.616  1.00  0.00     0.011 A 
HETATM   11 BR   UNL     1      -3.304  -1.928 -32.128  1.00  0.00    -0.051 Br
HETATM   12  C   UNL     1      -5.679  -0.403 -32.527  1.00  0.00     0.034 A 
HETATM   13  H   UNL     1      -7.725   2.289 -29.571  1.00  0.00     0.170 HD
ENDROOT
BRANCH   1  14
HETATM   14  C   UNL     1      -7.135   2.073 -34.051  1.00  0.00     0.279 C 
HETATM   15  N   UNL     1      -6.675   3.226 -33.426  1.00  0.00    -0.356 N 
HETATM   16  H   UNL     1      -7.227   3.504 -32.616  1.00  0.00     0.162 HD
HETATM   17  O   UNL     1      -6.953   1.885 -35.258  1.00  0.00    -0.268 OA
BRANCH  15  18
HETATM   18  C   UNL     1      -6.053   4.275 -34.204  1.00  0.00     0.124 C 
BRANCH  18  19
HETATM   19  C   UNL     1      -5.865   5.546 -33.377  1.00  0.00     0.047 C 
BRANCH  19  20
HETATM   20  C   UNL     1      -4.378   5.857 -33.231  1.00  0.00     0.236 C 
BRANCH  20  21
HETATM   21  N   UNL     1      -3.472   4.755 -33.763  1.00  0.00    -0.072 N 
HETATM   22  H   UNL     1      -4.112   4.033 -34.126  1.00  0.00     0.279 HD
BRANCH  21  23
HETATM   23  C   UNL     1      -2.636   4.043 -32.708  1.00  0.00     0.230 C 
HETATM   24  C   UNL     1      -3.279   2.737 -32.276  1.00  0.00     0.034 C 
ENDBRANCH  21  23
BRANCH  21  25
HETATM   25  C   UNL     1      -2.605   5.144 -34.949  1.00  0.00     0.230 C 
HETATM   26  C   UNL     1      -1.267   5.706 -34.502  1.00  0.00     0.034 C 
ENDBRANCH  21  25
ENDBRANCH  20  21
ENDBRANCH  19  20
ENDBRANCH  18  19
ENDBRANCH  15  18
ENDBRANCH   1  14
BRANCH   1  27
HETATM   27  O   UNL     1      -8.116  -0.195 -33.910  1.00  0.00    -0.359 OA
HETATM   28  H   UNL     1      -8.886   0.066 -34.444  1.00  0.00     0.213 HD
ENDBRANCH   1  27
BRANCH   2  29
HETATM   29  C   UNL     1     -10.200   1.501 -33.147  1.00  0.00     0.076 A 
HETATM   30  C   UNL     1     -10.631   2.650 -33.833  1.00  0.00     0.098 A 
HETATM   31  C   UNL     1     -11.869   2.649 -34.497  1.00  0.00     0.075 A 
HETATM   32  C   UNL     1     -12.698   1.525 -34.441  1.00  0.00     0.070 A 
HETATM   33  C   UNL     1     -12.273   0.392 -33.749  1.00  0.00     0.039 A 
HETATM   34  C   UNL     1     -11.035   0.378 -33.107  1.00  0.00     0.035 A 
BRANCH  30  35
HETATM   35  O   UNL     1      -9.763   3.716 -33.918  1.00  0.00    -0.354 OA
HETATM   36  C   UNL     1     -10.107   4.627 -34.964  1.00  0.00     0.210 C 
ENDBRANCH  30  35
BRANCH  32  37
HETATM   37  O   UNL     1     -13.926   1.398 -35.028  1.00  0.00    -0.356 OA
HETATM   38  C   UNL     1     -14.932   0.717 -34.291  1.00  0.00     0.210 C 
ENDBRANCH  32  37
ENDBRANCH   2  29
TORSDOF 11
ENDMDL
MODEL 3
REMARK VINA RESULT:      -7.6      3.636      6.416
REMARK  11 active torsions:
REMARK  status: ('A' for Active; 'I' for Inactive)
REMARK    1  A    between atoms: C_2  and  N_3 
REMARK    2  A    between atoms: N_3  and  C_5 
REMARK    3  A    between atoms: N_3  and  C_34 
REMARK    4  A    between atoms: C_5  and  C_6 
REMARK    5  A    between atoms: C_6  and  C_7 
REMARK    6  A    between atoms: C_7  and  N_8 
REMARK       I    between atoms: N_8  and  C_9 
REMARK    7  A    between atoms: C_9  and  C_10 
REMARK    8  A    between atoms: C_10  and  O_11 
REMARK    9  A    between atoms: N_12  and  C_13 
REMARK   10  A    between atoms: C_14  and  O_15 
REMARK   11  A    between atoms: C_18  and  O_19 
ROOT
HETATM    1  C   UNL     1      -5.021   1.928 -32.519  1.00  0.00     0.256 C 
HETATM    2  N   UNL     1      -4.811   3.269 -33.076  1.00  0.00    -0.251 N 
HETATM    3  C   UNL     1      -5.734   3.828 -33.943  1.00  0.00     0.330 C 
HETATM    4  O   UNL     1      -5.823   5.024 -34.219  1.00  0.00    -0.246 OA
HETATM    5  N   UNL     1      -6.588   2.966 -34.574  1.00  0.00    -0.308 N 
HETATM    6  C   UNL     1      -6.537   1.580 -34.470  1.00  0.00     0.048 A 
HETATM    7  C   UNL     1      -5.732   1.009 -33.491  1.00  0.00     0.035 A 
HETATM    8  C   UNL     1      -7.282   0.788 -35.345  1.00  0.00     0.031 A 
HETATM    9  C   UNL     1      -7.216  -0.602 -35.245  1.00  0.00     0.021 A 
HETATM   10  C   UNL     1      -6.415  -1.187 -34.266  1.00  0.00     0.011 A 
HETATM   11 BR   UNL     1      -6.336  -3.069 -34.117  1.00  0.00    -0.051 Br
HETATM   12  C   UNL     1      -5.680  -0.393 -33.387  1.00  0.00     0.034 A 
HETATM   13  H   UNL     1      -7.154   3.396 -35.294  1.00  0.00     0.170 HD
ENDROOT
BRANCH   1  14
HETATM   14  C   UNL     1      -5.893   1.988 -31.184  1.00  0.00     0.279 C 
HETATM   15  N   UNL     1      -7.115   2.647 -31.254  1.00  0.00    -0.356 N 
HETATM   16  H   UNL     1      -7.118   3.445 -31.886  1.00  0.00     0.162 HD
HETATM   17  O   UNL     1      -5.551   1.384 -30.163  1.00  0.00    -0.268 OA
BRANCH  15  18
HETATM   18  C   UNL     1      -7.972   2.714 -30.090  1.00  0.00     0.124 C 
BRANCH  18  19
HETATM   19  C   UNL     1      -9.384   3.165 -30.461  1.00  0.00     0.047 C 
BRANCH  19  20
HETATM   20  C   UNL     1      -9.559   3.132 -31.976  1.00  0.00     0.236 C 
BRANCH  20  21
HETATM   21  N   UNL     1     -10.730   2.274 -32.434  1.00  0.00    -0.072 N 
HETATM   22  H   UNL     1     -11.124   1.874 -31.570  1.00  0.00     0.279 HD
BRANCH  21  23
HETATM   23  C   UNL     1     -10.353   1.071 -33.287  1.00  0.00     0.230 C 
HETATM   24  C   UNL     1      -9.584   0.037 -32.483  1.00  0.00     0.034 C 
ENDBRANCH  21  23
BRANCH  21  25
HETATM   25  C   UNL     1     -11.880   3.034 -33.074  1.00  0.00     0.230 C 
HETATM   26  C   UNL     1     -11.918   2.828 -34.578  1.00  0.00     0.034 C 
ENDBRANCH  21  25
ENDBRANCH  20  21
ENDBRANCH  19  20
ENDBRANCH  18  19
ENDBRANCH  15  18
ENDBRANCH   1  14
BRANCH   1  27
HETATM   27  O   UNL     1      -3.762   1.312 -32.245  1.00  0.00    -0.359 OA
HETATM   28  H   UNL     1      -3.391   1.788 -31.482  1.00  0.00     0.213 HD
ENDBRANCH   1  27
BRANCH   2  29
HETATM   29  C   UNL     1      -3.801   4.094 -32.499  1.00  0.00     0.076 A 
HETATM   30  C   UNL     1      -4.055   4.976 -31.435  1.00  0.00     0.098 A 
HETATM   31  C   UNL     1      -3.023   5.785 -30.931  1.00  0.00     0.075 A 
HETATM   32  C   UNL     1      -1.753   5.751 -31.514  1.00  0.00     0.070 A 
HETATM   33  C   UNL     1      -1.508   4.885 -32.578  1.00  0.00     0.039 A 
HETATM   34  C   UNL     1      -2.522   4.062 -33.068  1.00  0.00     0.035 A 
BRANCH  30  35
HETATM   35  O   UNL     1      -5.300   4.938 -30.847  1.00  0.00    -0.354 OA
HETATM   36  C   UNL     1      -5.943   6.215 -30.831  1.00  0.00     0.210 C 
ENDBRANCH  30  35
BRANCH  32  37
HETATM   37  O   UNL     1      -0.670   6.492 -31.131  1.00  0.00    -0.356 OA
HETATM   38  C   UNL     1      -0.342   6.501 -29.749  1.00  0.00     0.210 C 
ENDBRANCH  32  37
ENDBRANCH   2  29
TORSDOF 11
ENDMDL
MODEL 4
REMARK VINA RESULT:      -7.5      3.959      7.360
REMARK  11 active torsions:
REMARK  status: ('A' for Active; 'I' for Inactive)
REMARK    1  A    between atoms: C_2  and  N_3 
REMARK    2  A    between atoms: N_3  and  C_5 
REMARK    3  A    between atoms: N_3  and  C_34 
REMARK    4  A    between atoms: C_5  and  C_6 
REMARK    5  A    between atoms: C_6  and  C_7 
REMARK    6  A    between atoms: C_7  and  N_8 
REMARK       I    between atoms: N_8  and  C_9 
REMARK    7  A    between atoms: C_9  and  C_10 
REMARK    8  A    between atoms: C_10  and  O_11 
REMARK    9  A    between atoms: N_12  and  C_13 
REMARK   10  A    between atoms: C_14  and  O_15 
REMARK   11  A    between atoms: C_18  and  O_19 
ROOT
HETATM    1  C   UNL     1      -3.770   4.603 -32.092  1.00  0.00     0.256 C 
HETATM    2  N   UNL     1      -4.477   4.922 -33.337  1.00  0.00    -0.251 N 
HETATM    3  C   UNL     1      -3.780   5.329 -34.462  1.00  0.00     0.330 C 
HETATM    4  O   UNL     1      -4.214   5.321 -35.614  1.00  0.00    -0.246 OA
HETATM    5  N   UNL     1      -2.518   5.818 -34.262  1.00  0.00    -0.308 N 
HETATM    6  C   UNL     1      -1.929   6.011 -33.017  1.00  0.00     0.048 A 
HETATM    7  C   UNL     1      -2.540   5.466 -31.893  1.00  0.00     0.035 A 
HETATM    8  C   UNL     1      -0.748   6.747 -32.911  1.00  0.00     0.031 A 
HETATM    9  C   UNL     1      -0.170   6.949 -31.657  1.00  0.00     0.021 A 
HETATM   10  C   UNL     1      -0.771   6.405 -30.523  1.00  0.00     0.011 A 
HETATM   11 BR   UNL     1       0.019   6.663 -28.827  1.00  0.00    -0.051 Br
HETATM   12  C   UNL     1      -1.945   5.662 -30.635  1.00  0.00     0.034 A 
HETATM   13  H   UNL     1      -2.096   6.225 -35.087  1.00  0.00     0.170 HD
ENDROOT
BRANCH   1  14
HETATM   14  C   UNL     1      -3.301   3.078 -32.068  1.00  0.00     0.279 C 
HETATM   15  N   UNL     1      -3.921   2.239 -31.150  1.00  0.00    -0.356 N 
HETATM   16  H   UNL     1      -4.170   2.697 -30.275  1.00  0.00     0.162 HD
HETATM   17  O   UNL     1      -2.504   2.636 -32.901  1.00  0.00    -0.268 OA
BRANCH  15  18
HETATM   18  C   UNL     1      -3.567   0.837 -31.094  1.00  0.00     0.124 C 
BRANCH  18  19
HETATM   19  C   UNL     1      -4.600  -0.028 -31.814  1.00  0.00     0.047 C 
BRANCH  19  20
HETATM   20  C   UNL     1      -3.895  -1.091 -32.652  1.00  0.00     0.236 C 
BRANCH  20  21
HETATM   21  N   UNL     1      -4.729  -1.595 -33.822  1.00  0.00    -0.072 N 
HETATM   22  H   UNL     1      -4.454  -1.006 -34.621  1.00  0.00     0.279 HD
BRANCH  21  23
HETATM   23  C   UNL     1      -6.230  -1.387 -33.680  1.00  0.00     0.230 C 
HETATM   24  C   UNL     1      -6.836  -0.816 -34.949  1.00  0.00     0.034 C 
ENDBRANCH  21  23
BRANCH  21  25
HETATM   25  C   UNL     1      -4.433  -3.019 -34.264  1.00  0.00     0.230 C 
HETATM   26  C   UNL     1      -3.632  -3.773 -33.217  1.00  0.00     0.034 C 
ENDBRANCH  21  25
ENDBRANCH  20  21
ENDBRANCH  19  20
ENDBRANCH  18  19
ENDBRANCH  15  18
ENDBRANCH   1  14
BRANCH   1  27
HETATM   27  O   UNL     1      -4.617   4.864 -30.971  1.00  0.00    -0.359 OA
HETATM   28  H   UNL     1      -5.518   4.630 -31.256  1.00  0.00     0.213 HD
ENDBRANCH   1  27
BRANCH   2  29
HETATM   29  C   UNL     1      -5.844   4.539 -33.460  1.00  0.00     0.076 A 
HETATM   30  C   UNL     1      -6.907   5.397 -33.129  1.00  0.00     0.098 A 
HETATM   31  C   UNL     1      -8.234   4.947 -33.243  1.00  0.00     0.075 A 
HETATM   32  C   UNL     1      -8.502   3.635 -33.640  1.00  0.00     0.070 A 
HETATM   33  C   UNL     1      -7.444   2.783 -33.955  1.00  0.00     0.039 A 
HETATM   34  C   UNL     1      -6.126   3.229 -33.866  1.00  0.00     0.035 A 
BRANCH  30  35
HETATM   35  O   UNL     1      -6.608   6.700 -32.801  1.00  0.00    -0.354 OA
HETATM   36  C   UNL     1      -7.208   7.111 -31.570  1.00  0.00     0.210 C 
ENDBRANCH  30  35
BRANCH  32  37
HETATM   37  O   UNL     1      -9.739   3.070 -33.778  1.00  0.00    -0.356 OA
HETATM   38  C   UNL     1     -10.129   2.111 -32.804  1.00  0.00     0.210 C 
ENDBRANCH  32  37
ENDBRANCH   2  29
TORSDOF 11
ENDMDL
MODEL 5
REMARK VINA RESULT:      -7.4      1.314      1.923
REMARK  11 active torsions:
REMARK  status: ('A' for Active; 'I' for Inactive)
REMARK    1  A    between atoms: C_2  and  N_3 
REMARK    2  A    between atoms: N_3  and  C_5 
REMARK    3  A    between atoms: N_3  and  C_34 
REMARK    4  A    between atoms: C_5  and  C_6 
REMARK    5  A    between atoms: C_6  and  C_7 
REMARK    6  A    between atoms: C_7  and  N_8 
REMARK       I    between atoms: N_8  and  C_9 
REMARK    7  A    between atoms: C_9  and  C_10 
REMARK    8  A    between atoms: C_10  and  O_11 
REMARK    9  A    between atoms: N_12  and  C_13 
REMARK   10  A    between atoms: C_14  and  O_15 
REMARK   11  A    between atoms: C_18  and  O_19 
ROOT
HETATM    1  C   UNL     1      -7.142   2.236 -32.410  1.00  0.00     0.256 C 
HETATM    2  N   UNL     1      -6.489   1.087 -31.774  1.00  0.00    -0.251 N 
HETATM    3  C   UNL     1      -6.511   0.932 -30.398  1.00  0.00     0.330 C 
HETATM    4  O   UNL     1      -6.280  -0.114 -29.793  1.00  0.00    -0.246 OA
HETATM    5  N   UNL     1      -6.773   2.051 -29.656  1.00  0.00    -0.308 N 
HETATM    6  C   UNL     1      -6.931   3.331 -30.178  1.00  0.00     0.048 A 
HETATM    7  C   UNL     1      -7.071   3.484 -31.553  1.00  0.00     0.035 A 
HETATM    8  C   UNL     1      -6.940   4.435 -29.324  1.00  0.00     0.031 A 
HETATM    9  C   UNL     1      -7.084   5.717 -29.856  1.00  0.00     0.021 A 
HETATM   10  C   UNL     1      -7.228   5.884 -31.232  1.00  0.00     0.011 A 
HETATM   11 BR   UNL     1      -7.440   7.617 -31.951  1.00  0.00    -0.051 Br
HETATM   12  C   UNL     1      -7.229   4.777 -32.080  1.00  0.00     0.034 A 
HETATM   13  H   UNL     1      -6.650   1.925 -28.660  1.00  0.00     0.170 HD
ENDROOT
BRANCH   1  14
HETATM   14  C   UNL     1      -8.682   1.936 -32.702  1.00  0.00     0.279 C 
HETATM   15  N   UNL     1      -9.105   2.023 -34.024  1.00  0.00    -0.356 N 
HETATM   16  H   UNL     1      -8.626   2.743 -34.563  1.00  0.00     0.162 HD
HETATM   17  O   UNL     1      -9.441   1.537 -31.814  1.00  0.00    -0.268 OA
BRANCH  15  18
HETATM   18  C   UNL     1     -10.480   1.735 -34.366  1.00  0.00     0.124 C 
BRANCH  18  19
HETATM   19  C   UNL     1     -11.255   3.012 -34.688  1.00  0.00     0.047 C 
BRANCH  19  20
HETATM   20  C   UNL     1     -12.291   3.280 -33.600  1.00  0.00     0.236 C 
BRANCH  20  21
HETATM   21  N   UNL     1     -11.974   4.501 -32.747  1.00  0.00    -0.072 N 
HETATM   22  H   UNL     1     -12.739   5.165 -32.936  1.00  0.00     0.279 HD
BRANCH  21  23
HETATM   23  C   UNL     1     -10.704   5.245 -33.134  1.00  0.00     0.230 C 
HETATM   24  C   UNL     1     -11.013   6.622 -33.694  1.00  0.00     0.034 C 
ENDBRANCH  21  23
BRANCH  21  25
HETATM   25  C   UNL     1     -12.015   4.272 -31.245  1.00  0.00     0.230 C 
HETATM   26  C   UNL     1     -10.663   4.529 -30.604  1.00  0.00     0.034 C 
ENDBRANCH  21  25
ENDBRANCH  20  21
ENDBRANCH  19  20
ENDBRANCH  18  19
ENDBRANCH  15  18
ENDBRANCH   1  14
BRANCH   1  27
HETATM   27  O   UNL     1      -6.474   2.560 -33.631  1.00  0.00    -0.359 OA
HETATM   28  H   UNL     1      -6.649   1.820 -34.237  1.00  0.00     0.213 HD
ENDBRANCH   1  27
BRANCH   2  29
HETATM   29  C   UNL     1      -6.081  -0.004 -32.596  1.00  0.00     0.076 A 
HETATM   30  C   UNL     1      -4.738  -0.241 -32.936  1.00  0.00     0.098 A 
HETATM   31  C   UNL     1      -4.406  -1.317 -33.776  1.00  0.00     0.075 A 
HETATM   32  C   UNL     1      -5.409  -2.127 -34.314  1.00  0.00     0.070 A 
HETATM   33  C   UNL     1      -6.741  -1.881 -33.985  1.00  0.00     0.039 A 
HETATM   34  C   UNL     1      -7.077  -0.829 -33.134  1.00  0.00     0.035 A 
BRANCH  30  35
HETATM   35  O   UNL     1      -3.773   0.540 -32.339  1.00  0.00    -0.354 OA
HETATM   36  C   UNL     1      -3.049  -0.159 -31.323  1.00  0.00     0.210 C 
ENDBRANCH  30  35
BRANCH  32  37
HETATM   37  O   UNL     1      -5.223  -3.192 -35.151  1.00  0.00    -0.356 OA
HETATM   38  C   UNL     1      -6.253  -4.170 -35.199  1.00  0.00     0.210 C 
ENDBRANCH  32  37
ENDBRANCH   2  29
TORSDOF 11
ENDMDL
MODEL 6
REMARK VINA RESULT:      -7.0      2.937      6.472
REMARK  11 active torsions:
REMARK  status: ('A' for Active; 'I' for Inactive)
REMARK    1  A    between atoms: C_2  and  N_3 
REMARK    2  A    between atoms: N_3  and  C_5 
REMARK    3  A    between atoms: N_3  and  C_34 
REMARK    4  A    between atoms: C_5  and  C_6 
REMARK    5  A    between atoms: C_6  and  C_7 
REMARK    6  A    between atoms: C_7  and  N_8 
REMARK       I    between atoms: N_8  and  C_9 
REMARK    7  A    between atoms: C_9  and  C_10 
REMARK    8  A    between atoms: C_10  and  O_11 
REMARK    9  A    between atoms: N_12  and  C_13 
REMARK   10  A    between atoms: C_14  and  O_15 
REMARK   11  A    between atoms: C_18  and  O_19 
ROOT
HETATM    1  C   UNL     1      -7.516   3.843 -33.139  1.00  0.00     0.256 C 
HETATM    2  N   UNL     1      -6.861   3.781 -31.828  1.00  0.00    -0.251 N 
HETATM    3  C   UNL     1      -7.515   3.237 -30.735  1.00  0.00     0.330 C 
HETATM    4  O   UNL     1      -6.976   2.856 -29.697  1.00  0.00    -0.246 OA
HETATM    5  N   UNL     1      -8.878   3.159 -30.808  1.00  0.00    -0.308 N 
HETATM    6  C   UNL     1      -9.648   3.659 -31.854  1.00  0.00     0.048 A 
HETATM    7  C   UNL     1      -9.012   4.061 -33.023  1.00  0.00     0.035 A 
HETATM    8  C   UNL     1     -11.033   3.757 -31.715  1.00  0.00     0.031 A 
HETATM    9  C   UNL     1     -11.797   4.274 -32.763  1.00  0.00     0.021 A 
HETATM   10  C   UNL     1     -11.172   4.677 -33.941  1.00  0.00     0.011 A 
HETATM   11 BR   UNL     1     -12.206   5.360 -35.366  1.00  0.00    -0.051 Br
HETATM   12  C   UNL     1      -9.789   4.567 -34.079  1.00  0.00     0.034 A 
HETATM   13  H   UNL     1      -9.325   2.881 -29.944  1.00  0.00     0.170 HD
ENDROOT
BRANCH   1  14
HETATM   14  C   UNL     1      -7.286   2.497 -33.964  1.00  0.00     0.279 C 
HETATM   15  N   UNL     1      -8.241   1.497 -33.825  1.00  0.00    -0.356 N 
HETATM   16  H   UNL     1      -8.654   1.446 -32.896  1.00  0.00     0.162 HD
HETATM   17  O   UNL     1      -6.360   2.387 -34.774  1.00  0.00    -0.268 OA
BRANCH  15  18
HETATM   18  C   UNL     1      -8.112   0.261 -34.567  1.00  0.00     0.124 C 
BRANCH  18  19
HETATM   19  C   UNL     1      -7.530  -0.853 -33.699  1.00  0.00     0.047 C 
BRANCH  19  20
HETATM   20  C   UNL     1      -6.036  -1.001 -33.976  1.00  0.00     0.236 C 
BRANCH  20  21
HETATM   21  N   UNL     1      -5.669  -2.320 -34.643  1.00  0.00    -0.072 N 
HETATM   22  H   UNL     1      -5.462  -2.076 -35.623  1.00  0.00     0.279 HD
BRANCH  21  23
HETATM   23  C   UNL     1      -6.798  -3.338 -34.722  1.00  0.00     0.230 C 
HETATM   24  C   UNL     1      -6.349  -4.616 -35.405  1.00  0.00     0.034 C 
ENDBRANCH  21  23
BRANCH  21  25
HETATM   25  C   UNL     1      -4.401  -2.977 -34.125  1.00  0.00     0.230 C 
HETATM   26  C   UNL     1      -3.867  -2.268 -32.893  1.00  0.00     0.034 C 
ENDBRANCH  21  25
ENDBRANCH  20  21
ENDBRANCH  19  20
ENDBRANCH  18  19
ENDBRANCH  15  18
ENDBRANCH   1  14
BRANCH   1  27
HETATM   27  O   UNL     1      -7.014   4.955 -33.882  1.00  0.00    -0.359 OA
HETATM   28  H   UNL     1      -6.534   5.510 -33.242  1.00  0.00     0.213 HD
ENDBRANCH   1  27
BRANCH   2  29
HETATM   29  C   UNL     1      -5.459   4.023 -31.757  1.00  0.00     0.076 A 
HETATM   30  C   UNL     1      -4.916   5.307 -31.583  1.00  0.00     0.098 A 
HETATM   31  C   UNL     1      -3.522   5.483 -31.552  1.00  0.00     0.075 A 
HETATM   32  C   UNL     1      -2.670   4.391 -31.740  1.00  0.00     0.070 A 
HETATM   33  C   UNL     1      -3.212   3.121 -31.926  1.00  0.00     0.039 A 
HETATM   34  C   UNL     1      -4.594   2.936 -31.935  1.00  0.00     0.035 A 
BRANCH  30  35
HETATM   35  O   UNL     1      -5.784   6.348 -31.339  1.00  0.00    -0.354 OA
HETATM   36  C   UNL     1      -5.828   6.720 -29.960  1.00  0.00     0.210 C 
ENDBRANCH  30  35
BRANCH  32  37
HETATM   37  O   UNL     1      -1.303   4.426 -31.747  1.00  0.00    -0.356 OA
HETATM   38  C   UNL     1      -0.667   5.200 -30.740  1.00  0.00     0.210 C 
ENDBRANCH  32  37
ENDBRANCH   2  29
TORSDOF 11
ENDMDL
MODEL 7
REMARK VINA RESULT:      -6.9      1.747      2.677
REMARK  11 active torsions:
REMARK  status: ('A' for Active; 'I' for Inactive)
REMARK    1  A    between atoms: C_2  and  N_3 
REMARK    2  A    between atoms: N_3  and  C_5 
REMARK    3  A    between atoms: N_3  and  C_34 
REMARK    4  A    between atoms: C_5  and  C_6 
REMARK    5  A    between atoms: C_6  and  C_7 
REMARK    6  A    between atoms: C_7  and  N_8 
REMARK       I    between atoms: N_8  and  C_9 
REMARK    7  A    between atoms: C_9  and  C_10 
REMARK    8  A    between atoms: C_10  and  O_11 
REMARK    9  A    between atoms: N_12  and  C_13 
REMARK   10  A    between atoms: C_14  and  O_15 
REMARK   11  A    between atoms: C_18  and  O_19 
ROOT
HETATM    1  C   UNL     1      -5.422   2.459 -32.178  1.00  0.00     0.256 C 
HETATM    2  N   UNL     1      -5.639   1.129 -31.599  1.00  0.00    -0.251 N 
HETATM    3  C   UNL     1      -6.404   0.970 -30.456  1.00  0.00     0.330 C 
HETATM    4  O   UNL     1      -6.901  -0.087 -30.069  1.00  0.00    -0.246 OA
HETATM    5  N   UNL     1      -6.584   2.079 -29.676  1.00  0.00    -0.308 N 
HETATM    6  C   UNL     1      -5.988   3.316 -29.903  1.00  0.00     0.048 A 
HETATM    7  C   UNL     1      -5.352   3.541 -31.119  1.00  0.00     0.035 A 
HETATM    8  C   UNL     1      -6.031   4.301 -28.916  1.00  0.00     0.031 A 
HETATM    9  C   UNL     1      -5.419   5.535 -29.146  1.00  0.00     0.021 A 
HETATM   10  C   UNL     1      -4.780   5.774 -30.361  1.00  0.00     0.011 A 
HETATM   11 BR   UNL     1      -3.966   7.449 -30.680  1.00  0.00    -0.051 Br
HETATM   12  C   UNL     1      -4.750   4.790 -31.348  1.00  0.00     0.034 A 
HETATM   13  H   UNL     1      -7.034   1.893 -28.789  1.00  0.00     0.170 HD
ENDROOT
BRANCH   1  14
HETATM   14  C   UNL     1      -6.594   2.847 -33.189  1.00  0.00     0.279 C 
HETATM   15  N   UNL     1      -7.884   2.898 -32.674  1.00  0.00    -0.356 N 
HETATM   16  H   UNL     1      -8.064   2.212 -31.943  1.00  0.00     0.162 HD
HETATM   17  O   UNL     1      -6.356   3.193 -34.350  1.00  0.00    -0.268 OA
BRANCH  15  18
HETATM   18  C   UNL     1      -8.992   3.272 -33.527  1.00  0.00     0.124 C 
BRANCH  18  19
HETATM   19  C   UNL     1     -10.167   3.809 -32.711  1.00  0.00     0.047 C 
BRANCH  19  20
HETATM   20  C   UNL     1     -11.472   3.590 -33.472  1.00  0.00     0.236 C 
BRANCH  20  21
HETATM   21  N   UNL     1     -12.339   2.484 -32.887  1.00  0.00    -0.072 N 
HETATM   22  H   UNL     1     -11.846   2.180 -32.034  1.00  0.00     0.279 HD
BRANCH  21  23
HETATM   23  C   UNL     1     -12.450   1.231 -33.744  1.00  0.00     0.230 C 
HETATM   24  C   UNL     1     -12.311   1.552 -35.221  1.00  0.00     0.034 C 
ENDBRANCH  21  23
BRANCH  21  25
HETATM   25  C   UNL     1     -13.714   2.922 -32.411  1.00  0.00     0.230 C 
HETATM   26  C   UNL     1     -13.620   3.876 -31.234  1.00  0.00     0.034 C 
ENDBRANCH  21  25
ENDBRANCH  20  21
ENDBRANCH  19  20
ENDBRANCH  18  19
ENDBRANCH  15  18
ENDBRANCH   1  14
BRANCH   1  27
HETATM   27  O   UNL     1      -4.167   2.495 -32.859  1.00  0.00    -0.359 OA
HETATM   28  H   UNL     1      -3.751   1.629 -32.701  1.00  0.00     0.213 HD
ENDBRANCH   1  27
BRANCH   2  29
HETATM   29  C   UNL     1      -5.295  -0.015 -32.377  1.00  0.00     0.076 A 
HETATM   30  C   UNL     1      -6.173  -0.595 -33.307  1.00  0.00     0.098 A 
HETATM   31  C   UNL     1      -5.785  -1.742 -34.020  1.00  0.00     0.075 A 
HETATM   32  C   UNL     1      -4.544  -2.337 -33.777  1.00  0.00     0.070 A 
HETATM   33  C   UNL     1      -3.680  -1.766 -32.843  1.00  0.00     0.039 A 
HETATM   34  C   UNL     1      -4.050  -0.615 -32.148  1.00  0.00     0.035 A 
BRANCH  30  35
HETATM   35  O   UNL     1      -7.361   0.052 -33.565  1.00  0.00    -0.354 OA
HETATM   36  C   UNL     1      -7.781  -0.086 -34.924  1.00  0.00     0.210 C 
ENDBRANCH  30  35
BRANCH  32  37
HETATM   37  O   UNL     1      -4.052  -3.456 -34.388  1.00  0.00    -0.356 OA
HETATM   38  C   UNL     1      -3.562  -4.494 -33.549  1.00  0.00     0.210 C 
ENDBRANCH  32  37
ENDBRANCH   2  29
TORSDOF 11
ENDMDL
MODEL 8
REMARK VINA RESULT:      -6.8      3.669      8.252
REMARK  11 active torsions:
REMARK  status: ('A' for Active; 'I' for Inactive)
REMARK    1  A    between atoms: C_2  and  N_3 
REMARK    2  A    between atoms: N_3  and  C_5 
REMARK    3  A    between atoms: N_3  and  C_34 
REMARK    4  A    between atoms: C_5  and  C_6 
REMARK    5  A    between atoms: C_6  and  C_7 
REMARK    6  A    between atoms: C_7  and  N_8 
REMARK       I    between atoms: N_8  and  C_9 
REMARK    7  A    between atoms: C_9  and  C_10 
REMARK    8  A    between atoms: C_10  and  O_11 
REMARK    9  A    between atoms: N_12  and  C_13 
REMARK   10  A    between atoms: C_14  and  O_15 
REMARK   11  A    between atoms: C_18  and  O_19 
ROOT
HETATM    1  C   UNL     1      -8.088   2.662 -33.064  1.00  0.00     0.256 C 
HETATM    2  N   UNL     1      -9.281   2.958 -32.262  1.00  0.00    -0.251 N 
HETATM    3  C   UNL     1      -9.251   2.848 -30.882  1.00  0.00     0.330 C 
HETATM    4  O   UNL     1     -10.062   3.354 -30.106  1.00  0.00    -0.246 OA
HETATM    5  N   UNL     1      -8.256   2.077 -30.346  1.00  0.00    -0.308 N 
HETATM    6  C   UNL     1      -7.339   1.337 -31.086  1.00  0.00     0.048 A 
HETATM    7  C   UNL     1      -7.248   1.557 -32.456  1.00  0.00     0.035 A 
HETATM    8  C   UNL     1      -6.534   0.390 -30.452  1.00  0.00     0.031 A 
HETATM    9  C   UNL     1      -5.626  -0.358 -31.202  1.00  0.00     0.021 A 
HETATM   10  C   UNL     1      -5.523  -0.146 -32.576  1.00  0.00     0.011 A 
HETATM   11 BR   UNL     1      -4.283  -1.145 -33.591  1.00  0.00    -0.051 Br
HETATM   12  C   UNL     1      -6.322   0.809 -33.204  1.00  0.00     0.034 A 
HETATM   13  H   UNL     1      -8.347   1.915 -29.352  1.00  0.00     0.170 HD
ENDROOT
BRANCH   1  14
HETATM   14  C   UNL     1      -7.159   3.950 -33.213  1.00  0.00     0.279 C 
HETATM   15  N   UNL     1      -6.356   4.282 -32.128  1.00  0.00    -0.356 N 
HETATM   16  H   UNL     1      -6.778   4.074 -31.224  1.00  0.00     0.162 HD
HETATM   17  O   UNL     1      -7.072   4.562 -34.282  1.00  0.00    -0.268 OA
BRANCH  15  18
HETATM   18  C   UNL     1      -5.465   5.419 -32.205  1.00  0.00     0.124 C 
BRANCH  18  19
HETATM   19  C   UNL     1      -4.427   5.392 -31.083  1.00  0.00     0.047 C 
BRANCH  19  20
HETATM   20  C   UNL     1      -3.252   4.505 -31.485  1.00  0.00     0.236 C 
BRANCH  20  21
HETATM   21  N   UNL     1      -2.197   5.230 -32.310  1.00  0.00    -0.072 N 
HETATM   22  H   UNL     1      -2.574   6.179 -32.453  1.00  0.00     0.279 HD
BRANCH  21  23
HETATM   23  C   UNL     1      -1.983   4.677 -33.712  1.00  0.00     0.230 C 
HETATM   24  C   UNL     1      -2.724   5.497 -34.753  1.00  0.00     0.034 C 
ENDBRANCH  21  23
BRANCH  21  25
HETATM   25  C   UNL     1      -0.861   5.439 -31.615  1.00  0.00     0.230 C 
HETATM   26  C   UNL     1      -0.271   6.800 -31.939  1.00  0.00     0.034 C 
ENDBRANCH  21  25
ENDBRANCH  20  21
ENDBRANCH  19  20
ENDBRANCH  18  19
ENDBRANCH  15  18
ENDBRANCH   1  14
BRANCH   1  27
HETATM   27  O   UNL     1      -8.476   2.195 -34.357  1.00  0.00    -0.359 OA
HETATM   28  H   UNL     1      -9.192   1.553 -34.207  1.00  0.00     0.213 HD
ENDBRANCH   1  27
BRANCH   2  29
HETATM   29  C   UNL     1     -10.372   3.627 -32.888  1.00  0.00     0.076 A 
HETATM   30  C   UNL     1     -11.432   2.940 -33.505  1.00  0.00     0.098 A 
HETATM   31  C   UNL     1     -12.464   3.659 -34.132  1.00  0.00     0.075 A 
HETATM   32  C   UNL     1     -12.419   5.054 -34.188  1.00  0.00     0.070 A 
HETATM   33  C   UNL     1     -11.359   5.731 -33.587  1.00  0.00     0.039 A 
HETATM   34  C   UNL     1     -10.343   5.025 -32.942  1.00  0.00     0.035 A 
BRANCH  30  35
HETATM   35  O   UNL     1     -11.475   1.569 -33.377  1.00  0.00    -0.354 OA
HETATM   36  C   UNL     1     -12.548   0.980 -34.116  1.00  0.00     0.210 C 
ENDBRANCH  30  35
BRANCH  32  37
HETATM   37  O   UNL     1     -13.345   5.869 -34.776  1.00  0.00    -0.356 OA
HETATM   38  C   UNL     1     -12.861   7.017 -35.460  1.00  0.00     0.210 C 
ENDBRANCH  32  37
ENDBRANCH   2  29
TORSDOF 11
ENDMDL
MODEL 9
REMARK VINA RESULT:      -6.7      4.378      8.154
REMARK  11 active torsions:
REMARK  status: ('A' for Active; 'I' for Inactive)
REMARK    1  A    between atoms: C_2  and  N_3 
REMARK    2  A    between atoms: N_3  and  C_5 
REMARK    3  A    between atoms: N_3  and  C_34 
REMARK    4  A    between atoms: C_5  and  C_6 
REMARK    5  A    between atoms: C_6  and  C_7 
REMARK    6  A    between atoms: C_7  and  N_8 
REMARK       I    between atoms: N_8  and  C_9 
REMARK    7  A    between atoms: C_9  and  C_10 
REMARK    8  A    between atoms: C_10  and  O_11 
REMARK    9  A    between atoms: N_12  and  C_13 
REMARK   10  A    between atoms: C_14  and  O_15 
REMARK   11  A    between atoms: C_18  and  O_19 
ROOT
HETATM    1  C   UNL     1      -4.643   4.563 -31.226  1.00  0.00     0.256 C 
HETATM    2  N   UNL     1      -5.304   3.622 -32.137  1.00  0.00    -0.251 N 
HETATM    3  C   UNL     1      -6.014   4.079 -33.235  1.00  0.00     0.330 C 
HETATM    4  O   UNL     1      -6.334   3.402 -34.211  1.00  0.00    -0.246 OA
HETATM    5  N   UNL     1      -6.424   5.384 -33.204  1.00  0.00    -0.308 N 
HETATM    6  C   UNL     1      -6.254   6.244 -32.124  1.00  0.00     0.048 A 
HETATM    7  C   UNL     1      -5.412   5.862 -31.086  1.00  0.00     0.035 A 
HETATM    8  C   UNL     1      -6.928   7.466 -32.094  1.00  0.00     0.031 A 
HETATM    9  C   UNL     1      -6.764   8.318 -31.001  1.00  0.00     0.021 A 
HETATM   10  C   UNL     1      -5.921   7.947 -29.955  1.00  0.00     0.011 A 
HETATM   11 BR   UNL     1      -5.684   9.107 -28.483  1.00  0.00    -0.051 Br
HETATM   12  C   UNL     1      -5.241   6.731 -29.994  1.00  0.00     0.034 A 
HETATM   13  H   UNL     1      -7.048   5.639 -33.958  1.00  0.00     0.170 HD
ENDROOT
BRANCH   1  14
HETATM   14  C   UNL     1      -3.174   4.923 -31.734  1.00  0.00     0.279 C 
HETATM   15  N   UNL     1      -2.133   4.764 -30.827  1.00  0.00    -0.356 N 
HETATM   16  H   UNL     1      -2.391   4.969 -29.863  1.00  0.00     0.162 HD
HETATM   17  O   UNL     1      -2.954   5.224 -32.911  1.00  0.00    -0.268 OA
BRANCH  15  18
HETATM   18  C   UNL     1      -0.771   5.042 -31.228  1.00  0.00     0.124 C 
BRANCH  18  19
HETATM   19  C   UNL     1      -0.320   6.423 -30.754  1.00  0.00     0.047 C 
BRANCH  19  20
HETATM   20  C   UNL     1      -1.048   6.793 -29.465  1.00  0.00     0.236 C 
BRANCH  20  21
HETATM   21  N   UNL     1      -0.776   8.217 -29.001  1.00  0.00    -0.072 N 
HETATM   22  H   UNL     1      -0.118   8.604 -29.693  1.00  0.00     0.279 HD
BRANCH  21  23
HETATM   23  C   UNL     1      -0.054   8.333 -27.665  1.00  0.00     0.230 C 
HETATM   24  C   UNL     1       1.434   8.565 -27.855  1.00  0.00     0.034 C 
ENDBRANCH  21  23
BRANCH  21  25
HETATM   25  C   UNL     1      -1.975   9.151 -29.035  1.00  0.00     0.230 C 
HETATM   26  C   UNL     1      -2.296   9.595 -30.451  1.00  0.00     0.034 C 
ENDBRANCH  21  25
ENDBRANCH  20  21
ENDBRANCH  19  20
ENDBRANCH  18  19
ENDBRANCH  15  18
ENDBRANCH   1  14
BRANCH   1  27
HETATM   27  O   UNL     1      -4.575   4.003 -29.914  1.00  0.00    -0.359 OA
HETATM   28  H   UNL     1      -4.175   4.688 -29.350  1.00  0.00     0.213 HD
ENDBRANCH   1  27
BRANCH   2  29
HETATM   29  C   UNL     1      -4.973   2.239 -32.043  1.00  0.00     0.076 A 
HETATM   30  C   UNL     1      -5.822   1.293 -31.444  1.00  0.00     0.098 A 
HETATM   31  C   UNL     1      -5.424  -0.052 -31.355  1.00  0.00     0.075 A 
HETATM   32  C   UNL     1      -4.166  -0.446 -31.817  1.00  0.00     0.070 A 
HETATM   33  C   UNL     1      -3.320   0.498 -32.398  1.00  0.00     0.039 A 
HETATM   34  C   UNL     1      -3.718   1.830 -32.511  1.00  0.00     0.035 A 
BRANCH  30  35
HETATM   35  O   UNL     1      -7.078   1.705 -31.056  1.00  0.00    -0.354 OA
HETATM   36  C   UNL     1      -8.116   0.861 -31.559  1.00  0.00     0.210 C 
ENDBRANCH  30  35
BRANCH  32  37
HETATM   37  O   UNL     1      -3.652  -1.713 -31.778  1.00  0.00    -0.356 OA
HETATM   38  C   UNL     1      -3.842  -2.528 -32.926  1.00  0.00     0.210 C 
ENDBRANCH  32  37
ENDBRANCH   2  29
TORSDOF 11
ENDMDL
MODEL 10
REMARK VINA RESULT:      -6.7      2.517      3.532
REMARK  11 active torsions:
REMARK  status: ('A' for Active; 'I' for Inactive)
REMARK    1  A    between atoms: C_2  and  N_3 
REMARK    2  A    between atoms: N_3  and  C_5 
REMARK    3  A    between atoms: N_3  and  C_34 
REMARK    4  A    between atoms: C_5  and  C_6 
REMARK    5  A    between atoms: C_6  and  C_7 
REMARK    6  A    between atoms: C_7  and  N_8 
REMARK       I    between atoms: N_8  and  C_9 
REMARK    7  A    between atoms: C_9  and  C_10 
REMARK    8  A    between atoms: C_10  and  O_11 
REMARK    9  A    between atoms: N_12  and  C_13 
REMARK   10  A    between atoms: C_14  and  O_15 
REMARK   11  A    between atoms: C_18  and  O_19 
ROOT
HETATM    1  C   UNL     1      -4.320   3.562 -31.944  1.00  0.00     0.256 C 
HETATM    2  N   UNL     1      -4.737   2.418 -31.126  1.00  0.00    -0.251 N 
HETATM    3  C   UNL     1      -5.575   2.593 -30.038  1.00  0.00     0.330 C 
HETATM    4  O   UNL     1      -6.223   1.706 -29.485  1.00  0.00    -0.246 OA
HETATM    5  N   UNL     1      -5.649   3.855 -29.515  1.00  0.00    -0.308 N 
HETATM    6  C   UNL     1      -4.888   4.938 -29.941  1.00  0.00     0.048 A 
HETATM    7  C   UNL     1      -4.166   4.827 -31.124  1.00  0.00     0.035 A 
HETATM    8  C   UNL     1      -4.853   6.108 -29.181  1.00  0.00     0.031 A 
HETATM    9  C   UNL     1      -4.076   7.186 -29.607  1.00  0.00     0.021 A 
HETATM   10  C   UNL     1      -3.349   7.088 -30.793  1.00  0.00     0.011 A 
HETATM   11 BR   UNL     1      -2.310   8.552 -31.380  1.00  0.00    -0.051 Br
HETATM   12  C   UNL     1      -3.395   5.922 -31.554  1.00  0.00     0.034 A 
HETATM   13  H   UNL     1      -6.165   3.913 -28.646  1.00  0.00     0.170 HD
ENDROOT
BRANCH   1  14
HETATM   14  C   UNL     1      -5.378   3.861 -33.101  1.00  0.00     0.279 C 
HETATM   15  N   UNL     1      -6.706   4.017 -32.721  1.00  0.00    -0.356 N 
HETATM   16  H   UNL     1      -6.980   3.432 -31.933  1.00  0.00     0.162 HD
HETATM   17  O   UNL     1      -5.021   4.055 -34.267  1.00  0.00    -0.268 OA
BRANCH  15  18
HETATM   18  C   UNL     1      -7.714   4.320 -33.713  1.00  0.00     0.124 C 
BRANCH  18  19
HETATM   19  C   UNL     1      -9.094   3.832 -33.273  1.00  0.00     0.047 C 
BRANCH  19  20
HETATM   20  C   UNL     1      -9.675   2.895 -34.328  1.00  0.00     0.236 C 
BRANCH  20  21
HETATM   21  N   UNL     1     -11.178   3.047 -34.515  1.00  0.00    -0.072 N 
HETATM   22  H   UNL     1     -11.360   2.744 -35.483  1.00  0.00     0.279 HD
BRANCH  21  23
HETATM   23  C   UNL     1     -11.693   4.478 -34.449  1.00  0.00     0.230 C 
HETATM   24  C   UNL     1     -12.689   4.764 -35.559  1.00  0.00     0.034 C 
ENDBRANCH  21  23
BRANCH  21  25
HETATM   25  C   UNL     1     -12.035   2.137 -33.651  1.00  0.00     0.230 C 
HETATM   26  C   UNL     1     -11.423   0.754 -33.519  1.00  0.00     0.034 C 
ENDBRANCH  21  25
ENDBRANCH  20  21
ENDBRANCH  19  20
ENDBRANCH  18  19
ENDBRANCH  15  18
ENDBRANCH   1  14
BRANCH   1  27
HETATM   27  O   UNL     1      -3.037   3.308 -32.519  1.00  0.00    -0.359 OA
HETATM   28  H   UNL     1      -3.007   3.820 -33.346  1.00  0.00     0.213 HD
ENDBRANCH   1  27
BRANCH   2  29
HETATM   29  C   UNL     1      -4.503   1.104 -31.627  1.00  0.00     0.076 A 
HETATM   30  C   UNL     1      -5.448   0.404 -32.397  1.00  0.00     0.098 A 
HETATM   31  C   UNL     1      -5.169  -0.902 -32.834  1.00  0.00     0.075 A 
HETATM   32  C   UNL     1      -3.974  -1.527 -32.470  1.00  0.00     0.070 A 
HETATM   33  C   UNL     1      -3.045  -0.835 -31.695  1.00  0.00     0.039 A 
HETATM   34  C   UNL     1      -3.305   0.470 -31.276  1.00  0.00     0.035 A 
BRANCH  30  35
HETATM   35  O   UNL     1      -6.587   1.073 -32.788  1.00  0.00    -0.354 OA
HETATM   36  C   UNL     1      -7.785   0.421 -32.361  1.00  0.00     0.210 C 
ENDBRANCH  30  35
BRANCH  32  37
HETATM   37  O   UNL     1      -3.587  -2.792 -32.815  1.00  0.00    -0.356 OA
HETATM   38  C   UNL     1      -2.931  -3.566 -31.820  1.00  0.00     0.210 C 
ENDBRANCH  32  37
ENDBRANCH   2  29
TORSDOF 11
ENDMDL
