MODEL 1
REMARK VINA RESULT:      -8.5      0.000      0.000
REMARK  2 active torsions:
REMARK  status: ('A' for Active; 'I' for Inactive)
REMARK    1  A    between atoms: C_8  and  N_9 
REMARK       I    between atoms: N_9  and  C_10 
REMARK       I    between atoms: C_10  and  N_11 
REMARK    2  A    between atoms: N_11  and  C_12 
ROOT
HETATM    1  C   UNL     1      -6.376  -4.379 -34.875  1.00  0.00     0.044 A 
HETATM    2  C   UNL     1      -5.053  -4.437 -34.460  1.00  0.00     0.117 A 
HETATM    3  F   UNL     1      -4.429  -5.619 -34.410  1.00  0.00    -0.206 F 
HETATM    4  C   UNL     1      -4.376  -3.289 -34.069  1.00  0.00     0.067 A 
HETATM    5  C   UNL     1      -5.023  -2.045 -34.108  1.00  0.00     0.074 A 
HETATM    6  C   UNL     1      -4.324  -0.925 -33.539  1.00  0.00     0.102 C 
HETATM    7  N   UNL     1      -3.776  -0.029 -33.041  1.00  0.00    -0.191 NA
HETATM    8  C   UNL     1      -6.354  -1.964 -34.575  1.00  0.00     0.057 A 
HETATM    9  C   UNL     1      -7.029  -3.146 -34.924  1.00  0.00     0.034 A 
ENDROOT
BRANCH   8  10
HETATM   10  N   UNL     1      -7.107  -0.765 -34.674  1.00  0.00    -0.308 N 
HETATM   11  C   UNL     1      -7.771  -0.178 -33.625  1.00  0.00     0.321 C 
HETATM   12  N   UNL     1      -8.647   0.791 -34.057  1.00  0.00    -0.336 N 
HETATM   13  O   UNL     1      -7.626  -0.447 -32.442  1.00  0.00    -0.247 OA
HETATM   14  H   UNL     1      -8.923   0.687 -35.026  1.00  0.00     0.164 HD
HETATM   15  H   UNL     1      -6.830  -0.119 -35.403  1.00  0.00     0.170 HD
BRANCH  12  16
HETATM   16  C   UNL     1      -9.634   1.377 -33.163  1.00  0.00     0.118 C 
HETATM   17  C   UNL     1     -11.083   1.479 -33.666  1.00  0.00     0.210 C 
HETATM   18  N   UNL     1     -11.682   2.452 -32.667  1.00  0.00    -0.065 N 
HETATM   19  C   UNL     1     -11.910   0.203 -33.639  1.00  0.00     0.035 C 
HETATM   20  H   UNL     1     -11.744   1.993 -31.748  1.00  0.00     0.280 HD
HETATM   21  C   UNL     1     -13.064   2.877 -33.051  1.00  0.00     0.235 C 
HETATM   22  C   UNL     1     -10.646   3.539 -32.560  1.00  0.00     0.237 C 
HETATM   23  C   UNL     1     -13.947   1.629 -33.083  1.00  0.00     0.028 C 
HETATM   24  C   UNL     1     -13.372   0.521 -33.973  1.00  0.00     0.004 C 
HETATM   25  C   UNL     1      -9.308   2.823 -32.752  1.00  0.00     0.055 C 
ENDBRANCH  12  16
ENDBRANCH   8  10
TORSDOF 2
ENDMDL
MODEL 2
REMARK VINA RESULT:      -8.4      3.039      7.480
REMARK  2 active torsions:
REMARK  status: ('A' for Active; 'I' for Inactive)
REMARK    1  A    between atoms: C_8  and  N_9 
REMARK       I    between atoms: N_9  and  C_10 
REMARK       I    between atoms: C_10  and  N_11 
REMARK    2  A    between atoms: N_11  and  C_12 
ROOT
HETATM    1  C   UNL     1     -13.156  -0.397 -33.695  1.00  0.00     0.044 A 
HETATM    2  C   UNL     1     -13.815   0.635 -34.349  1.00  0.00     0.117 A 
HETATM    3  F   UNL     1     -15.091   0.473 -34.717  1.00  0.00    -0.206 F 
HETATM    4  C   UNL     1     -13.161   1.822 -34.650  1.00  0.00     0.067 A 
HETATM    5  C   UNL     1     -11.820   1.999 -34.278  1.00  0.00     0.074 A 
HETATM    6  C   UNL     1     -11.156   3.179 -34.760  1.00  0.00     0.102 C 
HETATM    7  N   UNL     1     -10.608   4.112 -35.186  1.00  0.00    -0.191 NA
HETATM    8  C   UNL     1     -11.151   0.976 -33.568  1.00  0.00     0.057 A 
HETATM    9  C   UNL     1     -11.823  -0.231 -33.313  1.00  0.00     0.034 A 
ENDROOT
BRANCH   8  10
HETATM   10  N   UNL     1      -9.805   1.044 -33.125  1.00  0.00    -0.308 N 
HETATM   11  C   UNL     1      -8.717   0.731 -33.903  1.00  0.00     0.321 C 
HETATM   12  N   UNL     1      -7.573   0.599 -33.148  1.00  0.00    -0.336 N 
HETATM   13  O   UNL     1      -8.718   0.585 -35.117  1.00  0.00    -0.247 OA
HETATM   14  H   UNL     1      -7.753   0.406 -32.170  1.00  0.00     0.164 HD
HETATM   15  H   UNL     1      -9.607   1.705 -32.384  1.00  0.00     0.170 HD
BRANCH  12  16
HETATM   16  C   UNL     1      -6.354   0.035 -33.706  1.00  0.00     0.118 C 
HETATM   17  C   UNL     1      -6.186  -1.492 -33.657  1.00  0.00     0.210 C 
HETATM   18  N   UNL     1      -4.705  -1.643 -33.949  1.00  0.00    -0.065 N 
HETATM   19  C   UNL     1      -6.957  -2.301 -34.688  1.00  0.00     0.035 C 
HETATM   20  H   UNL     1      -4.528  -1.380 -34.929  1.00  0.00     0.280 HD
HETATM   21  C   UNL     1      -4.233  -3.051 -33.770  1.00  0.00     0.235 C 
HETATM   22  C   UNL     1      -4.059  -0.598 -33.078  1.00  0.00     0.237 C 
HETATM   23  C   UNL     1      -5.001  -3.932 -34.755  1.00  0.00     0.028 C 
HETATM   24  C   UNL     1      -6.521  -3.769 -34.634  1.00  0.00     0.004 C 
HETATM   25  C   UNL     1      -5.073   0.546 -33.025  1.00  0.00     0.055 C 
ENDBRANCH  12  16
ENDBRANCH   8  10
TORSDOF 2
ENDMDL
MODEL 3
REMARK VINA RESULT:      -7.9      2.491      3.771
REMARK  2 active torsions:
REMARK  status: ('A' for Active; 'I' for Inactive)
REMARK    1  A    between atoms: C_8  and  N_9 
REMARK       I    between atoms: N_9  and  C_10 
REMARK       I    between atoms: C_10  and  N_11 
REMARK    2  A    between atoms: N_11  and  C_12 
ROOT
HETATM    1  C   UNL     1      -4.239  -3.702 -33.972  1.00  0.00     0.044 A 
HETATM    2  C   UNL     1      -5.346  -4.022 -34.745  1.00  0.00     0.117 A 
HETATM    3  F   UNL     1      -5.442  -5.244 -35.282  1.00  0.00    -0.206 F 
HETATM    4  C   UNL     1      -6.339  -3.085 -34.993  1.00  0.00     0.067 A 
HETATM    5  C   UNL     1      -6.243  -1.798 -34.444  1.00  0.00     0.074 A 
HETATM    6  C   UNL     1      -7.216  -0.829 -34.869  1.00  0.00     0.102 C 
HETATM    7  N   UNL     1      -7.978  -0.035 -35.246  1.00  0.00    -0.191 NA
HETATM    8  C   UNL     1      -5.147  -1.473 -33.613  1.00  0.00     0.057 A 
HETATM    9  C   UNL     1      -4.135  -2.426 -33.413  1.00  0.00     0.034 A 
ENDROOT
BRANCH   8  10
HETATM   10  N   UNL     1      -4.948  -0.214 -32.989  1.00  0.00    -0.308 N 
HETATM   11  C   UNL     1      -5.585   0.193 -31.843  1.00  0.00     0.321 C 
HETATM   12  N   UNL     1      -5.434   1.544 -31.629  1.00  0.00    -0.336 N 
HETATM   13  O   UNL     1      -6.212  -0.524 -31.076  1.00  0.00    -0.247 OA
HETATM   14  H   UNL     1      -5.206   2.065 -32.467  1.00  0.00     0.164 HD
HETATM   15  H   UNL     1      -4.049   0.227 -33.142  1.00  0.00     0.170 HD
BRANCH  12  16
HETATM   16  C   UNL     1      -6.215   2.247 -30.623  1.00  0.00     0.118 C 
HETATM   17  C   UNL     1      -7.494   2.964 -31.084  1.00  0.00     0.210 C 
HETATM   18  N   UNL     1      -7.785   3.858 -29.893  1.00  0.00    -0.065 N 
HETATM   19  C   UNL     1      -8.716   2.096 -31.335  1.00  0.00     0.035 C 
HETATM   20  H   UNL     1      -8.073   3.272 -29.097  1.00  0.00     0.280 HD
HETATM   21  C   UNL     1      -8.897   4.822 -30.168  1.00  0.00     0.235 C 
HETATM   22  C   UNL     1      -6.444   4.453 -29.554  1.00  0.00     0.237 C 
HETATM   23  C   UNL     1     -10.156   4.011 -30.469  1.00  0.00     0.028 C 
HETATM   24  C   UNL     1      -9.944   2.980 -31.584  1.00  0.00     0.004 C 
HETATM   25  C   UNL     1      -5.433   3.360 -29.905  1.00  0.00     0.055 C 
ENDBRANCH  12  16
ENDBRANCH   8  10
TORSDOF 2
ENDMDL
MODEL 4
REMARK VINA RESULT:      -7.9      4.316      6.617
REMARK  2 active torsions:
REMARK  status: ('A' for Active; 'I' for Inactive)
REMARK    1  A    between atoms: C_8  and  N_9 
REMARK       I    between atoms: N_9  and  C_10 
REMARK       I    between atoms: C_10  and  N_11 
REMARK    2  A    between atoms: N_11  and  C_12 
ROOT
HETATM    1  C   UNL     1      -4.697  -2.403 -34.418  1.00  0.00     0.044 A 
HETATM    2  C   UNL     1      -5.939  -2.956 -34.694  1.00  0.00     0.117 A 
HETATM    3  F   UNL     1      -6.011  -4.117 -35.355  1.00  0.00    -0.206 F 
HETATM    4  C   UNL     1      -7.109  -2.310 -34.318  1.00  0.00     0.067 A 
HETATM    5  C   UNL     1      -7.047  -1.087 -33.633  1.00  0.00     0.074 A 
HETATM    6  C   UNL     1      -8.286  -0.393 -33.418  1.00  0.00     0.102 C 
HETATM    7  N   UNL     1      -9.284   0.189 -33.282  1.00  0.00    -0.191 NA
HETATM    8  C   UNL     1      -5.788  -0.535 -33.302  1.00  0.00     0.057 A 
HETATM    9  C   UNL     1      -4.621  -1.189 -33.731  1.00  0.00     0.034 A 
ENDROOT
BRANCH   8  10
HETATM   10  N   UNL     1      -5.597   0.683 -32.601  1.00  0.00    -0.308 N 
HETATM   11  C   UNL     1      -5.693   1.928 -33.171  1.00  0.00     0.321 C 
HETATM   12  N   UNL     1      -5.176   2.905 -32.349  1.00  0.00    -0.336 N 
HETATM   13  O   UNL     1      -6.176   2.183 -34.265  1.00  0.00    -0.247 OA
HETATM   14  H   UNL     1      -4.523   2.552 -31.661  1.00  0.00     0.164 HD
HETATM   15  H   UNL     1      -5.792   0.666 -31.607  1.00  0.00     0.170 HD
BRANCH  12  16
HETATM   16  C   UNL     1      -4.943   4.258 -32.830  1.00  0.00     0.118 C 
HETATM   17  C   UNL     1      -3.575   4.895 -32.535  1.00  0.00     0.210 C 
HETATM   18  N   UNL     1      -3.855   6.358 -32.825  1.00  0.00    -0.065 N 
HETATM   19  C   UNL     1      -2.410   4.453 -33.405  1.00  0.00     0.035 C 
HETATM   20  H   UNL     1      -3.998   6.477 -33.838  1.00  0.00     0.280 HD
HETATM   21  C   UNL     1      -2.715   7.241 -32.426  1.00  0.00     0.235 C 
HETATM   22  C   UNL     1      -5.176   6.612 -32.149  1.00  0.00     0.237 C 
HETATM   23  C   UNL     1      -1.490   6.823 -33.240  1.00  0.00     0.028 C 
HETATM   24  C   UNL     1      -1.183   5.326 -33.119  1.00  0.00     0.004 C 
HETATM   25  C   UNL     1      -5.935   5.290 -32.265  1.00  0.00     0.055 C 
ENDBRANCH  12  16
ENDBRANCH   8  10
TORSDOF 2
ENDMDL
MODEL 5
REMARK VINA RESULT:      -7.9      4.332      6.422
REMARK  2 active torsions:
REMARK  status: ('A' for Active; 'I' for Inactive)
REMARK    1  A    between atoms: C_8  and  N_9 
REMARK       I    between atoms: N_9  and  C_10 
REMARK       I    between atoms: C_10  and  N_11 
REMARK    2  A    between atoms: N_11  and  C_12 
ROOT
HETATM    1  C   UNL     1      -6.924  -1.975 -34.442  1.00  0.00     0.044 A 
HETATM    2  C   UNL     1      -5.751  -2.656 -34.737  1.00  0.00     0.117 A 
HETATM    3  F   UNL     1      -5.776  -3.655 -35.626  1.00  0.00    -0.206 F 
HETATM    4  C   UNL     1      -4.559  -2.333 -34.103  1.00  0.00     0.067 A 
HETATM    5  C   UNL     1      -4.523  -1.294 -33.162  1.00  0.00     0.074 A 
HETATM    6  C   UNL     1      -3.301  -1.118 -32.426  1.00  0.00     0.102 C 
HETATM    7  N   UNL     1      -2.327  -1.004 -31.801  1.00  0.00    -0.191 NA
HETATM    8  C   UNL     1      -5.699  -0.558 -32.888  1.00  0.00     0.057 A 
HETATM    9  C   UNL     1      -6.900  -0.934 -33.512  1.00  0.00     0.034 A 
ENDROOT
BRANCH   8  10
HETATM   10  N   UNL     1      -5.784   0.520 -31.971  1.00  0.00    -0.308 N 
HETATM   11  C   UNL     1      -5.713   1.845 -32.324  1.00  0.00     0.321 C 
HETATM   12  N   UNL     1      -5.527   2.655 -31.227  1.00  0.00    -0.336 N 
HETATM   13  O   UNL     1      -5.805   2.293 -33.458  1.00  0.00    -0.247 OA
HETATM   14  H   UNL     1      -5.135   2.173 -30.428  1.00  0.00     0.164 HD
HETATM   15  H   UNL     1      -6.302   0.347 -31.118  1.00  0.00     0.170 HD
BRANCH  12  16
HETATM   16  C   UNL     1      -5.179   4.061 -31.369  1.00  0.00     0.118 C 
HETATM   17  C   UNL     1      -3.687   4.432 -31.349  1.00  0.00     0.210 C 
HETATM   18  N   UNL     1      -3.752   5.932 -31.130  1.00  0.00    -0.065 N 
HETATM   19  C   UNL     1      -2.898   4.173 -32.623  1.00  0.00     0.035 C 
HETATM   20  H   UNL     1      -4.133   6.378 -31.976  1.00  0.00     0.280 HD
HETATM   21  C   UNL     1      -2.401   6.525 -30.878  1.00  0.00     0.235 C 
HETATM   22  C   UNL     1      -4.774   6.091 -30.036  1.00  0.00     0.237 C 
HETATM   23  C   UNL     1      -1.537   6.265 -32.111  1.00  0.00     0.028 C 
HETATM   24  C   UNL     1      -1.497   4.783 -32.503  1.00  0.00     0.004 C 
HETATM   25  C   UNL     1      -5.772   4.955 -30.268  1.00  0.00     0.055 C 
ENDBRANCH  12  16
ENDBRANCH   8  10
TORSDOF 2
ENDMDL
MODEL 6
REMARK VINA RESULT:      -7.5      3.319      7.684
REMARK  2 active torsions:
REMARK  status: ('A' for Active; 'I' for Inactive)
REMARK    1  A    between atoms: C_8  and  N_9 
REMARK       I    between atoms: N_9  and  C_10 
REMARK       I    between atoms: C_10  and  N_11 
REMARK    2  A    between atoms: N_11  and  C_12 
ROOT
HETATM    1  C   UNL     1     -14.363   0.616 -33.487  1.00  0.00     0.044 A 
HETATM    2  C   UNL     1     -14.720   1.720 -32.725  1.00  0.00     0.117 A 
HETATM    3  F   UNL     1     -15.907   1.739 -32.109  1.00  0.00    -0.206 F 
HETATM    4  C   UNL     1     -13.875   2.817 -32.618  1.00  0.00     0.067 A 
HETATM    5  C   UNL     1     -12.633   2.813 -33.268  1.00  0.00     0.074 A 
HETATM    6  C   UNL     1     -11.880   4.037 -33.251  1.00  0.00     0.102 C 
HETATM    7  N   UNL     1     -11.291   5.039 -33.273  1.00  0.00    -0.191 NA
HETATM    8  C   UNL     1     -12.234   1.675 -34.007  1.00  0.00     0.057 A 
HETATM    9  C   UNL     1     -13.126   0.597 -34.134  1.00  0.00     0.034 A 
ENDROOT
BRANCH   8  10
HETATM   10  N   UNL     1     -11.000   1.546 -34.694  1.00  0.00    -0.308 N 
HETATM   11  C   UNL     1      -9.825   1.143 -34.108  1.00  0.00     0.321 C 
HETATM   12  N   UNL     1      -8.741   1.389 -34.920  1.00  0.00    -0.336 N 
HETATM   13  O   UNL     1      -9.712   0.620 -33.008  1.00  0.00    -0.247 OA
HETATM   14  H   UNL     1      -8.910   2.105 -35.616  1.00  0.00     0.164 HD
HETATM   15  H   UNL     1     -11.055   1.353 -35.686  1.00  0.00     0.170 HD
BRANCH  12  16
HETATM   16  C   UNL     1      -7.378   1.277 -34.423  1.00  0.00     0.118 C 
HETATM   17  C   UNL     1      -6.903  -0.107 -33.951  1.00  0.00     0.210 C 
HETATM   18  N   UNL     1      -5.647   0.253 -33.179  1.00  0.00    -0.065 N 
HETATM   19  C   UNL     1      -6.525  -1.108 -35.030  1.00  0.00     0.035 C 
HETATM   20  H   UNL     1      -4.928   0.578 -33.841  1.00  0.00     0.280 HD
HETATM   21  C   UNL     1      -5.082  -0.919 -32.440  1.00  0.00     0.235 C 
HETATM   22  C   UNL     1      -6.064   1.438 -32.348  1.00  0.00     0.237 C 
HETATM   23  C   UNL     1      -4.714  -1.988 -33.469  1.00  0.00     0.028 C 
HETATM   24  C   UNL     1      -5.883  -2.346 -34.394  1.00  0.00     0.004 C 
HETATM   25  C   UNL     1      -7.091   2.175 -33.208  1.00  0.00     0.055 C 
ENDBRANCH  12  16
ENDBRANCH   8  10
TORSDOF 2
ENDMDL
MODEL 7
REMARK VINA RESULT:      -7.5      6.290      8.745
REMARK  2 active torsions:
REMARK  status: ('A' for Active; 'I' for Inactive)
REMARK    1  A    between atoms: C_8  and  N_9 
REMARK       I    between atoms: N_9  and  C_10 
REMARK       I    between atoms: C_10  and  N_11 
REMARK    2  A    between atoms: N_11  and  C_12 
ROOT
HETATM    1  C   UNL     1      -3.551   7.846 -31.578  1.00  0.00     0.044 A 
HETATM    2  C   UNL     1      -2.287   8.330 -31.270  1.00  0.00     0.117 A 
HETATM    3  F   UNL     1      -2.039   9.640 -31.385  1.00  0.00    -0.206 F 
HETATM    4  C   UNL     1      -1.270   7.473 -30.872  1.00  0.00     0.067 A 
HETATM    5  C   UNL     1      -1.516   6.097 -30.758  1.00  0.00     0.074 A 
HETATM    6  C   UNL     1      -0.386   5.248 -30.501  1.00  0.00     0.102 C 
HETATM    7  N   UNL     1       0.535   4.558 -30.336  1.00  0.00    -0.191 NA
HETATM    8  C   UNL     1      -2.812   5.595 -31.020  1.00  0.00     0.057 A 
HETATM    9  C   UNL     1      -3.810   6.478 -31.462  1.00  0.00     0.034 A 
ENDROOT
BRANCH   8  10
HETATM   10  N   UNL     1      -3.186   4.230 -30.925  1.00  0.00    -0.308 N 
HETATM   11  C   UNL     1      -3.107   3.330 -31.960  1.00  0.00     0.321 C 
HETATM   12  N   UNL     1      -3.801   2.174 -31.683  1.00  0.00    -0.336 N 
HETATM   13  O   UNL     1      -2.501   3.493 -33.009  1.00  0.00    -0.247 OA
HETATM   14  H   UNL     1      -4.513   2.289 -30.973  1.00  0.00     0.164 HD
HETATM   15  H   UNL     1      -3.126   3.810 -30.006  1.00  0.00     0.170 HD
BRANCH  12  16
HETATM   16  C   UNL     1      -4.067   1.182 -32.713  1.00  0.00     0.118 C 
HETATM   17  C   UNL     1      -5.535   0.886 -33.057  1.00  0.00     0.210 C 
HETATM   18  N   UNL     1      -5.408  -0.410 -33.835  1.00  0.00    -0.065 N 
HETATM   19  C   UNL     1      -6.252   1.898 -33.937  1.00  0.00     0.035 C 
HETATM   20  H   UNL     1      -4.950  -0.216 -34.737  1.00  0.00     0.280 HD
HETATM   21  C   UNL     1      -6.739  -1.026 -34.131  1.00  0.00     0.235 C 
HETATM   22  C   UNL     1      -4.452  -1.231 -33.011  1.00  0.00     0.237 C 
HETATM   23  C   UNL     1      -7.534  -0.038 -34.985  1.00  0.00     0.028 C 
HETATM   24  C   UNL     1      -7.624   1.354 -34.349  1.00  0.00     0.004 C 
HETATM   25  C   UNL     1      -3.501  -0.210 -32.386  1.00  0.00     0.055 C 
ENDBRANCH  12  16
ENDBRANCH   8  10
TORSDOF 2
ENDMDL
MODEL 8
REMARK VINA RESULT:      -7.4      7.293      9.523
REMARK  2 active torsions:
REMARK  status: ('A' for Active; 'I' for Inactive)
REMARK    1  A    between atoms: C_8  and  N_9 
REMARK       I    between atoms: N_9  and  C_10 
REMARK       I    between atoms: C_10  and  N_11 
REMARK    2  A    between atoms: N_11  and  C_12 
ROOT
HETATM    1  C   UNL     1       0.715   5.724 -28.751  1.00  0.00     0.044 A 
HETATM    2  C   UNL     1       0.812   7.107 -28.814  1.00  0.00     0.117 A 
HETATM    3  F   UNL     1       1.507   7.761 -27.877  1.00  0.00    -0.206 F 
HETATM    4  C   UNL     1       0.175   7.822 -29.819  1.00  0.00     0.067 A 
HETATM    5  C   UNL     1      -0.565   7.147 -30.801  1.00  0.00     0.074 A 
HETATM    6  C   UNL     1      -1.330   7.952 -31.714  1.00  0.00     0.102 C 
HETATM    7  N   UNL     1      -1.982   8.601 -32.424  1.00  0.00    -0.191 NA
HETATM    8  C   UNL     1      -0.631   5.735 -30.778  1.00  0.00     0.057 A 
HETATM    9  C   UNL     1      -0.013   5.039 -29.726  1.00  0.00     0.034 A 
ENDROOT
BRANCH   8  10
HETATM   10  N   UNL     1      -1.333   4.942 -31.722  1.00  0.00    -0.308 N 
HETATM   11  C   UNL     1      -2.679   4.676 -31.663  1.00  0.00     0.321 C 
HETATM   12  N   UNL     1      -3.034   3.657 -32.517  1.00  0.00    -0.336 N 
HETATM   13  O   UNL     1      -3.495   5.253 -30.959  1.00  0.00    -0.247 OA
HETATM   14  H   UNL     1      -2.262   3.054 -32.774  1.00  0.00     0.164 HD
HETATM   15  H   UNL     1      -0.944   4.904 -32.656  1.00  0.00     0.170 HD
BRANCH  12  16
HETATM   16  C   UNL     1      -4.348   3.036 -32.454  1.00  0.00     0.118 C 
HETATM   17  C   UNL     1      -4.439   1.528 -32.742  1.00  0.00     0.210 C 
HETATM   18  N   UNL     1      -5.930   1.352 -32.963  1.00  0.00    -0.065 N 
HETATM   19  C   UNL     1      -4.012   0.589 -31.626  1.00  0.00     0.035 C 
HETATM   20  H   UNL     1      -6.420   1.489 -32.068  1.00  0.00     0.280 HD
HETATM   21  C   UNL     1      -6.271  -0.019 -33.456  1.00  0.00     0.235 C 
HETATM   22  C   UNL     1      -6.298   2.504 -33.860  1.00  0.00     0.237 C 
HETATM   23  C   UNL     1      -5.829  -1.023 -32.393  1.00  0.00     0.028 C 
HETATM   24  C   UNL     1      -4.357  -0.857 -31.998  1.00  0.00     0.004 C 
HETATM   25  C   UNL     1      -5.361   3.638 -33.443  1.00  0.00     0.055 C 
ENDBRANCH  12  16
ENDBRANCH   8  10
TORSDOF 2
ENDMDL
MODEL 9
REMARK VINA RESULT:      -7.3      3.547      8.007
REMARK  2 active torsions:
REMARK  status: ('A' for Active; 'I' for Inactive)
REMARK    1  A    between atoms: C_8  and  N_9 
REMARK       I    between atoms: N_9  and  C_10 
REMARK       I    between atoms: C_10  and  N_11 
REMARK    2  A    between atoms: N_11  and  C_12 
ROOT
HETATM    1  C   UNL     1     -12.759   4.361 -33.394  1.00  0.00     0.044 A 
HETATM    2  C   UNL     1     -13.889   3.711 -32.919  1.00  0.00     0.117 A 
HETATM    3  F   UNL     1     -14.862   4.422 -32.338  1.00  0.00    -0.206 F 
HETATM    4  C   UNL     1     -14.013   2.331 -33.012  1.00  0.00     0.067 A 
HETATM    5  C   UNL     1     -12.994   1.574 -33.610  1.00  0.00     0.074 A 
HETATM    6  C   UNL     1     -13.108   0.143 -33.529  1.00  0.00     0.102 C 
HETATM    7  N   UNL     1     -13.178  -1.012 -33.426  1.00  0.00    -0.191 NA
HETATM    8  C   UNL     1     -11.860   2.227 -34.144  1.00  0.00     0.057 A 
HETATM    9  C   UNL     1     -11.742   3.619 -33.998  1.00  0.00     0.034 A 
ENDROOT
BRANCH   8  10
HETATM   10  N   UNL     1     -10.775   1.574 -34.783  1.00  0.00    -0.308 N 
HETATM   11  C   UNL     1      -9.557   1.337 -34.195  1.00  0.00     0.321 C 
HETATM   12  N   UNL     1      -8.609   0.963 -35.121  1.00  0.00    -0.336 N 
HETATM   13  O   UNL     1      -9.305   1.428 -33.002  1.00  0.00    -0.247 OA
HETATM   14  H   UNL     1      -8.831   1.248 -36.067  1.00  0.00     0.164 HD
HETATM   15  H   UNL     1     -11.014   0.920 -35.519  1.00  0.00     0.170 HD
BRANCH  12  16
HETATM   16  C   UNL     1      -7.197   0.898 -34.779  1.00  0.00     0.118 C 
HETATM   17  C   UNL     1      -6.679  -0.394 -34.125  1.00  0.00     0.210 C 
HETATM   18  N   UNL     1      -5.335   0.058 -33.586  1.00  0.00    -0.065 N 
HETATM   19  C   UNL     1      -6.447  -1.582 -35.044  1.00  0.00     0.035 C 
HETATM   20  H   UNL     1      -4.700   0.237 -34.377  1.00  0.00     0.280 HD
HETATM   21  C   UNL     1      -4.694  -0.981 -32.722  1.00  0.00     0.235 C 
HETATM   22  C   UNL     1      -5.635   1.384 -32.939  1.00  0.00     0.237 C 
HETATM   23  C   UNL     1      -4.466  -2.227 -33.577  1.00  0.00     0.028 C 
HETATM   24  C   UNL     1      -5.744  -2.707 -34.275  1.00  0.00     0.004 C 
HETATM   25  C   UNL     1      -6.754   1.989 -33.789  1.00  0.00     0.055 C 
ENDBRANCH  12  16
ENDBRANCH   8  10
TORSDOF 2
ENDMDL
MODEL 10
REMARK VINA RESULT:      -7.3      5.657      7.136
REMARK  2 active torsions:
REMARK  status: ('A' for Active; 'I' for Inactive)
REMARK    1  A    between atoms: C_8  and  N_9 
REMARK       I    between atoms: N_9  and  C_10 
REMARK       I    between atoms: C_10  and  N_11 
REMARK    2  A    between atoms: N_11  and  C_12 
ROOT
HETATM    1  C   UNL     1      -1.151   7.153 -33.324  1.00  0.00     0.044 A 
HETATM    2  C   UNL     1      -0.569   6.534 -32.226  1.00  0.00     0.117 A 
HETATM    3  F   UNL     1       0.547   7.048 -31.696  1.00  0.00    -0.206 F 
HETATM    4  C   UNL     1      -1.111   5.375 -31.688  1.00  0.00     0.067 A 
HETATM    5  C   UNL     1      -2.274   4.821 -32.242  1.00  0.00     0.074 A 
HETATM    6  C   UNL     1      -2.690   3.539 -31.745  1.00  0.00     0.102 C 
HETATM    7  N   UNL     1      -3.002   2.482 -31.373  1.00  0.00    -0.191 NA
HETATM    8  C   UNL     1      -2.907   5.468 -33.329  1.00  0.00     0.057 A 
HETATM    9  C   UNL     1      -2.313   6.615 -33.880  1.00  0.00     0.034 A 
ENDROOT
BRANCH   8  10
HETATM   10  N   UNL     1      -4.092   5.014 -33.962  1.00  0.00    -0.308 N 
HETATM   11  C   UNL     1      -5.335   5.021 -33.377  1.00  0.00     0.321 C 
HETATM   12  N   UNL     1      -6.237   4.264 -34.091  1.00  0.00    -0.336 N 
HETATM   13  O   UNL     1      -5.646   5.616 -32.355  1.00  0.00    -0.247 OA
HETATM   14  H   UNL     1      -5.803   3.573 -34.690  1.00  0.00     0.164 HD
HETATM   15  H   UNL     1      -4.111   5.066 -34.973  1.00  0.00     0.170 HD
BRANCH  12  16
HETATM   16  C   UNL     1      -7.541   3.920 -33.545  1.00  0.00     0.118 C 
HETATM   17  C   UNL     1      -8.075   2.504 -33.811  1.00  0.00     0.210 C 
HETATM   18  N   UNL     1      -9.540   2.661 -33.449  1.00  0.00    -0.065 N 
HETATM   19  C   UNL     1      -7.496   1.382 -32.964  1.00  0.00     0.035 C 
HETATM   20  H   UNL     1      -9.622   2.797 -32.432  1.00  0.00     0.280 HD
HETATM   21  C   UNL     1     -10.344   1.450 -33.806  1.00  0.00     0.235 C 
HETATM   22  C   UNL     1      -9.937   3.954 -34.111  1.00  0.00     0.237 C 
HETATM   23  C   UNL     1      -9.786   0.267 -33.016  1.00  0.00     0.028 C 
HETATM   24  C   UNL     1      -8.277   0.085 -33.210  1.00  0.00     0.004 C 
HETATM   25  C   UNL     1      -8.678   4.821 -34.057  1.00  0.00     0.055 C 
ENDBRANCH  12  16
ENDBRANCH   8  10
TORSDOF 2
ENDMDL
