MODEL 1
REMARK VINA RESULT:      -9.0      0.000      0.000
REMARK  5 active torsions:
REMARK  status: ('A' for Active; 'I' for Inactive)
REMARK    1  A    between atoms: C_7  and  C_8 
REMARK    2  A    between atoms: N_9  and  N_10 
REMARK       I    between atoms: N_10  and  C_11 
REMARK    3  A    between atoms: C_11  and  C_12 
REMARK    4  A    between atoms: C_12  and  N_13 
REMARK       I    between atoms: N_13  and  C_14 
REMARK    5  A    between atoms: C_14  and  C_15 
ROOT
HETATM    1  N   UNL     1      -8.110   1.457 -32.333  1.00  0.00    -0.246 N 
HETATM    2  C   UNL     1      -8.118   2.442 -31.357  1.00  0.00     0.255 C 
HETATM    3  O   UNL     1      -7.318   2.537 -30.427  1.00  0.00    -0.270 OA
HETATM    4  H   UNL     1      -8.820   1.484 -33.072  1.00  0.00     0.192 HD
ENDROOT
BRANCH   1   5
HETATM    5  N   UNL     1      -7.178   0.464 -32.301  1.00  0.00    -0.184 NA
HETATM    6  C   UNL     1      -6.566   0.234 -33.417  1.00  0.00     0.153 C 
BRANCH   6   7
HETATM    7  C   UNL     1      -5.567  -0.818 -33.497  1.00  0.00     0.018 A 
HETATM    8  C   UNL     1      -4.243  -0.746 -33.079  1.00  0.00     0.018 A 
HETATM    9  C   UNL     1      -3.470   0.363 -32.457  1.00  0.00     0.069 C 
HETATM   10  N   UNL     1      -3.658  -1.962 -33.329  1.00  0.00    -0.358 N 
HETATM   11  H   UNL     1      -2.698  -2.196 -33.121  1.00  0.00     0.166 HD
HETATM   12  C   UNL     1      -4.561  -2.828 -33.898  1.00  0.00     0.043 A 
HETATM   13  C   UNL     1      -5.768  -2.140 -34.019  1.00  0.00     0.004 A 
HETATM   14  C   UNL     1      -4.396  -4.157 -34.305  1.00  0.00     0.030 A 
HETATM   15  C   UNL     1      -6.870  -2.823 -34.578  1.00  0.00     0.014 A 
HETATM   16  C   UNL     1      -6.724  -4.154 -34.990  1.00  0.00     0.001 A 
HETATM   17  C   UNL     1      -5.503  -4.809 -34.853  1.00  0.00     0.002 A 
ENDBRANCH   6   7
ENDBRANCH   1   5
BRANCH   2  18
HETATM   18  C   UNL     1      -9.316   3.387 -31.477  1.00  0.00     0.227 C 
BRANCH  18  19
HETATM   19  N   UNL     1     -10.552   2.728 -31.867  1.00  0.00    -0.348 N 
HETATM   20  C   UNL     1     -10.921   2.562 -33.179  1.00  0.00     0.255 C 
HETATM   21  O   UNL     1     -10.302   3.102 -34.094  1.00  0.00    -0.268 OA
HETATM   22  H   UNL     1     -11.110   2.310 -31.129  1.00  0.00     0.163 HD
BRANCH  20  23
HETATM   23  C   UNL     1     -12.120   1.725 -33.463  1.00  0.00     0.070 A 
HETATM   24  C   UNL     1     -12.104   0.330 -33.400  1.00  0.00     0.132 A 
HETATM   25  F   UNL     1     -10.989  -0.337 -33.063  1.00  0.00    -0.205 F 
HETATM   26  C   UNL     1     -13.245  -0.417 -33.691  1.00  0.00     0.043 A 
HETATM   27  C   UNL     1     -14.426   0.230 -34.050  1.00  0.00     0.003 A 
HETATM   28  C   UNL     1     -14.460   1.622 -34.118  1.00  0.00     0.001 A 
HETATM   29  C   UNL     1     -13.313   2.367 -33.828  1.00  0.00     0.020 A 
ENDBRANCH  20  23
ENDBRANCH  18  19
ENDBRANCH   2  18
TORSDOF 5
ENDMDL
MODEL 2
REMARK VINA RESULT:      -8.9      4.290      7.302
REMARK  5 active torsions:
REMARK  status: ('A' for Active; 'I' for Inactive)
REMARK    1  A    between atoms: C_7  and  C_8 
REMARK    2  A    between atoms: N_9  and  N_10 
REMARK       I    between atoms: N_10  and  C_11 
REMARK    3  A    between atoms: C_11  and  C_12 
REMARK    4  A    between atoms: C_12  and  N_13 
REMARK       I    between atoms: N_13  and  C_14 
REMARK    5  A    between atoms: C_14  and  C_15 
ROOT
HETATM    1  N   UNL     1      -5.254   1.167 -30.851  1.00  0.00    -0.246 N 
HETATM    2  C   UNL     1      -5.883   2.403 -30.873  1.00  0.00     0.255 C 
HETATM    3  O   UNL     1      -6.904   2.677 -31.502  1.00  0.00    -0.270 OA
HETATM    4  H   UNL     1      -4.413   1.047 -30.278  1.00  0.00     0.192 HD
ENDROOT
BRANCH   1   5
HETATM    5  N   UNL     1      -5.745   0.132 -31.591  1.00  0.00    -0.184 NA
HETATM    6  C   UNL     1      -5.116  -0.114 -32.694  1.00  0.00     0.153 C 
BRANCH   6   7
HETATM    7  C   UNL     1      -5.569  -1.182 -33.568  1.00  0.00     0.018 A 
HETATM    8  C   UNL     1      -6.631  -1.136 -34.463  1.00  0.00     0.018 A 
HETATM    9  C   UNL     1      -7.589  -0.045 -34.791  1.00  0.00     0.069 C 
HETATM   10  N   UNL     1      -6.705  -2.354 -35.091  1.00  0.00    -0.358 N 
HETATM   11  H   UNL     1      -7.384  -2.601 -35.796  1.00  0.00     0.166 HD
HETATM   12  C   UNL     1      -5.720  -3.196 -34.633  1.00  0.00     0.043 A 
HETATM   13  C   UNL     1      -4.992  -2.492 -33.675  1.00  0.00     0.004 A 
HETATM   14  C   UNL     1      -5.425  -4.515 -34.999  1.00  0.00     0.030 A 
HETATM   15  C   UNL     1      -3.907  -3.147 -33.051  1.00  0.00     0.014 A 
HETATM   16  C   UNL     1      -3.597  -4.465 -33.405  1.00  0.00     0.001 A 
HETATM   17  C   UNL     1      -4.346  -5.137 -34.366  1.00  0.00     0.002 A 
ENDBRANCH   6   7
ENDBRANCH   1   5
BRANCH   2  18
HETATM   18  C   UNL     1      -5.114   3.473 -30.096  1.00  0.00     0.227 C 
BRANCH  18  19
HETATM   19  N   UNL     1      -4.238   4.289 -30.922  1.00  0.00    -0.348 N 
HETATM   20  C   UNL     1      -3.086   3.800 -31.487  1.00  0.00     0.255 C 
HETATM   21  O   UNL     1      -2.649   2.688 -31.197  1.00  0.00    -0.268 OA
HETATM   22  H   UNL     1      -4.549   5.229 -31.145  1.00  0.00     0.163 HD
BRANCH  20  23
HETATM   23  C   UNL     1      -2.359   4.675 -32.450  1.00  0.00     0.070 A 
HETATM   24  C   UNL     1      -1.645   5.809 -32.056  1.00  0.00     0.132 A 
HETATM   25  F   UNL     1      -1.568   6.166 -30.765  1.00  0.00    -0.205 F 
HETATM   26  C   UNL     1      -0.993   6.610 -32.993  1.00  0.00     0.043 A 
HETATM   27  C   UNL     1      -1.049   6.282 -34.346  1.00  0.00     0.003 A 
HETATM   28  C   UNL     1      -1.758   5.154 -34.757  1.00  0.00     0.001 A 
HETATM   29  C   UNL     1      -2.411   4.354 -33.816  1.00  0.00     0.020 A 
ENDBRANCH  20  23
ENDBRANCH  18  19
ENDBRANCH   2  18
TORSDOF 5
ENDMDL
MODEL 3
REMARK VINA RESULT:      -8.7      4.434      7.881
REMARK  5 active torsions:
REMARK  status: ('A' for Active; 'I' for Inactive)
REMARK    1  A    between atoms: C_7  and  C_8 
REMARK    2  A    between atoms: N_9  and  N_10 
REMARK       I    between atoms: N_10  and  C_11 
REMARK    3  A    between atoms: C_11  and  C_12 
REMARK    4  A    between atoms: C_12  and  N_13 
REMARK       I    between atoms: N_13  and  C_14 
REMARK    5  A    between atoms: C_14  and  C_15 
ROOT
HETATM    1  N   UNL     1      -5.555   2.531 -31.912  1.00  0.00    -0.246 N 
HETATM    2  C   UNL     1      -6.563   2.102 -32.762  1.00  0.00     0.255 C 
HETATM    3  O   UNL     1      -6.880   2.634 -33.824  1.00  0.00    -0.270 OA
HETATM    4  H   UNL     1      -5.367   2.001 -31.055  1.00  0.00     0.192 HD
ENDROOT
BRANCH   1   5
HETATM    5  N   UNL     1      -4.833   3.648 -32.211  1.00  0.00    -0.184 NA
HETATM    6  C   UNL     1      -3.615   3.441 -32.595  1.00  0.00     0.153 C 
BRANCH   6   7
HETATM    7  C   UNL     1      -2.752   4.564 -32.919  1.00  0.00     0.018 A 
HETATM    8  C   UNL     1      -2.790   5.342 -34.070  1.00  0.00     0.018 A 
HETATM    9  C   UNL     1      -3.669   5.275 -35.270  1.00  0.00     0.069 C 
HETATM   10  N   UNL     1      -1.811   6.297 -33.963  1.00  0.00    -0.358 N 
HETATM   11  H   UNL     1      -1.613   7.003 -34.657  1.00  0.00     0.166 HD
HETATM   12  C   UNL     1      -1.134   6.168 -32.774  1.00  0.00     0.043 A 
HETATM   13  C   UNL     1      -1.699   5.089 -32.097  1.00  0.00     0.004 A 
HETATM   14  C   UNL     1      -0.076   6.926 -32.256  1.00  0.00     0.030 A 
HETATM   15  C   UNL     1      -1.175   4.751 -30.829  1.00  0.00     0.014 A 
HETATM   16  C   UNL     1      -0.118   5.498 -30.295  1.00  0.00     0.001 A 
HETATM   17  C   UNL     1       0.421   6.570 -31.001  1.00  0.00     0.002 A 
ENDBRANCH   6   7
ENDBRANCH   1   5
BRANCH   2  18
HETATM   18  C   UNL     1      -7.352   0.919 -32.196  1.00  0.00     0.227 C 
BRANCH  18  19
HETATM   19  N   UNL     1      -6.818  -0.381 -32.568  1.00  0.00    -0.348 N 
HETATM   20  C   UNL     1      -7.007  -0.931 -33.812  1.00  0.00     0.255 C 
HETATM   21  O   UNL     1      -7.773  -0.425 -34.629  1.00  0.00    -0.268 OA
HETATM   22  H   UNL     1      -6.216  -0.847 -31.896  1.00  0.00     0.163 HD
BRANCH  20  23
HETATM   23  C   UNL     1      -6.272  -2.187 -34.135  1.00  0.00     0.070 A 
HETATM   24  C   UNL     1      -4.880  -2.288 -34.077  1.00  0.00     0.132 A 
HETATM   25  F   UNL     1      -4.123  -1.243 -33.709  1.00  0.00    -0.205 F 
HETATM   26  C   UNL     1      -4.231  -3.478 -34.405  1.00  0.00     0.043 A 
HETATM   27  C   UNL     1      -4.975  -4.589 -34.798  1.00  0.00     0.003 A 
HETATM   28  C   UNL     1      -6.365  -4.506 -34.861  1.00  0.00     0.001 A 
HETATM   29  C   UNL     1      -7.012  -3.311 -34.533  1.00  0.00     0.020 A 
ENDBRANCH  20  23
ENDBRANCH  18  19
ENDBRANCH   2  18
TORSDOF 5
ENDMDL
MODEL 4
REMARK VINA RESULT:      -8.7      4.244      7.748
REMARK  5 active torsions:
REMARK  status: ('A' for Active; 'I' for Inactive)
REMARK    1  A    between atoms: C_7  and  C_8 
REMARK    2  A    between atoms: N_9  and  N_10 
REMARK       I    between atoms: N_10  and  C_11 
REMARK    3  A    between atoms: C_11  and  C_12 
REMARK    4  A    between atoms: C_12  and  N_13 
REMARK       I    between atoms: N_13  and  C_14 
REMARK    5  A    between atoms: C_14  and  C_15 
ROOT
HETATM    1  N   UNL     1      -6.872   2.519 -33.425  1.00  0.00    -0.246 N 
HETATM    2  C   UNL     1      -7.567   1.667 -32.581  1.00  0.00     0.255 C 
HETATM    3  O   UNL     1      -7.472   1.636 -31.355  1.00  0.00    -0.270 OA
HETATM    4  H   UNL     1      -7.040   2.466 -34.435  1.00  0.00     0.192 HD
ENDROOT
BRANCH   1   5
HETATM    5  N   UNL     1      -5.970   3.406 -32.916  1.00  0.00    -0.184 NA
HETATM    6  C   UNL     1      -5.885   4.537 -33.539  1.00  0.00     0.153 C 
BRANCH   6   7
HETATM    7  C   UNL     1      -4.940   5.546 -33.091  1.00  0.00     0.018 A 
HETATM    8  C   UNL     1      -5.154   6.519 -32.122  1.00  0.00     0.018 A 
HETATM    9  C   UNL     1      -6.348   6.824 -31.286  1.00  0.00     0.069 C 
HETATM   10  N   UNL     1      -4.001   7.254 -32.003  1.00  0.00    -0.358 N 
HETATM   11  H   UNL     1      -3.872   8.027 -31.368  1.00  0.00     0.166 HD
HETATM   12  C   UNL     1      -3.038   6.788 -32.865  1.00  0.00     0.043 A 
HETATM   13  C   UNL     1      -3.597   5.718 -33.564  1.00  0.00     0.004 A 
HETATM   14  C   UNL     1      -1.726   7.232 -33.070  1.00  0.00     0.030 A 
HETATM   15  C   UNL     1      -2.794   5.057 -34.520  1.00  0.00     0.014 A 
HETATM   16  C   UNL     1      -1.479   5.487 -34.737  1.00  0.00     0.001 A 
HETATM   17  C   UNL     1      -0.955   6.559 -34.021  1.00  0.00     0.002 A 
ENDBRANCH   6   7
ENDBRANCH   1   5
BRANCH   2  18
HETATM   18  C   UNL     1      -8.426   0.652 -33.340  1.00  0.00     0.227 C 
BRANCH  18  19
HETATM   19  N   UNL     1      -7.796  -0.648 -33.509  1.00  0.00    -0.348 N 
HETATM   20  C   UNL     1      -6.892  -0.907 -34.511  1.00  0.00     0.255 C 
HETATM   21  O   UNL     1      -6.686  -0.101 -35.415  1.00  0.00    -0.268 OA
HETATM   22  H   UNL     1      -7.981  -1.351 -32.802  1.00  0.00     0.163 HD
BRANCH  20  23
HETATM   23  C   UNL     1      -6.184  -2.218 -34.484  1.00  0.00     0.070 A 
HETATM   24  C   UNL     1      -4.827  -2.342 -34.181  1.00  0.00     0.132 A 
HETATM   25  F   UNL     1      -4.082  -1.266 -33.882  1.00  0.00    -0.205 F 
HETATM   26  C   UNL     1      -4.199  -3.587 -34.185  1.00  0.00     0.043 A 
HETATM   27  C   UNL     1      -4.930  -4.733 -34.494  1.00  0.00     0.003 A 
HETATM   28  C   UNL     1      -6.286  -4.628 -34.800  1.00  0.00     0.001 A 
HETATM   29  C   UNL     1      -6.911  -3.377 -34.797  1.00  0.00     0.020 A 
ENDBRANCH  20  23
ENDBRANCH  18  19
ENDBRANCH   2  18
TORSDOF 5
ENDMDL
MODEL 5
REMARK VINA RESULT:      -8.6      4.329      7.470
REMARK  5 active torsions:
REMARK  status: ('A' for Active; 'I' for Inactive)
REMARK    1  A    between atoms: C_7  and  C_8 
REMARK    2  A    between atoms: N_9  and  N_10 
REMARK       I    between atoms: N_10  and  C_11 
REMARK    3  A    between atoms: C_11  and  C_12 
REMARK    4  A    between atoms: C_12  and  N_13 
REMARK       I    between atoms: N_13  and  C_14 
REMARK    5  A    between atoms: C_14  and  C_15 
ROOT
HETATM    1  N   UNL     1      -5.364   1.956 -31.040  1.00  0.00    -0.246 N 
HETATM    2  C   UNL     1      -6.377   2.750 -30.523  1.00  0.00     0.255 C 
HETATM    3  O   UNL     1      -7.579   2.493 -30.558  1.00  0.00    -0.270 OA
HETATM    4  H   UNL     1      -4.391   2.264 -30.942  1.00  0.00     0.192 HD
ENDROOT
BRANCH   1   5
HETATM    5  N   UNL     1      -5.663   0.790 -31.679  1.00  0.00    -0.184 NA
HETATM    6  C   UNL     1      -4.889   0.479 -32.668  1.00  0.00     0.153 C 
BRANCH   6   7
HETATM    7  C   UNL     1      -5.132  -0.734 -33.430  1.00  0.00     0.018 A 
HETATM    8  C   UNL     1      -6.015  -0.890 -34.492  1.00  0.00     0.018 A 
HETATM    9  C   UNL     1      -6.941   0.075 -35.147  1.00  0.00     0.069 C 
HETATM   10  N   UNL     1      -5.924  -2.189 -34.926  1.00  0.00    -0.358 N 
HETATM   11  H   UNL     1      -6.453  -2.581 -35.691  1.00  0.00     0.166 HD
HETATM   12  C   UNL     1      -5.006  -2.887 -34.179  1.00  0.00     0.043 A 
HETATM   13  C   UNL     1      -4.492  -2.003 -33.231  1.00  0.00     0.004 A 
HETATM   14  C   UNL     1      -4.596  -4.222 -34.279  1.00  0.00     0.030 A 
HETATM   15  C   UNL     1      -3.514  -2.485 -32.333  1.00  0.00     0.014 A 
HETATM   16  C   UNL     1      -3.091  -3.817 -32.419  1.00  0.00     0.001 A 
HETATM   17  C   UNL     1      -3.626  -4.671 -33.380  1.00  0.00     0.002 A 
ENDBRANCH   6   7
ENDBRANCH   1   5
BRANCH   2  18
HETATM   18  C   UNL     1      -5.862   4.081 -29.969  1.00  0.00     0.227 C 
BRANCH  18  19
HETATM   19  N   UNL     1      -4.465   4.348 -30.272  1.00  0.00    -0.348 N 
HETATM   20  C   UNL     1      -4.056   5.474 -30.944  1.00  0.00     0.255 C 
HETATM   21  O   UNL     1      -4.863   6.241 -31.465  1.00  0.00    -0.268 OA
HETATM   22  H   UNL     1      -3.775   3.708 -29.893  1.00  0.00     0.163 HD
BRANCH  20  23
HETATM   23  C   UNL     1      -2.591   5.726 -31.048  1.00  0.00     0.070 A 
HETATM   24  C   UNL     1      -1.738   4.939 -31.825  1.00  0.00     0.132 A 
HETATM   25  F   UNL     1      -2.208   3.905 -32.540  1.00  0.00    -0.205 F 
HETATM   26  C   UNL     1      -0.369   5.199 -31.881  1.00  0.00     0.043 A 
HETATM   27  C   UNL     1       0.166   6.259 -31.152  1.00  0.00     0.003 A 
HETATM   28  C   UNL     1      -0.670   7.055 -30.370  1.00  0.00     0.001 A 
HETATM   29  C   UNL     1      -2.042   6.790 -30.316  1.00  0.00     0.020 A 
ENDBRANCH  20  23
ENDBRANCH  18  19
ENDBRANCH   2  18
TORSDOF 5
ENDMDL
MODEL 6
REMARK VINA RESULT:      -8.4      1.567      1.820
REMARK  5 active torsions:
REMARK  status: ('A' for Active; 'I' for Inactive)
REMARK    1  A    between atoms: C_7  and  C_8 
REMARK    2  A    between atoms: N_9  and  N_10 
REMARK       I    between atoms: N_10  and  C_11 
REMARK    3  A    between atoms: C_11  and  C_12 
REMARK    4  A    between atoms: C_12  and  N_13 
REMARK       I    between atoms: N_13  and  C_14 
REMARK    5  A    between atoms: C_14  and  C_15 
ROOT
HETATM    1  N   UNL     1      -7.160   1.917 -34.121  1.00  0.00    -0.246 N 
HETATM    2  C   UNL     1      -7.138   3.039 -33.305  1.00  0.00     0.255 C 
HETATM    3  O   UNL     1      -6.242   3.333 -32.515  1.00  0.00    -0.270 OA
HETATM    4  H   UNL     1      -7.954   1.778 -34.753  1.00  0.00     0.192 HD
ENDROOT
BRANCH   1   5
HETATM    5  N   UNL     1      -6.144   1.010 -34.071  1.00  0.00    -0.184 NA
HETATM    6  C   UNL     1      -6.400  -0.082 -33.427  1.00  0.00     0.153 C 
BRANCH   6   7
HETATM    7  C   UNL     1      -5.379  -1.107 -33.296  1.00  0.00     0.018 A 
HETATM    8  C   UNL     1      -4.195  -1.019 -32.573  1.00  0.00     0.018 A 
HETATM    9  C   UNL     1      -3.625   0.088 -31.756  1.00  0.00     0.069 C 
HETATM   10  N   UNL     1      -3.529  -2.211 -32.710  1.00  0.00    -0.358 N 
HETATM   11  H   UNL     1      -2.639  -2.429 -32.287  1.00  0.00     0.166 HD
HETATM   12  C   UNL     1      -4.245  -3.078 -33.500  1.00  0.00     0.043 A 
HETATM   13  C   UNL     1      -5.410  -2.415 -33.885  1.00  0.00     0.004 A 
HETATM   14  C   UNL     1      -3.948  -4.389 -33.892  1.00  0.00     0.030 A 
HETATM   15  C   UNL     1      -6.327  -3.106 -34.709  1.00  0.00     0.014 A 
HETATM   16  C   UNL     1      -6.047  -4.417 -35.110  1.00  0.00     0.001 A 
HETATM   17  C   UNL     1      -4.874  -5.048 -34.705  1.00  0.00     0.002 A 
ENDBRANCH   6   7
ENDBRANCH   1   5
BRANCH   2  18
HETATM   18  C   UNL     1      -8.423   3.865 -33.398  1.00  0.00     0.227 C 
BRANCH  18  19
HETATM   19  N   UNL     1      -9.641   3.075 -33.319  1.00  0.00    -0.348 N 
HETATM   20  C   UNL     1     -10.559   3.024 -34.340  1.00  0.00     0.255 C 
HETATM   21  O   UNL     1     -10.477   3.769 -35.315  1.00  0.00    -0.268 OA
HETATM   22  H   UNL     1      -9.760   2.481 -32.504  1.00  0.00     0.163 HD
BRANCH  20  23
HETATM   23  C   UNL     1     -11.681   2.052 -34.218  1.00  0.00     0.070 A 
HETATM   24  C   UNL     1     -12.981   2.336 -34.642  1.00  0.00     0.132 A 
HETATM   25  F   UNL     1     -13.286   3.518 -35.201  1.00  0.00    -0.205 F 
HETATM   26  C   UNL     1     -14.007   1.403 -34.493  1.00  0.00     0.043 A 
HETATM   27  C   UNL     1     -13.739   0.164 -33.914  1.00  0.00     0.003 A 
HETATM   28  C   UNL     1     -12.447  -0.136 -33.485  1.00  0.00     0.001 A 
HETATM   29  C   UNL     1     -11.422   0.802 -33.635  1.00  0.00     0.020 A 
ENDBRANCH  20  23
ENDBRANCH  18  19
ENDBRANCH   2  18
TORSDOF 5
ENDMDL
MODEL 7
REMARK VINA RESULT:      -8.3      1.972      2.291
REMARK  5 active torsions:
REMARK  status: ('A' for Active; 'I' for Inactive)
REMARK    1  A    between atoms: C_7  and  C_8 
REMARK    2  A    between atoms: N_9  and  N_10 
REMARK       I    between atoms: N_10  and  C_11 
REMARK    3  A    between atoms: C_11  and  C_12 
REMARK    4  A    between atoms: C_12  and  N_13 
REMARK       I    between atoms: N_13  and  C_14 
REMARK    5  A    between atoms: C_14  and  C_15 
ROOT
HETATM    1  N   UNL     1      -8.293   1.167 -34.931  1.00  0.00    -0.246 N 
HETATM    2  C   UNL     1      -9.435   1.237 -34.147  1.00  0.00     0.255 C 
HETATM    3  O   UNL     1      -9.791   0.397 -33.321  1.00  0.00    -0.270 OA
HETATM    4  H   UNL     1      -8.087   1.934 -35.578  1.00  0.00     0.192 HD
ENDROOT
BRANCH   1   5
HETATM    5  N   UNL     1      -7.465   0.088 -34.845  1.00  0.00    -0.184 NA
HETATM    6  C   UNL     1      -6.498   0.190 -33.991  1.00  0.00     0.153 C 
BRANCH   6   7
HETATM    7  C   UNL     1      -5.546  -0.896 -33.836  1.00  0.00     0.018 A 
HETATM    8  C   UNL     1      -4.284  -0.824 -33.259  1.00  0.00     0.018 A 
HETATM    9  C   UNL     1      -3.545   0.320 -32.656  1.00  0.00     0.069 C 
HETATM   10  N   UNL     1      -3.727  -2.077 -33.308  1.00  0.00    -0.358 N 
HETATM   11  H   UNL     1      -2.813  -2.318 -32.956  1.00  0.00     0.166 HD
HETATM   12  C   UNL     1      -4.590  -2.968 -33.900  1.00  0.00     0.043 A 
HETATM   13  C   UNL     1      -5.740  -2.258 -34.244  1.00  0.00     0.004 A 
HETATM   14  C   UNL     1      -4.436  -4.338 -34.147  1.00  0.00     0.030 A 
HETATM   15  C   UNL     1      -6.793  -2.961 -34.870  1.00  0.00     0.014 A 
HETATM   16  C   UNL     1      -6.657  -4.331 -35.124  1.00  0.00     0.001 A 
HETATM   17  C   UNL     1      -5.494  -5.007 -34.766  1.00  0.00     0.002 A 
ENDBRANCH   6   7
ENDBRANCH   1   5
BRANCH   2  18
HETATM   18  C   UNL     1     -10.309   2.448 -34.479  1.00  0.00     0.227 C 
BRANCH  18  19
HETATM   19  N   UNL     1     -11.680   2.337 -34.005  1.00  0.00    -0.348 N 
HETATM   20  C   UNL     1     -12.149   3.042 -32.924  1.00  0.00     0.255 C 
HETATM   21  O   UNL     1     -11.394   3.686 -32.199  1.00  0.00    -0.268 OA
HETATM   22  H   UNL     1     -12.320   1.775 -34.558  1.00  0.00     0.163 HD
BRANCH  20  23
HETATM   23  C   UNL     1     -13.610   2.979 -32.635  1.00  0.00     0.070 A 
HETATM   24  C   UNL     1     -14.371   1.822 -32.817  1.00  0.00     0.132 A 
HETATM   25  F   UNL     1     -13.810   0.685 -33.258  1.00  0.00    -0.205 F 
HETATM   26  C   UNL     1     -15.739   1.811 -32.551  1.00  0.00     0.043 A 
HETATM   27  C   UNL     1     -16.367   2.969 -32.096  1.00  0.00     0.003 A 
HETATM   28  C   UNL     1     -15.623   4.133 -31.909  1.00  0.00     0.001 A 
HETATM   29  C   UNL     1     -14.252   4.140 -32.179  1.00  0.00     0.020 A 
ENDBRANCH  20  23
ENDBRANCH  18  19
ENDBRANCH   2  18
TORSDOF 5
ENDMDL
MODEL 8
REMARK VINA RESULT:      -8.2      5.869      8.853
REMARK  5 active torsions:
REMARK  status: ('A' for Active; 'I' for Inactive)
REMARK    1  A    between atoms: C_7  and  C_8 
REMARK    2  A    between atoms: N_9  and  N_10 
REMARK       I    between atoms: N_10  and  C_11 
REMARK    3  A    between atoms: C_11  and  C_12 
REMARK    4  A    between atoms: C_12  and  N_13 
REMARK       I    between atoms: N_13  and  C_14 
REMARK    5  A    between atoms: C_14  and  C_15 
ROOT
HETATM    1  N   UNL     1      -4.908   3.161 -32.464  1.00  0.00    -0.246 N 
HETATM    2  C   UNL     1      -3.859   3.690 -31.727  1.00  0.00     0.255 C 
HETATM    3  O   UNL     1      -2.750   3.176 -31.587  1.00  0.00    -0.270 OA
HETATM    4  H   UNL     1      -5.787   3.684 -32.523  1.00  0.00     0.192 HD
ENDROOT
BRANCH   1   5
HETATM    5  N   UNL     1      -4.771   1.958 -33.090  1.00  0.00    -0.184 NA
HETATM    6  C   UNL     1      -5.747   1.125 -32.922  1.00  0.00     0.153 C 
BRANCH   6   7
HETATM    7  C   UNL     1      -5.692  -0.193 -33.529  1.00  0.00     0.018 A 
HETATM    8  C   UNL     1      -6.449  -0.652 -34.601  1.00  0.00     0.018 A 
HETATM    9  C   UNL     1      -7.498   0.018 -35.418  1.00  0.00     0.069 C 
HETATM   10  N   UNL     1      -6.074  -1.947 -34.856  1.00  0.00    -0.358 N 
HETATM   11  H   UNL     1      -6.459  -2.528 -35.586  1.00  0.00     0.166 HD
HETATM   12  C   UNL     1      -5.092  -2.349 -33.983  1.00  0.00     0.043 A 
HETATM   13  C   UNL     1      -4.831  -1.272 -33.137  1.00  0.00     0.004 A 
HETATM   14  C   UNL     1      -4.421  -3.574 -33.889  1.00  0.00     0.030 A 
HETATM   15  C   UNL     1      -3.842  -1.434 -32.140  1.00  0.00     0.014 A 
HETATM   16  C   UNL     1      -3.161  -2.652 -32.032  1.00  0.00     0.001 A 
HETATM   17  C   UNL     1      -3.448  -3.705 -32.896  1.00  0.00     0.002 A 
ENDBRANCH   6   7
ENDBRANCH   1   5
BRANCH   2  18
HETATM   18  C   UNL     1      -4.242   4.972 -30.986  1.00  0.00     0.227 C 
BRANCH  18  19
HETATM   19  N   UNL     1      -3.150   5.572 -30.235  1.00  0.00    -0.348 N 
HETATM   20  C   UNL     1      -2.371   6.584 -30.741  1.00  0.00     0.255 C 
HETATM   21  O   UNL     1      -2.454   6.932 -31.917  1.00  0.00    -0.268 OA
HETATM   22  H   UNL     1      -3.027   5.274 -29.273  1.00  0.00     0.163 HD
BRANCH  20  23
HETATM   23  C   UNL     1      -1.396   7.235 -29.822  1.00  0.00     0.070 A 
HETATM   24  C   UNL     1      -0.023   6.983 -29.870  1.00  0.00     0.132 A 
HETATM   25  F   UNL     1       0.496   6.135 -30.772  1.00  0.00    -0.205 F 
HETATM   26  C   UNL     1       0.854   7.601 -28.980  1.00  0.00     0.043 A 
HETATM   27  C   UNL     1       0.362   8.486 -28.022  1.00  0.00     0.003 A 
HETATM   28  C   UNL     1      -1.006   8.749 -27.959  1.00  0.00     0.001 A 
HETATM   29  C   UNL     1      -1.882   8.126 -28.853  1.00  0.00     0.020 A 
ENDBRANCH  20  23
ENDBRANCH  18  19
ENDBRANCH   2  18
TORSDOF 5
ENDMDL
MODEL 9
REMARK VINA RESULT:      -8.2      6.936     10.095
REMARK  5 active torsions:
REMARK  status: ('A' for Active; 'I' for Inactive)
REMARK    1  A    between atoms: C_7  and  C_8 
REMARK    2  A    between atoms: N_9  and  N_10 
REMARK       I    between atoms: N_10  and  C_11 
REMARK    3  A    between atoms: C_11  and  C_12 
REMARK    4  A    between atoms: C_12  and  N_13 
REMARK       I    between atoms: N_13  and  C_14 
REMARK    5  A    between atoms: C_14  and  C_15 
ROOT
HETATM    1  N   UNL     1      -3.221   4.526 -32.447  1.00  0.00    -0.246 N 
HETATM    2  C   UNL     1      -2.175   4.952 -31.642  1.00  0.00     0.255 C 
HETATM    3  O   UNL     1      -1.298   4.233 -31.166  1.00  0.00    -0.270 OA
HETATM    4  H   UNL     1      -3.890   5.217 -32.800  1.00  0.00     0.192 HD
ENDROOT
BRANCH   1   5
HETATM    5  N   UNL     1      -3.359   3.204 -32.753  1.00  0.00    -0.184 NA
HETATM    6  C   UNL     1      -4.468   2.656 -32.376  1.00  0.00     0.153 C 
BRANCH   6   7
HETATM    7  C   UNL     1      -4.708   1.246 -32.634  1.00  0.00     0.018 A 
HETATM    8  C   UNL     1      -4.061   0.167 -32.045  1.00  0.00     0.018 A 
HETATM    9  C   UNL     1      -2.977   0.111 -31.026  1.00  0.00     0.069 C 
HETATM   10  N   UNL     1      -4.600  -0.982 -32.567  1.00  0.00    -0.358 N 
HETATM   11  H   UNL     1      -4.320  -1.919 -32.315  1.00  0.00     0.166 HD
HETATM   12  C   UNL     1      -5.583  -0.685 -33.480  1.00  0.00     0.043 A 
HETATM   13  C   UNL     1      -5.674   0.704 -33.547  1.00  0.00     0.004 A 
HETATM   14  C   UNL     1      -6.391  -1.541 -34.239  1.00  0.00     0.030 A 
HETATM   15  C   UNL     1      -6.629   1.267 -34.423  1.00  0.00     0.014 A 
HETATM   16  C   UNL     1      -7.446   0.427 -35.189  1.00  0.00     0.001 A 
HETATM   17  C   UNL     1      -7.327  -0.957 -35.095  1.00  0.00     0.002 A 
ENDBRANCH   6   7
ENDBRANCH   1   5
BRANCH   2  18
HETATM   18  C   UNL     1      -2.263   6.439 -31.294  1.00  0.00     0.227 C 
BRANCH  18  19
HETATM   19  N   UNL     1      -1.665   6.784 -30.014  1.00  0.00    -0.348 N 
HETATM   20  C   UNL     1      -0.374   7.239 -29.898  1.00  0.00     0.255 C 
HETATM   21  O   UNL     1       0.399   7.229 -30.854  1.00  0.00    -0.268 OA
HETATM   22  H   UNL     1      -2.266   6.760 -29.197  1.00  0.00     0.163 HD
BRANCH  20  23
HETATM   23  C   UNL     1       0.075   7.722 -28.562  1.00  0.00     0.070 A 
HETATM   24  C   UNL     1      -0.351   8.933 -28.010  1.00  0.00     0.132 A 
HETATM   25  F   UNL     1      -1.211   9.729 -28.664  1.00  0.00    -0.205 F 
HETATM   26  C   UNL     1       0.107   9.356 -26.763  1.00  0.00     0.043 A 
HETATM   27  C   UNL     1       1.005   8.565 -26.049  1.00  0.00     0.003 A 
HETATM   28  C   UNL     1       1.442   7.355 -26.584  1.00  0.00     0.001 A 
HETATM   29  C   UNL     1       0.981   6.934 -27.835  1.00  0.00     0.020 A 
ENDBRANCH  20  23
ENDBRANCH  18  19
ENDBRANCH   2  18
TORSDOF 5
ENDMDL
MODEL 10
REMARK VINA RESULT:      -7.9      2.300      8.049
REMARK  5 active torsions:
REMARK  status: ('A' for Active; 'I' for Inactive)
REMARK    1  A    between atoms: C_7  and  C_8 
REMARK    2  A    between atoms: N_9  and  N_10 
REMARK       I    between atoms: N_10  and  C_11 
REMARK    3  A    between atoms: C_11  and  C_12 
REMARK    4  A    between atoms: C_12  and  N_13 
REMARK       I    between atoms: N_13  and  C_14 
REMARK    5  A    between atoms: C_14  and  C_15 
ROOT
HETATM    1  N   UNL     1      -8.208   1.405 -32.550  1.00  0.00    -0.246 N 
HETATM    2  C   UNL     1      -7.516   1.646 -31.373  1.00  0.00     0.255 C 
HETATM    3  O   UNL     1      -7.832   2.463 -30.509  1.00  0.00    -0.270 OA
HETATM    4  H   UNL     1      -7.860   0.688 -33.194  1.00  0.00     0.192 HD
ENDROOT
BRANCH   1   5
HETATM    5  N   UNL     1      -9.329   2.121 -32.847  1.00  0.00    -0.184 NA
HETATM    6  C   UNL     1      -9.947   1.771 -33.928  1.00  0.00     0.153 C 
BRANCH   6   7
HETATM    7  C   UNL     1     -11.142   2.482 -34.348  1.00  0.00     0.018 A 
HETATM    8  C   UNL     1     -12.436   1.979 -34.407  1.00  0.00     0.018 A 
HETATM    9  C   UNL     1     -12.980   0.631 -34.084  1.00  0.00     0.069 C 
HETATM   10  N   UNL     1     -13.258   2.987 -34.846  1.00  0.00    -0.358 N 
HETATM   11  H   UNL     1     -14.255   2.903 -34.980  1.00  0.00     0.166 HD
HETATM   12  C   UNL     1     -12.539   4.135 -35.074  1.00  0.00     0.043 A 
HETATM   13  C   UNL     1     -11.208   3.851 -34.773  1.00  0.00     0.004 A 
HETATM   14  C   UNL     1     -12.971   5.392 -35.517  1.00  0.00     0.030 A 
HETATM   15  C   UNL     1     -10.257   4.885 -34.924  1.00  0.00     0.014 A 
HETATM   16  C   UNL     1     -10.671   6.148 -35.365  1.00  0.00     0.001 A 
HETATM   17  C   UNL     1     -12.009   6.395 -35.655  1.00  0.00     0.002 A 
ENDBRANCH   6   7
ENDBRANCH   1   5
BRANCH   2  18
HETATM   18  C   UNL     1      -6.213   0.849 -31.277  1.00  0.00     0.227 C 
BRANCH  18  19
HETATM   19  N   UNL     1      -6.238  -0.416 -31.995  1.00  0.00    -0.348 N 
HETATM   20  C   UNL     1      -5.693  -0.568 -33.247  1.00  0.00     0.255 C 
HETATM   21  O   UNL     1      -5.292   0.397 -33.895  1.00  0.00    -0.268 OA
HETATM   22  H   UNL     1      -6.604  -1.224 -31.503  1.00  0.00     0.163 HD
BRANCH  20  23
HETATM   23  C   UNL     1      -5.626  -1.945 -33.812  1.00  0.00     0.070 A 
HETATM   24  C   UNL     1      -6.726  -2.584 -34.387  1.00  0.00     0.132 A 
HETATM   25  F   UNL     1      -7.919  -1.972 -34.470  1.00  0.00    -0.205 F 
HETATM   26  C   UNL     1      -6.625  -3.881 -34.889  1.00  0.00     0.043 A 
HETATM   27  C   UNL     1      -5.408  -4.558 -34.820  1.00  0.00     0.003 A 
HETATM   28  C   UNL     1      -4.299  -3.936 -34.250  1.00  0.00     0.001 A 
HETATM   29  C   UNL     1      -4.406  -2.636 -33.746  1.00  0.00     0.020 A 
ENDBRANCH  20  23
ENDBRANCH  18  19
ENDBRANCH   2  18
TORSDOF 5
ENDMDL
