MODEL 1
REMARK VINA RESULT:      -9.7      0.000      0.000
REMARK  5 active torsions:
REMARK  status: ('A' for Active; 'I' for Inactive)
REMARK    1  A    between atoms: C_5  and  C_6 
REMARK    2  A    between atoms: C_9  and  O_10 
REMARK    3  A    between atoms: N_14  and  C_15 
REMARK    4  A    between atoms: C_15  and  C_16 
REMARK       I    between atoms: C_16  and  N_17 
REMARK    5  A    between atoms: N_17  and  C_18 
ROOT
HETATM    1  C   UNL     1      -3.746   0.050 -30.939  1.00  0.00     0.156 C 
HETATM    2  N   UNL     1      -4.650   0.057 -32.065  1.00  0.00    -0.346 N 
HETATM    3  C   UNL     1      -5.455   1.081 -32.429  1.00  0.00     0.113 A 
HETATM    4  C   UNL     1      -6.183   0.724 -33.530  1.00  0.00     0.014 A 
HETATM    5  C   UNL     1      -7.063   1.842 -33.955  1.00  0.00     0.158 A 
HETATM    6  N   UNL     1      -6.637   2.889 -32.987  1.00  0.00    -0.325 N 
HETATM    7  C   UNL     1      -5.695   2.433 -32.053  1.00  0.00     0.272 A 
HETATM    8  O   UNL     1      -5.138   3.084 -31.186  1.00  0.00    -0.266 OA
HETATM    9  C   UNL     1      -5.778  -0.562 -33.927  1.00  0.00     0.002 A 
HETATM   10  C   UNL     1      -4.806  -0.970 -32.990  1.00  0.00     0.045 A 
HETATM   11  C   UNL     1      -6.112  -1.421 -34.988  1.00  0.00     0.014 A 
HETATM   12  C   UNL     1      -5.470  -2.659 -35.097  1.00  0.00     0.001 A 
HETATM   13  C   UNL     1      -4.512  -3.047 -34.164  1.00  0.00     0.002 A 
HETATM   14  C   UNL     1      -4.164  -2.215 -33.095  1.00  0.00     0.030 A 
ENDROOT
BRANCH   6  15
HETATM   15  C   UNL     1      -6.654   4.286 -33.373  1.00  0.00     0.229 C 
BRANCH  15  16
HETATM   16  C   UNL     1      -5.365   4.795 -34.002  1.00  0.00     0.235 C 
HETATM   17  N   UNL     1      -4.555   5.511 -33.146  1.00  0.00    -0.355 N 
HETATM   18  H   UNL     1      -4.868   5.624 -32.187  1.00  0.00     0.162 HD
HETATM   19  O   UNL     1      -5.036   4.476 -35.143  1.00  0.00    -0.272 OA
BRANCH  17  20
HETATM   20  C   UNL     1      -3.166   5.742 -33.473  1.00  0.00     0.084 C 
HETATM   21  C   UNL     1      -2.630   7.063 -32.936  1.00  0.00     0.025 C 
HETATM   22  C   UNL     1      -1.124   6.856 -32.988  1.00  0.00     0.002 C 
HETATM   23  C   UNL     1      -0.922   5.410 -32.553  1.00  0.00     0.002 C 
HETATM   24  C   UNL     1      -2.240   4.692 -32.846  1.00  0.00     0.025 C 
ENDBRANCH  17  20
ENDBRANCH  15  16
ENDBRANCH   6  15
BRANCH   5  25
HETATM   25  C   UNL     1      -8.514   1.435 -33.790  1.00  0.00    -0.030 A 
HETATM   26  C   UNL     1      -8.951   0.374 -32.977  1.00  0.00     0.012 A 
HETATM   27  C   UNL     1     -10.306   0.045 -32.883  1.00  0.00     0.037 A 
HETATM   28  C   UNL     1     -11.269   0.782 -33.569  1.00  0.00     0.068 A 
HETATM   29  C   UNL     1     -10.861   1.860 -34.351  1.00  0.00     0.037 A 
HETATM   30  C   UNL     1      -9.501   2.180 -34.461  1.00  0.00     0.012 A 
BRANCH  28  31
HETATM   31  O   UNL     1     -12.554   0.350 -33.391  1.00  0.00    -0.356 OA
HETATM   32  C   UNL     1     -13.523   0.810 -34.324  1.00  0.00     0.210 C 
ENDBRANCH  28  31
ENDBRANCH   5  25
TORSDOF 5
ENDMDL
MODEL 2
REMARK VINA RESULT:      -9.7      1.979      5.236
REMARK  5 active torsions:
REMARK  status: ('A' for Active; 'I' for Inactive)
REMARK    1  A    between atoms: C_5  and  C_6 
REMARK    2  A    between atoms: C_9  and  O_10 
REMARK    3  A    between atoms: N_14  and  C_15 
REMARK    4  A    between atoms: C_15  and  C_16 
REMARK       I    between atoms: C_16  and  N_17 
REMARK    5  A    between atoms: N_17  and  C_18 
ROOT
HETATM    1  C   UNL     1     -10.486   4.465 -35.465  1.00  0.00     0.156 C 
HETATM    2  N   UNL     1     -10.188   3.287 -34.685  1.00  0.00    -0.346 N 
HETATM    3  C   UNL     1      -9.018   3.024 -34.062  1.00  0.00     0.113 A 
HETATM    4  C   UNL     1      -9.093   1.810 -33.437  1.00  0.00     0.014 A 
HETATM    5  C   UNL     1      -7.820   1.509 -32.733  1.00  0.00     0.158 A 
HETATM    6  N   UNL     1      -7.081   2.775 -32.982  1.00  0.00    -0.325 N 
HETATM    7  C   UNL     1      -7.779   3.676 -33.800  1.00  0.00     0.272 A 
HETATM    8  O   UNL     1      -7.438   4.801 -34.121  1.00  0.00    -0.266 OA
HETATM    9  C   UNL     1     -10.391   1.304 -33.615  1.00  0.00     0.002 A 
HETATM   10  C   UNL     1     -11.073   2.251 -34.406  1.00  0.00     0.045 A 
HETATM   11  C   UNL     1     -11.074   0.155 -33.178  1.00  0.00     0.014 A 
HETATM   12  C   UNL     1     -12.416  -0.021 -33.530  1.00  0.00     0.001 A 
HETATM   13  C   UNL     1     -13.076   0.925 -34.311  1.00  0.00     0.002 A 
HETATM   14  C   UNL     1     -12.419   2.073 -34.765  1.00  0.00     0.030 A 
ENDROOT
BRANCH   6  15
HETATM   15  C   UNL     1      -6.139   3.273 -32.000  1.00  0.00     0.229 C 
BRANCH  15  16
HETATM   16  C   UNL     1      -4.678   3.204 -32.418  1.00  0.00     0.235 C 
HETATM   17  N   UNL     1      -4.284   4.198 -33.289  1.00  0.00    -0.355 N 
HETATM   18  H   UNL     1      -4.978   4.888 -33.559  1.00  0.00     0.162 HD
HETATM   19  O   UNL     1      -3.901   2.396 -31.913  1.00  0.00    -0.272 OA
BRANCH  17  20
HETATM   20  C   UNL     1      -2.881   4.486 -33.488  1.00  0.00     0.084 C 
HETATM   21  C   UNL     1      -2.584   5.149 -34.827  1.00  0.00     0.025 C 
HETATM   22  C   UNL     1      -1.205   5.751 -34.600  1.00  0.00     0.002 C 
HETATM   23  C   UNL     1      -1.252   6.286 -33.174  1.00  0.00     0.002 C 
HETATM   24  C   UNL     1      -2.342   5.487 -32.458  1.00  0.00     0.025 C 
ENDBRANCH  17  20
ENDBRANCH  15  16
ENDBRANCH   6  15
BRANCH   5  25
HETATM   25  C   UNL     1      -7.162   0.300 -33.370  1.00  0.00    -0.030 A 
HETATM   26  C   UNL     1      -7.492  -0.201 -34.641  1.00  0.00     0.012 A 
HETATM   27  C   UNL     1      -6.852  -1.330 -35.162  1.00  0.00     0.037 A 
HETATM   28  C   UNL     1      -5.845  -1.973 -34.446  1.00  0.00     0.068 A 
HETATM   29  C   UNL     1      -5.478  -1.471 -33.200  1.00  0.00     0.037 A 
HETATM   30  C   UNL     1      -6.131  -0.349 -32.669  1.00  0.00     0.012 A 
BRANCH  28  31
HETATM   31  O   UNL     1      -5.308  -3.065 -35.070  1.00  0.00    -0.356 OA
HETATM   32  C   UNL     1      -6.130  -4.220 -35.165  1.00  0.00     0.210 C 
ENDBRANCH  28  31
ENDBRANCH   5  25
TORSDOF 5
ENDMDL
MODEL 3
REMARK VINA RESULT:      -9.1      2.682      5.928
REMARK  5 active torsions:
REMARK  status: ('A' for Active; 'I' for Inactive)
REMARK    1  A    between atoms: C_5  and  C_6 
REMARK    2  A    between atoms: C_9  and  O_10 
REMARK    3  A    between atoms: N_14  and  C_15 
REMARK    4  A    between atoms: C_15  and  C_16 
REMARK       I    between atoms: C_16  and  N_17 
REMARK    5  A    between atoms: N_17  and  C_18 
ROOT
HETATM    1  C   UNL     1     -10.686   5.125 -35.643  1.00  0.00     0.156 C 
HETATM    2  N   UNL     1     -10.491   3.918 -34.877  1.00  0.00    -0.346 N 
HETATM    3  C   UNL     1      -9.390   3.605 -34.156  1.00  0.00     0.113 A 
HETATM    4  C   UNL     1      -9.553   2.376 -33.579  1.00  0.00     0.014 A 
HETATM    5  C   UNL     1      -8.360   2.020 -32.770  1.00  0.00     0.158 A 
HETATM    6  N   UNL     1      -7.569   3.273 -32.910  1.00  0.00    -0.325 N 
HETATM    7  C   UNL     1      -8.166   4.215 -33.760  1.00  0.00     0.272 A 
HETATM    8  O   UNL     1      -7.769   5.340 -34.014  1.00  0.00    -0.266 OA
HETATM    9  C   UNL     1     -10.841   1.911 -33.892  1.00  0.00     0.002 A 
HETATM   10  C   UNL     1     -11.423   2.898 -34.713  1.00  0.00     0.045 A 
HETATM   11  C   UNL     1     -11.590   0.768 -33.556  1.00  0.00     0.014 A 
HETATM   12  C   UNL     1     -12.897   0.639 -34.036  1.00  0.00     0.001 A 
HETATM   13  C   UNL     1     -13.457   1.625 -34.845  1.00  0.00     0.002 A 
HETATM   14  C   UNL     1     -12.734   2.767 -35.200  1.00  0.00     0.030 A 
ENDROOT
BRANCH   6  15
HETATM   15  C   UNL     1      -6.711   3.716 -31.829  1.00  0.00     0.229 C 
BRANCH  15  16
HETATM   16  C   UNL     1      -5.267   3.248 -31.923  1.00  0.00     0.235 C 
HETATM   17  N   UNL     1      -5.014   2.042 -31.303  1.00  0.00    -0.355 N 
HETATM   18  H   UNL     1      -5.795   1.569 -30.861  1.00  0.00     0.162 HD
HETATM   19  O   UNL     1      -4.439   3.848 -32.606  1.00  0.00    -0.272 OA
BRANCH  17  20
HETATM   20  C   UNL     1      -3.811   1.299 -31.607  1.00  0.00     0.084 C 
HETATM   21  C   UNL     1      -3.684   0.005 -30.815  1.00  0.00     0.025 C 
HETATM   22  C   UNL     1      -2.655  -0.777 -31.618  1.00  0.00     0.002 C 
HETATM   23  C   UNL     1      -3.008  -0.489 -33.072  1.00  0.00     0.002 C 
HETATM   24  C   UNL     1      -3.768   0.837 -33.069  1.00  0.00     0.025 C 
ENDBRANCH  17  20
ENDBRANCH  15  16
ENDBRANCH   6  15
BRANCH   5  25
HETATM   25  C   UNL     1      -7.675   0.813 -33.380  1.00  0.00    -0.030 A 
HETATM   26  C   UNL     1      -7.413   0.663 -34.753  1.00  0.00     0.012 A 
HETATM   27  C   UNL     1      -6.788  -0.485 -35.250  1.00  0.00     0.037 A 
HETATM   28  C   UNL     1      -6.378  -1.502 -34.390  1.00  0.00     0.068 A 
HETATM   29  C   UNL     1      -6.595  -1.357 -33.023  1.00  0.00     0.037 A 
HETATM   30  C   UNL     1      -7.237  -0.214 -32.525  1.00  0.00     0.012 A 
BRANCH  28  31
HETATM   31  O   UNL     1      -5.785  -2.568 -35.008  1.00  0.00    -0.356 OA
HETATM   32  C   UNL     1      -6.469  -3.812 -34.943  1.00  0.00     0.210 C 
ENDBRANCH  28  31
ENDBRANCH   5  25
TORSDOF 5
ENDMDL
MODEL 4
REMARK VINA RESULT:      -8.9      2.188      3.657
REMARK  5 active torsions:
REMARK  status: ('A' for Active; 'I' for Inactive)
REMARK    1  A    between atoms: C_5  and  C_6 
REMARK    2  A    between atoms: C_9  and  O_10 
REMARK    3  A    between atoms: N_14  and  C_15 
REMARK    4  A    between atoms: C_15  and  C_16 
REMARK       I    between atoms: C_16  and  N_17 
REMARK    5  A    between atoms: N_17  and  C_18 
ROOT
HETATM    1  C   UNL     1      -2.642  -3.466 -31.416  1.00  0.00     0.156 C 
HETATM    2  N   UNL     1      -3.515  -2.852 -32.388  1.00  0.00    -0.346 N 
HETATM    3  C   UNL     1      -3.782  -1.530 -32.490  1.00  0.00     0.113 A 
HETATM    4  C   UNL     1      -4.665  -1.317 -33.513  1.00  0.00     0.014 A 
HETATM    5  C   UNL     1      -4.960   0.132 -33.651  1.00  0.00     0.158 A 
HETATM    6  N   UNL     1      -4.036   0.683 -32.623  1.00  0.00    -0.325 N 
HETATM    7  C   UNL     1      -3.348  -0.306 -31.905  1.00  0.00     0.272 A 
HETATM    8  O   UNL     1      -2.497  -0.141 -31.048  1.00  0.00    -0.266 OA
HETATM    9  C   UNL     1      -4.924  -2.551 -34.133  1.00  0.00     0.002 A 
HETATM   10  C   UNL     1      -4.188  -3.512 -33.410  1.00  0.00     0.045 A 
HETATM   11  C   UNL     1      -5.687  -2.961 -35.241  1.00  0.00     0.014 A 
HETATM   12  C   UNL     1      -5.694  -4.311 -35.607  1.00  0.00     0.001 A 
HETATM   13  C   UNL     1      -4.960  -5.247 -34.884  1.00  0.00     0.002 A 
HETATM   14  C   UNL     1      -4.198  -4.869 -33.774  1.00  0.00     0.030 A 
ENDROOT
BRANCH   6  15
HETATM   15  C   UNL     1      -3.436   1.989 -32.811  1.00  0.00     0.229 C 
BRANCH  15  16
HETATM   16  C   UNL     1      -4.151   3.132 -32.106  1.00  0.00     0.235 C 
HETATM   17  N   UNL     1      -5.434   3.368 -32.556  1.00  0.00    -0.355 N 
HETATM   18  H   UNL     1      -5.793   2.765 -33.289  1.00  0.00     0.162 HD
HETATM   19  O   UNL     1      -3.655   3.701 -31.136  1.00  0.00    -0.272 OA
BRANCH  17  20
HETATM   20  C   UNL     1      -6.355   4.153 -31.765  1.00  0.00     0.084 C 
HETATM   21  C   UNL     1      -7.703   4.365 -32.440  1.00  0.00     0.025 C 
HETATM   22  C   UNL     1      -8.597   4.772 -31.278  1.00  0.00     0.002 C 
HETATM   23  C   UNL     1      -8.152   3.881 -30.125  1.00  0.00     0.002 C 
HETATM   24  C   UNL     1      -6.715   3.465 -30.441  1.00  0.00     0.025 C 
ENDBRANCH  17  20
ENDBRANCH  15  16
ENDBRANCH   6  15
BRANCH   5  25
HETATM   25  C   UNL     1      -6.421   0.384 -33.335  1.00  0.00    -0.030 A 
HETATM   26  C   UNL     1      -6.995   0.218 -32.062  1.00  0.00     0.012 A 
HETATM   27  C   UNL     1      -8.355   0.456 -31.844  1.00  0.00     0.037 A 
HETATM   28  C   UNL     1      -9.176   0.897 -32.880  1.00  0.00     0.068 A 
HETATM   29  C   UNL     1      -8.621   1.103 -34.140  1.00  0.00     0.037 A 
HETATM   30  C   UNL     1      -7.260   0.847 -34.363  1.00  0.00     0.012 A 
BRANCH  28  31
HETATM   31  O   UNL     1     -10.485   1.087 -32.530  1.00  0.00    -0.356 OA
HETATM   32  C   UNL     1     -11.180   2.138 -33.186  1.00  0.00     0.210 C 
ENDBRANCH  28  31
ENDBRANCH   5  25
TORSDOF 5
ENDMDL
MODEL 5
REMARK VINA RESULT:      -8.8      2.269      5.355
REMARK  5 active torsions:
REMARK  status: ('A' for Active; 'I' for Inactive)
REMARK    1  A    between atoms: C_5  and  C_6 
REMARK    2  A    between atoms: C_9  and  O_10 
REMARK    3  A    between atoms: N_14  and  C_15 
REMARK    4  A    between atoms: C_15  and  C_16 
REMARK       I    between atoms: C_16  and  N_17 
REMARK    5  A    between atoms: N_17  and  C_18 
ROOT
HETATM    1  C   UNL     1      -9.628   0.249 -33.064  1.00  0.00     0.156 C 
HETATM    2  N   UNL     1      -8.206   0.413 -32.875  1.00  0.00    -0.346 N 
HETATM    3  C   UNL     1      -7.610   1.396 -32.162  1.00  0.00     0.113 A 
HETATM    4  C   UNL     1      -6.252   1.245 -32.218  1.00  0.00     0.014 A 
HETATM    5  C   UNL     1      -5.579   2.307 -31.429  1.00  0.00     0.158 A 
HETATM    6  N   UNL     1      -6.766   2.996 -30.856  1.00  0.00    -0.325 N 
HETATM    7  C   UNL     1      -7.986   2.475 -31.312  1.00  0.00     0.272 A 
HETATM    8  O   UNL     1      -9.108   2.809 -30.971  1.00  0.00    -0.266 OA
HETATM    9  C   UNL     1      -5.970   0.076 -32.945  1.00  0.00     0.002 A 
HETATM   10  C   UNL     1      -7.217  -0.439 -33.353  1.00  0.00     0.045 A 
HETATM   11  C   UNL     1      -4.795  -0.616 -33.290  1.00  0.00     0.014 A 
HETATM   12  C   UNL     1      -4.888  -1.803 -34.022  1.00  0.00     0.001 A 
HETATM   13  C   UNL     1      -6.128  -2.300 -34.416  1.00  0.00     0.002 A 
HETATM   14  C   UNL     1      -7.311  -1.629 -34.093  1.00  0.00     0.030 A 
ENDROOT
BRANCH   6  15
HETATM   15  C   UNL     1      -6.688   3.612 -29.547  1.00  0.00     0.229 C 
BRANCH  15  16
HETATM   16  C   UNL     1      -6.324   5.089 -29.552  1.00  0.00     0.235 C 
HETATM   17  N   UNL     1      -4.970   5.345 -29.498  1.00  0.00    -0.355 N 
HETATM   18  H   UNL     1      -4.342   4.548 -29.478  1.00  0.00     0.162 HD
HETATM   19  O   UNL     1      -7.174   5.962 -29.717  1.00  0.00    -0.272 OA
BRANCH  17  20
HETATM   20  C   UNL     1      -4.454   6.647 -29.857  1.00  0.00     0.084 C 
HETATM   21  C   UNL     1      -2.984   6.833 -29.508  1.00  0.00     0.025 C 
HETATM   22  C   UNL     1      -2.584   8.021 -30.371  1.00  0.00     0.002 C 
HETATM   23  C   UNL     1      -3.308   7.791 -31.693  1.00  0.00     0.002 C 
HETATM   24  C   UNL     1      -4.503   6.894 -31.371  1.00  0.00     0.025 C 
ENDBRANCH  17  20
ENDBRANCH  15  16
ENDBRANCH   6  15
BRANCH   5  25
HETATM   25  C   UNL     1      -4.767   3.191 -32.356  1.00  0.00    -0.030 A 
HETATM   26  C   UNL     1      -5.308   3.912 -33.435  1.00  0.00     0.012 A 
HETATM   27  C   UNL     1      -4.497   4.698 -34.259  1.00  0.00     0.037 A 
HETATM   28  C   UNL     1      -3.131   4.815 -34.013  1.00  0.00     0.068 A 
HETATM   29  C   UNL     1      -2.581   4.138 -32.928  1.00  0.00     0.037 A 
HETATM   30  C   UNL     1      -3.390   3.335 -32.112  1.00  0.00     0.012 A 
BRANCH  28  31
HETATM   31  O   UNL     1      -2.457   5.612 -34.898  1.00  0.00    -0.356 OA
HETATM   32  C   UNL     1      -1.132   5.986 -34.546  1.00  0.00     0.210 C 
ENDBRANCH  28  31
ENDBRANCH   5  25
TORSDOF 5
ENDMDL
MODEL 6
REMARK VINA RESULT:      -8.7      1.903      7.149
REMARK  5 active torsions:
REMARK  status: ('A' for Active; 'I' for Inactive)
REMARK    1  A    between atoms: C_5  and  C_6 
REMARK    2  A    between atoms: C_9  and  O_10 
REMARK    3  A    between atoms: N_14  and  C_15 
REMARK    4  A    between atoms: C_15  and  C_16 
REMARK       I    between atoms: C_16  and  N_17 
REMARK    5  A    between atoms: N_17  and  C_18 
ROOT
HETATM    1  C   UNL     1      -6.804  -1.381 -34.953  1.00  0.00     0.156 C 
HETATM    2  N   UNL     1      -6.110  -0.484 -34.060  1.00  0.00    -0.346 N 
HETATM    3  C   UNL     1      -6.441   0.805 -33.816  1.00  0.00     0.113 A 
HETATM    4  C   UNL     1      -5.551   1.348 -32.932  1.00  0.00     0.014 A 
HETATM    5  C   UNL     1      -5.906   2.760 -32.639  1.00  0.00     0.158 A 
HETATM    6  N   UNL     1      -7.171   2.875 -33.414  1.00  0.00    -0.325 N 
HETATM    7  C   UNL     1      -7.484   1.718 -34.143  1.00  0.00     0.272 A 
HETATM    8  O   UNL     1      -8.479   1.515 -34.818  1.00  0.00    -0.266 OA
HETATM    9  C   UNL     1      -4.649   0.343 -32.543  1.00  0.00     0.002 A 
HETATM   10  C   UNL     1      -5.017  -0.811 -33.265  1.00  0.00     0.045 A 
HETATM   11  C   UNL     1      -3.570   0.276 -31.644  1.00  0.00     0.014 A 
HETATM   12  C   UNL     1      -2.889  -0.934 -31.479  1.00  0.00     0.001 A 
HETATM   13  C   UNL     1      -3.267  -2.066 -32.198  1.00  0.00     0.002 A 
HETATM   14  C   UNL     1      -4.331  -2.025 -33.104  1.00  0.00     0.030 A 
ENDROOT
BRANCH   6  15
HETATM   15  C   UNL     1      -8.233   3.744 -32.947  1.00  0.00     0.229 C 
BRANCH  15  16
HETATM   16  C   UNL     1      -9.485   3.027 -32.464  1.00  0.00     0.235 C 
HETATM   17  N   UNL     1     -10.575   3.152 -33.300  1.00  0.00    -0.355 N 
HETATM   18  H   UNL     1     -10.452   3.683 -34.155  1.00  0.00     0.162 HD
HETATM   19  O   UNL     1      -9.468   2.300 -31.473  1.00  0.00    -0.272 OA
BRANCH  17  20
HETATM   20  C   UNL     1     -11.700   2.253 -33.176  1.00  0.00     0.084 C 
HETATM   21  C   UNL     1     -13.018   2.967 -32.904  1.00  0.00     0.025 C 
HETATM   22  C   UNL     1     -14.050   1.914 -33.279  1.00  0.00     0.002 C 
HETATM   23  C   UNL     1     -13.479   1.247 -34.524  1.00  0.00     0.002 C 
HETATM   24  C   UNL     1     -11.968   1.476 -34.472  1.00  0.00     0.025 C 
ENDBRANCH  17  20
ENDBRANCH  15  16
ENDBRANCH   6  15
BRANCH   5  25
HETATM   25  C   UNL     1      -4.810   3.675 -33.151  1.00  0.00    -0.030 A 
HETATM   26  C   UNL     1      -3.559   3.833 -32.531  1.00  0.00     0.012 A 
HETATM   27  C   UNL     1      -2.598   4.706 -33.051  1.00  0.00     0.037 A 
HETATM   28  C   UNL     1      -2.844   5.422 -34.221  1.00  0.00     0.068 A 
HETATM   29  C   UNL     1      -4.064   5.252 -34.871  1.00  0.00     0.037 A 
HETATM   30  C   UNL     1      -5.034   4.390 -34.341  1.00  0.00     0.012 A 
BRANCH  28  31
HETATM   31  O   UNL     1      -1.822   6.240 -34.616  1.00  0.00    -0.356 OA
HETATM   32  C   UNL     1      -1.156   6.975 -33.598  1.00  0.00     0.210 C 
ENDBRANCH  28  31
ENDBRANCH   5  25
TORSDOF 5
ENDMDL
MODEL 7
REMARK VINA RESULT:      -8.5      3.051      6.300
REMARK  5 active torsions:
REMARK  status: ('A' for Active; 'I' for Inactive)
REMARK    1  A    between atoms: C_5  and  C_6 
REMARK    2  A    between atoms: C_9  and  O_10 
REMARK    3  A    between atoms: N_14  and  C_15 
REMARK    4  A    between atoms: C_15  and  C_16 
REMARK       I    between atoms: C_16  and  N_17 
REMARK    5  A    between atoms: N_17  and  C_18 
ROOT
HETATM    1  C   UNL     1     -10.716   4.512 -35.446  1.00  0.00     0.156 C 
HETATM    2  N   UNL     1     -10.413   3.328 -34.678  1.00  0.00    -0.346 N 
HETATM    3  C   UNL     1      -9.253   3.080 -34.028  1.00  0.00     0.113 A 
HETATM    4  C   UNL     1      -9.318   1.855 -33.424  1.00  0.00     0.014 A 
HETATM    5  C   UNL     1      -8.058   1.570 -32.692  1.00  0.00     0.158 A 
HETATM    6  N   UNL     1      -7.339   2.855 -32.903  1.00  0.00    -0.325 N 
HETATM    7  C   UNL     1      -8.036   3.754 -33.725  1.00  0.00     0.272 A 
HETATM    8  O   UNL     1      -7.711   4.891 -34.020  1.00  0.00    -0.266 OA
HETATM    9  C   UNL     1     -10.600   1.325 -33.643  1.00  0.00     0.002 A 
HETATM   10  C   UNL     1     -11.282   2.269 -34.437  1.00  0.00     0.045 A 
HETATM   11  C   UNL     1     -11.269   0.155 -33.242  1.00  0.00     0.014 A 
HETATM   12  C   UNL     1     -12.598  -0.044 -33.631  1.00  0.00     0.001 A 
HETATM   13  C   UNL     1     -13.257   0.900 -34.414  1.00  0.00     0.002 A 
HETATM   14  C   UNL     1     -12.614   2.069 -34.833  1.00  0.00     0.030 A 
ENDROOT
BRANCH   6  15
HETATM   15  C   UNL     1      -6.433   3.357 -31.889  1.00  0.00     0.229 C 
BRANCH  15  16
HETATM   16  C   UNL     1      -7.103   3.833 -30.609  1.00  0.00     0.235 C 
HETATM   17  N   UNL     1      -7.525   5.145 -30.637  1.00  0.00    -0.355 N 
HETATM   18  H   UNL     1      -7.375   5.669 -31.493  1.00  0.00     0.162 HD
HETATM   19  O   UNL     1      -7.348   3.060 -29.685  1.00  0.00    -0.272 OA
BRANCH  17  20
HETATM   20  C   UNL     1      -8.481   5.629 -29.666  1.00  0.00     0.084 C 
HETATM   21  C   UNL     1      -7.845   6.432 -28.540  1.00  0.00     0.025 C 
HETATM   22  C   UNL     1      -9.031   7.190 -27.960  1.00  0.00     0.002 C 
HETATM   23  C   UNL     1      -9.855   7.595 -29.177  1.00  0.00     0.002 C 
HETATM   24  C   UNL     1      -9.492   6.605 -30.284  1.00  0.00     0.025 C 
ENDBRANCH  17  20
ENDBRANCH  15  16
ENDBRANCH   6  15
BRANCH   5  25
HETATM   25  C   UNL     1      -7.358   0.386 -33.331  1.00  0.00    -0.030 A 
HETATM   26  C   UNL     1      -7.671  -0.127 -34.602  1.00  0.00     0.012 A 
HETATM   27  C   UNL     1      -6.992  -1.233 -35.123  1.00  0.00     0.037 A 
HETATM   28  C   UNL     1      -5.961  -1.839 -34.409  1.00  0.00     0.068 A 
HETATM   29  C   UNL     1      -5.611  -1.324 -33.163  1.00  0.00     0.037 A 
HETATM   30  C   UNL     1      -6.303  -0.227 -32.631  1.00  0.00     0.012 A 
BRANCH  28  31
HETATM   31  O   UNL     1      -5.387  -2.911 -35.034  1.00  0.00    -0.356 OA
HETATM   32  C   UNL     1      -6.194  -4.069 -35.197  1.00  0.00     0.210 C 
ENDBRANCH  28  31
ENDBRANCH   5  25
TORSDOF 5
ENDMDL
MODEL 8
REMARK VINA RESULT:      -8.5      1.985      3.045
REMARK  5 active torsions:
REMARK  status: ('A' for Active; 'I' for Inactive)
REMARK    1  A    between atoms: C_5  and  C_6 
REMARK    2  A    between atoms: C_9  and  O_10 
REMARK    3  A    between atoms: N_14  and  C_15 
REMARK    4  A    between atoms: C_15  and  C_16 
REMARK       I    between atoms: C_16  and  N_17 
REMARK    5  A    between atoms: N_17  and  C_18 
ROOT
HETATM    1  C   UNL     1      -2.597  -3.466 -31.361  1.00  0.00     0.156 C 
HETATM    2  N   UNL     1      -3.465  -2.859 -32.341  1.00  0.00    -0.346 N 
HETATM    3  C   UNL     1      -3.721  -1.536 -32.462  1.00  0.00     0.113 A 
HETATM    4  C   UNL     1      -4.602  -1.331 -33.488  1.00  0.00     0.014 A 
HETATM    5  C   UNL     1      -4.885   0.118 -33.646  1.00  0.00     0.158 A 
HETATM    6  N   UNL     1      -3.957   0.676 -32.625  1.00  0.00    -0.325 N 
HETATM    7  C   UNL     1      -3.278  -0.308 -31.893  1.00  0.00     0.272 A 
HETATM    8  O   UNL     1      -2.426  -0.139 -31.038  1.00  0.00    -0.266 OA
HETATM    9  C   UNL     1      -4.870  -2.571 -34.091  1.00  0.00     0.002 A 
HETATM   10  C   UNL     1      -4.142  -3.528 -33.355  1.00  0.00     0.045 A 
HETATM   11  C   UNL     1      -5.636  -2.989 -35.194  1.00  0.00     0.014 A 
HETATM   12  C   UNL     1      -5.654  -4.344 -35.542  1.00  0.00     0.001 A 
HETATM   13  C   UNL     1      -4.927  -5.276 -34.805  1.00  0.00     0.002 A 
HETATM   14  C   UNL     1      -4.163  -4.889 -33.701  1.00  0.00     0.030 A 
ENDROOT
BRANCH   6  15
HETATM   15  C   UNL     1      -3.347   1.975 -32.830  1.00  0.00     0.229 C 
BRANCH  15  16
HETATM   16  C   UNL     1      -3.616   2.992 -31.731  1.00  0.00     0.235 C 
HETATM   17  N   UNL     1      -2.835   4.126 -31.797  1.00  0.00    -0.355 N 
HETATM   18  H   UNL     1      -2.173   4.197 -32.563  1.00  0.00     0.162 HD
HETATM   19  O   UNL     1      -4.542   2.850 -30.935  1.00  0.00    -0.272 OA
BRANCH  17  20
HETATM   20  C   UNL     1      -3.208   5.318 -31.068  1.00  0.00     0.084 C 
HETATM   21  C   UNL     1      -2.018   6.172 -30.655  1.00  0.00     0.025 C 
HETATM   22  C   UNL     1      -2.662   7.518 -30.355  1.00  0.00     0.002 C 
HETATM   23  C   UNL     1      -3.721   7.682 -31.438  1.00  0.00     0.002 C 
HETATM   24  C   UNL     1      -4.064   6.271 -31.914  1.00  0.00     0.025 C 
ENDBRANCH  17  20
ENDBRANCH  15  16
ENDBRANCH   6  15
BRANCH   5  25
HETATM   25  C   UNL     1      -6.344   0.387 -33.333  1.00  0.00    -0.030 A 
HETATM   26  C   UNL     1      -7.343   0.560 -34.308  1.00  0.00     0.012 A 
HETATM   27  C   UNL     1      -8.669   0.818 -33.947  1.00  0.00     0.037 A 
HETATM   28  C   UNL     1      -9.045   0.879 -32.607  1.00  0.00     0.068 A 
HETATM   29  C   UNL     1      -8.078   0.674 -31.626  1.00  0.00     0.037 A 
HETATM   30  C   UNL     1      -6.745   0.433 -31.986  1.00  0.00     0.012 A 
BRANCH  28  31
HETATM   31  O   UNL     1     -10.370   1.142 -32.397  1.00  0.00    -0.356 OA
HETATM   32  C   UNL     1     -11.190   1.275 -33.549  1.00  0.00     0.210 C 
ENDBRANCH  28  31
ENDBRANCH   5  25
TORSDOF 5
ENDMDL
MODEL 9
REMARK VINA RESULT:      -8.5      2.588      6.573
REMARK  5 active torsions:
REMARK  status: ('A' for Active; 'I' for Inactive)
REMARK    1  A    between atoms: C_5  and  C_6 
REMARK    2  A    between atoms: C_9  and  O_10 
REMARK    3  A    between atoms: N_14  and  C_15 
REMARK    4  A    between atoms: C_15  and  C_16 
REMARK       I    between atoms: C_16  and  N_17 
REMARK    5  A    between atoms: N_17  and  C_18 
ROOT
HETATM    1  C   UNL     1      -3.146   6.483 -31.343  1.00  0.00     0.156 C 
HETATM    2  N   UNL     1      -4.195   5.592 -30.907  1.00  0.00    -0.346 N 
HETATM    3  C   UNL     1      -4.259   4.263 -31.151  1.00  0.00     0.113 A 
HETATM    4  C   UNL     1      -5.401   3.749 -30.602  1.00  0.00     0.014 A 
HETATM    5  C   UNL     1      -5.482   2.287 -30.847  1.00  0.00     0.158 A 
HETATM    6  N   UNL     1      -4.174   2.064 -31.520  1.00  0.00    -0.325 N 
HETATM    7  C   UNL     1      -3.448   3.246 -31.731  1.00  0.00     0.272 A 
HETATM    8  O   UNL     1      -2.332   3.354 -32.209  1.00  0.00    -0.266 OA
HETATM    9  C   UNL     1      -6.065   4.784 -29.921  1.00  0.00     0.002 A 
HETATM   10  C   UNL     1      -5.289   5.943 -30.122  1.00  0.00     0.045 A 
HETATM   11  C   UNL     1      -7.230   4.865 -29.138  1.00  0.00     0.014 A 
HETATM   12  C   UNL     1      -7.591   6.090 -28.570  1.00  0.00     0.001 A 
HETATM   13  C   UNL     1      -6.812   7.226 -28.777  1.00  0.00     0.002 A 
HETATM   14  C   UNL     1      -5.653   7.176 -29.556  1.00  0.00     0.030 A 
ENDROOT
BRANCH   6  15
HETATM   15  C   UNL     1      -3.474   0.807 -31.350  1.00  0.00     0.229 C 
BRANCH  15  16
HETATM   16  C   UNL     1      -3.558  -0.141 -32.538  1.00  0.00     0.235 C 
HETATM   17  N   UNL     1      -4.702  -0.910 -32.576  1.00  0.00    -0.355 N 
HETATM   18  H   UNL     1      -5.385  -0.773 -31.838  1.00  0.00     0.162 HD
HETATM   19  O   UNL     1      -2.725  -0.116 -33.441  1.00  0.00    -0.272 OA
BRANCH  17  20
HETATM   20  C   UNL     1      -5.099  -1.575 -33.798  1.00  0.00     0.084 C 
HETATM   21  C   UNL     1      -4.577  -3.001 -33.906  1.00  0.00     0.025 C 
HETATM   22  C   UNL     1      -5.478  -3.604 -34.975  1.00  0.00     0.002 C 
HETATM   23  C   UNL     1      -6.858  -3.031 -34.677  1.00  0.00     0.002 C 
HETATM   24  C   UNL     1      -6.621  -1.734 -33.904  1.00  0.00     0.025 C 
ENDBRANCH  17  20
ENDBRANCH  15  16
ENDBRANCH   6  15
BRANCH   5  25
HETATM   25  C   UNL     1      -6.670   1.988 -31.740  1.00  0.00    -0.030 A 
HETATM   26  C   UNL     1      -7.933   1.590 -31.269  1.00  0.00     0.012 A 
HETATM   27  C   UNL     1      -8.982   1.317 -32.153  1.00  0.00     0.037 A 
HETATM   28  C   UNL     1      -8.812   1.463 -33.528  1.00  0.00     0.068 A 
HETATM   29  C   UNL     1      -7.579   1.891 -34.013  1.00  0.00     0.037 A 
HETATM   30  C   UNL     1      -6.522   2.148 -33.129  1.00  0.00     0.012 A 
BRANCH  28  31
HETATM   31  O   UNL     1      -9.917   1.159 -34.275  1.00  0.00    -0.356 OA
HETATM   32  C   UNL     1     -11.119   0.893 -33.567  1.00  0.00     0.210 C 
ENDBRANCH  28  31
ENDBRANCH   5  25
TORSDOF 5
ENDMDL
MODEL 10
REMARK VINA RESULT:      -8.5      2.408      6.878
REMARK  5 active torsions:
REMARK  status: ('A' for Active; 'I' for Inactive)
REMARK    1  A    between atoms: C_5  and  C_6 
REMARK    2  A    between atoms: C_9  and  O_10 
REMARK    3  A    between atoms: N_14  and  C_15 
REMARK    4  A    between atoms: C_15  and  C_16 
REMARK       I    between atoms: C_16  and  N_17 
REMARK    5  A    between atoms: N_17  and  C_18 
ROOT
HETATM    1  C   UNL     1      -3.930   8.049 -30.967  1.00  0.00     0.156 C 
HETATM    2  N   UNL     1      -4.028   7.068 -32.021  1.00  0.00    -0.346 N 
HETATM    3  C   UNL     1      -5.150   6.410 -32.391  1.00  0.00     0.113 A 
HETATM    4  C   UNL     1      -4.862   5.546 -33.410  1.00  0.00     0.014 A 
HETATM    5  C   UNL     1      -6.086   4.824 -33.841  1.00  0.00     0.158 A 
HETATM    6  N   UNL     1      -7.097   5.491 -32.978  1.00  0.00    -0.325 N 
HETATM    7  C   UNL     1      -6.541   6.422 -32.088  1.00  0.00     0.272 A 
HETATM    8  O   UNL     1      -7.136   7.147 -31.308  1.00  0.00    -0.266 OA
HETATM    9  C   UNL     1      -3.507   5.705 -33.751  1.00  0.00     0.002 A 
HETATM   10  C   UNL     1      -2.994   6.672 -32.864  1.00  0.00     0.045 A 
HETATM   11  C   UNL     1      -2.661   5.149 -34.727  1.00  0.00     0.014 A 
HETATM   12  C   UNL     1      -1.330   5.573 -34.802  1.00  0.00     0.001 A 
HETATM   13  C   UNL     1      -0.839   6.531 -33.919  1.00  0.00     0.002 A 
HETATM   14  C   UNL     1      -1.656   7.095 -32.935  1.00  0.00     0.030 A 
ENDROOT
BRANCH   6  15
HETATM   15  C   UNL     1      -8.455   5.666 -33.451  1.00  0.00     0.229 C 
BRANCH  15  16
HETATM   16  C   UNL     1      -9.458   4.655 -32.915  1.00  0.00     0.235 C 
HETATM   17  N   UNL     1      -9.434   3.432 -33.551  1.00  0.00    -0.355 N 
HETATM   18  H   UNL     1      -8.756   3.302 -34.295  1.00  0.00     0.162 HD
HETATM   19  O   UNL     1     -10.135   4.889 -31.916  1.00  0.00    -0.272 OA
BRANCH  17  20
HETATM   20  C   UNL     1     -10.048   2.275 -32.939  1.00  0.00     0.084 C 
HETATM   21  C   UNL     1     -10.299   1.135 -33.918  1.00  0.00     0.025 C 
HETATM   22  C   UNL     1     -10.485  -0.060 -32.995  1.00  0.00     0.002 C 
HETATM   23  C   UNL     1      -9.451   0.143 -31.895  1.00  0.00     0.002 C 
HETATM   24  C   UNL     1      -9.152   1.642 -31.866  1.00  0.00     0.025 C 
ENDBRANCH  17  20
ENDBRANCH  15  16
ENDBRANCH   6  15
BRANCH   5  25
HETATM   25  C   UNL     1      -5.933   3.345 -33.544  1.00  0.00    -0.030 A 
HETATM   26  C   UNL     1      -5.281   2.829 -32.410  1.00  0.00     0.012 A 
HETATM   27  C   UNL     1      -5.165   1.451 -32.206  1.00  0.00     0.037 A 
HETATM   28  C   UNL     1      -5.722   0.547 -33.108  1.00  0.00     0.068 A 
HETATM   29  C   UNL     1      -6.404   1.037 -34.218  1.00  0.00     0.037 A 
HETATM   30  C   UNL     1      -6.505   2.418 -34.434  1.00  0.00     0.012 A 
BRANCH  28  31
HETATM   31  O   UNL     1      -5.532  -0.769 -32.789  1.00  0.00    -0.356 OA
HETATM   32  C   UNL     1      -4.197  -1.254 -32.827  1.00  0.00     0.210 C 
ENDBRANCH  28  31
ENDBRANCH   5  25
TORSDOF 5
ENDMDL
