MODEL 1
REMARK VINA RESULT:      -8.2      0.000      0.000
REMARK  3 active torsions:
REMARK  status: ('A' for Active; 'I' for Inactive)
REMARK    1  A    between atoms: C_4  and  N_5 
REMARK       I    between atoms: N_5  and  C_6 
REMARK    2  A    between atoms: C_6  and  C_7 
REMARK    3  A    between atoms: C_7  and  C_8 
ROOT
HETATM    1  C   UNL     1      -4.817   2.300 -31.443  1.00  0.00     0.286 C 
HETATM    2  N   UNL     1      -3.670   2.808 -32.327  1.00  0.00    -0.056 N 
HETATM    3  H   UNL     1      -3.026   2.019 -32.521  1.00  0.00     0.278 HD
HETATM    4  H   UNL     1      -4.052   3.102 -33.234  1.00  0.00     0.278 HD
HETATM    5  C   UNL     1      -2.847   3.918 -31.726  1.00  0.00     0.209 C 
HETATM    6  C   UNL     1      -3.783   5.027 -31.211  1.00  0.00     0.115 C 
HETATM    7  N   UNL     1      -4.741   4.498 -30.254  1.00  0.00    -0.353 N 
HETATM    8  C   UNL     1      -5.400   3.313 -30.441  1.00  0.00     0.249 C 
HETATM    9  O   UNL     1      -6.421   3.071 -29.803  1.00  0.00    -0.271 OA
HETATM   10  C   UNL     1      -1.872   4.451 -32.771  1.00  0.00     0.035 C 
HETATM   11  C   UNL     1      -1.055   5.606 -32.195  1.00  0.00     0.002 C 
HETATM   12  C   UNL     1      -1.943   6.708 -31.616  1.00  0.00     0.002 C 
HETATM   13  C   UNL     1      -2.959   6.166 -30.608  1.00  0.00     0.027 C 
HETATM   14  H   UNL     1      -5.233   5.140 -29.636  1.00  0.00     0.163 HD
ENDROOT
BRANCH   1  15
HETATM   15  C   UNL     1      -4.494   0.960 -30.776  1.00  0.00     0.146 C 
BRANCH  15  16
HETATM   16  C   UNL     1      -3.380   0.253 -31.484  1.00  0.00     0.224 C 
HETATM   17  N   UNL     1      -3.500  -0.561 -32.554  1.00  0.00    -0.327 N 
HETATM   18  H   UNL     1      -2.585  -0.924 -32.815  1.00  0.00     0.169 HD
HETATM   19  O   UNL     1      -2.261   0.330 -30.947  1.00  0.00    -0.273 OA
BRANCH  17  20
HETATM   20  C   UNL     1      -4.544  -1.023 -33.380  1.00  0.00     0.035 A 
HETATM   21  C   UNL     1      -5.605  -0.272 -33.880  1.00  0.00     0.036 A 
HETATM   22  C   UNL     1      -6.604  -0.862 -34.678  1.00  0.00    -0.060 A 
HETATM   23  C   UNL     1      -7.726  -0.033 -35.236  1.00  0.00     0.048 C 
HETATM   24  C   UNL     1      -6.522  -2.219 -34.998  1.00  0.00     0.007 A 
HETATM   25  C   UNL     1      -5.463  -2.980 -34.517  1.00  0.00     0.003 A 
HETATM   26  C   UNL     1      -4.486  -2.386 -33.717  1.00  0.00     0.029 A 
ENDBRANCH  17  20
ENDBRANCH  15  16
ENDBRANCH   1  15
TORSDOF 3
ENDMDL
MODEL 2
REMARK VINA RESULT:      -8.2      4.516      6.308
REMARK  3 active torsions:
REMARK  status: ('A' for Active; 'I' for Inactive)
REMARK    1  A    between atoms: C_4  and  N_5 
REMARK       I    between atoms: N_5  and  C_6 
REMARK    2  A    between atoms: C_6  and  C_7 
REMARK    3  A    between atoms: C_7  and  C_8 
ROOT
HETATM    1  C   UNL     1      -9.090   0.541 -33.834  1.00  0.00     0.286 C 
HETATM    2  N   UNL     1      -9.065   1.889 -34.567  1.00  0.00    -0.056 N 
HETATM    3  H   UNL     1      -8.100   2.269 -34.531  1.00  0.00     0.278 HD
HETATM    4  H   UNL     1      -9.280   1.735 -35.560  1.00  0.00     0.278 HD
HETATM    5  C   UNL     1      -9.980   2.942 -33.995  1.00  0.00     0.209 C 
HETATM    6  C   UNL     1     -11.390   2.349 -33.815  1.00  0.00     0.115 C 
HETATM    7  N   UNL     1     -11.353   1.164 -32.975  1.00  0.00    -0.353 N 
HETATM    8  C   UNL     1     -10.399   0.191 -33.104  1.00  0.00     0.249 C 
HETATM    9  O   UNL     1     -10.590  -0.924 -32.627  1.00  0.00    -0.271 OA
HETATM   10  C   UNL     1      -9.998   4.156 -34.918  1.00  0.00     0.035 C 
HETATM   11  C   UNL     1     -10.951   5.220 -34.378  1.00  0.00     0.002 C 
HETATM   12  C   UNL     1     -12.353   4.663 -34.126  1.00  0.00     0.002 C 
HETATM   13  C   UNL     1     -12.331   3.412 -33.245  1.00  0.00     0.027 C 
HETATM   14  H   UNL     1     -12.216   0.829 -32.551  1.00  0.00     0.163 HD
ENDROOT
BRANCH   1  15
HETATM   15  C   UNL     1      -7.866   0.338 -32.938  1.00  0.00     0.146 C 
BRANCH  15  16
HETATM   16  C   UNL     1      -6.595   0.639 -33.673  1.00  0.00     0.224 C 
HETATM   17  N   UNL     1      -5.733  -0.264 -34.184  1.00  0.00    -0.327 N 
HETATM   18  H   UNL     1      -4.943   0.217 -34.610  1.00  0.00     0.169 HD
HETATM   19  O   UNL     1      -6.252   1.834 -33.693  1.00  0.00    -0.273 OA
BRANCH  17  20
HETATM   20  C   UNL     1      -5.652  -1.667 -34.277  1.00  0.00     0.035 A 
HETATM   21  C   UNL     1      -4.557  -2.462 -33.949  1.00  0.00     0.036 A 
HETATM   22  C   UNL     1      -4.595  -3.861 -34.113  1.00  0.00    -0.060 A 
HETATM   23  C   UNL     1      -3.416  -4.709 -33.727  1.00  0.00     0.048 C 
HETATM   24  C   UNL     1      -5.759  -4.469 -34.589  1.00  0.00     0.007 A 
HETATM   25  C   UNL     1      -6.865  -3.692 -34.909  1.00  0.00     0.003 A 
HETATM   26  C   UNL     1      -6.810  -2.306 -34.753  1.00  0.00     0.029 A 
ENDBRANCH  17  20
ENDBRANCH  15  16
ENDBRANCH   1  15
TORSDOF 3
ENDMDL
MODEL 3
REMARK VINA RESULT:      -8.1      1.827      2.650
REMARK  3 active torsions:
REMARK  status: ('A' for Active; 'I' for Inactive)
REMARK    1  A    between atoms: C_4  and  N_5 
REMARK       I    between atoms: N_5  and  C_6 
REMARK    2  A    between atoms: C_6  and  C_7 
REMARK    3  A    between atoms: C_7  and  C_8 
ROOT
HETATM    1  C   UNL     1      -5.309   3.384 -32.339  1.00  0.00     0.286 C 
HETATM    2  N   UNL     1      -4.699   4.086 -33.560  1.00  0.00    -0.056 N 
HETATM    3  H   UNL     1      -4.800   3.465 -34.385  1.00  0.00     0.278 HD
HETATM    4  H   UNL     1      -5.243   4.933 -33.765  1.00  0.00     0.278 HD
HETATM    5  C   UNL     1      -3.236   4.426 -33.434  1.00  0.00     0.209 C 
HETATM    6  C   UNL     1      -2.995   5.159 -32.101  1.00  0.00     0.115 C 
HETATM    7  N   UNL     1      -3.454   4.360 -30.977  1.00  0.00    -0.353 N 
HETATM    8  C   UNL     1      -4.643   3.681 -30.984  1.00  0.00     0.249 C 
HETATM    9  O   UNL     1      -5.143   3.309 -29.927  1.00  0.00    -0.271 OA
HETATM   10  C   UNL     1      -2.807   5.277 -34.625  1.00  0.00     0.035 C 
HETATM   11  C   UNL     1      -1.336   5.668 -34.496  1.00  0.00     0.002 C 
HETATM   12  C   UNL     1      -1.035   6.347 -33.160  1.00  0.00     0.002 C 
HETATM   13  C   UNL     1      -1.514   5.519 -31.966  1.00  0.00     0.027 C 
HETATM   14  H   UNL     1      -3.122   4.583 -30.041  1.00  0.00     0.163 HD
ENDROOT
BRANCH   1  15
HETATM   15  C   UNL     1      -5.502   1.882 -32.563  1.00  0.00     0.146 C 
BRANCH  15  16
HETATM   16  C   UNL     1      -6.547   1.614 -33.601  1.00  0.00     0.224 C 
HETATM   17  N   UNL     1      -6.727   0.461 -34.278  1.00  0.00    -0.327 N 
HETATM   18  H   UNL     1      -7.494   0.565 -34.939  1.00  0.00     0.169 HD
HETATM   19  O   UNL     1      -7.222   2.597 -33.956  1.00  0.00    -0.273 OA
BRANCH  17  20
HETATM   20  C   UNL     1      -6.138  -0.819 -34.298  1.00  0.00     0.035 A 
HETATM   21  C   UNL     1      -6.704  -1.989 -34.799  1.00  0.00     0.036 A 
HETATM   22  C   UNL     1      -6.017  -3.217 -34.736  1.00  0.00    -0.060 A 
HETATM   23  C   UNL     1      -6.628  -4.465 -35.308  1.00  0.00     0.048 C 
HETATM   24  C   UNL     1      -4.735  -3.264 -34.184  1.00  0.00     0.007 A 
HETATM   25  C   UNL     1      -4.151  -2.105 -33.691  1.00  0.00     0.003 A 
HETATM   26  C   UNL     1      -4.847  -0.895 -33.749  1.00  0.00     0.029 A 
ENDBRANCH  17  20
ENDBRANCH  15  16
ENDBRANCH   1  15
TORSDOF 3
ENDMDL
MODEL 4
REMARK VINA RESULT:      -8.1      2.867      5.893
REMARK  3 active torsions:
REMARK  status: ('A' for Active; 'I' for Inactive)
REMARK    1  A    between atoms: C_4  and  N_5 
REMARK       I    between atoms: N_5  and  C_6 
REMARK    2  A    between atoms: C_6  and  C_7 
REMARK    3  A    between atoms: C_7  and  C_8 
ROOT
HETATM    1  C   UNL     1      -5.064   1.981 -32.543  1.00  0.00     0.286 C 
HETATM    2  N   UNL     1      -5.926   1.242 -33.576  1.00  0.00    -0.056 N 
HETATM    3  H   UNL     1      -6.919   1.505 -33.429  1.00  0.00     0.278 HD
HETATM    4  H   UNL     1      -5.674   1.569 -34.517  1.00  0.00     0.278 HD
HETATM    5  C   UNL     1      -5.849  -0.262 -33.510  1.00  0.00     0.209 C 
HETATM    6  C   UNL     1      -4.372  -0.697 -33.496  1.00  0.00     0.115 C 
HETATM    7  N   UNL     1      -3.657  -0.080 -32.392  1.00  0.00    -0.353 N 
HETATM    8  C   UNL     1      -3.809   1.238 -32.052  1.00  0.00     0.249 C 
HETATM    9  O   UNL     1      -2.964   1.794 -31.357  1.00  0.00    -0.271 OA
HETATM   10  C   UNL     1      -6.597  -0.862 -34.697  1.00  0.00     0.035 C 
HETATM   11  C   UNL     1      -6.497  -2.386 -34.672  1.00  0.00     0.002 C 
HETATM   12  C   UNL     1      -5.047  -2.866 -34.598  1.00  0.00     0.002 C 
HETATM   13  C   UNL     1      -4.280  -2.224 -33.441  1.00  0.00     0.027 C 
HETATM   14  H   UNL     1      -2.767  -0.473 -32.094  1.00  0.00     0.163 HD
ENDROOT
BRANCH   1  15
HETATM   15  C   UNL     1      -5.890   2.536 -31.380  1.00  0.00     0.146 C 
BRANCH  15  16
HETATM   16  C   UNL     1      -6.572   1.438 -30.622  1.00  0.00     0.224 C 
HETATM   17  N   UNL     1      -7.839   1.008 -30.802  1.00  0.00    -0.327 N 
HETATM   18  H   UNL     1      -8.049   0.268 -30.136  1.00  0.00     0.169 HD
HETATM   19  O   UNL     1      -5.943   0.976 -29.654  1.00  0.00    -0.273 OA
BRANCH  17  20
HETATM   20  C   UNL     1      -8.915   1.317 -31.657  1.00  0.00     0.035 A 
HETATM   21  C   UNL     1      -9.518   2.561 -31.822  1.00  0.00     0.036 A 
HETATM   22  C   UNL     1     -10.610   2.733 -32.694  1.00  0.00    -0.060 A 
HETATM   23  C   UNL     1     -11.231   4.088 -32.885  1.00  0.00     0.048 C 
HETATM   24  C   UNL     1     -11.086   1.645 -33.430  1.00  0.00     0.007 A 
HETATM   25  C   UNL     1     -10.488   0.399 -33.287  1.00  0.00     0.003 A 
HETATM   26  C   UNL     1      -9.413   0.239 -32.409  1.00  0.00     0.029 A 
ENDBRANCH  17  20
ENDBRANCH  15  16
ENDBRANCH   1  15
TORSDOF 3
ENDMDL
MODEL 5
REMARK VINA RESULT:      -8.1      2.264      3.424
REMARK  3 active torsions:
REMARK  status: ('A' for Active; 'I' for Inactive)
REMARK    1  A    between atoms: C_4  and  N_5 
REMARK       I    between atoms: N_5  and  C_6 
REMARK    2  A    between atoms: C_6  and  C_7 
REMARK    3  A    between atoms: C_7  and  C_8 
ROOT
HETATM    1  C   UNL     1      -3.467   4.129 -33.428  1.00  0.00     0.286 C 
HETATM    2  N   UNL     1      -2.504   3.917 -32.252  1.00  0.00    -0.056 N 
HETATM    3  H   UNL     1      -3.029   3.492 -31.465  1.00  0.00     0.278 HD
HETATM    4  H   UNL     1      -1.787   3.234 -32.526  1.00  0.00     0.278 HD
HETATM    5  C   UNL     1      -1.852   5.171 -31.729  1.00  0.00     0.209 C 
HETATM    6  C   UNL     1      -1.247   5.961 -32.904  1.00  0.00     0.115 C 
HETATM    7  N   UNL     1      -2.257   6.265 -33.903  1.00  0.00    -0.353 N 
HETATM    8  C   UNL     1      -3.187   5.351 -34.322  1.00  0.00     0.249 C 
HETATM    9  O   UNL     1      -3.787   5.525 -35.378  1.00  0.00    -0.271 OA
HETATM   10  C   UNL     1      -0.790   4.800 -30.699  1.00  0.00     0.035 C 
HETATM   11  C   UNL     1      -0.087   6.056 -30.184  1.00  0.00     0.002 C 
HETATM   12  C   UNL     1       0.480   6.905 -31.322  1.00  0.00     0.002 C 
HETATM   13  C   UNL     1      -0.572   7.232 -32.384  1.00  0.00     0.027 C 
HETATM   14  H   UNL     1      -2.076   6.998 -34.586  1.00  0.00     0.163 HD
ENDROOT
BRANCH   1  15
HETATM   15  C   UNL     1      -4.936   4.060 -33.001  1.00  0.00     0.146 C 
BRANCH  15  16
HETATM   16  C   UNL     1      -5.132   3.094 -31.873  1.00  0.00     0.224 C 
HETATM   17  N   UNL     1      -5.614   1.838 -31.970  1.00  0.00    -0.327 N 
HETATM   18  H   UNL     1      -5.663   1.416 -31.045  1.00  0.00     0.169 HD
HETATM   19  O   UNL     1      -4.950   3.551 -30.731  1.00  0.00    -0.273 OA
BRANCH  17  20
HETATM   20  C   UNL     1      -6.055   0.984 -33.001  1.00  0.00     0.035 A 
HETATM   21  C   UNL     1      -5.592  -0.301 -33.273  1.00  0.00     0.036 A 
HETATM   22  C   UNL     1      -6.100  -1.045 -34.356  1.00  0.00    -0.060 A 
HETATM   23  C   UNL     1      -5.613  -2.442 -34.619  1.00  0.00     0.048 C 
HETATM   24  C   UNL     1      -7.103  -0.499 -35.160  1.00  0.00     0.007 A 
HETATM   25  C   UNL     1      -7.584   0.777 -34.896  1.00  0.00     0.003 A 
HETATM   26  C   UNL     1      -7.064   1.509 -33.826  1.00  0.00     0.029 A 
ENDBRANCH  17  20
ENDBRANCH  15  16
ENDBRANCH   1  15
TORSDOF 3
ENDMDL
MODEL 6
REMARK VINA RESULT:      -8.0      3.140      5.027
REMARK  3 active torsions:
REMARK  status: ('A' for Active; 'I' for Inactive)
REMARK    1  A    between atoms: C_4  and  N_5 
REMARK       I    between atoms: N_5  and  C_6 
REMARK    2  A    between atoms: C_6  and  C_7 
REMARK    3  A    between atoms: C_7  and  C_8 
ROOT
HETATM    1  C   UNL     1      -6.440   0.781 -30.469  1.00  0.00     0.286 C 
HETATM    2  N   UNL     1      -7.607   0.045 -31.141  1.00  0.00    -0.056 N 
HETATM    3  H   UNL     1      -7.232  -0.773 -31.656  1.00  0.00     0.278 HD
HETATM    4  H   UNL     1      -8.230  -0.329 -30.414  1.00  0.00     0.278 HD
HETATM    5  C   UNL     1      -8.397   0.869 -32.126  1.00  0.00     0.209 C 
HETATM    6  C   UNL     1      -8.788   2.208 -31.473  1.00  0.00     0.115 C 
HETATM    7  N   UNL     1      -7.613   2.922 -31.004  1.00  0.00    -0.353 N 
HETATM    8  C   UNL     1      -6.585   2.308 -30.341  1.00  0.00     0.249 C 
HETATM    9  O   UNL     1      -5.796   2.975 -29.679  1.00  0.00    -0.271 OA
HETATM   10  C   UNL     1      -9.626   0.085 -32.574  1.00  0.00     0.035 C 
HETATM   11  C   UNL     1     -10.463   0.919 -33.543  1.00  0.00     0.002 C 
HETATM   12  C   UNL     1     -10.828   2.285 -32.960  1.00  0.00     0.002 C 
HETATM   13  C   UNL     1      -9.600   3.049 -32.460  1.00  0.00     0.027 C 
HETATM   14  H   UNL     1      -7.684   3.918 -30.805  1.00  0.00     0.163 HD
ENDROOT
BRANCH   1  15
HETATM   15  C   UNL     1      -5.083   0.384 -31.055  1.00  0.00     0.146 C 
BRANCH  15  16
HETATM   16  C   UNL     1      -4.940   0.856 -32.469  1.00  0.00     0.224 C 
HETATM   17  N   UNL     1      -4.998   0.090 -33.579  1.00  0.00    -0.327 N 
HETATM   18  H   UNL     1      -4.845   0.667 -34.404  1.00  0.00     0.169 HD
HETATM   19  O   UNL     1      -4.608   2.046 -32.612  1.00  0.00    -0.273 OA
BRANCH  17  20
HETATM   20  C   UNL     1      -5.214  -1.270 -33.876  1.00  0.00     0.035 A 
HETATM   21  C   UNL     1      -4.290  -2.305 -33.757  1.00  0.00     0.036 A 
HETATM   22  C   UNL     1      -4.625  -3.626 -34.114  1.00  0.00    -0.060 A 
HETATM   23  C   UNL     1      -3.628  -4.738 -33.951  1.00  0.00     0.048 C 
HETATM   24  C   UNL     1      -5.912  -3.913 -34.574  1.00  0.00     0.007 A 
HETATM   25  C   UNL     1      -6.849  -2.894 -34.687  1.00  0.00     0.003 A 
HETATM   26  C   UNL     1      -6.501  -1.587 -34.341  1.00  0.00     0.029 A 
ENDBRANCH  17  20
ENDBRANCH  15  16
ENDBRANCH   1  15
TORSDOF 3
ENDMDL
MODEL 7
REMARK VINA RESULT:      -8.0      1.772      3.370
REMARK  3 active torsions:
REMARK  status: ('A' for Active; 'I' for Inactive)
REMARK    1  A    between atoms: C_4  and  N_5 
REMARK       I    between atoms: N_5  and  C_6 
REMARK    2  A    between atoms: C_6  and  C_7 
REMARK    3  A    between atoms: C_7  and  C_8 
ROOT
HETATM    1  C   UNL     1      -5.442   0.586 -30.836  1.00  0.00     0.286 C 
HETATM    2  N   UNL     1      -5.824   2.035 -30.502  1.00  0.00    -0.056 N 
HETATM    3  H   UNL     1      -6.824   2.178 -30.737  1.00  0.00     0.278 HD
HETATM    4  H   UNL     1      -5.740   2.178 -29.488  1.00  0.00     0.278 HD
HETATM    5  C   UNL     1      -5.037   3.087 -31.242  1.00  0.00     0.209 C 
HETATM    6  C   UNL     1      -3.533   2.786 -31.110  1.00  0.00     0.115 C 
HETATM    7  N   UNL     1      -3.224   1.451 -31.596  1.00  0.00    -0.353 N 
HETATM    8  C   UNL     1      -3.995   0.358 -31.306  1.00  0.00     0.249 C 
HETATM    9  O   UNL     1      -3.534  -0.772 -31.441  1.00  0.00    -0.271 OA
HETATM   10  C   UNL     1      -5.382   4.465 -30.685  1.00  0.00     0.035 C 
HETATM   11  C   UNL     1      -4.564   5.543 -31.394  1.00  0.00     0.002 C 
HETATM   12  C   UNL     1      -3.063   5.256 -31.341  1.00  0.00     0.002 C 
HETATM   13  C   UNL     1      -2.722   3.853 -31.848  1.00  0.00     0.027 C 
HETATM   14  H   UNL     1      -2.260   1.216 -31.824  1.00  0.00     0.163 HD
ENDROOT
BRANCH   1  15
HETATM   15  C   UNL     1      -6.457  -0.088 -31.763  1.00  0.00     0.146 C 
BRANCH  15  16
HETATM   16  C   UNL     1      -6.199   0.258 -33.197  1.00  0.00     0.224 C 
HETATM   17  N   UNL     1      -5.888  -0.605 -34.186  1.00  0.00    -0.327 N 
HETATM   18  H   UNL     1      -5.743  -0.096 -35.055  1.00  0.00     0.169 HD
HETATM   19  O   UNL     1      -6.145   1.473 -33.460  1.00  0.00    -0.273 OA
BRANCH  17  20
HETATM   20  C   UNL     1      -5.717  -1.998 -34.316  1.00  0.00     0.035 A 
HETATM   21  C   UNL     1      -4.568  -2.727 -34.024  1.00  0.00     0.036 A 
HETATM   22  C   UNL     1      -4.518  -4.121 -34.223  1.00  0.00    -0.060 A 
HETATM   23  C   UNL     1      -3.280  -4.899 -33.874  1.00  0.00     0.048 C 
HETATM   24  C   UNL     1      -5.646  -4.792 -34.699  1.00  0.00     0.007 A 
HETATM   25  C   UNL     1      -6.805  -4.081 -34.984  1.00  0.00     0.003 A 
HETATM   26  C   UNL     1      -6.838  -2.698 -34.793  1.00  0.00     0.029 A 
ENDBRANCH  17  20
ENDBRANCH  15  16
ENDBRANCH   1  15
TORSDOF 3
ENDMDL
MODEL 8
REMARK VINA RESULT:      -7.9      1.872      7.204
REMARK  3 active torsions:
REMARK  status: ('A' for Active; 'I' for Inactive)
REMARK    1  A    between atoms: C_4  and  N_5 
REMARK       I    between atoms: N_5  and  C_6 
REMARK    2  A    between atoms: C_6  and  C_7 
REMARK    3  A    between atoms: C_7  and  C_8 
ROOT
HETATM    1  C   UNL     1      -4.214  -0.157 -32.803  1.00  0.00     0.286 C 
HETATM    2  N   UNL     1      -5.270  -0.616 -33.818  1.00  0.00    -0.056 N 
HETATM    3  H   UNL     1      -6.153  -0.104 -33.634  1.00  0.00     0.278 HD
HETATM    4  H   UNL     1      -4.967  -0.345 -34.762  1.00  0.00     0.278 HD
HETATM    5  C   UNL     1      -5.591  -2.089 -33.779  1.00  0.00     0.209 C 
HETATM    6  C   UNL     1      -4.282  -2.898 -33.822  1.00  0.00     0.115 C 
HETATM    7  N   UNL     1      -3.399  -2.518 -32.732  1.00  0.00    -0.353 N 
HETATM    8  C   UNL     1      -3.187  -1.216 -32.366  1.00  0.00     0.249 C 
HETATM    9  O   UNL     1      -2.206  -0.920 -31.691  1.00  0.00    -0.271 OA
HETATM   10  C   UNL     1      -6.504  -2.441 -34.950  1.00  0.00     0.035 C 
HETATM   11  C   UNL     1      -6.809  -3.937 -34.953  1.00  0.00     0.002 C 
HETATM   12  C   UNL     1      -5.537  -4.785 -34.935  1.00  0.00     0.002 C 
HETATM   13  C   UNL     1      -4.595  -4.396 -33.794  1.00  0.00     0.027 C 
HETATM   14  H   UNL     1      -2.636  -3.140 -32.471  1.00  0.00     0.163 HD
ENDROOT
BRANCH   1  15
HETATM   15  C   UNL     1      -4.831   0.568 -31.603  1.00  0.00     0.146 C 
BRANCH  15  16
HETATM   16  C   UNL     1      -6.003   1.405 -32.015  1.00  0.00     0.224 C 
HETATM   17  N   UNL     1      -5.953   2.612 -32.616  1.00  0.00    -0.327 N 
HETATM   18  H   UNL     1      -6.897   2.965 -32.760  1.00  0.00     0.169 HD
HETATM   19  O   UNL     1      -7.117   0.996 -31.646  1.00  0.00    -0.273 OA
BRANCH  17  20
HETATM   20  C   UNL     1      -4.950   3.484 -33.083  1.00  0.00     0.035 A 
HETATM   21  C   UNL     1      -3.710   3.720 -32.495  1.00  0.00     0.036 A 
HETATM   22  C   UNL     1      -2.802   4.642 -33.051  1.00  0.00    -0.060 A 
HETATM   23  C   UNL     1      -1.455   4.864 -32.422  1.00  0.00     0.048 C 
HETATM   24  C   UNL     1      -3.135   5.317 -34.228  1.00  0.00     0.007 A 
HETATM   25  C   UNL     1      -4.363   5.084 -34.835  1.00  0.00     0.003 A 
HETATM   26  C   UNL     1      -5.259   4.176 -34.267  1.00  0.00     0.029 A 
ENDBRANCH  17  20
ENDBRANCH  15  16
ENDBRANCH   1  15
TORSDOF 3
ENDMDL
MODEL 9
REMARK VINA RESULT:      -7.9      4.402      6.226
REMARK  3 active torsions:
REMARK  status: ('A' for Active; 'I' for Inactive)
REMARK    1  A    between atoms: C_4  and  N_5 
REMARK       I    between atoms: N_5  and  C_6 
REMARK    2  A    between atoms: C_6  and  C_7 
REMARK    3  A    between atoms: C_7  and  C_8 
ROOT
HETATM    1  C   UNL     1      -9.071   1.144 -31.498  1.00  0.00     0.286 C 
HETATM    2  N   UNL     1     -10.088   0.640 -32.530  1.00  0.00    -0.056 N 
HETATM    3  H   UNL     1      -9.643  -0.104 -33.099  1.00  0.00     0.278 HD
HETATM    4  H   UNL     1     -10.875   0.199 -32.037  1.00  0.00     0.278 HD
HETATM    5  C   UNL     1     -10.598   1.689 -33.486  1.00  0.00     0.209 C 
HETATM    6  C   UNL     1     -11.066   2.921 -32.690  1.00  0.00     0.115 C 
HETATM    7  N   UNL     1      -9.996   3.439 -31.854  1.00  0.00    -0.353 N 
HETATM    8  C   UNL     1      -9.173   2.632 -31.116  1.00  0.00     0.249 C 
HETATM    9  O   UNL     1      -8.524   3.102 -30.187  1.00  0.00    -0.271 OA
HETATM   10  C   UNL     1     -11.729   1.104 -34.327  1.00  0.00     0.035 C 
HETATM   11  C   UNL     1     -12.288   2.163 -35.275  1.00  0.00     0.002 C 
HETATM   12  C   UNL     1     -12.712   3.432 -34.535  1.00  0.00     0.002 C 
HETATM   13  C   UNL     1     -11.597   3.989 -33.649  1.00  0.00     0.027 C 
HETATM   14  H   UNL     1     -10.066   4.387 -31.489  1.00  0.00     0.163 HD
ENDROOT
BRANCH   1  15
HETATM   15  C   UNL     1      -7.635   0.742 -31.845  1.00  0.00     0.146 C 
BRANCH  15  16
HETATM   16  C   UNL     1      -7.272   1.162 -33.236  1.00  0.00     0.224 C 
HETATM   17  N   UNL     1      -6.604   0.423 -34.147  1.00  0.00    -0.327 N 
HETATM   18  H   UNL     1      -6.473   0.964 -35.000  1.00  0.00     0.169 HD
HETATM   19  O   UNL     1      -7.501   2.350 -33.520  1.00  0.00    -0.273 OA
BRANCH  17  20
HETATM   20  C   UNL     1      -6.056  -0.873 -34.214  1.00  0.00     0.035 A 
HETATM   21  C   UNL     1      -6.654  -2.002 -34.768  1.00  0.00     0.036 A 
HETATM   22  C   UNL     1      -6.007  -3.253 -34.748  1.00  0.00    -0.060 A 
HETATM   23  C   UNL     1      -6.651  -4.457 -35.377  1.00  0.00     0.048 C 
HETATM   24  C   UNL     1      -4.733  -3.365 -34.186  1.00  0.00     0.007 A 
HETATM   25  C   UNL     1      -4.118  -2.246 -33.640  1.00  0.00     0.003 A 
HETATM   26  C   UNL     1      -4.774  -1.013 -33.656  1.00  0.00     0.029 A 
ENDBRANCH  17  20
ENDBRANCH  15  16
ENDBRANCH   1  15
TORSDOF 3
ENDMDL
MODEL 10
REMARK VINA RESULT:      -7.8      2.550      3.781
REMARK  3 active torsions:
REMARK  status: ('A' for Active; 'I' for Inactive)
REMARK    1  A    between atoms: C_4  and  N_5 
REMARK       I    between atoms: N_5  and  C_6 
REMARK    2  A    between atoms: C_6  and  C_7 
REMARK    3  A    between atoms: C_7  and  C_8 
ROOT
HETATM    1  C   UNL     1      -7.635   1.752 -31.228  1.00  0.00     0.286 C 
HETATM    2  N   UNL     1      -7.587   2.953 -32.182  1.00  0.00    -0.056 N 
HETATM    3  H   UNL     1      -8.332   2.841 -32.895  1.00  0.00     0.278 HD
HETATM    4  H   UNL     1      -7.812   3.807 -31.657  1.00  0.00     0.278 HD
HETATM    5  C   UNL     1      -6.284   3.127 -32.921  1.00  0.00     0.209 C 
HETATM    6  C   UNL     1      -5.117   3.072 -31.918  1.00  0.00     0.115 C 
HETATM    7  N   UNL     1      -5.137   1.832 -31.162  1.00  0.00    -0.353 N 
HETATM    8  C   UNL     1      -6.286   1.295 -30.645  1.00  0.00     0.249 C 
HETATM    9  O   UNL     1      -6.224   0.457 -29.750  1.00  0.00    -0.271 OA
HETATM   10  C   UNL     1      -6.305   4.448 -33.683  1.00  0.00     0.035 C 
HETATM   11  C   UNL     1      -4.977   4.664 -34.407  1.00  0.00     0.002 C 
HETATM   12  C   UNL     1      -3.781   4.560 -33.460  1.00  0.00     0.002 C 
HETATM   13  C   UNL     1      -3.789   3.259 -32.655  1.00  0.00     0.027 C 
HETATM   14  H   UNL     1      -4.296   1.536 -30.670  1.00  0.00     0.163 HD
ENDROOT
BRANCH   1  15
HETATM   15  C   UNL     1      -8.435   0.580 -31.801  1.00  0.00     0.146 C 
BRANCH  15  16
HETATM   16  C   UNL     1      -8.599   0.705 -33.285  1.00  0.00     0.224 C 
HETATM   17  N   UNL     1      -7.884   0.057 -34.228  1.00  0.00    -0.327 N 
HETATM   18  H   UNL     1      -8.190   0.349 -35.154  1.00  0.00     0.169 HD
HETATM   19  O   UNL     1      -9.385   1.589 -33.670  1.00  0.00    -0.273 OA
BRANCH  17  20
HETATM   20  C   UNL     1      -6.848  -0.897 -34.254  1.00  0.00     0.035 A 
HETATM   21  C   UNL     1      -6.950  -2.227 -34.656  1.00  0.00     0.036 A 
HETATM   22  C   UNL     1      -5.838  -3.090 -34.609  1.00  0.00    -0.060 A 
HETATM   23  C   UNL     1      -5.955  -4.514 -35.076  1.00  0.00     0.048 C 
HETATM   24  C   UNL     1      -4.602  -2.604 -34.176  1.00  0.00     0.007 A 
HETATM   25  C   UNL     1      -4.480  -1.278 -33.782  1.00  0.00     0.003 A 
HETATM   26  C   UNL     1      -5.593  -0.435 -33.822  1.00  0.00     0.029 A 
ENDBRANCH  17  20
ENDBRANCH  15  16
ENDBRANCH   1  15
TORSDOF 3
ENDMDL
