MODEL 1
REMARK VINA RESULT:      -8.1      0.000      0.000
REMARK  2 active torsions:
REMARK  status: ('A' for Active; 'I' for Inactive)
REMARK    1  A    between atoms: C_7  and  N_8 
REMARK       I    between atoms: N_8  and  C_9 
REMARK       I    between atoms: C_9  and  N_10 
REMARK    2  A    between atoms: N_10  and  C_11 
ROOT
HETATM    1  C   UNL     1      -4.515  -2.281 -33.810  1.00  0.00     0.025 A 
HETATM    2  C   UNL     1      -5.603  -2.805 -34.508  1.00  0.00     0.044 A 
HETATM    3  C   UNL     1      -5.639  -4.194 -34.860  1.00  0.00     0.099 C 
HETATM    4  N   UNL     1      -5.682  -5.318 -35.139  1.00  0.00    -0.191 NA
HETATM    5  C   UNL     1      -6.673  -1.968 -34.839  1.00  0.00     0.025 A 
HETATM    6  C   UNL     1      -6.661  -0.619 -34.462  1.00  0.00     0.031 A 
HETATM    7  C   UNL     1      -5.576  -0.088 -33.760  1.00  0.00     0.036 A 
HETATM    8  C   UNL     1      -4.504  -0.931 -33.439  1.00  0.00     0.031 A 
ENDROOT
BRANCH   7   9
HETATM    9  N   UNL     1      -5.523   1.225 -33.248  1.00  0.00    -0.309 N 
HETATM   10  C   UNL     1      -6.500   2.026 -32.750  1.00  0.00     0.321 C 
HETATM   11  N   UNL     1      -7.736   1.922 -33.298  1.00  0.00    -0.338 N 
HETATM   12  O   UNL     1      -6.237   2.821 -31.855  1.00  0.00    -0.247 OA
HETATM   13  H   UNL     1      -7.735   1.565 -34.249  1.00  0.00     0.164 HD
HETATM   14  H   UNL     1      -4.599   1.547 -32.978  1.00  0.00     0.170 HD
BRANCH  11  15
HETATM   15  C   UNL     1      -8.976   2.507 -32.795  1.00  0.00     0.089 C 
HETATM   16  C   UNL     1     -10.163   1.534 -32.621  1.00  0.00     0.058 C 
HETATM   17  C   UNL     1     -11.064   1.430 -33.841  1.00  0.00     0.190 C 
HETATM   18  N   UNL     1     -11.422   2.808 -34.331  1.00  0.00    -0.067 N 
HETATM   19  C   UNL     1     -12.447   0.835 -33.638  1.00  0.00     0.035 C 
HETATM   20  H   UNL     1     -11.875   3.325 -33.565  1.00  0.00     0.280 HD
HETATM   21  C   UNL     1     -10.223   3.579 -34.772  1.00  0.00     0.237 C 
HETATM   22  C   UNL     1     -12.485   2.570 -35.371  1.00  0.00     0.235 C 
HETATM   23  C   UNL     1      -9.338   3.797 -33.552  1.00  0.00     0.053 C 
HETATM   24  C   UNL     1     -13.207   1.313 -34.879  1.00  0.00     0.030 C 
ENDBRANCH  11  15
ENDBRANCH   7   9
TORSDOF 2
ENDMDL
MODEL 2
REMARK VINA RESULT:      -8.0      3.474      6.058
REMARK  2 active torsions:
REMARK  status: ('A' for Active; 'I' for Inactive)
REMARK    1  A    between atoms: C_7  and  N_8 
REMARK       I    between atoms: N_8  and  C_9 
REMARK       I    between atoms: C_9  and  N_10 
REMARK    2  A    between atoms: N_10  and  C_11 
ROOT
HETATM    1  C   UNL     1      -6.745  -0.741 -35.098  1.00  0.00     0.025 A 
HETATM    2  C   UNL     1      -6.017  -1.349 -34.075  1.00  0.00     0.044 A 
HETATM    3  C   UNL     1      -5.196  -2.492 -34.349  1.00  0.00     0.099 C 
HETATM    4  N   UNL     1      -4.520  -3.410 -34.564  1.00  0.00    -0.191 NA
HETATM    5  C   UNL     1      -6.073  -0.818 -32.784  1.00  0.00     0.025 A 
HETATM    6  C   UNL     1      -6.842   0.323 -32.519  1.00  0.00     0.031 A 
HETATM    7  C   UNL     1      -7.572   0.939 -33.539  1.00  0.00     0.036 A 
HETATM    8  C   UNL     1      -7.516   0.396 -34.830  1.00  0.00     0.031 A 
ENDROOT
BRANCH   7   9
HETATM    9  N   UNL     1      -8.285   2.147 -33.391  1.00  0.00    -0.309 N 
HETATM   10  C   UNL     1      -7.933   3.428 -33.671  1.00  0.00     0.321 C 
HETATM   11  N   UNL     1      -6.634   3.775 -33.495  1.00  0.00    -0.338 N 
HETATM   12  O   UNL     1      -8.787   4.226 -34.044  1.00  0.00    -0.247 OA
HETATM   13  H   UNL     1      -6.141   3.192 -32.824  1.00  0.00     0.164 HD
HETATM   14  H   UNL     1      -9.290   2.045 -33.293  1.00  0.00     0.170 HD
BRANCH  11  15
HETATM   15  C   UNL     1      -5.983   5.008 -33.928  1.00  0.00     0.089 C 
HETATM   16  C   UNL     1      -4.660   4.838 -34.708  1.00  0.00     0.058 C 
HETATM   17  C   UNL     1      -3.418   4.849 -33.832  1.00  0.00     0.190 C 
HETATM   18  N   UNL     1      -3.469   6.022 -32.888  1.00  0.00    -0.067 N 
HETATM   19  C   UNL     1      -2.085   5.096 -34.515  1.00  0.00     0.035 C 
HETATM   20  H   UNL     1      -3.555   6.887 -33.439  1.00  0.00     0.280 HD
HETATM   21  C   UNL     1      -4.629   5.944 -31.953  1.00  0.00     0.237 C 
HETATM   22  C   UNL     1      -2.101   6.054 -32.259  1.00  0.00     0.235 C 
HETATM   23  C   UNL     1      -5.901   6.034 -32.785  1.00  0.00     0.053 C 
HETATM   24  C   UNL     1      -1.178   5.511 -33.353  1.00  0.00     0.030 C 
ENDBRANCH  11  15
ENDBRANCH   7   9
TORSDOF 2
ENDMDL
MODEL 3
REMARK VINA RESULT:      -7.9      3.189      6.904
REMARK  2 active torsions:
REMARK  status: ('A' for Active; 'I' for Inactive)
REMARK    1  A    between atoms: C_7  and  N_8 
REMARK       I    between atoms: N_8  and  C_9 
REMARK       I    between atoms: C_9  and  N_10 
REMARK    2  A    between atoms: N_10  and  C_11 
ROOT
HETATM    1  C   UNL     1      -4.056   5.259 -34.722  1.00  0.00     0.025 A 
HETATM    2  C   UNL     1      -2.832   4.990 -34.107  1.00  0.00     0.044 A 
HETATM    3  C   UNL     1      -1.613   5.501 -34.663  1.00  0.00     0.099 C 
HETATM    4  N   UNL     1      -0.623   5.918 -35.099  1.00  0.00    -0.191 NA
HETATM    5  C   UNL     1      -2.807   4.241 -32.928  1.00  0.00     0.025 A 
HETATM    6  C   UNL     1      -3.999   3.774 -32.359  1.00  0.00     0.031 A 
HETATM    7  C   UNL     1      -5.228   4.042 -32.967  1.00  0.00     0.036 A 
HETATM    8  C   UNL     1      -5.244   4.787 -34.153  1.00  0.00     0.031 A 
ENDROOT
BRANCH   7   9
HETATM    9  N   UNL     1      -6.481   3.706 -32.413  1.00  0.00    -0.309 N 
HETATM   10  C   UNL     1      -7.005   2.505 -32.058  1.00  0.00     0.321 C 
HETATM   11  N   UNL     1      -6.661   1.426 -32.805  1.00  0.00    -0.338 N 
HETATM   12  O   UNL     1      -7.776   2.434 -31.108  1.00  0.00    -0.247 OA
HETATM   13  H   UNL     1      -6.379   1.656 -33.753  1.00  0.00     0.164 HD
HETATM   14  H   UNL     1      -6.984   4.477 -31.985  1.00  0.00     0.170 HD
BRANCH  11  15
HETATM   15  C   UNL     1      -6.915   0.022 -32.495  1.00  0.00     0.089 C 
HETATM   16  C   UNL     1      -5.673  -0.835 -32.166  1.00  0.00     0.058 C 
HETATM   17  C   UNL     1      -5.060  -1.527 -33.373  1.00  0.00     0.190 C 
HETATM   18  N   UNL     1      -6.135  -2.222 -34.165  1.00  0.00    -0.067 N 
HETATM   19  C   UNL     1      -4.114  -2.686 -33.106  1.00  0.00     0.035 C 
HETATM   20  H   UNL     1      -6.622  -2.888 -33.550  1.00  0.00     0.280 HD
HETATM   21  C   UNL     1      -7.142  -1.265 -34.710  1.00  0.00     0.237 C 
HETATM   22  C   UNL     1      -5.381  -3.048 -35.173  1.00  0.00     0.235 C 
HETATM   23  C   UNL     1      -7.856  -0.622 -33.530  1.00  0.00     0.053 C 
HETATM   24  C   UNL     1      -4.081  -3.414 -34.453  1.00  0.00     0.030 C 
ENDBRANCH  11  15
ENDBRANCH   7   9
TORSDOF 2
ENDMDL
MODEL 4
REMARK VINA RESULT:      -7.6     14.375     17.490
REMARK  2 active torsions:
REMARK  status: ('A' for Active; 'I' for Inactive)
REMARK    1  A    between atoms: C_7  and  N_8 
REMARK       I    between atoms: N_8  and  C_9 
REMARK       I    between atoms: C_9  and  N_10 
REMARK    2  A    between atoms: N_10  and  C_11 
ROOT
HETATM    1  C   UNL     1      -8.908 -13.540 -38.286  1.00  0.00     0.025 A 
HETATM    2  C   UNL     1      -9.249 -13.216 -39.600  1.00  0.00     0.044 A 
HETATM    3  C   UNL     1     -10.573 -13.468 -40.089  1.00  0.00     0.099 C 
HETATM    4  N   UNL     1     -11.644 -13.658 -40.491  1.00  0.00    -0.191 NA
HETATM    5  C   UNL     1      -8.297 -12.617 -40.428  1.00  0.00     0.025 A 
HETATM    6  C   UNL     1      -7.014 -12.331 -39.942  1.00  0.00     0.031 A 
HETATM    7  C   UNL     1      -6.666 -12.650 -38.627  1.00  0.00     0.036 A 
HETATM    8  C   UNL     1      -7.624 -13.258 -37.805  1.00  0.00     0.031 A 
ENDROOT
BRANCH   7   9
HETATM    9  N   UNL     1      -5.440 -12.305 -38.021  1.00  0.00    -0.309 N 
HETATM   10  C   UNL     1      -4.159 -12.497 -38.430  1.00  0.00     0.321 C 
HETATM   11  N   UNL     1      -3.888 -13.624 -39.133  1.00  0.00    -0.338 N 
HETATM   12  O   UNL     1      -3.298 -11.675 -38.138  1.00  0.00    -0.247 OA
HETATM   13  H   UNL     1      -4.540 -14.384 -38.959  1.00  0.00     0.164 HD
HETATM   14  H   UNL     1      -5.501 -11.598 -37.295  1.00  0.00     0.170 HD
BRANCH  11  15
HETATM   15  C   UNL     1      -2.658 -13.939 -39.855  1.00  0.00     0.089 C 
HETATM   16  C   UNL     1      -2.805 -14.169 -41.375  1.00  0.00     0.058 C 
HETATM   17  C   UNL     1      -3.044 -15.619 -41.763  1.00  0.00     0.190 C 
HETATM   18  N   UNL     1      -2.046 -16.506 -41.067  1.00  0.00    -0.067 N 
HETATM   19  C   UNL     1      -2.799 -16.004 -43.212  1.00  0.00     0.035 C 
HETATM   20  H   UNL     1      -1.097 -16.196 -41.316  1.00  0.00     0.280 HD
HETATM   21  C   UNL     1      -2.182 -16.452 -39.582  1.00  0.00     0.237 C 
HETATM   22  C   UNL     1      -2.234 -17.856 -41.708  1.00  0.00     0.235 C 
HETATM   23  C   UNL     1      -1.848 -15.034 -39.138  1.00  0.00     0.053 C 
HETATM   24  C   UNL     1      -2.661 -17.527 -43.141  1.00  0.00     0.030 C 
ENDBRANCH  11  15
ENDBRANCH   7   9
TORSDOF 2
ENDMDL
MODEL 5
REMARK VINA RESULT:      -7.3      6.636      9.482
REMARK  2 active torsions:
REMARK  status: ('A' for Active; 'I' for Inactive)
REMARK    1  A    between atoms: C_7  and  N_8 
REMARK       I    between atoms: N_8  and  C_9 
REMARK       I    between atoms: C_9  and  N_10 
REMARK    2  A    between atoms: N_10  and  C_11 
ROOT
HETATM    1  C   UNL     1      -5.555   3.429 -33.243  1.00  0.00     0.025 A 
HETATM    2  C   UNL     1      -4.764   2.416 -32.701  1.00  0.00     0.044 A 
HETATM    3  C   UNL     1      -5.341   1.149 -32.359  1.00  0.00     0.099 C 
HETATM    4  N   UNL     1      -5.796   0.117 -32.091  1.00  0.00    -0.191 NA
HETATM    5  C   UNL     1      -3.396   2.638 -32.517  1.00  0.00     0.025 A 
HETATM    6  C   UNL     1      -2.820   3.860 -32.887  1.00  0.00     0.031 A 
HETATM    7  C   UNL     1      -3.606   4.879 -33.434  1.00  0.00     0.036 A 
HETATM    8  C   UNL     1      -4.977   4.651 -33.607  1.00  0.00     0.031 A 
ENDROOT
BRANCH   7   9
HETATM    9  N   UNL     1      -3.098   6.097 -33.932  1.00  0.00    -0.309 N 
HETATM   10  C   UNL     1      -2.288   7.024 -33.359  1.00  0.00     0.321 C 
HETATM   11  N   UNL     1      -2.411   7.225 -32.024  1.00  0.00    -0.338 N 
HETATM   12  O   UNL     1      -1.502   7.657 -34.055  1.00  0.00    -0.247 OA
HETATM   13  H   UNL     1      -3.322   6.972 -31.652  1.00  0.00     0.164 HD
HETATM   14  H   UNL     1      -3.131   6.197 -34.941  1.00  0.00     0.170 HD
BRANCH  11  15
HETATM   15  C   UNL     1      -1.518   7.994 -31.162  1.00  0.00     0.089 C 
HETATM   16  C   UNL     1      -0.397   7.195 -30.462  1.00  0.00     0.058 C 
HETATM   17  C   UNL     1      -0.775   6.669 -29.087  1.00  0.00     0.190 C 
HETATM   18  N   UNL     1      -1.392   7.773 -28.269  1.00  0.00    -0.067 N 
HETATM   19  C   UNL     1       0.356   6.238 -28.170  1.00  0.00     0.035 C 
HETATM   20  H   UNL     1      -0.724   8.553 -28.208  1.00  0.00     0.280 HD
HETATM   21  C   UNL     1      -2.656   8.285 -28.874  1.00  0.00     0.237 C 
HETATM   22  C   UNL     1      -1.498   7.195 -26.882  1.00  0.00     0.235 C 
HETATM   23  C   UNL     1      -2.306   8.917 -30.214  1.00  0.00     0.053 C 
HETATM   24  C   UNL     1      -0.308   6.238 -26.789  1.00  0.00     0.030 C 
ENDBRANCH  11  15
ENDBRANCH   7   9
TORSDOF 2
ENDMDL
MODEL 6
REMARK VINA RESULT:      -7.2      3.822      6.531
REMARK  2 active torsions:
REMARK  status: ('A' for Active; 'I' for Inactive)
REMARK    1  A    between atoms: C_7  and  N_8 
REMARK       I    between atoms: N_8  and  C_9 
REMARK       I    between atoms: C_9  and  N_10 
REMARK    2  A    between atoms: N_10  and  C_11 
ROOT
HETATM    1  C   UNL     1      -5.920  -0.896 -33.110  1.00  0.00     0.025 A 
HETATM    2  C   UNL     1      -6.277  -1.382 -34.368  1.00  0.00     0.044 A 
HETATM    3  C   UNL     1      -5.958  -2.729 -34.743  1.00  0.00     0.099 C 
HETATM    4  N   UNL     1      -5.715  -3.820 -35.051  1.00  0.00    -0.191 NA
HETATM    5  C   UNL     1      -6.973  -0.553 -35.252  1.00  0.00     0.025 A 
HETATM    6  C   UNL     1      -7.323   0.750 -34.876  1.00  0.00     0.031 A 
HETATM    7  C   UNL     1      -6.971   1.244 -33.616  1.00  0.00     0.036 A 
HETATM    8  C   UNL     1      -6.266   0.409 -32.739  1.00  0.00     0.031 A 
ENDROOT
BRANCH   7   9
HETATM    9  N   UNL     1      -7.371   2.499 -33.112  1.00  0.00    -0.309 N 
HETATM   10  C   UNL     1      -6.804   3.727 -33.230  1.00  0.00     0.321 C 
HETATM   11  N   UNL     1      -5.450   3.791 -33.275  1.00  0.00    -0.338 N 
HETATM   12  O   UNL     1      -7.516   4.724 -33.269  1.00  0.00    -0.247 OA
HETATM   13  H   UNL     1      -4.987   3.001 -32.836  1.00  0.00     0.164 HD
HETATM   14  H   UNL     1      -8.342   2.558 -32.823  1.00  0.00     0.170 HD
BRANCH  11  15
HETATM   15  C   UNL     1      -4.633   4.953 -33.613  1.00  0.00     0.089 C 
HETATM   16  C   UNL     1      -3.107   4.718 -33.659  1.00  0.00     0.058 C 
HETATM   17  C   UNL     1      -2.399   4.985 -32.341  1.00  0.00     0.190 C 
HETATM   18  N   UNL     1      -2.833   6.316 -31.787  1.00  0.00    -0.067 N 
HETATM   19  C   UNL     1      -0.892   5.177 -32.385  1.00  0.00     0.035 C 
HETATM   20  H   UNL     1      -2.631   7.046 -32.484  1.00  0.00     0.280 HD
HETATM   21  C   UNL     1      -4.293   6.351 -31.482  1.00  0.00     0.237 C 
HETATM   22  C   UNL     1      -1.900   6.562 -30.631  1.00  0.00     0.235 C 
HETATM   23  C   UNL     1      -5.045   6.190 -32.796  1.00  0.00     0.053 C 
HETATM   24  C   UNL     1      -0.600   5.873 -31.053  1.00  0.00     0.030 C 
ENDBRANCH  11  15
ENDBRANCH   7   9
TORSDOF 2
ENDMDL
MODEL 7
REMARK VINA RESULT:      -7.2      1.535      1.890
REMARK  2 active torsions:
REMARK  status: ('A' for Active; 'I' for Inactive)
REMARK    1  A    between atoms: C_7  and  N_8 
REMARK       I    between atoms: N_8  and  C_9 
REMARK       I    between atoms: C_9  and  N_10 
REMARK    2  A    between atoms: N_10  and  C_11 
ROOT
HETATM    1  C   UNL     1      -3.136  -2.125 -31.976  1.00  0.00     0.025 A 
HETATM    2  C   UNL     1      -3.821  -2.667 -33.064  1.00  0.00     0.044 A 
HETATM    3  C   UNL     1      -3.677  -4.055 -33.394  1.00  0.00     0.099 C 
HETATM    4  N   UNL     1      -3.576  -5.178 -33.662  1.00  0.00    -0.191 NA
HETATM    5  C   UNL     1      -4.671  -1.851 -33.815  1.00  0.00     0.025 A 
HETATM    6  C   UNL     1      -4.847  -0.504 -33.471  1.00  0.00     0.031 A 
HETATM    7  C   UNL     1      -4.166   0.045 -32.382  1.00  0.00     0.036 A 
HETATM    8  C   UNL     1      -3.309  -0.778 -31.639  1.00  0.00     0.031 A 
ENDROOT
BRANCH   7   9
HETATM    9  N   UNL     1      -4.360   1.356 -31.899  1.00  0.00    -0.309 N 
HETATM   10  C   UNL     1      -5.478   1.984 -31.452  1.00  0.00     0.321 C 
HETATM   11  N   UNL     1      -6.657   1.657 -32.037  1.00  0.00    -0.338 N 
HETATM   12  O   UNL     1      -5.389   2.828 -30.567  1.00  0.00    -0.247 OA
HETATM   13  H   UNL     1      -6.560   1.289 -32.979  1.00  0.00     0.164 HD
HETATM   14  H   UNL     1      -3.516   1.838 -31.607  1.00  0.00     0.170 HD
BRANCH  11  15
HETATM   15  C   UNL     1      -7.997   2.026 -31.590  1.00  0.00     0.089 C 
HETATM   16  C   UNL     1      -9.124   1.023 -31.923  1.00  0.00     0.058 C 
HETATM   17  C   UNL     1      -9.822   1.294 -33.246  1.00  0.00     0.190 C 
HETATM   18  N   UNL     1     -10.200   2.749 -33.337  1.00  0.00    -0.067 N 
HETATM   19  C   UNL     1     -11.173   0.637 -33.469  1.00  0.00     0.035 C 
HETATM   20  H   UNL     1     -10.799   2.986 -32.535  1.00  0.00     0.280 HD
HETATM   21  C   UNL     1      -9.008   3.644 -33.314  1.00  0.00     0.237 C 
HETATM   22  C   UNL     1     -11.076   2.830 -34.560  1.00  0.00     0.235 C 
HETATM   23  C   UNL     1      -8.333   3.482 -31.958  1.00  0.00     0.053 C 
HETATM   24  C   UNL     1     -11.771   1.468 -34.608  1.00  0.00     0.030 C 
ENDBRANCH  11  15
ENDBRANCH   7   9
TORSDOF 2
ENDMDL
MODEL 8
REMARK VINA RESULT:      -7.1     14.406     15.759
REMARK  2 active torsions:
REMARK  status: ('A' for Active; 'I' for Inactive)
REMARK    1  A    between atoms: C_7  and  N_8 
REMARK       I    between atoms: N_8  and  C_9 
REMARK       I    between atoms: C_9  and  N_10 
REMARK    2  A    between atoms: N_10  and  C_11 
ROOT
HETATM    1  C   UNL     1      -0.939 -15.055 -37.301  1.00  0.00     0.025 A 
HETATM    2  C   UNL     1      -0.006 -14.428 -38.126  1.00  0.00     0.044 A 
HETATM    3  C   UNL     1       1.266 -15.039 -38.381  1.00  0.00     0.099 C 
HETATM    4  N   UNL     1       2.292 -15.532 -38.602  1.00  0.00    -0.191 NA
HETATM    5  C   UNL     1      -0.331 -13.208 -38.725  1.00  0.00     0.025 A 
HETATM    6  C   UNL     1      -1.587 -12.626 -38.512  1.00  0.00     0.031 A 
HETATM    7  C   UNL     1      -2.528 -13.250 -37.689  1.00  0.00     0.036 A 
HETATM    8  C   UNL     1      -2.191 -14.468 -37.085  1.00  0.00     0.031 A 
ENDROOT
BRANCH   7   9
HETATM    9  N   UNL     1      -3.850 -12.795 -37.502  1.00  0.00    -0.309 N 
HETATM   10  C   UNL     1      -4.938 -12.861 -38.312  1.00  0.00     0.321 C 
HETATM   11  N   UNL     1      -4.730 -12.768 -39.649  1.00  0.00    -0.338 N 
HETATM   12  O   UNL     1      -6.055 -12.977 -37.822  1.00  0.00    -0.247 OA
HETATM   13  H   UNL     1      -3.875 -12.281 -39.899  1.00  0.00     0.164 HD
HETATM   14  H   UNL     1      -4.109 -12.606 -36.539  1.00  0.00     0.170 HD
BRANCH  11  15
HETATM   15  C   UNL     1      -5.697 -13.028 -40.712  1.00  0.00     0.089 C 
HETATM   16  C   UNL     1      -6.936 -12.106 -40.741  1.00  0.00     0.058 C 
HETATM   17  C   UNL     1      -8.121 -12.636 -39.950  1.00  0.00     0.190 C 
HETATM   18  N   UNL     1      -8.376 -14.076 -40.312  1.00  0.00    -0.067 N 
HETATM   19  C   UNL     1      -9.482 -12.028 -40.242  1.00  0.00     0.035 C 
HETATM   20  H   UNL     1      -8.535 -14.139 -41.326  1.00  0.00     0.280 HD
HETATM   21  C   UNL     1      -7.224 -14.957 -39.962  1.00  0.00     0.237 C 
HETATM   22  C   UNL     1      -9.691 -14.399 -39.654  1.00  0.00     0.235 C 
HETATM   23  C   UNL     1      -6.036 -14.526 -40.812  1.00  0.00     0.053 C 
HETATM   24  C   UNL     1     -10.449 -13.070 -39.670  1.00  0.00     0.030 C 
ENDBRANCH  11  15
ENDBRANCH   7   9
TORSDOF 2
ENDMDL
MODEL 9
REMARK VINA RESULT:      -7.1      1.847      2.744
REMARK  2 active torsions:
REMARK  status: ('A' for Active; 'I' for Inactive)
REMARK    1  A    between atoms: C_7  and  N_8 
REMARK       I    between atoms: N_8  and  C_9 
REMARK       I    between atoms: C_9  and  N_10 
REMARK    2  A    between atoms: N_10  and  C_11 
ROOT
HETATM    1  C   UNL     1      -6.900  -0.785 -32.845  1.00  0.00     0.025 A 
HETATM    2  C   UNL     1      -7.121  -1.204 -34.157  1.00  0.00     0.044 A 
HETATM    3  C   UNL     1      -6.893  -2.569 -34.531  1.00  0.00     0.099 C 
HETATM    4  N   UNL     1      -6.723  -3.674 -34.840  1.00  0.00    -0.191 NA
HETATM    5  C   UNL     1      -7.593  -0.287 -35.099  1.00  0.00     0.025 A 
HETATM    6  C   UNL     1      -7.856   1.039 -34.729  1.00  0.00     0.031 A 
HETATM    7  C   UNL     1      -7.639   1.465 -33.416  1.00  0.00     0.036 A 
HETATM    8  C   UNL     1      -7.159   0.541 -32.479  1.00  0.00     0.031 A 
ENDROOT
BRANCH   7   9
HETATM    9  N   UNL     1      -7.975   2.745 -32.928  1.00  0.00    -0.309 N 
HETATM   10  C   UNL     1      -9.107   3.482 -33.065  1.00  0.00     0.321 C 
HETATM   11  N   UNL     1      -9.790   3.371 -34.232  1.00  0.00    -0.338 N 
HETATM   12  O   UNL     1      -9.460   4.228 -32.159  1.00  0.00    -0.247 OA
HETATM   13  H   UNL     1      -9.217   3.073 -35.016  1.00  0.00     0.164 HD
HETATM   14  H   UNL     1      -7.399   3.079 -32.162  1.00  0.00     0.170 HD
BRANCH  11  15
HETATM   15  C   UNL     1     -11.125   3.883 -34.525  1.00  0.00     0.089 C 
HETATM   16  C   UNL     1     -12.102   3.949 -33.330  1.00  0.00     0.058 C 
HETATM   17  C   UNL     1     -12.952   2.701 -33.154  1.00  0.00     0.190 C 
HETATM   18  N   UNL     1     -13.565   2.309 -34.472  1.00  0.00    -0.067 N 
HETATM   19  C   UNL     1     -14.195   2.819 -32.289  1.00  0.00     0.035 C 
HETATM   20  H   UNL     1     -14.119   3.100 -34.828  1.00  0.00     0.280 HD
HETATM   21  C   UNL     1     -12.534   1.962 -35.493  1.00  0.00     0.237 C 
HETATM   22  C   UNL     1     -14.549   1.226 -34.118  1.00  0.00     0.235 C 
HETATM   23  C   UNL     1     -11.722   3.218 -35.778  1.00  0.00     0.053 C 
HETATM   24  C   UNL     1     -15.019   1.599 -32.710  1.00  0.00     0.030 C 
ENDBRANCH  11  15
ENDBRANCH   7   9
TORSDOF 2
ENDMDL
MODEL 10
REMARK VINA RESULT:      -7.0     13.979     16.122
REMARK  2 active torsions:
REMARK  status: ('A' for Active; 'I' for Inactive)
REMARK    1  A    between atoms: C_7  and  N_8 
REMARK       I    between atoms: N_8  and  C_9 
REMARK       I    between atoms: C_9  and  N_10 
REMARK    2  A    between atoms: N_10  and  C_11 
ROOT
HETATM    1  C   UNL     1      -9.419 -12.628 -39.492  1.00  0.00     0.025 A 
HETATM    2  C   UNL     1      -9.428 -13.853 -40.160  1.00  0.00     0.044 A 
HETATM    3  C   UNL     1     -10.642 -14.359 -40.731  1.00  0.00     0.099 C 
HETATM    4  N   UNL     1     -11.616 -14.772 -41.206  1.00  0.00    -0.191 NA
HETATM    5  C   UNL     1      -8.237 -14.572 -40.290  1.00  0.00     0.025 A 
HETATM    6  C   UNL     1      -7.040 -14.063 -39.769  1.00  0.00     0.031 A 
HETATM    7  C   UNL     1      -7.023 -12.835 -39.102  1.00  0.00     0.036 A 
HETATM    8  C   UNL     1      -8.223 -12.124 -38.968  1.00  0.00     0.031 A 
ENDROOT
BRANCH   7   9
HETATM    9  N   UNL     1      -5.854 -12.195 -38.640  1.00  0.00    -0.309 N 
HETATM   10  C   UNL     1      -5.018 -12.501 -37.614  1.00  0.00     0.321 C 
HETATM   11  N   UNL     1      -5.564 -13.057 -36.505  1.00  0.00    -0.338 N 
HETATM   12  O   UNL     1      -3.822 -12.248 -37.708  1.00  0.00    -0.247 OA
HETATM   13  H   UNL     1      -6.549 -12.842 -36.380  1.00  0.00     0.164 HD
HETATM   14  H   UNL     1      -5.422 -11.557 -39.300  1.00  0.00     0.170 HD
BRANCH  11  15
HETATM   15  C   UNL     1      -4.856 -13.662 -35.381  1.00  0.00     0.089 C 
HETATM   16  C   UNL     1      -4.732 -15.202 -35.408  1.00  0.00     0.058 C 
HETATM   17  C   UNL     1      -5.860 -15.927 -34.692  1.00  0.00     0.190 C 
HETATM   18  N   UNL     1      -6.079 -15.318 -33.332  1.00  0.00    -0.067 N 
HETATM   19  C   UNL     1      -5.628 -17.380 -34.315  1.00  0.00     0.035 C 
HETATM   20  H   UNL     1      -5.198 -15.366 -32.803  1.00  0.00     0.280 HD
HETATM   21  C   UNL     1      -6.499 -13.888 -33.416  1.00  0.00     0.237 C 
HETATM   22  C   UNL     1      -7.037 -16.259 -32.651  1.00  0.00     0.235 C 
HETATM   23  C   UNL     1      -5.351 -13.103 -34.035  1.00  0.00     0.053 C 
HETATM   24  C   UNL     1      -6.694 -17.628 -33.244  1.00  0.00     0.030 C 
ENDBRANCH  11  15
ENDBRANCH   7   9
TORSDOF 2
ENDMDL
