MODEL 1
REMARK VINA RESULT:      -9.3      0.000      0.000
REMARK  7 active torsions:
REMARK  status: ('A' for Active; 'I' for Inactive)
REMARK    1  A    between atoms: O_2  and  C_3 
REMARK    2  A    between atoms: C_5  and  C_6 
REMARK    3  A    between atoms: C_6  and  O_7 
REMARK    4  A    between atoms: C_6  and  C_8 
REMARK    5  A    between atoms: C_8  and  N_9 
REMARK       I    between atoms: N_9  and  C_10 
REMARK    6  A    between atoms: C_10  and  C_11 
REMARK    7  A    between atoms: C_12  and  C_13 
ROOT
HETATM    1  C   UNL     1      -7.309   2.076 -32.918  1.00  0.00     0.089 C 
HETATM    2  C   UNL     1      -7.681   1.231 -34.176  1.00  0.00     0.068 C 
HETATM    3  C   UNL     1      -9.195   0.944 -34.293  1.00  0.00     0.013 C 
HETATM    4  C   UNL     1     -10.061   2.178 -34.109  1.00  0.00     0.001 C 
HETATM    5  C   UNL     1      -9.766   2.818 -32.766  1.00  0.00     0.001 C 
HETATM    6  C   UNL     1      -8.305   3.232 -32.687  1.00  0.00     0.015 C 
ENDROOT
BRANCH   1   7
HETATM    7  C   UNL     1      -5.844   2.577 -33.024  1.00  0.00     0.222 C 
HETATM    8  N   UNL     1      -4.950   2.180 -32.059  1.00  0.00    -0.358 N 
HETATM    9  H   UNL     1      -5.219   1.487 -31.376  1.00  0.00     0.162 HD
HETATM   10  O   UNL     1      -5.468   3.295 -33.949  1.00  0.00    -0.273 OA
BRANCH   8  11
HETATM   11  C   UNL     1      -3.521   2.459 -32.148  1.00  0.00     0.159 C 
BRANCH  11  12
HETATM   12  C   UNL     1      -2.995   3.735 -31.452  1.00  0.00     0.169 C 
BRANCH  12  13
HETATM   13  C   UNL     1      -2.518   4.812 -32.406  1.00  0.00    -0.025 A 
HETATM   14  C   UNL     1      -2.450   6.158 -32.001  1.00  0.00     0.046 A 
HETATM   15  C   UNL     1      -1.987   7.143 -32.875  1.00  0.00     0.068 A 
HETATM   16  C   UNL     1      -1.604   6.784 -34.169  1.00  0.00     0.037 A 
HETATM   17  C   UNL     1      -1.670   5.454 -34.587  1.00  0.00     0.003 A 
HETATM   18  C   UNL     1      -2.122   4.473 -33.707  1.00  0.00     0.010 A 
BRANCH  15  19
HETATM   19  O   UNL     1      -1.863   8.474 -32.590  1.00  0.00    -0.356 OA
HETATM   20  C   UNL     1      -2.394   8.917 -31.347  1.00  0.00     0.210 C 
ENDBRANCH  15  19
ENDBRANCH  12  13
BRANCH  12  21
HETATM   21  O   UNL     1      -4.048   4.279 -30.643  1.00  0.00    -0.389 OA
HETATM   22  H   UNL     1      -4.605   4.811 -31.239  1.00  0.00     0.210 HD
ENDBRANCH  12  21
ENDBRANCH  11  12
ENDBRANCH   8  11
ENDBRANCH   1   7
BRANCH   2  23
HETATM   23  C   UNL     1      -6.954  -0.097 -34.235  1.00  0.00     0.110 A 
HETATM   24  N   UNL     1      -5.733  -0.361 -33.810  1.00  0.00    -0.233 NA
HETATM   25  C   UNL     1      -5.534  -1.702 -34.047  1.00  0.00     0.087 A 
HETATM   26  C   UNL     1      -6.659  -2.274 -34.624  1.00  0.00     0.062 A 
HETATM   27  C   UNL     1      -4.408  -2.499 -33.799  1.00  0.00     0.057 A 
HETATM   28  N   UNL     1      -7.542  -1.235 -34.732  1.00  0.00    -0.342 N 
HETATM   29  C   UNL     1      -6.743  -3.619 -34.993  1.00  0.00     0.034 A 
HETATM   30  H   UNL     1      -8.425  -1.254 -35.224  1.00  0.00     0.167 HD
HETATM   31  C   UNL     1      -5.613  -4.402 -34.739  1.00  0.00     0.026 A 
HETATM   32  C   UNL     1      -4.469  -3.850 -34.155  1.00  0.00     0.036 A 
HETATM   33 CL   UNL     1      -3.101  -4.858 -33.870  1.00  0.00    -0.084 Cl
ENDBRANCH   2  23
TORSDOF 7
ENDMDL
MODEL 2
REMARK VINA RESULT:      -9.1     15.628     17.268
REMARK  7 active torsions:
REMARK  status: ('A' for Active; 'I' for Inactive)
REMARK    1  A    between atoms: O_2  and  C_3 
REMARK    2  A    between atoms: C_5  and  C_6 
REMARK    3  A    between atoms: C_6  and  O_7 
REMARK    4  A    between atoms: C_6  and  C_8 
REMARK    5  A    between atoms: C_8  and  N_9 
REMARK       I    between atoms: N_9  and  C_10 
REMARK    6  A    between atoms: C_10  and  C_11 
REMARK    7  A    between atoms: C_12  and  C_13 
ROOT
HETATM    1  C   UNL     1      -7.855 -13.939 -38.224  1.00  0.00     0.089 C 
HETATM    2  C   UNL     1      -7.097 -12.702 -38.796  1.00  0.00     0.068 C 
HETATM    3  C   UNL     1      -7.627 -12.244 -40.174  1.00  0.00     0.013 C 
HETATM    4  C   UNL     1      -9.139 -12.111 -40.228  1.00  0.00     0.001 C 
HETATM    5  C   UNL     1      -9.785 -13.430 -39.847  1.00  0.00     0.001 C 
HETATM    6  C   UNL     1      -9.381 -13.827 -38.436  1.00  0.00     0.015 C 
ENDROOT
BRANCH   1   7
HETATM    7  C   UNL     1      -7.485 -14.152 -36.732  1.00  0.00     0.222 C 
HETATM    8  N   UNL     1      -7.387 -13.047 -35.923  1.00  0.00    -0.358 N 
HETATM    9  H   UNL     1      -7.666 -12.141 -36.268  1.00  0.00     0.162 HD
HETATM   10  O   UNL     1      -7.300 -15.274 -36.263  1.00  0.00    -0.273 OA
BRANCH   8  11
HETATM   11  C   UNL     1      -7.204 -13.143 -34.479  1.00  0.00     0.159 C 
BRANCH  11  12
HETATM   12  C   UNL     1      -5.765 -13.014 -33.928  1.00  0.00     0.169 C 
BRANCH  12  13
HETATM   13  C   UNL     1      -5.280 -14.229 -33.164  1.00  0.00    -0.025 A 
HETATM   14  C   UNL     1      -5.481 -14.338 -31.776  1.00  0.00     0.046 A 
HETATM   15  C   UNL     1      -5.055 -15.470 -31.079  1.00  0.00     0.068 A 
HETATM   16  C   UNL     1      -4.409 -16.496 -31.772  1.00  0.00     0.037 A 
HETATM   17  C   UNL     1      -4.198 -16.401 -33.148  1.00  0.00     0.003 A 
HETATM   18  C   UNL     1      -4.635 -15.274 -33.840  1.00  0.00     0.010 A 
BRANCH  15  19
HETATM   19  O   UNL     1      -5.207 -15.693 -29.739  1.00  0.00    -0.356 OA
HETATM   20  C   UNL     1      -5.913 -16.869 -29.361  1.00  0.00     0.210 C 
ENDBRANCH  15  19
ENDBRANCH  12  13
BRANCH  12  21
HETATM   21  O   UNL     1      -4.875 -12.786 -35.031  1.00  0.00    -0.389 OA
HETATM   22  H   UNL     1      -4.103 -12.316 -34.667  1.00  0.00     0.210 HD
ENDBRANCH  12  21
ENDBRANCH  11  12
ENDBRANCH   8  11
ENDBRANCH   1   7
BRANCH   2  23
HETATM   23  C   UNL     1      -5.605 -12.928 -38.926  1.00  0.00     0.110 A 
HETATM   24  N   UNL     1      -4.986 -13.709 -39.792  1.00  0.00    -0.233 NA
HETATM   25  C   UNL     1      -3.642 -13.555 -39.542  1.00  0.00     0.087 A 
HETATM   26  C   UNL     1      -3.431 -12.658 -38.504  1.00  0.00     0.062 A 
HETATM   27  C   UNL     1      -2.540 -14.161 -40.161  1.00  0.00     0.057 A 
HETATM   28  N   UNL     1      -4.691 -12.277 -38.133  1.00  0.00    -0.342 N 
HETATM   29  C   UNL     1      -2.166 -12.317 -38.018  1.00  0.00     0.034 A 
HETATM   30  H   UNL     1      -4.930 -11.724 -37.321  1.00  0.00     0.167 HD
HETATM   31  C   UNL     1      -1.077 -12.928 -38.646  1.00  0.00     0.026 A 
HETATM   32  C   UNL     1      -1.263 -13.832 -39.696  1.00  0.00     0.036 A 
HETATM   33 CL   UNL     1       0.115 -14.562 -40.430  1.00  0.00    -0.084 Cl
ENDBRANCH   2  23
TORSDOF 7
ENDMDL
MODEL 3
REMARK VINA RESULT:      -9.0      3.011      5.386
REMARK  7 active torsions:
REMARK  status: ('A' for Active; 'I' for Inactive)
REMARK    1  A    between atoms: O_2  and  C_3 
REMARK    2  A    between atoms: C_5  and  C_6 
REMARK    3  A    between atoms: C_6  and  O_7 
REMARK    4  A    between atoms: C_6  and  C_8 
REMARK    5  A    between atoms: C_8  and  N_9 
REMARK       I    between atoms: N_9  and  C_10 
REMARK    6  A    between atoms: C_10  and  C_11 
REMARK    7  A    between atoms: C_12  and  C_13 
ROOT
HETATM    1  C   UNL     1      -5.236  -1.002 -33.579  1.00  0.00     0.089 C 
HETATM    2  C   UNL     1      -6.741  -1.378 -33.418  1.00  0.00     0.068 C 
HETATM    3  C   UNL     1      -7.260  -2.316 -34.531  1.00  0.00     0.013 C 
HETATM    4  C   UNL     1      -6.357  -3.510 -34.787  1.00  0.00     0.001 C 
HETATM    5  C   UNL     1      -4.959  -3.034 -35.132  1.00  0.00     0.001 C 
HETATM    6  C   UNL     1      -4.379  -2.221 -33.985  1.00  0.00     0.015 C 
ENDROOT
BRANCH   1   7
HETATM    7  C   UNL     1      -4.711  -0.322 -32.287  1.00  0.00     0.222 C 
HETATM    8  N   UNL     1      -3.707   0.607 -32.403  1.00  0.00    -0.358 N 
HETATM    9  H   UNL     1      -3.410   0.918 -33.316  1.00  0.00     0.162 HD
HETATM   10  O   UNL     1      -5.183  -0.579 -31.180  1.00  0.00    -0.273 OA
BRANCH   8  11
HETATM   11  C   UNL     1      -3.252   1.420 -31.281  1.00  0.00     0.159 C 
BRANCH  11  12
HETATM   12  C   UNL     1      -4.085   2.670 -30.917  1.00  0.00     0.169 C 
BRANCH  12  13
HETATM   13  C   UNL     1      -4.571   3.464 -32.113  1.00  0.00    -0.025 A 
HETATM   14  C   UNL     1      -3.678   4.238 -32.877  1.00  0.00     0.046 A 
HETATM   15  C   UNL     1      -4.125   4.948 -33.993  1.00  0.00     0.068 A 
HETATM   16  C   UNL     1      -5.476   4.897 -34.340  1.00  0.00     0.037 A 
HETATM   17  C   UNL     1      -6.374   4.137 -33.590  1.00  0.00     0.003 A 
HETATM   18  C   UNL     1      -5.922   3.421 -32.484  1.00  0.00     0.010 A 
BRANCH  15  19
HETATM   19  O   UNL     1      -3.352   5.719 -34.816  1.00  0.00    -0.356 OA
HETATM   20  C   UNL     1      -1.984   5.349 -34.943  1.00  0.00     0.210 C 
ENDBRANCH  15  19
ENDBRANCH  12  13
BRANCH  12  21
HETATM   21  O   UNL     1      -5.228   2.250 -30.157  1.00  0.00    -0.389 OA
HETATM   22  H   UNL     1      -5.520   3.027 -29.648  1.00  0.00     0.210 HD
ENDBRANCH  12  21
ENDBRANCH  11  12
ENDBRANCH   8  11
ENDBRANCH   1   7
BRANCH   2  23
HETATM   23  C   UNL     1      -7.652  -0.169 -33.370  1.00  0.00     0.110 A 
HETATM   24  N   UNL     1      -8.225   0.443 -34.389  1.00  0.00    -0.233 NA
HETATM   25  C   UNL     1      -8.980   1.455 -33.844  1.00  0.00     0.087 A 
HETATM   26  C   UNL     1      -8.872   1.463 -32.460  1.00  0.00     0.062 A 
HETATM   27  C   UNL     1      -9.781   2.417 -34.475  1.00  0.00     0.057 A 
HETATM   28  N   UNL     1      -8.024   0.424 -32.187  1.00  0.00    -0.342 N 
HETATM   29  C   UNL     1      -9.513   2.391 -31.637  1.00  0.00     0.034 A 
HETATM   30  H   UNL     1      -7.618   0.209 -31.287  1.00  0.00     0.167 HD
HETATM   31  C   UNL     1     -10.309   3.344 -32.280  1.00  0.00     0.026 A 
HETATM   32  C   UNL     1     -10.438   3.355 -33.672  1.00  0.00     0.036 A 
HETATM   33 CL   UNL     1     -11.426   4.555 -34.416  1.00  0.00    -0.084 Cl
ENDBRANCH   2  23
TORSDOF 7
ENDMDL
MODEL 4
REMARK VINA RESULT:      -9.0      2.153      3.091
REMARK  7 active torsions:
REMARK  status: ('A' for Active; 'I' for Inactive)
REMARK    1  A    between atoms: O_2  and  C_3 
REMARK    2  A    between atoms: C_5  and  C_6 
REMARK    3  A    between atoms: C_6  and  O_7 
REMARK    4  A    between atoms: C_6  and  C_8 
REMARK    5  A    between atoms: C_8  and  N_9 
REMARK       I    between atoms: N_9  and  C_10 
REMARK    6  A    between atoms: C_10  and  C_11 
REMARK    7  A    between atoms: C_12  and  C_13 
ROOT
HETATM    1  C   UNL     1     -10.022   3.668 -33.321  1.00  0.00     0.089 C 
HETATM    2  C   UNL     1     -10.043   2.432 -34.272  1.00  0.00     0.068 C 
HETATM    3  C   UNL     1     -11.334   1.592 -34.155  1.00  0.00     0.013 C 
HETATM    4  C   UNL     1     -12.605   2.423 -34.206  1.00  0.00     0.001 C 
HETATM    5  C   UNL     1     -12.578   3.472 -33.111  1.00  0.00     0.001 C 
HETATM    6  C   UNL     1     -11.383   4.395 -33.293  1.00  0.00     0.015 C 
ENDROOT
BRANCH   1   7
HETATM    7  C   UNL     1      -8.857   4.619 -33.703  1.00  0.00     0.222 C 
HETATM    8  N   UNL     1      -7.726   4.606 -32.925  1.00  0.00    -0.358 N 
HETATM    9  H   UNL     1      -7.617   3.910 -32.202  1.00  0.00     0.162 HD
HETATM   10  O   UNL     1      -8.918   5.359 -34.684  1.00  0.00    -0.273 OA
BRANCH   8  11
HETATM   11  C   UNL     1      -6.516   5.337 -33.283  1.00  0.00     0.159 C 
BRANCH  11  12
HETATM   12  C   UNL     1      -5.562   4.686 -34.312  1.00  0.00     0.169 C 
BRANCH  12  13
HETATM   13  C   UNL     1      -4.091   4.846 -33.984  1.00  0.00    -0.025 A 
HETATM   14  C   UNL     1      -3.589   4.488 -32.720  1.00  0.00     0.046 A 
HETATM   15  C   UNL     1      -2.230   4.614 -32.431  1.00  0.00     0.068 A 
HETATM   16  C   UNL     1      -1.366   5.116 -33.407  1.00  0.00     0.037 A 
HETATM   17  C   UNL     1      -1.850   5.480 -34.664  1.00  0.00     0.003 A 
HETATM   18  C   UNL     1      -3.206   5.342 -34.952  1.00  0.00     0.010 A 
BRANCH  15  19
HETATM   19  O   UNL     1      -1.626   4.285 -31.248  1.00  0.00    -0.356 OA
HETATM   20  C   UNL     1      -0.550   5.114 -30.826  1.00  0.00     0.210 C 
ENDBRANCH  15  19
ENDBRANCH  12  13
BRANCH  12  21
HETATM   21  O   UNL     1      -5.862   3.285 -34.385  1.00  0.00    -0.389 OA
HETATM   22  H   UNL     1      -5.306   2.922 -35.098  1.00  0.00     0.210 HD
ENDBRANCH  12  21
ENDBRANCH  11  12
ENDBRANCH   8  11
ENDBRANCH   1   7
BRANCH   2  23
HETATM   23  C   UNL     1      -8.866   1.502 -34.062  1.00  0.00     0.110 A 
HETATM   24  N   UNL     1      -8.072   1.439 -33.010  1.00  0.00    -0.233 NA
HETATM   25  C   UNL     1      -7.182   0.422 -33.271  1.00  0.00     0.087 A 
HETATM   26  C   UNL     1      -7.437  -0.154 -34.507  1.00  0.00     0.062 A 
HETATM   27  C   UNL     1      -6.119  -0.059 -32.495  1.00  0.00     0.057 A 
HETATM   28  N   UNL     1      -8.509   0.549 -34.987  1.00  0.00    -0.342 N 
HETATM   29  C   UNL     1      -6.684  -1.198 -35.047  1.00  0.00     0.034 A 
HETATM   30  H   UNL     1      -8.891   0.487 -35.921  1.00  0.00     0.167 HD
HETATM   31  C   UNL     1      -5.627  -1.670 -34.262  1.00  0.00     0.026 A 
HETATM   32  C   UNL     1      -5.352  -1.109 -33.012  1.00  0.00     0.036 A 
HETATM   33 CL   UNL     1      -4.033  -1.722 -32.087  1.00  0.00    -0.084 Cl
ENDBRANCH   2  23
TORSDOF 7
ENDMDL
MODEL 5
REMARK VINA RESULT:      -8.9      2.253      3.295
REMARK  7 active torsions:
REMARK  status: ('A' for Active; 'I' for Inactive)
REMARK    1  A    between atoms: O_2  and  C_3 
REMARK    2  A    between atoms: C_5  and  C_6 
REMARK    3  A    between atoms: C_6  and  O_7 
REMARK    4  A    between atoms: C_6  and  C_8 
REMARK    5  A    between atoms: C_8  and  N_9 
REMARK       I    between atoms: N_9  and  C_10 
REMARK    6  A    between atoms: C_10  and  C_11 
REMARK    7  A    between atoms: C_12  and  C_13 
ROOT
HETATM    1  C   UNL     1      -5.501   2.807 -31.263  1.00  0.00     0.089 C 
HETATM    2  C   UNL     1      -6.698   2.239 -32.086  1.00  0.00     0.068 C 
HETATM    3  C   UNL     1      -7.999   2.108 -31.262  1.00  0.00     0.013 C 
HETATM    4  C   UNL     1      -8.342   3.356 -30.468  1.00  0.00     0.001 C 
HETATM    5  C   UNL     1      -7.190   3.714 -29.548  1.00  0.00     0.001 C 
HETATM    6  C   UNL     1      -5.931   3.982 -30.358  1.00  0.00     0.015 C 
ENDROOT
BRANCH   1   7
HETATM    7  C   UNL     1      -4.335   3.194 -32.210  1.00  0.00     0.222 C 
HETATM    8  N   UNL     1      -4.498   4.281 -33.033  1.00  0.00    -0.358 N 
HETATM    9  H   UNL     1      -5.308   4.875 -32.929  1.00  0.00     0.162 HD
HETATM   10  O   UNL     1      -3.275   2.568 -32.225  1.00  0.00    -0.273 OA
BRANCH   8  11
HETATM   11  C   UNL     1      -3.414   4.826 -33.841  1.00  0.00     0.159 C 
BRANCH  11  12
HETATM   12  C   UNL     1      -2.981   6.286 -33.570  1.00  0.00     0.169 C 
BRANCH  12  13
HETATM   13  C   UNL     1      -1.951   6.434 -32.469  1.00  0.00    -0.025 A 
HETATM   14  C   UNL     1      -1.087   5.374 -32.139  1.00  0.00     0.046 A 
HETATM   15  C   UNL     1      -0.124   5.523 -31.141  1.00  0.00     0.068 A 
HETATM   16  C   UNL     1      -0.031   6.736 -30.455  1.00  0.00     0.037 A 
HETATM   17  C   UNL     1      -0.882   7.796 -30.768  1.00  0.00     0.003 A 
HETATM   18  C   UNL     1      -1.835   7.646 -31.772  1.00  0.00     0.010 A 
BRANCH  15  19
HETATM   19  O   UNL     1       0.776   4.572 -30.745  1.00  0.00    -0.356 OA
HETATM   20  C   UNL     1       1.139   4.566 -29.369  1.00  0.00     0.210 C 
ENDBRANCH  15  19
ENDBRANCH  12  13
BRANCH  12  21
HETATM   21  O   UNL     1      -2.434   6.830 -34.780  1.00  0.00    -0.389 OA
HETATM   22  H   UNL     1      -1.668   6.273 -35.009  1.00  0.00     0.210 HD
ENDBRANCH  12  21
ENDBRANCH  11  12
ENDBRANCH   8  11
ENDBRANCH   1   7
BRANCH   2  23
HETATM   23  C   UNL     1      -6.405   0.888 -32.705  1.00  0.00     0.110 A 
HETATM   24  N   UNL     1      -7.257   0.080 -33.306  1.00  0.00    -0.233 NA
HETATM   25  C   UNL     1      -6.517  -1.000 -33.729  1.00  0.00     0.087 A 
HETATM   26  C   UNL     1      -5.181  -0.850 -33.383  1.00  0.00     0.062 A 
HETATM   27  C   UNL     1      -6.925  -2.155 -34.409  1.00  0.00     0.057 A 
HETATM   28  N   UNL     1      -5.138   0.354 -32.735  1.00  0.00    -0.342 N 
HETATM   29  C   UNL     1      -4.196  -1.799 -33.666  1.00  0.00     0.034 A 
HETATM   30  H   UNL     1      -4.346   0.731 -32.233  1.00  0.00     0.167 HD
HETATM   31  C   UNL     1      -4.617  -2.945 -34.347  1.00  0.00     0.026 A 
HETATM   32  C   UNL     1      -5.956  -3.117 -34.709  1.00  0.00     0.036 A 
HETATM   33 CL   UNL     1      -6.423  -4.553 -35.541  1.00  0.00    -0.084 Cl
ENDBRANCH   2  23
TORSDOF 7
ENDMDL
MODEL 6
REMARK VINA RESULT:      -8.9      2.147      3.028
REMARK  7 active torsions:
REMARK  status: ('A' for Active; 'I' for Inactive)
REMARK    1  A    between atoms: O_2  and  C_3 
REMARK    2  A    between atoms: C_5  and  C_6 
REMARK    3  A    between atoms: C_6  and  O_7 
REMARK    4  A    between atoms: C_6  and  C_8 
REMARK    5  A    between atoms: C_8  and  N_9 
REMARK       I    between atoms: N_9  and  C_10 
REMARK    6  A    between atoms: C_10  and  C_11 
REMARK    7  A    between atoms: C_12  and  C_13 
ROOT
HETATM    1  C   UNL     1      -5.316   2.589 -31.200  1.00  0.00     0.089 C 
HETATM    2  C   UNL     1      -6.397   1.906 -32.093  1.00  0.00     0.068 C 
HETATM    3  C   UNL     1      -7.739   1.676 -31.360  1.00  0.00     0.013 C 
HETATM    4  C   UNL     1      -8.243   2.903 -30.621  1.00  0.00     0.001 C 
HETATM    5  C   UNL     1      -7.196   3.374 -29.630  1.00  0.00     0.001 C 
HETATM    6  C   UNL     1      -5.909   3.737 -30.355  1.00  0.00     0.015 C 
ENDROOT
BRANCH   1   7
HETATM    7  C   UNL     1      -4.121   3.060 -32.071  1.00  0.00     0.222 C 
HETATM    8  N   UNL     1      -4.357   3.998 -33.045  1.00  0.00    -0.358 N 
HETATM    9  H   UNL     1      -5.257   4.450 -33.104  1.00  0.00     0.162 HD
HETATM   10  O   UNL     1      -2.981   2.631 -31.896  1.00  0.00    -0.273 OA
BRANCH   8  11
HETATM   11  C   UNL     1      -3.285   4.626 -33.809  1.00  0.00     0.159 C 
BRANCH  11  12
HETATM   12  C   UNL     1      -2.979   6.115 -33.526  1.00  0.00     0.169 C 
BRANCH  12  13
HETATM   13  C   UNL     1      -1.917   6.343 -32.470  1.00  0.00    -0.025 A 
HETATM   14  C   UNL     1      -0.997   5.331 -32.140  1.00  0.00     0.046 A 
HETATM   15  C   UNL     1      -0.005   5.552 -31.184  1.00  0.00     0.068 A 
HETATM   16  C   UNL     1       0.060   6.790 -30.540  1.00  0.00     0.037 A 
HETATM   17  C   UNL     1      -0.847   7.802 -30.853  1.00  0.00     0.003 A 
HETATM   18  C   UNL     1      -1.829   7.580 -31.816  1.00  0.00     0.010 A 
BRANCH  15  19
HETATM   19  O   UNL     1       0.949   4.654 -30.793  1.00  0.00    -0.356 OA
HETATM   20  C   UNL     1       1.193   4.545 -29.396  1.00  0.00     0.210 C 
ENDBRANCH  15  19
ENDBRANCH  12  13
BRANCH  12  21
HETATM   21  O   UNL     1      -2.544   6.729 -34.748  1.00  0.00    -0.389 OA
HETATM   22  H   UNL     1      -1.689   7.153 -34.552  1.00  0.00     0.210 HD
ENDBRANCH  12  21
ENDBRANCH  11  12
ENDBRANCH   8  11
ENDBRANCH   1   7
BRANCH   2  23
HETATM   23  C   UNL     1      -5.946   0.575 -32.658  1.00  0.00     0.110 A 
HETATM   24  N   UNL     1      -4.919  -0.154 -32.267  1.00  0.00    -0.233 NA
HETATM   25  C   UNL     1      -4.938  -1.283 -33.054  1.00  0.00     0.087 A 
HETATM   26  C   UNL     1      -6.002  -1.248 -33.944  1.00  0.00     0.062 A 
HETATM   27  C   UNL     1      -4.067  -2.381 -33.068  1.00  0.00     0.057 A 
HETATM   28  N   UNL     1      -6.623  -0.060 -33.672  1.00  0.00    -0.342 N 
HETATM   29  C   UNL     1      -6.264  -2.251 -34.880  1.00  0.00     0.034 A 
HETATM   30  H   UNL     1      -7.367   0.360 -34.213  1.00  0.00     0.167 HD
HETATM   31  C   UNL     1      -5.388  -3.340 -34.882  1.00  0.00     0.026 A 
HETATM   32  C   UNL     1      -4.311  -3.401 -33.993  1.00  0.00     0.036 A 
HETATM   33 CL   UNL     1      -3.257  -4.764 -34.041  1.00  0.00    -0.084 Cl
ENDBRANCH   2  23
TORSDOF 7
ENDMDL
MODEL 7
REMARK VINA RESULT:      -8.8      2.736      7.059
REMARK  7 active torsions:
REMARK  status: ('A' for Active; 'I' for Inactive)
REMARK    1  A    between atoms: O_2  and  C_3 
REMARK    2  A    between atoms: C_5  and  C_6 
REMARK    3  A    between atoms: C_6  and  O_7 
REMARK    4  A    between atoms: C_6  and  C_8 
REMARK    5  A    between atoms: C_8  and  N_9 
REMARK       I    between atoms: N_9  and  C_10 
REMARK    6  A    between atoms: C_10  and  C_11 
REMARK    7  A    between atoms: C_12  and  C_13 
ROOT
HETATM    1  C   UNL     1      -5.747   2.814 -32.338  1.00  0.00     0.089 C 
HETATM    2  C   UNL     1      -4.588   1.826 -32.001  1.00  0.00     0.068 C 
HETATM    3  C   UNL     1      -3.196   2.351 -32.419  1.00  0.00     0.013 C 
HETATM    4  C   UNL     1      -2.929   3.779 -31.977  1.00  0.00     0.001 C 
HETATM    5  C   UNL     1      -4.006   4.697 -32.524  1.00  0.00     0.001 C 
HETATM    6  C   UNL     1      -5.372   4.274 -32.008  1.00  0.00     0.015 C 
ENDROOT
BRANCH   1   7
HETATM    7  C   UNL     1      -7.053   2.369 -31.629  1.00  0.00     0.222 C 
HETATM    8  N   UNL     1      -8.075   1.871 -32.399  1.00  0.00    -0.358 N 
HETATM    9  H   UNL     1      -7.925   1.691 -33.381  1.00  0.00     0.162 HD
HETATM   10  O   UNL     1      -7.184   2.435 -30.407  1.00  0.00    -0.273 OA
BRANCH   8  11
HETATM   11  C   UNL     1      -9.277   1.279 -31.825  1.00  0.00     0.159 C 
BRANCH  11  12
HETATM   12  C   UNL     1      -9.950   0.124 -32.604  1.00  0.00     0.169 C 
BRANCH  12  13
HETATM   13  C   UNL     1     -11.204   0.528 -33.353  1.00  0.00    -0.025 A 
HETATM   14  C   UNL     1     -11.243   1.712 -34.112  1.00  0.00     0.046 A 
HETATM   15  C   UNL     1     -12.391   2.068 -34.820  1.00  0.00     0.068 A 
HETATM   16  C   UNL     1     -13.516   1.242 -34.759  1.00  0.00     0.037 A 
HETATM   17  C   UNL     1     -13.495   0.067 -34.007  1.00  0.00     0.003 A 
HETATM   18  C   UNL     1     -12.342  -0.289 -33.311  1.00  0.00     0.010 A 
BRANCH  15  19
HETATM   19  O   UNL     1     -12.542   3.181 -35.600  1.00  0.00    -0.356 OA
HETATM   20  C   UNL     1     -11.509   4.157 -35.530  1.00  0.00     0.210 C 
ENDBRANCH  15  19
ENDBRANCH  12  13
BRANCH  12  21
HETATM   21  O   UNL     1      -9.005  -0.399 -33.548  1.00  0.00    -0.389 OA
HETATM   22  H   UNL     1      -9.462  -1.112 -34.028  1.00  0.00     0.210 HD
ENDBRANCH  12  21
ENDBRANCH  11  12
ENDBRANCH   8  11
ENDBRANCH   1   7
BRANCH   2  23
HETATM   23  C   UNL     1      -4.773   0.458 -32.625  1.00  0.00     0.110 A 
HETATM   24  N   UNL     1      -5.749   0.067 -33.421  1.00  0.00    -0.233 NA
HETATM   25  C   UNL     1      -5.464  -1.237 -33.753  1.00  0.00     0.087 A 
HETATM   26  C   UNL     1      -4.284  -1.654 -33.153  1.00  0.00     0.062 A 
HETATM   27  C   UNL     1      -6.177  -2.134 -34.561  1.00  0.00     0.057 A 
HETATM   28  N   UNL     1      -3.868  -0.560 -32.444  1.00  0.00    -0.342 N 
HETATM   29  C   UNL     1      -3.752  -2.938 -33.295  1.00  0.00     0.034 A 
HETATM   30  H   UNL     1      -3.105  -0.537 -31.780  1.00  0.00     0.167 HD
HETATM   31  C   UNL     1      -4.473  -3.820 -34.104  1.00  0.00     0.026 A 
HETATM   32  C   UNL     1      -5.662  -3.424 -34.724  1.00  0.00     0.036 A 
HETATM   33 CL   UNL     1      -6.515  -4.553 -35.706  1.00  0.00    -0.084 Cl
ENDBRANCH   2  23
TORSDOF 7
ENDMDL
MODEL 8
REMARK VINA RESULT:      -8.8      4.323      9.625
REMARK  7 active torsions:
REMARK  status: ('A' for Active; 'I' for Inactive)
REMARK    1  A    between atoms: O_2  and  C_3 
REMARK    2  A    between atoms: C_5  and  C_6 
REMARK    3  A    between atoms: C_6  and  O_7 
REMARK    4  A    between atoms: C_6  and  C_8 
REMARK    5  A    between atoms: C_8  and  N_9 
REMARK       I    between atoms: N_9  and  C_10 
REMARK    6  A    between atoms: C_10  and  C_11 
REMARK    7  A    between atoms: C_12  and  C_13 
ROOT
HETATM    1  C   UNL     1      -2.154   4.653 -32.394  1.00  0.00     0.089 C 
HETATM    2  C   UNL     1      -2.230   6.167 -32.025  1.00  0.00     0.068 C 
HETATM    3  C   UNL     1      -1.485   7.078 -33.028  1.00  0.00     0.013 C 
HETATM    4  C   UNL     1      -1.823   6.785 -34.479  1.00  0.00     0.001 C 
HETATM    5  C   UNL     1      -1.526   5.331 -34.794  1.00  0.00     0.001 C 
HETATM    6  C   UNL     1      -2.357   4.418 -33.906  1.00  0.00     0.015 C 
ENDROOT
BRANCH   1   7
HETATM    7  C   UNL     1      -3.159   3.842 -31.534  1.00  0.00     0.222 C 
HETATM    8  N   UNL     1      -3.183   2.476 -31.678  1.00  0.00    -0.358 N 
HETATM    9  H   UNL     1      -2.482   2.015 -32.238  1.00  0.00     0.162 HD
HETATM   10  O   UNL     1      -3.911   4.386 -30.726  1.00  0.00    -0.273 OA
BRANCH   8  11
HETATM   11  C   UNL     1      -3.970   1.607 -30.811  1.00  0.00     0.159 C 
BRANCH  11  12
HETATM   12  C   UNL     1      -3.718   0.084 -30.902  1.00  0.00     0.169 C 
BRANCH  12  13
HETATM   13  C   UNL     1      -4.360  -0.582 -32.102  1.00  0.00    -0.025 A 
HETATM   14  C   UNL     1      -3.842  -1.780 -32.627  1.00  0.00     0.046 A 
HETATM   15  C   UNL     1      -4.451  -2.403 -33.717  1.00  0.00     0.068 A 
HETATM   16  C   UNL     1      -5.578  -1.818 -34.298  1.00  0.00     0.037 A 
HETATM   17  C   UNL     1      -6.101  -0.628 -33.791  1.00  0.00     0.003 A 
HETATM   18  C   UNL     1      -5.496  -0.015 -32.696  1.00  0.00     0.010 A 
BRANCH  15  19
HETATM   19  O   UNL     1      -4.048  -3.572 -34.301  1.00  0.00    -0.356 OA
HETATM   20  C   UNL     1      -3.505  -4.566 -33.440  1.00  0.00     0.210 C 
ENDBRANCH  15  19
ENDBRANCH  12  13
BRANCH  12  21
HETATM   21  O   UNL     1      -2.301  -0.139 -30.962  1.00  0.00    -0.389 OA
HETATM   22  H   UNL     1      -2.166  -1.090 -30.799  1.00  0.00     0.210 HD
ENDBRANCH  12  21
ENDBRANCH  11  12
ENDBRANCH   8  11
ENDBRANCH   1   7
BRANCH   2  23
HETATM   23  C   UNL     1      -1.694   6.468 -30.641  1.00  0.00     0.110 A 
HETATM   24  N   UNL     1      -0.435   6.650 -30.291  1.00  0.00    -0.233 NA
HETATM   25  C   UNL     1      -0.455   6.929 -28.944  1.00  0.00     0.087 A 
HETATM   26  C   UNL     1      -1.754   6.923 -28.457  1.00  0.00     0.062 A 
HETATM   27  C   UNL     1       0.606   7.190 -28.067  1.00  0.00     0.057 A 
HETATM   28  N   UNL     1      -2.519   6.628 -29.553  1.00  0.00    -0.342 N 
HETATM   29  C   UNL     1      -2.083   7.156 -27.120  1.00  0.00     0.034 A 
HETATM   30  H   UNL     1      -3.507   6.418 -29.549  1.00  0.00     0.167 HD
HETATM   31  C   UNL     1      -1.015   7.417 -26.256  1.00  0.00     0.026 A 
HETATM   32  C   UNL     1       0.303   7.433 -26.723  1.00  0.00     0.036 A 
HETATM   33 CL   UNL     1       1.584   7.752 -25.615  1.00  0.00    -0.084 Cl
ENDBRANCH   2  23
TORSDOF 7
ENDMDL
MODEL 9
REMARK VINA RESULT:      -8.7      3.429      5.794
REMARK  7 active torsions:
REMARK  status: ('A' for Active; 'I' for Inactive)
REMARK    1  A    between atoms: O_2  and  C_3 
REMARK    2  A    between atoms: C_5  and  C_6 
REMARK    3  A    between atoms: C_6  and  O_7 
REMARK    4  A    between atoms: C_6  and  C_8 
REMARK    5  A    between atoms: C_8  and  N_9 
REMARK       I    between atoms: N_9  and  C_10 
REMARK    6  A    between atoms: C_10  and  C_11 
REMARK    7  A    between atoms: C_12  and  C_13 
ROOT
HETATM    1  C   UNL     1      -4.997  -1.543 -33.950  1.00  0.00     0.089 C 
HETATM    2  C   UNL     1      -6.495  -1.592 -33.518  1.00  0.00     0.068 C 
HETATM    3  C   UNL     1      -7.370  -2.466 -34.444  1.00  0.00     0.013 C 
HETATM    4  C   UNL     1      -6.773  -3.832 -34.731  1.00  0.00     0.001 C 
HETATM    5  C   UNL     1      -5.391  -3.674 -35.336  1.00  0.00     0.001 C 
HETATM    6  C   UNL     1      -4.475  -2.933 -34.375  1.00  0.00     0.015 C 
ENDROOT
BRANCH   1   7
HETATM    7  C   UNL     1      -4.134  -0.913 -32.825  1.00  0.00     0.222 C 
HETATM    8  N   UNL     1      -3.797   0.415 -32.931  1.00  0.00    -0.358 N 
HETATM    9  H   UNL     1      -4.205   0.982 -33.659  1.00  0.00     0.162 HD
HETATM   10  O   UNL     1      -3.768  -1.562 -31.846  1.00  0.00    -0.273 OA
BRANCH   8  11
HETATM   11  C   UNL     1      -3.131   1.145 -31.859  1.00  0.00     0.159 C 
BRANCH  11  12
HETATM   12  C   UNL     1      -3.438   2.654 -31.721  1.00  0.00     0.169 C 
BRANCH  12  13
HETATM   13  C   UNL     1      -4.787   2.959 -31.100  1.00  0.00    -0.025 A 
HETATM   14  C   UNL     1      -5.321   4.260 -31.136  1.00  0.00     0.046 A 
HETATM   15  C   UNL     1      -6.574   4.532 -30.585  1.00  0.00     0.068 A 
HETATM   16  C   UNL     1      -7.294   3.499 -29.980  1.00  0.00     0.037 A 
HETATM   17  C   UNL     1      -6.776   2.205 -29.933  1.00  0.00     0.003 A 
HETATM   18  C   UNL     1      -5.529   1.937 -30.493  1.00  0.00     0.010 A 
BRANCH  15  19
HETATM   19  O   UNL     1      -7.200   5.748 -30.573  1.00  0.00    -0.356 OA
HETATM   20  C   UNL     1      -8.483   5.803 -29.961  1.00  0.00     0.210 C 
ENDBRANCH  15  19
ENDBRANCH  12  13
BRANCH  12  21
HETATM   21  O   UNL     1      -2.418   3.253 -30.908  1.00  0.00    -0.389 OA
HETATM   22  H   UNL     1      -2.157   4.076 -31.358  1.00  0.00     0.210 HD
ENDBRANCH  12  21
ENDBRANCH  11  12
ENDBRANCH   8  11
ENDBRANCH   1   7
BRANCH   2  23
HETATM   23  C   UNL     1      -7.133  -0.221 -33.436  1.00  0.00     0.110 A 
HETATM   24  N   UNL     1      -6.665   0.911 -33.924  1.00  0.00    -0.233 NA
HETATM   25  C   UNL     1      -7.610   1.867 -33.631  1.00  0.00     0.087 A 
HETATM   26  C   UNL     1      -8.684   1.309 -32.951  1.00  0.00     0.062 A 
HETATM   27  C   UNL     1      -7.612   3.241 -33.908  1.00  0.00     0.057 A 
HETATM   28  N   UNL     1      -8.355  -0.015 -32.841  1.00  0.00    -0.342 N 
HETATM   29  C   UNL     1      -9.786   2.042 -32.507  1.00  0.00     0.034 A 
HETATM   30  H   UNL     1      -8.849  -0.706 -32.292  1.00  0.00     0.167 HD
HETATM   31  C   UNL     1      -9.776   3.410 -32.792  1.00  0.00     0.026 A 
HETATM   32  C   UNL     1      -8.708   3.996 -33.478  1.00  0.00     0.036 A 
HETATM   33 CL   UNL     1      -8.741   5.689 -33.798  1.00  0.00    -0.084 Cl
ENDBRANCH   2  23
TORSDOF 7
ENDMDL
MODEL 10
REMARK VINA RESULT:      -8.7      2.817      4.954
REMARK  7 active torsions:
REMARK  status: ('A' for Active; 'I' for Inactive)
REMARK    1  A    between atoms: O_2  and  C_3 
REMARK    2  A    between atoms: C_5  and  C_6 
REMARK    3  A    between atoms: C_6  and  O_7 
REMARK    4  A    between atoms: C_6  and  C_8 
REMARK    5  A    between atoms: C_8  and  N_9 
REMARK       I    between atoms: N_9  and  C_10 
REMARK    6  A    between atoms: C_10  and  C_11 
REMARK    7  A    between atoms: C_12  and  C_13 
ROOT
HETATM    1  C   UNL     1      -4.922  -0.848 -33.568  1.00  0.00     0.089 C 
HETATM    2  C   UNL     1      -6.456  -1.116 -33.480  1.00  0.00     0.068 C 
HETATM    3  C   UNL     1      -6.960  -2.134 -34.528  1.00  0.00     0.013 C 
HETATM    4  C   UNL     1      -6.122  -3.399 -34.596  1.00  0.00     0.001 C 
HETATM    5  C   UNL     1      -4.676  -3.044 -34.885  1.00  0.00     0.001 C 
HETATM    6  C   UNL     1      -4.122  -2.151 -33.786  1.00  0.00     0.015 C 
ENDROOT
BRANCH   1   7
HETATM    7  C   UNL     1      -4.441  -0.068 -32.316  1.00  0.00     0.222 C 
HETATM    8  N   UNL     1      -3.727   1.090 -32.505  1.00  0.00    -0.358 N 
HETATM    9  H   UNL     1      -3.628   1.476 -33.433  1.00  0.00     0.162 HD
HETATM   10  O   UNL     1      -4.698  -0.449 -31.174  1.00  0.00    -0.273 OA
BRANCH   8  11
HETATM   11  C   UNL     1      -3.367   1.981 -31.409  1.00  0.00     0.159 C 
BRANCH  11  12
HETATM   12  C   UNL     1      -3.821   3.456 -31.505  1.00  0.00     0.169 C 
BRANCH  12  13
HETATM   13  C   UNL     1      -2.876   4.348 -32.284  1.00  0.00    -0.025 A 
HETATM   14  C   UNL     1      -1.887   5.103 -31.626  1.00  0.00     0.046 A 
HETATM   15  C   UNL     1      -1.003   5.904 -32.349  1.00  0.00     0.068 A 
HETATM   16  C   UNL     1      -1.115   5.965 -33.740  1.00  0.00     0.037 A 
HETATM   17  C   UNL     1      -2.092   5.225 -34.406  1.00  0.00     0.003 A 
HETATM   18  C   UNL     1      -2.966   4.419 -33.681  1.00  0.00     0.010 A 
BRANCH  15  19
HETATM   19  O   UNL     1       0.003   6.668 -31.823  1.00  0.00    -0.356 OA
HETATM   20  C   UNL     1       0.384   6.389 -30.481  1.00  0.00     0.210 C 
ENDBRANCH  15  19
ENDBRANCH  12  13
BRANCH  12  21
HETATM   21  O   UNL     1      -5.108   3.495 -32.138  1.00  0.00    -0.389 OA
HETATM   22  H   UNL     1      -5.615   2.746 -31.776  1.00  0.00     0.210 HD
ENDBRANCH  12  21
ENDBRANCH  11  12
ENDBRANCH   8  11
ENDBRANCH   1   7
BRANCH   2  23
HETATM   23  C   UNL     1      -7.287   0.142 -33.621  1.00  0.00     0.110 A 
HETATM   24  N   UNL     1      -6.861   1.391 -33.591  1.00  0.00    -0.233 NA
HETATM   25  C   UNL     1      -7.974   2.173 -33.796  1.00  0.00     0.087 A 
HETATM   26  C   UNL     1      -9.107   1.388 -33.960  1.00  0.00     0.062 A 
HETATM   27  C   UNL     1      -8.093   3.568 -33.846  1.00  0.00     0.057 A 
HETATM   28  N   UNL     1      -8.643   0.106 -33.844  1.00  0.00    -0.342 N 
HETATM   29  C   UNL     1     -10.387   1.906 -34.166  1.00  0.00     0.034 A 
HETATM   30  H   UNL     1      -9.210  -0.729 -33.785  1.00  0.00     0.167 HD
HETATM   31  C   UNL     1     -10.491   3.299 -34.215  1.00  0.00     0.026 A 
HETATM   32  C   UNL     1      -9.364   4.112 -34.057  1.00  0.00     0.036 A 
HETATM   33 CL   UNL     1      -9.548   5.825 -34.119  1.00  0.00    -0.084 Cl
ENDBRANCH   2  23
TORSDOF 7
ENDMDL
