MODEL 1
REMARK VINA RESULT:      -8.1      0.000      0.000
REMARK  7 active torsions:
REMARK  status: ('A' for Active; 'I' for Inactive)
REMARK    1  A    between atoms: O_2  and  C_3 
REMARK    2  A    between atoms: C_4  and  C_5 
REMARK    3  A    between atoms: C_5  and  N_6 
REMARK    4  A    between atoms: N_6  and  C_7 
REMARK    5  A    between atoms: C_9  and  N_10 
REMARK    6  A    between atoms: N_10  and  C_11 
REMARK    7  A    between atoms: C_11  and  C_12 
ROOT
HETATM    1  C   UNL     1      -3.876   1.320 -32.255  1.00  0.00     0.181 A 
HETATM    2  N   UNL     1      -3.471   0.074 -32.515  1.00  0.00    -0.207 NA
HETATM    3  C   UNL     1      -4.309  -0.698 -33.233  1.00  0.00     0.119 A 
HETATM    4  C   UNL     1      -5.525  -0.213 -33.763  1.00  0.00     0.031 A 
HETATM    5  C   UNL     1      -5.859   1.119 -33.446  1.00  0.00     0.048 A 
HETATM    6  N   UNL     1      -5.017   1.832 -32.694  1.00  0.00    -0.330 N 
HETATM    7  H   UNL     1      -5.197   2.794 -32.439  1.00  0.00     0.168 HD
HETATM    8  C   UNL     1      -6.411  -0.929 -34.602  1.00  0.00     0.017 A 
HETATM    9  C   UNL     1      -7.594  -0.348 -35.064  1.00  0.00     0.001 A 
HETATM   10  C   UNL     1      -7.917   0.960 -34.714  1.00  0.00     0.002 A 
HETATM   11  C   UNL     1      -7.048   1.698 -33.911  1.00  0.00     0.030 A 
ENDROOT
BRANCH   1  12
HETATM   12  N   UNL     1      -3.096   2.182 -31.486  1.00  0.00    -0.258 NA
HETATM   13  H   UNL     1      -3.315   1.938 -30.514  1.00  0.00     0.130 HD
BRANCH  12  14
HETATM   14  C   UNL     1      -3.619   3.560 -31.619  1.00  0.00     0.136 C 
BRANCH  14  15
HETATM   15  C   UNL     1      -2.784   4.365 -32.592  1.00  0.00    -0.012 A 
HETATM   16  C   UNL     1      -1.514   4.843 -32.209  1.00  0.00     0.075 A 
HETATM   17  C   UNL     1      -0.796   5.675 -33.076  1.00  0.00     0.037 A 
HETATM   18  C   UNL     1      -1.327   6.037 -34.314  1.00  0.00     0.003 A 
HETATM   19  C   UNL     1      -2.579   5.573 -34.699  1.00  0.00     0.001 A 
HETATM   20  C   UNL     1      -3.305   4.748 -33.842  1.00  0.00     0.011 A 
BRANCH  16  21
HETATM   21  O   UNL     1      -1.080   4.461 -30.966  1.00  0.00    -0.355 OA
HETATM   22  C   UNL     1      -0.008   5.204 -30.393  1.00  0.00     0.210 C 
ENDBRANCH  16  21
ENDBRANCH  14  15
ENDBRANCH  12  14
ENDBRANCH   1  12
BRANCH   3  23
HETATM   23  N   UNL     1      -3.871  -2.012 -33.401  1.00  0.00    -0.273 NA
HETATM   24  H   UNL     1      -3.130  -1.967 -34.103  1.00  0.00     0.129 HD
BRANCH  23  25
HETATM   25  C   UNL     1      -3.342  -2.629 -32.183  1.00  0.00     0.120 C 
BRANCH  25  26
HETATM   26  C   UNL     1      -3.164  -4.093 -32.451  1.00  0.00    -0.022 C 
HETATM   27  C   UNL     1      -3.620  -4.733 -33.535  1.00  0.00     0.008 C 
ENDBRANCH  25  26
ENDBRANCH  23  25
ENDBRANCH   3  23
TORSDOF 7
ENDMDL
MODEL 2
REMARK VINA RESULT:      -8.0      1.333      3.350
REMARK  7 active torsions:
REMARK  status: ('A' for Active; 'I' for Inactive)
REMARK    1  A    between atoms: O_2  and  C_3 
REMARK    2  A    between atoms: C_4  and  C_5 
REMARK    3  A    between atoms: C_5  and  N_6 
REMARK    4  A    between atoms: N_6  and  C_7 
REMARK    5  A    between atoms: C_9  and  N_10 
REMARK    6  A    between atoms: N_10  and  C_11 
REMARK    7  A    between atoms: C_11  and  C_12 
ROOT
HETATM    1  C   UNL     1      -4.153   1.185 -32.335  1.00  0.00     0.181 A 
HETATM    2  N   UNL     1      -5.392   1.680 -32.423  1.00  0.00    -0.207 NA
HETATM    3  C   UNL     1      -6.298   0.929 -33.076  1.00  0.00     0.119 A 
HETATM    4  C   UNL     1      -6.001  -0.356 -33.582  1.00  0.00     0.031 A 
HETATM    5  C   UNL     1      -4.672  -0.797 -33.429  1.00  0.00     0.048 A 
HETATM    6  N   UNL     1      -3.796   0.001 -32.813  1.00  0.00    -0.330 N 
HETATM    7  H   UNL     1      -2.831  -0.262 -32.665  1.00  0.00     0.168 HD
HETATM    8  C   UNL     1      -6.919  -1.242 -34.193  1.00  0.00     0.017 A 
HETATM    9  C   UNL     1      -6.510  -2.492 -34.664  1.00  0.00     0.001 A 
HETATM   10  C   UNL     1      -5.185  -2.894 -34.527  1.00  0.00     0.002 A 
HETATM   11  C   UNL     1      -4.266  -2.051 -33.904  1.00  0.00     0.030 A 
ENDROOT
BRANCH   1  12
HETATM   12  N   UNL     1      -3.136   1.906 -31.714  1.00  0.00    -0.258 NA
HETATM   13  H   UNL     1      -3.128   1.569 -30.744  1.00  0.00     0.130 HD
BRANCH  12  14
HETATM   14  C   UNL     1      -3.552   3.320 -31.581  1.00  0.00     0.136 C 
BRANCH  14  15
HETATM   15  C   UNL     1      -2.813   4.197 -32.569  1.00  0.00    -0.012 A 
HETATM   16  C   UNL     1      -1.570   4.766 -32.221  1.00  0.00     0.075 A 
HETATM   17  C   UNL     1      -0.946   5.660 -33.098  1.00  0.00     0.037 A 
HETATM   18  C   UNL     1      -1.544   5.995 -34.314  1.00  0.00     0.003 A 
HETATM   19  C   UNL     1      -2.769   5.441 -34.664  1.00  0.00     0.001 A 
HETATM   20  C   UNL     1      -3.402   4.554 -33.796  1.00  0.00     0.011 A 
BRANCH  16  21
HETATM   21  O   UNL     1      -1.068   4.403 -30.998  1.00  0.00    -0.355 OA
HETATM   22  C   UNL     1       0.016   5.174 -30.484  1.00  0.00     0.210 C 
ENDBRANCH  16  21
ENDBRANCH  14  15
ENDBRANCH  12  14
ENDBRANCH   1  12
BRANCH   3  23
HETATM   23  N   UNL     1      -7.550   1.533 -33.208  1.00  0.00    -0.273 NA
HETATM   24  H   UNL     1      -8.058   0.966 -33.889  1.00  0.00     0.129 HD
BRANCH  23  25
HETATM   25  C   UNL     1      -8.320   1.597 -31.965  1.00  0.00     0.120 C 
BRANCH  25  26
HETATM   26  C   UNL     1      -9.321   0.482 -31.988  1.00  0.00    -0.022 C 
HETATM   27  C   UNL     1     -10.142   0.213 -33.011  1.00  0.00     0.008 C 
ENDBRANCH  25  26
ENDBRANCH  23  25
ENDBRANCH   3  23
TORSDOF 7
ENDMDL
MODEL 3
REMARK VINA RESULT:      -8.0      2.094      4.782
REMARK  7 active torsions:
REMARK  status: ('A' for Active; 'I' for Inactive)
REMARK    1  A    between atoms: O_2  and  C_3 
REMARK    2  A    between atoms: C_4  and  C_5 
REMARK    3  A    between atoms: C_5  and  N_6 
REMARK    4  A    between atoms: N_6  and  C_7 
REMARK    5  A    between atoms: C_9  and  N_10 
REMARK    6  A    between atoms: N_10  and  C_11 
REMARK    7  A    between atoms: C_11  and  C_12 
ROOT
HETATM    1  C   UNL     1      -4.310  -0.578 -33.316  1.00  0.00     0.181 A 
HETATM    2  N   UNL     1      -5.472  -0.144 -33.811  1.00  0.00    -0.207 NA
HETATM    3  C   UNL     1      -6.242  -1.054 -34.436  1.00  0.00     0.119 A 
HETATM    4  C   UNL     1      -5.898  -2.423 -34.509  1.00  0.00     0.031 A 
HETATM    5  C   UNL     1      -4.659  -2.786 -33.946  1.00  0.00     0.048 A 
HETATM    6  N   UNL     1      -3.908  -1.841 -33.375  1.00  0.00    -0.330 N 
HETATM    7  H   UNL     1      -3.014  -2.040 -32.946  1.00  0.00     0.168 HD
HETATM    8  C   UNL     1      -6.694  -3.452 -35.062  1.00  0.00     0.017 A 
HETATM    9  C   UNL     1      -6.247  -4.775 -35.085  1.00  0.00     0.001 A 
HETATM   10  C   UNL     1      -5.007  -5.106 -34.548  1.00  0.00     0.002 A 
HETATM   11  C   UNL     1      -4.214  -4.115 -33.972  1.00  0.00     0.030 A 
ENDROOT
BRANCH   1  12
HETATM   12  N   UNL     1      -3.426   0.296 -32.687  1.00  0.00    -0.258 NA
HETATM   13  H   UNL     1      -2.516  -0.178 -32.723  1.00  0.00     0.130 HD
BRANCH  12  14
HETATM   14  C   UNL     1      -3.732   0.340 -31.239  1.00  0.00     0.136 C 
BRANCH  14  15
HETATM   15  C   UNL     1      -4.617   1.522 -30.909  1.00  0.00    -0.012 A 
HETATM   16  C   UNL     1      -4.115   2.836 -31.021  1.00  0.00     0.075 A 
HETATM   17  C   UNL     1      -4.904   3.917 -30.611  1.00  0.00     0.037 A 
HETATM   18  C   UNL     1      -6.181   3.707 -30.091  1.00  0.00     0.003 A 
HETATM   19  C   UNL     1      -6.683   2.416 -29.974  1.00  0.00     0.001 A 
HETATM   20  C   UNL     1      -5.904   1.331 -30.374  1.00  0.00     0.011 A 
BRANCH  16  21
HETATM   21  O   UNL     1      -2.842   2.950 -31.517  1.00  0.00    -0.355 OA
HETATM   22  C   UNL     1      -2.619   3.944 -32.514  1.00  0.00     0.210 C 
ENDBRANCH  16  21
ENDBRANCH  14  15
ENDBRANCH  12  14
ENDBRANCH   1  12
BRANCH   3  23
HETATM   23  N   UNL     1      -7.403  -0.526 -35.004  1.00  0.00    -0.273 NA
HETATM   24  H   UNL     1      -8.111  -1.255 -34.909  1.00  0.00     0.129 HD
BRANCH  23  25
HETATM   25  C   UNL     1      -7.882   0.698 -34.360  1.00  0.00     0.120 C 
BRANCH  25  26
HETATM   26  C   UNL     1      -9.051   0.334 -33.495  1.00  0.00    -0.022 C 
HETATM   27  C   UNL     1      -9.062   0.400 -32.157  1.00  0.00     0.008 C 
ENDBRANCH  25  26
ENDBRANCH  23  25
ENDBRANCH   3  23
TORSDOF 7
ENDMDL
MODEL 4
REMARK VINA RESULT:      -7.7      2.167      4.473
REMARK  7 active torsions:
REMARK  status: ('A' for Active; 'I' for Inactive)
REMARK    1  A    between atoms: O_2  and  C_3 
REMARK    2  A    between atoms: C_4  and  C_5 
REMARK    3  A    between atoms: C_5  and  N_6 
REMARK    4  A    between atoms: N_6  and  C_7 
REMARK    5  A    between atoms: C_9  and  N_10 
REMARK    6  A    between atoms: N_10  and  C_11 
REMARK    7  A    between atoms: C_11  and  C_12 
ROOT
HETATM    1  C   UNL     1      -4.649  -0.058 -33.194  1.00  0.00     0.181 A 
HETATM    2  N   UNL     1      -5.831   0.244 -33.738  1.00  0.00    -0.207 NA
HETATM    3  C   UNL     1      -6.472  -0.749 -34.383  1.00  0.00     0.119 A 
HETATM    4  C   UNL     1      -5.978  -2.072 -34.428  1.00  0.00     0.031 A 
HETATM    5  C   UNL     1      -4.730  -2.295 -33.814  1.00  0.00     0.048 A 
HETATM    6  N   UNL     1      -4.110  -1.270 -33.224  1.00  0.00    -0.330 N 
HETATM    7  H   UNL     1      -3.218  -1.367 -32.759  1.00  0.00     0.168 HD
HETATM    8  C   UNL     1      -6.635  -3.185 -35.002  1.00  0.00     0.017 A 
HETATM    9  C   UNL     1      -6.046  -4.452 -34.994  1.00  0.00     0.001 A 
HETATM   10  C   UNL     1      -4.799  -4.642 -34.406  1.00  0.00     0.002 A 
HETATM   11  C   UNL     1      -4.142  -3.567 -33.809  1.00  0.00     0.030 A 
ENDROOT
BRANCH   1  12
HETATM   12  N   UNL     1      -3.892   0.911 -32.540  1.00  0.00    -0.258 NA
HETATM   13  H   UNL     1      -3.741   0.536 -31.597  1.00  0.00     0.130 HD
BRANCH  12  14
HETATM   14  C   UNL     1      -4.732   2.107 -32.302  1.00  0.00     0.136 C 
BRANCH  14  15
HETATM   15  C   UNL     1      -4.134   3.329 -32.964  1.00  0.00    -0.012 A 
HETATM   16  C   UNL     1      -4.912   4.114 -33.840  1.00  0.00     0.075 A 
HETATM   17  C   UNL     1      -4.321   5.179 -34.529  1.00  0.00     0.037 A 
HETATM   18  C   UNL     1      -2.967   5.470 -34.358  1.00  0.00     0.003 A 
HETATM   19  C   UNL     1      -2.191   4.700 -33.500  1.00  0.00     0.001 A 
HETATM   20  C   UNL     1      -2.768   3.634 -32.812  1.00  0.00     0.011 A 
BRANCH  16  21
HETATM   21  O   UNL     1      -6.226   3.743 -33.968  1.00  0.00    -0.355 OA
HETATM   22  C   UNL     1      -7.211   4.752 -33.758  1.00  0.00     0.210 C 
ENDBRANCH  16  21
ENDBRANCH  14  15
ENDBRANCH  12  14
ENDBRANCH   1  12
BRANCH   3  23
HETATM   23  N   UNL     1      -7.660  -0.354 -35.001  1.00  0.00    -0.273 NA
HETATM   24  H   UNL     1      -8.330  -1.102 -34.812  1.00  0.00     0.129 HD
BRANCH  23  25
HETATM   25  C   UNL     1      -8.200   0.914 -34.507  1.00  0.00     0.120 C 
BRANCH  25  26
HETATM   26  C   UNL     1      -9.517   0.626 -33.851  1.00  0.00    -0.022 C 
HETATM   27  C   UNL     1      -9.664   0.122 -32.619  1.00  0.00     0.008 C 
ENDBRANCH  25  26
ENDBRANCH  23  25
ENDBRANCH   3  23
TORSDOF 7
ENDMDL
MODEL 5
REMARK VINA RESULT:      -7.7      4.302      7.633
REMARK  7 active torsions:
REMARK  status: ('A' for Active; 'I' for Inactive)
REMARK    1  A    between atoms: O_2  and  C_3 
REMARK    2  A    between atoms: C_4  and  C_5 
REMARK    3  A    between atoms: C_5  and  N_6 
REMARK    4  A    between atoms: N_6  and  C_7 
REMARK    5  A    between atoms: C_9  and  N_10 
REMARK    6  A    between atoms: N_10  and  C_11 
REMARK    7  A    between atoms: C_11  and  C_12 
ROOT
HETATM    1  C   UNL     1      -8.151   0.319 -33.860  1.00  0.00     0.181 A 
HETATM    2  N   UNL     1      -9.473   0.507 -33.870  1.00  0.00    -0.207 NA
HETATM    3  C   UNL     1      -9.979   1.305 -32.911  1.00  0.00     0.119 A 
HETATM    4  C   UNL     1      -9.166   1.985 -31.978  1.00  0.00     0.031 A 
HETATM    5  C   UNL     1      -7.781   1.734 -32.055  1.00  0.00     0.048 A 
HETATM    6  N   UNL     1      -7.329   0.900 -32.995  1.00  0.00    -0.330 N 
HETATM    7  H   UNL     1      -6.347   0.687 -33.107  1.00  0.00     0.168 HD
HETATM    8  C   UNL     1      -9.611   2.909 -31.005  1.00  0.00     0.017 A 
HETATM    9  C   UNL     1      -8.713   3.520 -30.126  1.00  0.00     0.001 A 
HETATM   10  C   UNL     1      -7.353   3.235 -30.203  1.00  0.00     0.002 A 
HETATM   11  C   UNL     1      -6.884   2.348 -31.171  1.00  0.00     0.030 A 
ENDROOT
BRANCH   1  12
HETATM   12  N   UNL     1      -7.538  -0.521 -34.787  1.00  0.00    -0.258 NA
HETATM   13  H   UNL     1      -7.981  -1.436 -34.647  1.00  0.00     0.130 HD
BRANCH  12  14
HETATM   14  C   UNL     1      -6.135  -0.756 -34.377  1.00  0.00     0.136 C 
BRANCH  14  15
HETATM   15  C   UNL     1      -5.816  -2.235 -34.361  1.00  0.00    -0.012 A 
HETATM   16  C   UNL     1      -4.546  -2.683 -33.939  1.00  0.00     0.075 A 
HETATM   17  C   UNL     1      -4.225  -4.041 -34.029  1.00  0.00     0.037 A 
HETATM   18  C   UNL     1      -5.148  -4.958 -34.533  1.00  0.00     0.003 A 
HETATM   19  C   UNL     1      -6.401  -4.526 -34.953  1.00  0.00     0.001 A 
HETATM   20  C   UNL     1      -6.730  -3.175 -34.874  1.00  0.00     0.011 A 
BRANCH  16  21
HETATM   21  O   UNL     1      -3.692  -1.713 -33.482  1.00  0.00    -0.355 OA
HETATM   22  C   UNL     1      -3.352  -1.744 -32.098  1.00  0.00     0.210 C 
ENDBRANCH  16  21
ENDBRANCH  14  15
ENDBRANCH  12  14
ENDBRANCH   1  12
BRANCH   3  23
HETATM   23  N   UNL     1     -11.373   1.396 -32.921  1.00  0.00    -0.273 NA
HETATM   24  H   UNL     1     -11.607   2.088 -32.208  1.00  0.00     0.129 HD
BRANCH  23  25
HETATM   25  C   UNL     1     -11.936   1.816 -34.205  1.00  0.00     0.120 C 
BRANCH  25  26
HETATM   26  C   UNL     1     -13.053   0.876 -34.545  1.00  0.00    -0.022 C 
HETATM   27  C   UNL     1     -13.526  -0.076 -33.730  1.00  0.00     0.008 C 
ENDBRANCH  25  26
ENDBRANCH  23  25
ENDBRANCH   3  23
TORSDOF 7
ENDMDL
MODEL 6
REMARK VINA RESULT:      -7.6      4.306      7.950
REMARK  7 active torsions:
REMARK  status: ('A' for Active; 'I' for Inactive)
REMARK    1  A    between atoms: O_2  and  C_3 
REMARK    2  A    between atoms: C_4  and  C_5 
REMARK    3  A    between atoms: C_5  and  N_6 
REMARK    4  A    between atoms: N_6  and  C_7 
REMARK    5  A    between atoms: C_9  and  N_10 
REMARK    6  A    between atoms: N_10  and  C_11 
REMARK    7  A    between atoms: C_11  and  C_12 
ROOT
HETATM    1  C   UNL     1      -8.611   0.432 -32.334  1.00  0.00     0.181 A 
HETATM    2  N   UNL     1      -7.696   0.806 -31.436  1.00  0.00    -0.207 NA
HETATM    3  C   UNL     1      -6.478   0.243 -31.542  1.00  0.00     0.119 A 
HETATM    4  C   UNL     1      -6.136  -0.642 -32.589  1.00  0.00     0.031 A 
HETATM    5  C   UNL     1      -7.165  -0.966 -33.495  1.00  0.00     0.048 A 
HETATM    6  N   UNL     1      -8.370  -0.417 -33.324  1.00  0.00    -0.330 N 
HETATM    7  H   UNL     1      -9.147  -0.603 -33.945  1.00  0.00     0.168 HD
HETATM    8  C   UNL     1      -4.858  -1.199 -32.823  1.00  0.00     0.017 A 
HETATM    9  C   UNL     1      -4.636  -2.072 -33.892  1.00  0.00     0.001 A 
HETATM   10  C   UNL     1      -5.676  -2.399 -34.757  1.00  0.00     0.002 A 
HETATM   11  C   UNL     1      -6.939  -1.843 -34.565  1.00  0.00     0.030 A 
ENDROOT
BRANCH   1  12
HETATM   12  N   UNL     1      -9.912   0.929 -32.282  1.00  0.00    -0.258 NA
HETATM   13  H   UNL     1     -10.452   0.205 -31.795  1.00  0.00     0.130 HD
BRANCH  12  14
HETATM   14  C   UNL     1     -10.488   0.926 -33.646  1.00  0.00     0.136 C 
BRANCH  14  15
HETATM   15  C   UNL     1     -11.988   1.123 -33.599  1.00  0.00    -0.012 A 
HETATM   16  C   UNL     1     -12.528   2.380 -33.257  1.00  0.00     0.075 A 
HETATM   17  C   UNL     1     -13.912   2.525 -33.112  1.00  0.00     0.037 A 
HETATM   18  C   UNL     1     -14.763   1.436 -33.302  1.00  0.00     0.003 A 
HETATM   19  C   UNL     1     -14.241   0.192 -33.637  1.00  0.00     0.001 A 
HETATM   20  C   UNL     1     -12.864   0.035 -33.778  1.00  0.00     0.011 A 
BRANCH  16  21
HETATM   21  O   UNL     1     -11.620   3.389 -33.063  1.00  0.00    -0.355 OA
HETATM   22  C   UNL     1     -11.728   4.140 -31.857  1.00  0.00     0.210 C 
ENDBRANCH  16  21
ENDBRANCH  14  15
ENDBRANCH  12  14
ENDBRANCH   1  12
BRANCH   3  23
HETATM   23  N   UNL     1      -5.590   0.608 -30.529  1.00  0.00    -0.273 NA
HETATM   24  H   UNL     1      -4.797  -0.030 -30.615  1.00  0.00     0.129 HD
BRANCH  23  25
HETATM   25  C   UNL     1      -5.109   1.988 -30.621  1.00  0.00     0.120 C 
BRANCH  25  26
HETATM   26  C   UNL     1      -3.751   1.959 -31.253  1.00  0.00    -0.022 C 
HETATM   27  C   UNL     1      -3.388   2.683 -32.320  1.00  0.00     0.008 C 
ENDBRANCH  25  26
ENDBRANCH  23  25
ENDBRANCH   3  23
TORSDOF 7
ENDMDL
MODEL 7
REMARK VINA RESULT:      -7.6      4.298      7.457
REMARK  7 active torsions:
REMARK  status: ('A' for Active; 'I' for Inactive)
REMARK    1  A    between atoms: O_2  and  C_3 
REMARK    2  A    between atoms: C_4  and  C_5 
REMARK    3  A    between atoms: C_5  and  N_6 
REMARK    4  A    between atoms: N_6  and  C_7 
REMARK    5  A    between atoms: C_9  and  N_10 
REMARK    6  A    between atoms: N_10  and  C_11 
REMARK    7  A    between atoms: C_11  and  C_12 
ROOT
HETATM    1  C   UNL     1      -7.864   0.181 -34.078  1.00  0.00     0.181 A 
HETATM    2  N   UNL     1      -7.440  -0.915 -34.715  1.00  0.00    -0.207 NA
HETATM    3  C   UNL     1      -6.262  -1.429 -34.314  1.00  0.00     0.119 A 
HETATM    4  C   UNL     1      -5.531  -0.903 -33.226  1.00  0.00     0.031 A 
HETATM    5  C   UNL     1      -6.066   0.245 -32.609  1.00  0.00     0.048 A 
HETATM    6  N   UNL     1      -7.215   0.746 -33.069  1.00  0.00    -0.330 N 
HETATM    7  H   UNL     1      -7.654   1.562 -32.663  1.00  0.00     0.168 HD
HETATM    8  C   UNL     1      -4.339  -1.441 -32.687  1.00  0.00     0.017 A 
HETATM    9  C   UNL     1      -3.696  -0.831 -31.607  1.00  0.00     0.001 A 
HETATM   10  C   UNL     1      -4.229   0.319 -31.032  1.00  0.00     0.002 A 
HETATM   11  C   UNL     1      -5.417   0.855 -31.527  1.00  0.00     0.030 A 
ENDROOT
BRANCH   1  12
HETATM   12  N   UNL     1      -9.051   0.810 -34.446  1.00  0.00    -0.258 NA
HETATM   13  H   UNL     1      -8.791   1.789 -34.607  1.00  0.00     0.130 HD
BRANCH  12  14
HETATM   14  C   UNL     1      -9.948   0.883 -33.271  1.00  0.00     0.136 C 
BRANCH  14  15
HETATM   15  C   UNL     1     -11.392   1.024 -33.700  1.00  0.00    -0.012 A 
HETATM   16  C   UNL     1     -11.886   2.274 -34.128  1.00  0.00     0.075 A 
HETATM   17  C   UNL     1     -13.247   2.420 -34.421  1.00  0.00     0.037 A 
HETATM   18  C   UNL     1     -14.120   1.339 -34.290  1.00  0.00     0.003 A 
HETATM   19  C   UNL     1     -13.643   0.104 -33.867  1.00  0.00     0.001 A 
HETATM   20  C   UNL     1     -12.292  -0.051 -33.567  1.00  0.00     0.011 A 
BRANCH  16  21
HETATM   21  O   UNL     1     -10.966   3.287 -34.203  1.00  0.00    -0.355 OA
HETATM   22  C   UNL     1     -10.941   4.057 -35.402  1.00  0.00     0.210 C 
ENDBRANCH  16  21
ENDBRANCH  14  15
ENDBRANCH  12  14
ENDBRANCH   1  12
BRANCH   3  23
HETATM   23  N   UNL     1      -5.830  -2.521 -35.070  1.00  0.00    -0.273 NA
HETATM   24  H   UNL     1      -4.874  -2.706 -34.763  1.00  0.00     0.129 HD
BRANCH  23  25
HETATM   25  C   UNL     1      -6.636  -3.730 -34.892  1.00  0.00     0.120 C 
BRANCH  25  26
HETATM   26  C   UNL     1      -5.701  -4.898 -34.819  1.00  0.00    -0.022 C 
HETATM   27  C   UNL     1      -4.507  -4.885 -34.212  1.00  0.00     0.008 C 
ENDBRANCH  25  26
ENDBRANCH  23  25
ENDBRANCH   3  23
TORSDOF 7
ENDMDL
MODEL 8
REMARK VINA RESULT:      -7.6      3.820      7.496
REMARK  7 active torsions:
REMARK  status: ('A' for Active; 'I' for Inactive)
REMARK    1  A    between atoms: O_2  and  C_3 
REMARK    2  A    between atoms: C_4  and  C_5 
REMARK    3  A    between atoms: C_5  and  N_6 
REMARK    4  A    between atoms: N_6  and  C_7 
REMARK    5  A    between atoms: C_9  and  N_10 
REMARK    6  A    between atoms: N_10  and  C_11 
REMARK    7  A    between atoms: C_11  and  C_12 
ROOT
HETATM    1  C   UNL     1      -7.508   0.057 -34.571  1.00  0.00     0.181 A 
HETATM    2  N   UNL     1      -6.448   0.619 -33.983  1.00  0.00    -0.207 NA
HETATM    3  C   UNL     1      -5.425  -0.199 -33.670  1.00  0.00     0.119 A 
HETATM    4  C   UNL     1      -5.415  -1.571 -34.007  1.00  0.00     0.031 A 
HETATM    5  C   UNL     1      -6.573  -2.068 -34.638  1.00  0.00     0.048 A 
HETATM    6  N   UNL     1      -7.580  -1.228 -34.890  1.00  0.00    -0.330 N 
HETATM    7  H   UNL     1      -8.433  -1.522 -35.347  1.00  0.00     0.168 HD
HETATM    8  C   UNL     1      -4.345  -2.471 -33.798  1.00  0.00     0.017 A 
HETATM    9  C   UNL     1      -4.449  -3.814 -34.169  1.00  0.00     0.001 A 
HETATM   10  C   UNL     1      -5.614  -4.288 -34.765  1.00  0.00     0.002 A 
HETATM   11  C   UNL     1      -6.674  -3.416 -35.007  1.00  0.00     0.030 A 
ENDROOT
BRANCH   1  12
HETATM   12  N   UNL     1      -8.632   0.813 -34.897  1.00  0.00    -0.258 NA
HETATM   13  H   UNL     1      -8.265   1.740 -35.142  1.00  0.00     0.130 HD
BRANCH  12  14
HETATM   14  C   UNL     1      -9.418   1.071 -33.670  1.00  0.00     0.136 C 
BRANCH  14  15
HETATM   15  C   UNL     1     -10.895   1.173 -33.984  1.00  0.00    -0.012 A 
HETATM   16  C   UNL     1     -11.403   2.313 -34.641  1.00  0.00     0.075 A 
HETATM   17  C   UNL     1     -12.782   2.447 -34.832  1.00  0.00     0.037 A 
HETATM   18  C   UNL     1     -13.661   1.463 -34.375  1.00  0.00     0.003 A 
HETATM   19  C   UNL     1     -13.170   0.338 -33.724  1.00  0.00     0.001 A 
HETATM   20  C   UNL     1     -11.798   0.197 -33.523  1.00  0.00     0.011 A 
BRANCH  16  21
HETATM   21  O   UNL     1     -10.473   3.241 -35.034  1.00  0.00    -0.355 OA
HETATM   22  C   UNL     1     -10.953   4.537 -35.382  1.00  0.00     0.210 C 
ENDBRANCH  16  21
ENDBRANCH  14  15
ENDBRANCH  12  14
ENDBRANCH   1  12
BRANCH   3  23
HETATM   23  N   UNL     1      -4.384   0.428 -32.983  1.00  0.00    -0.273 NA
HETATM   24  H   UNL     1      -3.847   0.927 -33.695  1.00  0.00     0.129 HD
BRANCH  23  25
HETATM   25  C   UNL     1      -4.826   1.378 -31.961  1.00  0.00     0.120 C 
BRANCH  25  26
HETATM   26  C   UNL     1      -4.883   0.649 -30.652  1.00  0.00    -0.022 C 
HETATM   27  C   UNL     1      -5.995   0.466 -29.928  1.00  0.00     0.008 C 
ENDBRANCH  25  26
ENDBRANCH  23  25
ENDBRANCH   3  23
TORSDOF 7
ENDMDL
MODEL 9
REMARK VINA RESULT:      -7.4     15.369     17.299
REMARK  7 active torsions:
REMARK  status: ('A' for Active; 'I' for Inactive)
REMARK    1  A    between atoms: O_2  and  C_3 
REMARK    2  A    between atoms: C_4  and  C_5 
REMARK    3  A    between atoms: C_5  and  N_6 
REMARK    4  A    between atoms: N_6  and  C_7 
REMARK    5  A    between atoms: C_9  and  N_10 
REMARK    6  A    between atoms: N_10  and  C_11 
REMARK    7  A    between atoms: C_11  and  C_12 
ROOT
HETATM    1  C   UNL     1      -4.536 -12.447 -38.797  1.00  0.00     0.181 A 
HETATM    2  N   UNL     1      -5.744 -12.168 -39.295  1.00  0.00    -0.207 NA
HETATM    3  C   UNL     1      -5.999 -12.602 -40.543  1.00  0.00     0.119 A 
HETATM    4  C   UNL     1      -5.082 -13.384 -41.281  1.00  0.00     0.031 A 
HETATM    5  C   UNL     1      -3.840 -13.637 -40.666  1.00  0.00     0.048 A 
HETATM    6  N   UNL     1      -3.615 -13.149 -39.444  1.00  0.00    -0.330 N 
HETATM    7  H   UNL     1      -2.748 -13.303 -38.947  1.00  0.00     0.168 HD
HETATM    8  C   UNL     1      -5.312 -13.954 -42.554  1.00  0.00     0.017 A 
HETATM    9  C   UNL     1      -4.325 -14.708 -43.195  1.00  0.00     0.001 A 
HETATM   10  C   UNL     1      -3.095 -14.921 -42.580  1.00  0.00     0.002 A 
HETATM   11  C   UNL     1      -2.852 -14.392 -41.313  1.00  0.00     0.030 A 
ENDROOT
BRANCH   1  12
HETATM   12  N   UNL     1      -4.163 -12.006 -37.529  1.00  0.00    -0.258 NA
HETATM   13  H   UNL     1      -3.309 -11.458 -37.681  1.00  0.00     0.130 HD
BRANCH  12  14
HETATM   14  C   UNL     1      -3.691 -13.160 -36.732  1.00  0.00     0.136 C 
BRANCH  14  15
HETATM   15  C   UNL     1      -4.787 -13.676 -35.824  1.00  0.00    -0.012 A 
HETATM   16  C   UNL     1      -5.651 -14.699 -36.265  1.00  0.00     0.075 A 
HETATM   17  C   UNL     1      -6.726 -15.095 -35.462  1.00  0.00     0.037 A 
HETATM   18  C   UNL     1      -6.953 -14.483 -34.229  1.00  0.00     0.003 A 
HETATM   19  C   UNL     1      -6.109 -13.471 -33.786  1.00  0.00     0.001 A 
HETATM   20  C   UNL     1      -5.038 -13.066 -34.580  1.00  0.00     0.011 A 
BRANCH  16  21
HETATM   21  O   UNL     1      -5.371 -15.227 -37.499  1.00  0.00    -0.355 OA
HETATM   22  C   UNL     1      -6.479 -15.602 -38.314  1.00  0.00     0.210 C 
ENDBRANCH  16  21
ENDBRANCH  14  15
ENDBRANCH  12  14
ENDBRANCH   1  12
BRANCH   3  23
HETATM   23  N   UNL     1      -7.244 -12.210 -41.040  1.00  0.00    -0.273 NA
HETATM   24  H   UNL     1      -7.177 -12.308 -42.055  1.00  0.00     0.129 HD
BRANCH  23  25
HETATM   25  C   UNL     1      -8.365 -13.013 -40.550  1.00  0.00     0.120 C 
BRANCH  25  26
HETATM   26  C   UNL     1      -9.347 -12.083 -39.904  1.00  0.00    -0.022 C 
HETATM   27  C   UNL     1     -10.608 -11.897 -40.315  1.00  0.00     0.008 C 
ENDBRANCH  25  26
ENDBRANCH  23  25
ENDBRANCH   3  23
TORSDOF 7
ENDMDL
MODEL 10
REMARK VINA RESULT:      -7.4      4.312      7.245
REMARK  7 active torsions:
REMARK  status: ('A' for Active; 'I' for Inactive)
REMARK    1  A    between atoms: O_2  and  C_3 
REMARK    2  A    between atoms: C_4  and  C_5 
REMARK    3  A    between atoms: C_5  and  N_6 
REMARK    4  A    between atoms: N_6  and  C_7 
REMARK    5  A    between atoms: C_9  and  N_10 
REMARK    6  A    between atoms: N_10  and  C_11 
REMARK    7  A    between atoms: C_11  and  C_12 
ROOT
HETATM    1  C   UNL     1      -7.394   0.063 -34.421  1.00  0.00     0.181 A 
HETATM    2  N   UNL     1      -6.887  -1.063 -34.931  1.00  0.00    -0.207 NA
HETATM    3  C   UNL     1      -5.736  -1.507 -34.392  1.00  0.00     0.119 A 
HETATM    4  C   UNL     1      -5.117  -0.876 -33.290  1.00  0.00     0.031 A 
HETATM    5  C   UNL     1      -5.734   0.297 -32.814  1.00  0.00     0.048 A 
HETATM    6  N   UNL     1      -6.851   0.724 -33.407  1.00  0.00    -0.330 N 
HETATM    7  H   UNL     1      -7.344   1.554 -33.106  1.00  0.00     0.168 HD
HETATM    8  C   UNL     1      -3.963  -1.332 -32.611  1.00  0.00     0.017 A 
HETATM    9  C   UNL     1      -3.433  -0.621 -31.532  1.00  0.00     0.001 A 
HETATM   10  C   UNL     1      -4.044   0.551 -31.097  1.00  0.00     0.002 A 
HETATM   11  C   UNL     1      -5.198   1.009 -31.731  1.00  0.00     0.030 A 
ENDROOT
BRANCH   1  12
HETATM   12  N   UNL     1      -8.560   0.624 -34.937  1.00  0.00    -0.258 NA
HETATM   13  H   UNL     1      -8.318   1.602 -35.133  1.00  0.00     0.130 HD
BRANCH  12  14
HETATM   14  C   UNL     1      -9.568   0.731 -33.858  1.00  0.00     0.136 C 
BRANCH  14  15
HETATM   15  C   UNL     1     -10.672   1.693 -34.242  1.00  0.00    -0.012 A 
HETATM   16  C   UNL     1     -12.023   1.323 -34.077  1.00  0.00     0.075 A 
HETATM   17  C   UNL     1     -13.036   2.174 -34.533  1.00  0.00     0.037 A 
HETATM   18  C   UNL     1     -12.720   3.385 -35.152  1.00  0.00     0.003 A 
HETATM   19  C   UNL     1     -11.391   3.755 -35.322  1.00  0.00     0.001 A 
HETATM   20  C   UNL     1     -10.375   2.914 -34.877  1.00  0.00     0.011 A 
BRANCH  16  21
HETATM   21  O   UNL     1     -12.243   0.107 -33.483  1.00  0.00    -0.355 OA
HETATM   22  C   UNL     1     -13.559  -0.431 -33.570  1.00  0.00     0.210 C 
ENDBRANCH  16  21
ENDBRANCH  14  15
ENDBRANCH  12  14
ENDBRANCH   1  12
BRANCH   3  23
HETATM   23  N   UNL     1      -5.212  -2.638 -35.021  1.00  0.00    -0.273 NA
HETATM   24  H   UNL     1      -4.328  -2.830 -34.546  1.00  0.00     0.129 HD
BRANCH  23  25
HETATM   25  C   UNL     1      -6.070  -3.821 -34.939  1.00  0.00     0.120 C 
BRANCH  25  26
HETATM   26  C   UNL     1      -5.230  -4.964 -34.453  1.00  0.00    -0.022 C 
HETATM   27  C   UNL     1      -3.987  -4.847 -33.970  1.00  0.00     0.008 C 
ENDBRANCH  25  26
ENDBRANCH  23  25
ENDBRANCH   3  23
TORSDOF 7
ENDMDL
