MODEL 1
REMARK VINA RESULT:      -9.1      0.000      0.000
REMARK  7 active torsions:
REMARK  status: ('A' for Active; 'I' for Inactive)
REMARK    1  A    between atoms: C_4  and  C_5 
REMARK    2  A    between atoms: C_8  and  C_9 
REMARK    3  A    between atoms: C_9  and  C_10 
REMARK       I    between atoms: C_10  and  N_11 
REMARK    4  A    between atoms: N_11  and  N_12 
REMARK       I    between atoms: N_12  and  C_13 
REMARK    5  A    between atoms: C_13  and  C_14 
REMARK    6  A    between atoms: C_14  and  C_15 
REMARK    7  A    between atoms: C_16  and  O_17 
ROOT
HETATM    1  C   UNL     1      -5.826   4.321 -33.687  1.00  0.00     0.241 C 
HETATM    2  N   UNL     1      -4.698   4.636 -34.417  1.00  0.00    -0.267 N 
HETATM    3  O   UNL     1      -6.227   5.032 -32.763  1.00  0.00    -0.271 OA
HETATM    4  H   UNL     1      -4.212   3.952 -35.000  1.00  0.00     0.190 HD
ENDROOT
BRANCH   1   5
HETATM    5  C   UNL     1      -6.529   3.052 -34.118  1.00  0.00     0.164 C 
BRANCH   5   6
HETATM    6  C   UNL     1      -5.934   1.820 -33.518  1.00  0.00     0.051 A 
HETATM    7  C   UNL     1      -5.239   1.700 -32.329  1.00  0.00     0.079 A 
HETATM    8  S   UNL     1      -4.790   0.071 -32.065  1.00  0.00    -0.079 SA
HETATM    9  C   UNL     1      -5.569  -0.385 -33.534  1.00  0.00     0.108 A 
HETATM   10  N   UNL     1      -6.126   0.618 -34.188  1.00  0.00    -0.244 NA
BRANCH   9  11
HETATM   11  C   UNL     1      -5.643  -1.795 -33.954  1.00  0.00     0.000 A 
HETATM   12  C   UNL     1      -4.524  -2.624 -33.762  1.00  0.00     0.021 A 
HETATM   13  C   UNL     1      -4.535  -3.972 -34.148  1.00  0.00    -0.061 A 
HETATM   14  C   UNL     1      -3.314  -4.827 -33.982  1.00  0.00     0.048 C 
HETATM   15  C   UNL     1      -5.686  -4.498 -34.745  1.00  0.00     0.007 A 
HETATM   16  C   UNL     1      -6.810  -3.696 -34.930  1.00  0.00     0.001 A 
HETATM   17  C   UNL     1      -6.791  -2.356 -34.535  1.00  0.00     0.014 A 
ENDBRANCH   9  11
ENDBRANCH   5   6
ENDBRANCH   1   5
BRANCH   2  18
HETATM   18  N   UNL     1      -3.938   5.738 -34.003  1.00  0.00    -0.267 N 
HETATM   19  C   UNL     1      -2.647   5.857 -34.475  1.00  0.00     0.240 C 
HETATM   20  O   UNL     1      -2.189   5.094 -35.326  1.00  0.00    -0.272 OA
HETATM   21  H   UNL     1      -4.293   6.261 -33.202  1.00  0.00     0.190 HD
BRANCH  19  22
HETATM   22  C   UNL     1      -1.871   7.019 -33.890  1.00  0.00     0.146 C 
BRANCH  22  23
HETATM   23  C   UNL     1      -1.212   6.773 -32.545  1.00  0.00    -0.016 A 
HETATM   24  C   UNL     1      -1.291   7.773 -31.553  1.00  0.00     0.074 A 
HETATM   25  C   UNL     1      -0.677   7.577 -30.311  1.00  0.00     0.037 A 
HETATM   26  C   UNL     1       0.009   6.392 -30.042  1.00  0.00     0.003 A 
HETATM   27  C   UNL     1       0.089   5.400 -31.012  1.00  0.00     0.001 A 
HETATM   28  C   UNL     1      -0.515   5.588 -32.256  1.00  0.00     0.010 A 
BRANCH  24  29
HETATM   29  O   UNL     1      -1.977   8.909 -31.906  1.00  0.00    -0.355 OA
HETATM   30  C   UNL     1      -3.095   9.267 -31.103  1.00  0.00     0.210 C 
ENDBRANCH  24  29
ENDBRANCH  22  23
ENDBRANCH  19  22
ENDBRANCH   2  18
TORSDOF 7
ENDMDL
MODEL 2
REMARK VINA RESULT:      -9.0      2.339      3.268
REMARK  7 active torsions:
REMARK  status: ('A' for Active; 'I' for Inactive)
REMARK    1  A    between atoms: C_4  and  C_5 
REMARK    2  A    between atoms: C_8  and  C_9 
REMARK    3  A    between atoms: C_9  and  C_10 
REMARK       I    between atoms: C_10  and  N_11 
REMARK    4  A    between atoms: N_11  and  N_12 
REMARK       I    between atoms: N_12  and  C_13 
REMARK    5  A    between atoms: C_13  and  C_14 
REMARK    6  A    between atoms: C_14  and  C_15 
REMARK    7  A    between atoms: C_16  and  O_17 
ROOT
HETATM    1  C   UNL     1      -7.096   3.242 -30.662  1.00  0.00     0.241 C 
HETATM    2  N   UNL     1      -6.238   3.338 -31.739  1.00  0.00    -0.267 N 
HETATM    3  O   UNL     1      -6.822   3.724 -29.561  1.00  0.00    -0.271 OA
HETATM    4  H   UNL     1      -6.322   2.742 -32.565  1.00  0.00     0.190 HD
ENDROOT
BRANCH   1   5
HETATM    5  C   UNL     1      -8.392   2.513 -30.946  1.00  0.00     0.164 C 
BRANCH   5   6
HETATM    6  C   UNL     1      -8.328   1.660 -32.171  1.00  0.00     0.051 A 
HETATM    7  C   UNL     1      -9.094   1.754 -33.317  1.00  0.00     0.079 A 
HETATM    8  S   UNL     1      -8.616   0.567 -34.452  1.00  0.00    -0.079 SA
HETATM    9  C   UNL     1      -7.400   0.012 -33.362  1.00  0.00     0.108 A 
HETATM   10  N   UNL     1      -7.356   0.668 -32.217  1.00  0.00    -0.244 NA
BRANCH   9  11
HETATM   11  C   UNL     1      -6.464  -1.061 -33.743  1.00  0.00     0.000 A 
HETATM   12  C   UNL     1      -6.964  -2.199 -34.399  1.00  0.00     0.021 A 
HETATM   13  C   UNL     1      -6.122  -3.255 -34.779  1.00  0.00    -0.061 A 
HETATM   14  C   UNL     1      -6.680  -4.483 -35.433  1.00  0.00     0.048 C 
HETATM   15  C   UNL     1      -4.756  -3.172 -34.489  1.00  0.00     0.007 A 
HETATM   16  C   UNL     1      -4.240  -2.045 -33.852  1.00  0.00     0.001 A 
HETATM   17  C   UNL     1      -5.087  -0.996 -33.485  1.00  0.00     0.014 A 
ENDBRANCH   9  11
ENDBRANCH   5   6
ENDBRANCH   1   5
BRANCH   2  18
HETATM   18  N   UNL     1      -4.975   3.904 -31.519  1.00  0.00    -0.267 N 
HETATM   19  C   UNL     1      -3.861   3.111 -31.704  1.00  0.00     0.240 C 
HETATM   20  O   UNL     1      -3.939   1.970 -32.158  1.00  0.00    -0.272 OA
HETATM   21  H   UNL     1      -4.955   4.791 -31.015  1.00  0.00     0.190 HD
BRANCH  19  22
HETATM   22  C   UNL     1      -2.550   3.778 -31.340  1.00  0.00     0.146 C 
BRANCH  22  23
HETATM   23  C   UNL     1      -2.002   4.770 -32.348  1.00  0.00    -0.016 A 
HETATM   24  C   UNL     1      -1.365   5.938 -31.879  1.00  0.00     0.074 A 
HETATM   25  C   UNL     1      -0.866   6.877 -32.789  1.00  0.00     0.037 A 
HETATM   26  C   UNL     1      -0.985   6.661 -34.162  1.00  0.00     0.003 A 
HETATM   27  C   UNL     1      -1.607   5.510 -34.634  1.00  0.00     0.001 A 
HETATM   28  C   UNL     1      -2.114   4.572 -33.734  1.00  0.00     0.010 A 
BRANCH  24  29
HETATM   29  O   UNL     1      -1.300   6.074 -30.515  1.00  0.00    -0.355 OA
HETATM   30  C   UNL     1      -0.006   6.209 -29.937  1.00  0.00     0.210 C 
ENDBRANCH  24  29
ENDBRANCH  22  23
ENDBRANCH  19  22
ENDBRANCH   2  18
TORSDOF 7
ENDMDL
MODEL 3
REMARK VINA RESULT:      -9.0      1.623      2.385
REMARK  7 active torsions:
REMARK  status: ('A' for Active; 'I' for Inactive)
REMARK    1  A    between atoms: C_4  and  C_5 
REMARK    2  A    between atoms: C_8  and  C_9 
REMARK    3  A    between atoms: C_9  and  C_10 
REMARK       I    between atoms: C_10  and  N_11 
REMARK    4  A    between atoms: N_11  and  N_12 
REMARK       I    between atoms: N_12  and  C_13 
REMARK    5  A    between atoms: C_13  and  C_14 
REMARK    6  A    between atoms: C_14  and  C_15 
REMARK    7  A    between atoms: C_16  and  O_17 
ROOT
HETATM    1  C   UNL     1      -5.185   4.961 -33.965  1.00  0.00     0.241 C 
HETATM    2  N   UNL     1      -4.484   4.931 -32.777  1.00  0.00    -0.267 N 
HETATM    3  O   UNL     1      -4.642   5.229 -35.039  1.00  0.00    -0.271 OA
HETATM    4  H   UNL     1      -4.945   4.965 -31.865  1.00  0.00     0.190 HD
ENDROOT
BRANCH   1   5
HETATM    5  C   UNL     1      -6.657   4.631 -33.843  1.00  0.00     0.164 C 
BRANCH   5   6
HETATM    6  C   UNL     1      -6.907   3.263 -33.297  1.00  0.00     0.051 A 
HETATM    7  C   UNL     1      -7.908   2.857 -32.436  1.00  0.00     0.079 A 
HETATM    8  S   UNL     1      -7.788   1.179 -32.132  1.00  0.00    -0.079 SA
HETATM    9  C   UNL     1      -6.426   1.083 -33.185  1.00  0.00     0.108 A 
HETATM   10  N   UNL     1      -6.077   2.235 -33.727  1.00  0.00    -0.244 NA
BRANCH   9  11
HETATM   11  C   UNL     1      -5.779  -0.207 -33.483  1.00  0.00     0.000 A 
HETATM   12  C   UNL     1      -6.549  -1.243 -34.039  1.00  0.00     0.021 A 
HETATM   13  C   UNL     1      -5.988  -2.494 -34.336  1.00  0.00    -0.061 A 
HETATM   14  C   UNL     1      -6.836  -3.604 -34.882  1.00  0.00     0.048 C 
HETATM   15  C   UNL     1      -4.633  -2.713 -34.064  1.00  0.00     0.007 A 
HETATM   16  C   UNL     1      -3.851  -1.693 -33.527  1.00  0.00     0.001 A 
HETATM   17  C   UNL     1      -4.418  -0.449 -33.241  1.00  0.00     0.014 A 
ENDBRANCH   9  11
ENDBRANCH   5   6
ENDBRANCH   1   5
BRANCH   2  18
HETATM   18  N   UNL     1      -3.141   5.332 -32.800  1.00  0.00    -0.267 N 
HETATM   19  C   UNL     1      -2.208   4.533 -32.171  1.00  0.00     0.240 C 
HETATM   20  O   UNL     1      -2.502   3.438 -31.693  1.00  0.00    -0.272 OA
HETATM   21  H   UNL     1      -2.959   6.298 -33.075  1.00  0.00     0.190 HD
BRANCH  19  22
HETATM   22  C   UNL     1      -0.804   5.101 -32.158  1.00  0.00     0.146 C 
BRANCH  22  23
HETATM   23  C   UNL     1      -0.354   5.743 -30.858  1.00  0.00    -0.016 A 
HETATM   24  C   UNL     1      -0.608   7.115 -30.651  1.00  0.00     0.074 A 
HETATM   25  C   UNL     1      -0.189   7.733 -29.468  1.00  0.00     0.037 A 
HETATM   26  C   UNL     1       0.475   6.998 -28.484  1.00  0.00     0.003 A 
HETATM   27  C   UNL     1       0.726   5.645 -28.678  1.00  0.00     0.001 A 
HETATM   28  C   UNL     1       0.317   5.021 -29.858  1.00  0.00     0.010 A 
BRANCH  24  29
HETATM   29  O   UNL     1      -1.258   7.761 -31.673  1.00  0.00    -0.355 OA
HETATM   30  C   UNL     1      -2.337   8.617 -31.317  1.00  0.00     0.210 C 
ENDBRANCH  24  29
ENDBRANCH  22  23
ENDBRANCH  19  22
ENDBRANCH   2  18
TORSDOF 7
ENDMDL
MODEL 4
REMARK VINA RESULT:      -8.7      2.530      9.077
REMARK  7 active torsions:
REMARK  status: ('A' for Active; 'I' for Inactive)
REMARK    1  A    between atoms: C_4  and  C_5 
REMARK    2  A    between atoms: C_8  and  C_9 
REMARK    3  A    between atoms: C_9  and  C_10 
REMARK       I    between atoms: C_10  and  N_11 
REMARK    4  A    between atoms: N_11  and  N_12 
REMARK       I    between atoms: N_12  and  C_13 
REMARK    5  A    between atoms: C_13  and  C_14 
REMARK    6  A    between atoms: C_14  and  C_15 
REMARK    7  A    between atoms: C_16  and  O_17 
ROOT
HETATM    1  C   UNL     1      -6.254   3.891 -33.382  1.00  0.00     0.241 C 
HETATM    2  N   UNL     1      -5.264   3.171 -32.745  1.00  0.00    -0.267 N 
HETATM    3  O   UNL     1      -7.405   3.465 -33.494  1.00  0.00    -0.271 OA
HETATM    4  H   UNL     1      -4.270   3.380 -32.862  1.00  0.00     0.190 HD
ENDROOT
BRANCH   1   5
HETATM    5  C   UNL     1      -5.816   5.238 -33.916  1.00  0.00     0.164 C 
BRANCH   5   6
HETATM    6  C   UNL     1      -4.332   5.404 -33.942  1.00  0.00     0.051 A 
HETATM    7  C   UNL     1      -3.483   5.331 -35.030  1.00  0.00     0.079 A 
HETATM    8  S   UNL     1      -1.869   5.625 -34.547  1.00  0.00    -0.079 SA
HETATM    9  C   UNL     1      -2.395   5.859 -32.922  1.00  0.00     0.108 A 
HETATM   10  N   UNL     1      -3.697   5.719 -32.747  1.00  0.00    -0.244 NA
BRANCH   9  11
HETATM   11  C   UNL     1      -1.450   6.247 -31.860  1.00  0.00     0.000 A 
HETATM   12  C   UNL     1      -1.820   7.256 -30.954  1.00  0.00     0.021 A 
HETATM   13  C   UNL     1      -0.959   7.672 -29.929  1.00  0.00    -0.061 A 
HETATM   14  C   UNL     1      -1.351   8.786 -29.003  1.00  0.00     0.048 C 
HETATM   15  C   UNL     1       0.299   7.072 -29.813  1.00  0.00     0.007 A 
HETATM   16  C   UNL     1       0.678   6.060 -30.693  1.00  0.00     0.001 A 
HETATM   17  C   UNL     1      -0.191   5.648 -31.706  1.00  0.00     0.014 A 
ENDBRANCH   9  11
ENDBRANCH   5   6
ENDBRANCH   1   5
BRANCH   2  18
HETATM   18  N   UNL     1      -5.571   1.871 -32.323  1.00  0.00    -0.267 N 
HETATM   19  C   UNL     1      -4.531   0.992 -32.099  1.00  0.00     0.240 C 
HETATM   20  O   UNL     1      -3.353   1.347 -32.152  1.00  0.00    -0.272 OA
HETATM   21  H   UNL     1      -6.542   1.576 -32.426  1.00  0.00     0.190 HD
BRANCH  19  22
HETATM   22  C   UNL     1      -4.965  -0.416 -31.750  1.00  0.00     0.146 C 
BRANCH  22  23
HETATM   23  C   UNL     1      -5.222  -1.347 -32.920  1.00  0.00    -0.016 A 
HETATM   24  C   UNL     1      -6.501  -1.357 -33.515  1.00  0.00     0.074 A 
HETATM   25  C   UNL     1      -6.768  -2.218 -34.586  1.00  0.00     0.037 A 
HETATM   26  C   UNL     1      -5.773  -3.064 -35.076  1.00  0.00     0.003 A 
HETATM   27  C   UNL     1      -4.508  -3.058 -34.498  1.00  0.00     0.001 A 
HETATM   28  C   UNL     1      -4.234  -2.208 -33.426  1.00  0.00     0.010 A 
BRANCH  24  29
HETATM   29  O   UNL     1      -7.421  -0.500 -32.965  1.00  0.00    -0.355 OA
HETATM   30  C   UNL     1      -8.412   0.035 -33.835  1.00  0.00     0.210 C 
ENDBRANCH  24  29
ENDBRANCH  22  23
ENDBRANCH  19  22
ENDBRANCH   2  18
TORSDOF 7
ENDMDL
MODEL 5
REMARK VINA RESULT:      -8.6      1.894      2.396
REMARK  7 active torsions:
REMARK  status: ('A' for Active; 'I' for Inactive)
REMARK    1  A    between atoms: C_4  and  C_5 
REMARK    2  A    between atoms: C_8  and  C_9 
REMARK    3  A    between atoms: C_9  and  C_10 
REMARK       I    between atoms: C_10  and  N_11 
REMARK    4  A    between atoms: N_11  and  N_12 
REMARK       I    between atoms: N_12  and  C_13 
REMARK    5  A    between atoms: C_13  and  C_14 
REMARK    6  A    between atoms: C_14  and  C_15 
REMARK    7  A    between atoms: C_16  and  O_17 
ROOT
HETATM    1  C   UNL     1      -4.438   3.352 -31.873  1.00  0.00     0.241 C 
HETATM    2  N   UNL     1      -3.711   3.952 -30.864  1.00  0.00    -0.267 N 
HETATM    3  O   UNL     1      -4.458   3.801 -33.021  1.00  0.00    -0.271 OA
HETATM    4  H   UNL     1      -3.878   3.756 -29.875  1.00  0.00     0.190 HD
ENDROOT
BRANCH   1   5
HETATM    5  C   UNL     1      -5.189   2.105 -31.459  1.00  0.00     0.164 C 
BRANCH   5   6
HETATM    6  C   UNL     1      -5.736   1.340 -32.620  1.00  0.00     0.051 A 
HETATM    7  C   UNL     1      -6.420   1.826 -33.718  1.00  0.00     0.079 A 
HETATM    8  S   UNL     1      -6.809   0.552 -34.790  1.00  0.00    -0.079 SA
HETATM    9  C   UNL     1      -6.022  -0.571 -33.745  1.00  0.00     0.108 A 
HETATM   10  N   UNL     1      -5.505  -0.030 -32.657  1.00  0.00    -0.244 NA
BRANCH   9  11
HETATM   11  C   UNL     1      -5.899  -1.994 -34.105  1.00  0.00     0.000 A 
HETATM   12  C   UNL     1      -4.706  -2.674 -33.800  1.00  0.00     0.021 A 
HETATM   13  C   UNL     1      -4.530  -4.027 -34.126  1.00  0.00    -0.061 A 
HETATM   14  C   UNL     1      -3.232  -4.721 -33.838  1.00  0.00     0.048 C 
HETATM   15  C   UNL     1      -5.563  -4.709 -34.776  1.00  0.00     0.007 A 
HETATM   16  C   UNL     1      -6.758  -4.056 -35.073  1.00  0.00     0.001 A 
HETATM   17  C   UNL     1      -6.926  -2.711 -34.738  1.00  0.00     0.014 A 
ENDBRANCH   9  11
ENDBRANCH   5   6
ENDBRANCH   1   5
BRANCH   2  18
HETATM   18  N   UNL     1      -3.080   5.170 -31.150  1.00  0.00    -0.267 N 
HETATM   19  C   UNL     1      -1.700   5.205 -31.163  1.00  0.00     0.240 C 
HETATM   20  O   UNL     1      -1.020   4.186 -31.043  1.00  0.00    -0.272 OA
HETATM   21  H   UNL     1      -3.662   6.007 -31.103  1.00  0.00     0.190 HD
BRANCH  19  22
HETATM   22  C   UNL     1      -1.111   6.583 -31.376  1.00  0.00     0.146 C 
BRANCH  22  23
HETATM   23  C   UNL     1      -0.676   7.325 -30.125  1.00  0.00    -0.016 A 
HETATM   24  C   UNL     1      -1.579   8.220 -29.514  1.00  0.00     0.074 A 
HETATM   25  C   UNL     1      -1.196   8.928 -28.370  1.00  0.00     0.037 A 
HETATM   26  C   UNL     1       0.074   8.749 -27.821  1.00  0.00     0.003 A 
HETATM   27  C   UNL     1       0.969   7.866 -28.413  1.00  0.00     0.001 A 
HETATM   28  C   UNL     1       0.599   7.160 -29.559  1.00  0.00     0.010 A 
BRANCH  24  29
HETATM   29  O   UNL     1      -2.802   8.341 -30.125  1.00  0.00    -0.355 OA
HETATM   30  C   UNL     1      -3.275   9.660 -30.375  1.00  0.00     0.210 C 
ENDBRANCH  24  29
ENDBRANCH  22  23
ENDBRANCH  19  22
ENDBRANCH   2  18
TORSDOF 7
ENDMDL
MODEL 6
REMARK VINA RESULT:      -8.6      4.736      8.183
REMARK  7 active torsions:
REMARK  status: ('A' for Active; 'I' for Inactive)
REMARK    1  A    between atoms: C_4  and  C_5 
REMARK    2  A    between atoms: C_8  and  C_9 
REMARK    3  A    between atoms: C_9  and  C_10 
REMARK       I    between atoms: C_10  and  N_11 
REMARK    4  A    between atoms: N_11  and  N_12 
REMARK       I    between atoms: N_12  and  C_13 
REMARK    5  A    between atoms: C_13  and  C_14 
REMARK    6  A    between atoms: C_14  and  C_15 
REMARK    7  A    between atoms: C_16  and  O_17 
ROOT
HETATM    1  C   UNL     1      -7.741   2.578 -30.939  1.00  0.00     0.241 C 
HETATM    2  N   UNL     1      -8.769   1.692 -31.190  1.00  0.00    -0.267 N 
HETATM    3  O   UNL     1      -7.767   3.742 -31.345  1.00  0.00    -0.271 OA
HETATM    4  H   UNL     1      -8.660   0.681 -31.091  1.00  0.00     0.190 HD
ENDROOT
BRANCH   1   5
HETATM    5  C   UNL     1      -6.599   2.011 -30.124  1.00  0.00     0.164 C 
BRANCH   5   6
HETATM    6  C   UNL     1      -5.615   1.245 -30.947  1.00  0.00     0.051 A 
HETATM    7  C   UNL     1      -4.244   1.403 -31.004  1.00  0.00     0.079 A 
HETATM    8  S   UNL     1      -3.557   0.260 -32.075  1.00  0.00    -0.079 SA
HETATM    9  C   UNL     1      -5.122  -0.397 -32.381  1.00  0.00     0.108 A 
HETATM   10  N   UNL     1      -6.100   0.204 -31.729  1.00  0.00    -0.244 NA
BRANCH   9  11
HETATM   11  C   UNL     1      -5.301  -1.573 -33.249  1.00  0.00     0.000 A 
HETATM   12  C   UNL     1      -4.317  -2.578 -33.247  1.00  0.00     0.021 A 
HETATM   13  C   UNL     1      -4.431  -3.717 -34.058  1.00  0.00    -0.061 A 
HETATM   14  C   UNL     1      -3.347  -4.753 -34.079  1.00  0.00     0.048 C 
HETATM   15  C   UNL     1      -5.546  -3.847 -34.893  1.00  0.00     0.007 A 
HETATM   16  C   UNL     1      -6.538  -2.869 -34.898  1.00  0.00     0.001 A 
HETATM   17  C   UNL     1      -6.418  -1.743 -34.081  1.00  0.00     0.014 A 
ENDBRANCH   9  11
ENDBRANCH   5   6
ENDBRANCH   1   5
BRANCH   2  18
HETATM   18  N   UNL     1      -9.807   2.117 -32.030  1.00  0.00    -0.267 N 
HETATM   19  C   UNL     1      -9.883   1.580 -33.299  1.00  0.00     0.240 C 
HETATM   20  O   UNL     1      -9.141   0.670 -33.669  1.00  0.00    -0.272 OA
HETATM   21  H   UNL     1     -10.306   2.960 -31.747  1.00  0.00     0.190 HD
BRANCH  19  22
HETATM   22  C   UNL     1     -10.970   2.177 -34.168  1.00  0.00     0.146 C 
BRANCH  22  23
HETATM   23  C   UNL     1     -12.398   1.858 -33.767  1.00  0.00    -0.016 A 
HETATM   24  C   UNL     1     -13.119   2.799 -33.002  1.00  0.00     0.074 A 
HETATM   25  C   UNL     1     -14.432   2.520 -32.606  1.00  0.00     0.037 A 
HETATM   26  C   UNL     1     -15.039   1.317 -32.969  1.00  0.00     0.003 A 
HETATM   27  C   UNL     1     -14.337   0.385 -33.726  1.00  0.00     0.001 A 
HETATM   28  C   UNL     1     -13.025   0.651 -34.121  1.00  0.00     0.010 A 
BRANCH  24  29
HETATM   29  O   UNL     1     -12.443   3.949 -32.682  1.00  0.00    -0.355 OA
HETATM   30  C   UNL     1     -13.190   5.160 -32.677  1.00  0.00     0.210 C 
ENDBRANCH  24  29
ENDBRANCH  22  23
ENDBRANCH  19  22
ENDBRANCH   2  18
TORSDOF 7
ENDMDL
MODEL 7
REMARK VINA RESULT:      -8.6      2.596      9.300
REMARK  7 active torsions:
REMARK  status: ('A' for Active; 'I' for Inactive)
REMARK    1  A    between atoms: C_4  and  C_5 
REMARK    2  A    between atoms: C_8  and  C_9 
REMARK    3  A    between atoms: C_9  and  C_10 
REMARK       I    between atoms: C_10  and  N_11 
REMARK    4  A    between atoms: N_11  and  N_12 
REMARK       I    between atoms: N_12  and  C_13 
REMARK    5  A    between atoms: C_13  and  C_14 
REMARK    6  A    between atoms: C_14  and  C_15 
REMARK    7  A    between atoms: C_16  and  O_17 
ROOT
HETATM    1  C   UNL     1      -6.370   3.804 -33.177  1.00  0.00     0.241 C 
HETATM    2  N   UNL     1      -5.477   2.780 -33.422  1.00  0.00    -0.267 N 
HETATM    3  O   UNL     1      -7.373   3.645 -32.478  1.00  0.00    -0.271 OA
HETATM    4  H   UNL     1      -4.798   2.813 -34.184  1.00  0.00     0.190 HD
ENDROOT
BRANCH   1   5
HETATM    5  C   UNL     1      -6.012   5.126 -33.822  1.00  0.00     0.164 C 
BRANCH   5   6
HETATM    6  C   UNL     1      -4.540   5.370 -33.880  1.00  0.00     0.051 A 
HETATM    7  C   UNL     1      -3.717   5.369 -34.991  1.00  0.00     0.079 A 
HETATM    8  S   UNL     1      -2.109   5.736 -34.541  1.00  0.00    -0.079 SA
HETATM    9  C   UNL     1      -2.603   5.900 -32.897  1.00  0.00     0.108 A 
HETATM   10  N   UNL     1      -3.891   5.689 -32.693  1.00  0.00    -0.244 NA
BRANCH   9  11
HETATM   11  C   UNL     1      -1.652   6.312 -31.850  1.00  0.00     0.000 A 
HETATM   12  C   UNL     1      -2.142   6.630 -30.571  1.00  0.00     0.021 A 
HETATM   13  C   UNL     1      -1.284   7.034 -29.537  1.00  0.00    -0.061 A 
HETATM   14  C   UNL     1      -1.831   7.419 -28.195  1.00  0.00     0.048 C 
HETATM   15  C   UNL     1       0.088   7.129 -29.792  1.00  0.00     0.007 A 
HETATM   16  C   UNL     1       0.593   6.803 -31.048  1.00  0.00     0.001 A 
HETATM   17  C   UNL     1      -0.269   6.394 -32.069  1.00  0.00     0.014 A 
ENDBRANCH   9  11
ENDBRANCH   5   6
ENDBRANCH   1   5
BRANCH   2  18
HETATM   18  N   UNL     1      -5.803   1.503 -32.946  1.00  0.00    -0.267 N 
HETATM   19  C   UNL     1      -6.440   0.628 -33.803  1.00  0.00     0.240 C 
HETATM   20  O   UNL     1      -6.627   0.896 -34.990  1.00  0.00    -0.272 OA
HETATM   21  H   UNL     1      -5.763   1.369 -31.935  1.00  0.00     0.190 HD
BRANCH  19  22
HETATM   22  C   UNL     1      -6.845  -0.686 -33.169  1.00  0.00     0.146 C 
BRANCH  22  23
HETATM   23  C   UNL     1      -6.292  -1.941 -33.817  1.00  0.00    -0.016 A 
HETATM   24  C   UNL     1      -4.901  -2.172 -33.779  1.00  0.00     0.074 A 
HETATM   25  C   UNL     1      -4.364  -3.314 -34.384  1.00  0.00     0.037 A 
HETATM   26  C   UNL     1      -5.199  -4.234 -35.022  1.00  0.00     0.003 A 
HETATM   27  C   UNL     1      -6.571  -4.016 -35.061  1.00  0.00     0.001 A 
HETATM   28  C   UNL     1      -7.115  -2.877 -34.466  1.00  0.00     0.010 A 
BRANCH  24  29
HETATM   29  O   UNL     1      -4.155  -1.214 -33.140  1.00  0.00    -0.355 OA
HETATM   30  C   UNL     1      -3.394  -1.629 -32.012  1.00  0.00     0.210 C 
ENDBRANCH  24  29
ENDBRANCH  22  23
ENDBRANCH  19  22
ENDBRANCH   2  18
TORSDOF 7
ENDMDL
MODEL 8
REMARK VINA RESULT:      -8.5      2.225      3.151
REMARK  7 active torsions:
REMARK  status: ('A' for Active; 'I' for Inactive)
REMARK    1  A    between atoms: C_4  and  C_5 
REMARK    2  A    between atoms: C_8  and  C_9 
REMARK    3  A    between atoms: C_9  and  C_10 
REMARK       I    between atoms: C_10  and  N_11 
REMARK    4  A    between atoms: N_11  and  N_12 
REMARK       I    between atoms: N_12  and  C_13 
REMARK    5  A    between atoms: C_13  and  C_14 
REMARK    6  A    between atoms: C_14  and  C_15 
REMARK    7  A    between atoms: C_16  and  O_17 
ROOT
HETATM    1  C   UNL     1      -6.240   3.799 -31.269  1.00  0.00     0.241 C 
HETATM    2  N   UNL     1      -5.137   3.460 -30.512  1.00  0.00    -0.267 N 
HETATM    3  O   UNL     1      -6.169   4.592 -32.210  1.00  0.00    -0.271 OA
HETATM    4  H   UNL     1      -5.215   3.019 -29.594  1.00  0.00     0.190 HD
ENDROOT
BRANCH   1   5
HETATM    5  C   UNL     1      -7.526   3.114 -30.860  1.00  0.00     0.164 C 
BRANCH   5   6
HETATM    6  C   UNL     1      -7.840   1.913 -31.692  1.00  0.00     0.051 A 
HETATM    7  C   UNL     1      -9.058   1.540 -32.227  1.00  0.00     0.079 A 
HETATM    8  S   UNL     1      -8.895   0.098 -33.132  1.00  0.00    -0.079 SA
HETATM    9  C   UNL     1      -7.206   0.067 -32.782  1.00  0.00     0.108 A 
HETATM   10  N   UNL     1      -6.789   1.069 -32.029  1.00  0.00    -0.244 NA
BRANCH   9  11
HETATM   11  C   UNL     1      -6.326  -0.968 -33.351  1.00  0.00     0.000 A 
HETATM   12  C   UNL     1      -6.903  -2.044 -34.049  1.00  0.00     0.021 A 
HETATM   13  C   UNL     1      -6.116  -3.063 -34.605  1.00  0.00    -0.061 A 
HETATM   14  C   UNL     1      -6.752  -4.228 -35.302  1.00  0.00     0.048 C 
HETATM   15  C   UNL     1      -4.726  -3.006 -34.454  1.00  0.00     0.007 A 
HETATM   16  C   UNL     1      -4.136  -1.940 -33.778  1.00  0.00     0.001 A 
HETATM   17  C   UNL     1      -4.929  -0.927 -33.234  1.00  0.00     0.014 A 
ENDBRANCH   9  11
ENDBRANCH   5   6
ENDBRANCH   1   5
BRANCH   2  18
HETATM   18  N   UNL     1      -3.937   4.138 -30.766  1.00  0.00    -0.267 N 
HETATM   19  C   UNL     1      -2.927   3.460 -31.417  1.00  0.00     0.240 C 
HETATM   20  O   UNL     1      -3.089   2.328 -31.873  1.00  0.00    -0.272 OA
HETATM   21  H   UNL     1      -3.790   5.010 -30.257  1.00  0.00     0.190 HD
BRANCH  19  22
HETATM   22  C   UNL     1      -1.635   4.238 -31.552  1.00  0.00     0.146 C 
BRANCH  22  23
HETATM   23  C   UNL     1      -1.766   5.750 -31.595  1.00  0.00    -0.016 A 
HETATM   24  C   UNL     1      -1.852   6.392 -32.848  1.00  0.00     0.074 A 
HETATM   25  C   UNL     1      -1.957   7.785 -32.915  1.00  0.00     0.037 A 
HETATM   26  C   UNL     1      -1.985   8.548 -31.746  1.00  0.00     0.003 A 
HETATM   27  C   UNL     1      -1.905   7.924 -30.507  1.00  0.00     0.001 A 
HETATM   28  C   UNL     1      -1.794   6.534 -30.430  1.00  0.00     0.010 A 
BRANCH  24  29
HETATM   29  O   UNL     1      -1.808   5.566 -33.944  1.00  0.00    -0.355 OA
HETATM   30  C   UNL     1      -2.983   5.485 -34.743  1.00  0.00     0.210 C 
ENDBRANCH  24  29
ENDBRANCH  22  23
ENDBRANCH  19  22
ENDBRANCH   2  18
TORSDOF 7
ENDMDL
MODEL 9
REMARK VINA RESULT:      -8.5      1.643      2.659
REMARK  7 active torsions:
REMARK  status: ('A' for Active; 'I' for Inactive)
REMARK    1  A    between atoms: C_4  and  C_5 
REMARK    2  A    between atoms: C_8  and  C_9 
REMARK    3  A    between atoms: C_9  and  C_10 
REMARK       I    between atoms: C_10  and  N_11 
REMARK    4  A    between atoms: N_11  and  N_12 
REMARK       I    between atoms: N_12  and  C_13 
REMARK    5  A    between atoms: C_13  and  C_14 
REMARK    6  A    between atoms: C_14  and  C_15 
REMARK    7  A    between atoms: C_16  and  O_17 
ROOT
HETATM    1  C   UNL     1      -5.955   4.571 -33.071  1.00  0.00     0.241 C 
HETATM    2  N   UNL     1      -4.792   4.612 -33.812  1.00  0.00    -0.267 N 
HETATM    3  O   UNL     1      -5.968   4.799 -31.860  1.00  0.00    -0.271 OA
HETATM    4  H   UNL     1      -4.715   4.187 -34.739  1.00  0.00     0.190 HD
ENDROOT
BRANCH   1   5
HETATM    5  C   UNL     1      -7.202   4.240 -33.863  1.00  0.00     0.164 C 
BRANCH   5   6
HETATM    6  C   UNL     1      -7.578   2.796 -33.785  1.00  0.00     0.051 A 
HETATM    7  C   UNL     1      -8.841   2.248 -33.666  1.00  0.00     0.079 A 
HETATM    8  S   UNL     1      -8.750   0.540 -33.650  1.00  0.00    -0.079 SA
HETATM    9  C   UNL     1      -7.037   0.627 -33.828  1.00  0.00     0.108 A 
HETATM   10  N   UNL     1      -6.559   1.857 -33.890  1.00  0.00    -0.244 NA
BRANCH   9  11
HETATM   11  C   UNL     1      -6.220  -0.591 -33.966  1.00  0.00     0.000 A 
HETATM   12  C   UNL     1      -6.812  -1.753 -34.492  1.00  0.00     0.021 A 
HETATM   13  C   UNL     1      -6.085  -2.943 -34.639  1.00  0.00    -0.061 A 
HETATM   14  C   UNL     1      -6.748  -4.186 -35.154  1.00  0.00     0.048 C 
HETATM   15  C   UNL     1      -4.743  -2.972 -34.246  1.00  0.00     0.007 A 
HETATM   16  C   UNL     1      -4.135  -1.827 -33.737  1.00  0.00     0.001 A 
HETATM   17  C   UNL     1      -4.867  -0.644 -33.601  1.00  0.00     0.014 A 
ENDBRANCH   9  11
ENDBRANCH   5   6
ENDBRANCH   1   5
BRANCH   2  18
HETATM   18  N   UNL     1      -3.586   4.806 -33.125  1.00  0.00    -0.267 N 
HETATM   19  C   UNL     1      -2.670   5.695 -33.649  1.00  0.00     0.240 C 
HETATM   20  O   UNL     1      -2.925   6.395 -34.629  1.00  0.00    -0.272 OA
HETATM   21  H   UNL     1      -3.353   4.116 -32.410  1.00  0.00     0.190 HD
BRANCH  19  22
HETATM   22  C   UNL     1      -1.357   5.757 -32.896  1.00  0.00     0.146 C 
BRANCH  22  23
HETATM   23  C   UNL     1      -1.334   6.643 -31.664  1.00  0.00    -0.016 A 
HETATM   24  C   UNL     1      -0.709   6.167 -30.492  1.00  0.00     0.074 A 
HETATM   25  C   UNL     1      -0.689   6.958 -29.339  1.00  0.00     0.037 A 
HETATM   26  C   UNL     1      -1.278   8.224 -29.340  1.00  0.00     0.003 A 
HETATM   27  C   UNL     1      -1.892   8.703 -30.491  1.00  0.00     0.001 A 
HETATM   28  C   UNL     1      -1.923   7.919 -31.645  1.00  0.00     0.010 A 
BRANCH  24  29
HETATM   29  O   UNL     1      -0.165   4.910 -30.577  1.00  0.00    -0.355 OA
HETATM   30  C   UNL     1       0.940   4.623 -29.728  1.00  0.00     0.210 C 
ENDBRANCH  24  29
ENDBRANCH  22  23
ENDBRANCH  19  22
ENDBRANCH   2  18
TORSDOF 7
ENDMDL
MODEL 10
REMARK VINA RESULT:      -8.3      1.573      2.317
REMARK  7 active torsions:
REMARK  status: ('A' for Active; 'I' for Inactive)
REMARK    1  A    between atoms: C_4  and  C_5 
REMARK    2  A    between atoms: C_8  and  C_9 
REMARK    3  A    between atoms: C_9  and  C_10 
REMARK       I    between atoms: C_10  and  N_11 
REMARK    4  A    between atoms: N_11  and  N_12 
REMARK       I    between atoms: N_12  and  C_13 
REMARK    5  A    between atoms: C_13  and  C_14 
REMARK    6  A    between atoms: C_14  and  C_15 
REMARK    7  A    between atoms: C_16  and  O_17 
ROOT
HETATM    1  C   UNL     1      -4.867   4.548 -31.687  1.00  0.00     0.241 C 
HETATM    2  N   UNL     1      -4.295   4.955 -32.876  1.00  0.00    -0.267 N 
HETATM    3  O   UNL     1      -4.670   5.146 -30.627  1.00  0.00    -0.271 OA
HETATM    4  H   UNL     1      -4.235   4.346 -33.694  1.00  0.00     0.190 HD
ENDROOT
BRANCH   1   5
HETATM    5  C   UNL     1      -5.754   3.326 -31.794  1.00  0.00     0.164 C 
BRANCH   5   6
HETATM    6  C   UNL     1      -4.983   2.055 -31.946  1.00  0.00     0.051 A 
HETATM    7  C   UNL     1      -3.781   1.710 -31.360  1.00  0.00     0.079 A 
HETATM    8  S   UNL     1      -3.324   0.128 -31.822  1.00  0.00    -0.079 SA
HETATM    9  C   UNL     1      -4.767  -0.018 -32.756  1.00  0.00     0.108 A 
HETATM   10  N   UNL     1      -5.541   1.052 -32.730  1.00  0.00    -0.244 NA
BRANCH   9  11
HETATM   11  C   UNL     1      -5.103  -1.272 -33.452  1.00  0.00     0.000 A 
HETATM   12  C   UNL     1      -4.205  -2.352 -33.384  1.00  0.00     0.021 A 
HETATM   13  C   UNL     1      -4.470  -3.567 -34.032  1.00  0.00    -0.061 A 
HETATM   14  C   UNL     1      -3.476  -4.689 -33.990  1.00  0.00     0.048 C 
HETATM   15  C   UNL     1      -5.651  -3.700 -34.769  1.00  0.00     0.007 A 
HETATM   16  C   UNL     1      -6.560  -2.646 -34.836  1.00  0.00     0.001 A 
HETATM   17  C   UNL     1      -6.290  -1.443 -34.181  1.00  0.00     0.014 A 
ENDBRANCH   9  11
ENDBRANCH   5   6
ENDBRANCH   1   5
BRANCH   2  18
HETATM   18  N   UNL     1      -3.378   6.013 -32.830  1.00  0.00    -0.267 N 
HETATM   19  C   UNL     1      -2.031   5.711 -32.805  1.00  0.00     0.240 C 
HETATM   20  O   UNL     1      -1.618   4.558 -32.932  1.00  0.00    -0.272 OA
HETATM   21  H   UNL     1      -3.752   6.930 -32.585  1.00  0.00     0.190 HD
BRANCH  19  22
HETATM   22  C   UNL     1      -1.123   6.912 -32.648  1.00  0.00     0.146 C 
BRANCH  22  23
HETATM   23  C   UNL     1      -1.126   7.581 -31.286  1.00  0.00    -0.016 A 
HETATM   24  C   UNL     1      -0.202   7.149 -30.311  1.00  0.00     0.074 A 
HETATM   25  C   UNL     1      -0.197   7.738 -29.042  1.00  0.00     0.037 A 
HETATM   26  C   UNL     1      -1.097   8.760 -28.734  1.00  0.00     0.003 A 
HETATM   27  C   UNL     1      -2.008   9.194 -29.690  1.00  0.00     0.001 A 
HETATM   28  C   UNL     1      -2.026   8.609 -30.956  1.00  0.00     0.010 A 
BRANCH  24  29
HETATM   29  O   UNL     1       0.639   6.135 -30.696  1.00  0.00    -0.355 OA
HETATM   30  C   UNL     1       0.581   4.925 -29.950  1.00  0.00     0.210 C 
ENDBRANCH  24  29
ENDBRANCH  22  23
ENDBRANCH  19  22
ENDBRANCH   2  18
TORSDOF 7
ENDMDL
