MODEL 1
REMARK VINA RESULT:      -9.6      0.000      0.000
REMARK  6 active torsions:
REMARK  status: ('A' for Active; 'I' for Inactive)
REMARK    1  A    between atoms: C_8  and  C_9 
REMARK    2  A    between atoms: N_10  and  N_11 
REMARK       I    between atoms: N_11  and  C_12 
REMARK    3  A    between atoms: C_12  and  C_13 
REMARK    4  A    between atoms: C_16  and  N_17 
REMARK    5  A    between atoms: N_17  and  C_18 
REMARK    6  A    between atoms: C_18  and  C_19 
ROOT
HETATM    1  C   UNL     1      -3.362   3.580 -31.923  1.00  0.00     0.033 A 
HETATM    2  C   UNL     1      -4.407   3.891 -32.796  1.00  0.00     0.019 A 
HETATM    3  C   UNL     1      -5.345   2.912 -33.152  1.00  0.00     0.030 A 
HETATM    4  C   UNL     1      -5.244   1.598 -32.677  1.00  0.00     0.028 A 
HETATM    5  C   UNL     1      -4.187   1.304 -31.803  1.00  0.00     0.030 A 
HETATM    6  C   UNL     1      -3.246   2.274 -31.441  1.00  0.00     0.019 A 
ENDROOT
BRANCH   1   7
HETATM    7  C   UNL     1      -2.362   4.590 -31.473  1.00  0.00     0.271 C 
HETATM    8  N   UNL     1      -2.864   5.598 -30.660  1.00  0.00    -0.243 N 
HETATM    9  H   UNL     1      -3.860   5.650 -30.479  1.00  0.00     0.192 HD
HETATM   10  O   UNL     1      -1.192   4.453 -31.819  1.00  0.00    -0.266 OA
BRANCH   8  11
HETATM   11  N   UNL     1      -2.177   6.666 -30.142  1.00  0.00    -0.183 NA
HETATM   12  C   UNL     1      -2.511   7.139 -28.984  1.00  0.00     0.152 C 
BRANCH  12  13
HETATM   13  C   UNL     1      -1.761   8.257 -28.441  1.00  0.00     0.011 A 
HETATM   14  C   UNL     1      -0.498   8.207 -27.768  1.00  0.00     0.004 A 
HETATM   15  C   UNL     1       0.393   7.168 -27.422  1.00  0.00     0.014 A 
HETATM   16  C   UNL     1      -0.163   9.512 -27.407  1.00  0.00     0.043 A 
HETATM   17  C   UNL     1       1.573   7.469 -26.732  1.00  0.00     0.001 A 
HETATM   18  C   UNL     1       1.875   8.783 -26.386  1.00  0.00     0.002 A 
HETATM   19  C   UNL     1       1.014   9.833 -26.718  1.00  0.00     0.030 A 
HETATM   20  N   UNL     1      -1.177  10.329 -27.851  1.00  0.00    -0.364 N 
HETATM   21  H   UNL     1      -1.200  11.332 -27.731  1.00  0.00     0.165 HD
HETATM   22  C   UNL     1      -2.144   9.586 -28.470  1.00  0.00     0.102 A 
ENDBRANCH  12  13
ENDBRANCH   8  11
ENDBRANCH   1   7
BRANCH   4  23
HETATM   23  N   UNL     1      -6.206   0.616 -32.904  1.00  0.00    -0.386 N 
HETATM   24  H   UNL     1      -6.194  -0.117 -32.199  1.00  0.00     0.160 HD
BRANCH  23  25
HETATM   25  C   UNL     1      -6.451   0.099 -34.243  1.00  0.00     0.158 C 
BRANCH  25  26
HETATM   26  C   UNL     1      -6.086  -1.369 -34.286  1.00  0.00    -0.038 A 
HETATM   27  C   UNL     1      -4.854  -1.816 -33.781  1.00  0.00     0.048 A 
HETATM   28  C   UNL     1      -4.567  -3.162 -33.869  1.00  0.00     0.105 A 
HETATM   29  C   UNL     1      -5.447  -4.059 -34.429  1.00  0.00     0.105 A 
HETATM   30  O   UNL     1      -3.423  -3.759 -33.438  1.00  0.00    -0.323 OA
HETATM   31  O   UNL     1      -4.968  -5.331 -34.418  1.00  0.00    -0.323 OA
HETATM   32  C   UNL     1      -6.666  -3.663 -34.931  1.00  0.00     0.040 A 
HETATM   33  C   UNL     1      -3.681  -5.133 -33.796  1.00  0.00     0.352 A 
HETATM   34  C   UNL     1      -6.984  -2.303 -34.858  1.00  0.00     0.012 A 
ENDBRANCH  25  26
ENDBRANCH  23  25
ENDBRANCH   4  23
TORSDOF 6
ENDMDL
MODEL 2
REMARK VINA RESULT:      -9.2      3.114     12.426
REMARK  6 active torsions:
REMARK  status: ('A' for Active; 'I' for Inactive)
REMARK    1  A    between atoms: C_8  and  C_9 
REMARK    2  A    between atoms: N_10  and  N_11 
REMARK       I    between atoms: N_11  and  C_12 
REMARK    3  A    between atoms: C_12  and  C_13 
REMARK    4  A    between atoms: C_16  and  N_17 
REMARK    5  A    between atoms: N_17  and  C_18 
REMARK    6  A    between atoms: C_18  and  C_19 
ROOT
HETATM    1  C   UNL     1      -1.779   5.160 -31.920  1.00  0.00     0.033 A 
HETATM    2  C   UNL     1      -0.402   5.281 -32.124  1.00  0.00     0.019 A 
HETATM    3  C   UNL     1       0.371   6.081 -31.271  1.00  0.00     0.030 A 
HETATM    4  C   UNL     1      -0.212   6.804 -30.223  1.00  0.00     0.028 A 
HETATM    5  C   UNL     1      -1.595   6.672 -30.034  1.00  0.00     0.030 A 
HETATM    6  C   UNL     1      -2.376   5.875 -30.879  1.00  0.00     0.019 A 
ENDROOT
BRANCH   1   7
HETATM    7  C   UNL     1      -2.644   4.288 -32.765  1.00  0.00     0.271 C 
HETATM    8  N   UNL     1      -3.660   3.629 -32.087  1.00  0.00    -0.243 N 
HETATM    9  H   UNL     1      -3.721   3.700 -31.078  1.00  0.00     0.192 HD
HETATM   10  O   UNL     1      -2.423   4.234 -33.971  1.00  0.00    -0.266 OA
BRANCH   8  11
HETATM   11  N   UNL     1      -4.568   2.744 -32.610  1.00  0.00    -0.183 NA
HETATM   12  C   UNL     1      -4.741   1.594 -32.040  1.00  0.00     0.152 C 
BRANCH  12  13
HETATM   13  C   UNL     1      -5.720   0.676 -32.595  1.00  0.00     0.011 A 
HETATM   14  C   UNL     1      -5.463  -0.566 -33.259  1.00  0.00     0.004 A 
HETATM   15  C   UNL     1      -4.293  -1.286 -33.584  1.00  0.00     0.014 A 
HETATM   16  C   UNL     1      -6.695  -1.102 -33.637  1.00  0.00     0.043 A 
HETATM   17  C   UNL     1      -4.397  -2.501 -34.270  1.00  0.00     0.001 A 
HETATM   18  C   UNL     1      -5.642  -3.006 -34.633  1.00  0.00     0.002 A 
HETATM   19  C   UNL     1      -6.818  -2.317 -34.322  1.00  0.00     0.030 A 
HETATM   20  N   UNL     1      -7.666  -0.225 -33.211  1.00  0.00    -0.364 N 
HETATM   21  H   UNL     1      -8.659  -0.359 -33.346  1.00  0.00     0.165 HD
HETATM   22  C   UNL     1      -7.092   0.848 -32.587  1.00  0.00     0.102 A 
ENDBRANCH  12  13
ENDBRANCH   8  11
ENDBRANCH   1   7
BRANCH   4  23
HETATM   23  N   UNL     1       0.517   7.523 -29.277  1.00  0.00    -0.386 N 
HETATM   24  H   UNL     1       1.378   7.910 -29.654  1.00  0.00     0.160 HD
BRANCH  23  25
HETATM   25  C   UNL     1       0.675   7.029 -27.916  1.00  0.00     0.158 C 
BRANCH  25  26
HETATM   26  C   UNL     1       1.107   8.167 -27.019  1.00  0.00    -0.038 A 
HETATM   27  C   UNL     1       1.990   7.941 -25.949  1.00  0.00     0.048 A 
HETATM   28  C   UNL     1       2.329   9.014 -25.151  1.00  0.00     0.105 A 
HETATM   29  C   UNL     1       1.834  10.277 -25.378  1.00  0.00     0.105 A 
HETATM   30  O   UNL     1       3.161   8.969 -24.076  1.00  0.00    -0.323 OA
HETATM   31  O   UNL     1       2.292  11.184 -24.476  1.00  0.00    -0.323 OA
HETATM   32  C   UNL     1       0.971  10.541 -26.418  1.00  0.00     0.040 A 
HETATM   33  C   UNL     1       3.126  10.347 -23.648  1.00  0.00     0.352 A 
HETATM   34  C   UNL     1       0.606   9.473 -27.243  1.00  0.00     0.012 A 
ENDBRANCH  25  26
ENDBRANCH  23  25
ENDBRANCH   4  23
TORSDOF 6
ENDMDL
MODEL 3
REMARK VINA RESULT:      -9.0      7.914     12.388
REMARK  6 active torsions:
REMARK  status: ('A' for Active; 'I' for Inactive)
REMARK    1  A    between atoms: C_8  and  C_9 
REMARK    2  A    between atoms: N_10  and  N_11 
REMARK       I    between atoms: N_11  and  C_12 
REMARK    3  A    between atoms: C_12  and  C_13 
REMARK    4  A    between atoms: C_16  and  N_17 
REMARK    5  A    between atoms: N_17  and  C_18 
REMARK    6  A    between atoms: C_18  and  C_19 
ROOT
HETATM    1  C   UNL     1     -10.892   1.862 -34.096  1.00  0.00     0.033 A 
HETATM    2  C   UNL     1     -12.288   1.798 -34.054  1.00  0.00     0.019 A 
HETATM    3  C   UNL     1     -13.059   2.855 -34.558  1.00  0.00     0.030 A 
HETATM    4  C   UNL     1     -12.462   4.010 -35.079  1.00  0.00     0.028 A 
HETATM    5  C   UNL     1     -11.061   4.057 -35.112  1.00  0.00     0.030 A 
HETATM    6  C   UNL     1     -10.281   3.008 -34.613  1.00  0.00     0.019 A 
ENDROOT
BRANCH   1   7
HETATM    7  C   UNL     1     -10.021   0.751 -33.619  1.00  0.00     0.271 C 
HETATM    8  N   UNL     1      -8.774   0.676 -34.225  1.00  0.00    -0.243 N 
HETATM    9  H   UNL     1      -8.546   1.302 -34.988  1.00  0.00     0.192 HD
HETATM   10  O   UNL     1     -10.441   0.015 -32.731  1.00  0.00    -0.266 OA
BRANCH   8  11
HETATM   11  N   UNL     1      -7.799  -0.263 -34.003  1.00  0.00    -0.183 NA
HETATM   12  C   UNL     1      -6.562   0.030 -34.249  1.00  0.00     0.152 C 
BRANCH  12  13
HETATM   13  C   UNL     1      -5.540  -0.968 -33.990  1.00  0.00     0.011 A 
HETATM   14  C   UNL     1      -5.596  -2.364 -34.303  1.00  0.00     0.004 A 
HETATM   15  C   UNL     1      -6.555  -3.199 -34.915  1.00  0.00     0.014 A 
HETATM   16  C   UNL     1      -4.403  -2.941 -33.863  1.00  0.00     0.043 A 
HETATM   17  C   UNL     1      -6.291  -4.566 -35.060  1.00  0.00     0.001 A 
HETATM   18  C   UNL     1      -5.091  -5.108 -34.608  1.00  0.00     0.002 A 
HETATM   19  C   UNL     1      -4.121  -4.305 -34.001  1.00  0.00     0.030 A 
HETATM   20  N   UNL     1      -3.645  -1.933 -33.312  1.00  0.00    -0.364 N 
HETATM   21  H   UNL     1      -2.725  -2.059 -32.913  1.00  0.00     0.165 HD
HETATM   22  C   UNL     1      -4.320  -0.745 -33.379  1.00  0.00     0.102 A 
ENDBRANCH  12  13
ENDBRANCH   8  11
ENDBRANCH   1   7
BRANCH   4  23
HETATM   23  N   UNL     1     -13.171   5.039 -35.696  1.00  0.00    -0.386 N 
HETATM   24  H   UNL     1     -13.124   4.997 -36.710  1.00  0.00     0.160 HD
BRANCH  23  25
HETATM   25  C   UNL     1     -13.109   6.402 -35.189  1.00  0.00     0.158 C 
BRANCH  25  26
HETATM   26  C   UNL     1     -12.624   7.322 -36.288  1.00  0.00    -0.038 A 
HETATM   27  C   UNL     1     -11.316   7.835 -36.269  1.00  0.00     0.048 A 
HETATM   28  C   UNL     1     -10.938   8.686 -37.286  1.00  0.00     0.105 A 
HETATM   29  C   UNL     1     -11.798   9.035 -38.301  1.00  0.00     0.105 A 
HETATM   30  O   UNL     1      -9.719   9.275 -37.414  1.00  0.00    -0.323 OA
HETATM   31  O   UNL     1     -11.227   9.885 -39.195  1.00  0.00    -0.323 OA
HETATM   32  C   UNL     1     -13.086   8.551 -38.359  1.00  0.00     0.040 A 
HETATM   33  C   UNL     1      -9.912  10.039 -38.623  1.00  0.00     0.352 A 
HETATM   34  C   UNL     1     -13.499   7.687 -37.340  1.00  0.00     0.012 A 
ENDBRANCH  25  26
ENDBRANCH  23  25
ENDBRANCH   4  23
TORSDOF 6
ENDMDL
MODEL 4
REMARK VINA RESULT:      -8.9      4.442     11.488
REMARK  6 active torsions:
REMARK  status: ('A' for Active; 'I' for Inactive)
REMARK    1  A    between atoms: C_8  and  C_9 
REMARK    2  A    between atoms: N_10  and  N_11 
REMARK       I    between atoms: N_11  and  C_12 
REMARK    3  A    between atoms: C_12  and  C_13 
REMARK    4  A    between atoms: C_16  and  N_17 
REMARK    5  A    between atoms: N_17  and  C_18 
REMARK    6  A    between atoms: C_18  and  C_19 
ROOT
HETATM    1  C   UNL     1      -4.927   4.216 -33.033  1.00  0.00     0.033 A 
HETATM    2  C   UNL     1      -3.801   3.446 -32.733  1.00  0.00     0.019 A 
HETATM    3  C   UNL     1      -2.515   3.953 -32.967  1.00  0.00     0.030 A 
HETATM    4  C   UNL     1      -2.322   5.218 -33.537  1.00  0.00     0.028 A 
HETATM    5  C   UNL     1      -3.464   5.976 -33.833  1.00  0.00     0.030 A 
HETATM    6  C   UNL     1      -4.751   5.480 -33.603  1.00  0.00     0.019 A 
ENDROOT
BRANCH   1   7
HETATM    7  C   UNL     1      -6.317   3.750 -32.764  1.00  0.00     0.271 C 
HETATM    8  N   UNL     1      -6.513   2.380 -32.878  1.00  0.00    -0.243 N 
HETATM    9  H   UNL     1      -5.757   1.788 -33.203  1.00  0.00     0.192 HD
HETATM   10  O   UNL     1      -7.163   4.579 -32.444  1.00  0.00    -0.266 OA
BRANCH   8  11
HETATM   11  N   UNL     1      -7.691   1.695 -32.723  1.00  0.00    -0.183 NA
HETATM   12  C   UNL     1      -8.597   1.765 -33.646  1.00  0.00     0.152 C 
BRANCH  12  13
HETATM   13  C   UNL     1      -9.830   1.018 -33.475  1.00  0.00     0.011 A 
HETATM   14  C   UNL     1     -11.124   1.355 -33.988  1.00  0.00     0.004 A 
HETATM   15  C   UNL     1     -11.628   2.418 -34.768  1.00  0.00     0.014 A 
HETATM   16  C   UNL     1     -12.013   0.365 -33.568  1.00  0.00     0.043 A 
HETATM   17  C   UNL     1     -12.989   2.453 -35.093  1.00  0.00     0.001 A 
HETATM   18  C   UNL     1     -13.849   1.449 -34.655  1.00  0.00     0.002 A 
HETATM   19  C   UNL     1     -13.377   0.383 -33.884  1.00  0.00     0.030 A 
HETATM   20  N   UNL     1     -11.288  -0.546 -32.835  1.00  0.00    -0.364 N 
HETATM   21  H   UNL     1     -11.674  -1.375 -32.406  1.00  0.00     0.165 HD
HETATM   22  C   UNL     1      -9.977  -0.162 -32.769  1.00  0.00     0.102 A 
ENDBRANCH  12  13
ENDBRANCH   8  11
ENDBRANCH   1   7
BRANCH   4  23
HETATM   23  N   UNL     1      -1.074   5.818 -33.687  1.00  0.00    -0.386 N 
HETATM   24  H   UNL     1      -0.311   5.145 -33.699  1.00  0.00     0.160 HD
BRANCH  23  25
HETATM   25  C   UNL     1      -0.733   7.035 -32.964  1.00  0.00     0.158 C 
BRANCH  25  26
HETATM   26  C   UNL     1      -0.515   6.704 -31.504  1.00  0.00    -0.038 A 
HETATM   27  C   UNL     1      -1.162   7.441 -30.497  1.00  0.00     0.048 A 
HETATM   28  C   UNL     1      -0.906   7.107 -29.184  1.00  0.00     0.105 A 
HETATM   29  C   UNL     1      -0.049   6.086 -28.845  1.00  0.00     0.105 A 
HETATM   30  O   UNL     1      -1.439   7.719 -28.093  1.00  0.00    -0.323 OA
HETATM   31  O   UNL     1       0.063   5.928 -27.500  1.00  0.00    -0.323 OA
HETATM   32  C   UNL     1       0.601   5.338 -29.800  1.00  0.00     0.040 A 
HETATM   33  C   UNL     1      -0.814   6.971 -27.028  1.00  0.00     0.352 A 
HETATM   34  C   UNL     1       0.364   5.654 -31.142  1.00  0.00     0.012 A 
ENDBRANCH  25  26
ENDBRANCH  23  25
ENDBRANCH   4  23
TORSDOF 6
ENDMDL
MODEL 5
REMARK VINA RESULT:      -8.9      2.871     12.147
REMARK  6 active torsions:
REMARK  status: ('A' for Active; 'I' for Inactive)
REMARK    1  A    between atoms: C_8  and  C_9 
REMARK    2  A    between atoms: N_10  and  N_11 
REMARK       I    between atoms: N_11  and  C_12 
REMARK    3  A    between atoms: C_12  and  C_13 
REMARK    4  A    between atoms: C_16  and  N_17 
REMARK    5  A    between atoms: N_17  and  C_18 
REMARK    6  A    between atoms: C_18  and  C_19 
ROOT
HETATM    1  C   UNL     1      -3.264   4.724 -32.624  1.00  0.00     0.033 A 
HETATM    2  C   UNL     1      -2.081   5.002 -33.313  1.00  0.00     0.019 A 
HETATM    3  C   UNL     1      -1.074   5.766 -32.708  1.00  0.00     0.030 A 
HETATM    4  C   UNL     1      -1.235   6.299 -31.423  1.00  0.00     0.028 A 
HETATM    5  C   UNL     1      -2.429   6.011 -30.747  1.00  0.00     0.030 A 
HETATM    6  C   UNL     1      -3.441   5.249 -31.341  1.00  0.00     0.019 A 
ENDROOT
BRANCH   1   7
HETATM    7  C   UNL     1      -4.351   3.880 -33.197  1.00  0.00     0.271 C 
HETATM    8  N   UNL     1      -4.482   2.620 -32.629  1.00  0.00    -0.243 N 
HETATM    9  H   UNL     1      -3.815   2.309 -31.933  1.00  0.00     0.192 HD
HETATM   10  O   UNL     1      -5.052   4.350 -34.088  1.00  0.00    -0.266 OA
BRANCH   8  11
HETATM   11  N   UNL     1      -5.367   1.636 -32.989  1.00  0.00    -0.183 NA
HETATM   12  C   UNL     1      -4.920   0.477 -33.353  1.00  0.00     0.152 C 
BRANCH  12  13
HETATM   13  C   UNL     1      -5.870  -0.561 -33.712  1.00  0.00     0.011 A 
HETATM   14  C   UNL     1      -5.581  -1.925 -34.034  1.00  0.00     0.004 A 
HETATM   15  C   UNL     1      -4.397  -2.690 -34.111  1.00  0.00     0.014 A 
HETATM   16  C   UNL     1      -6.793  -2.552 -34.330  1.00  0.00     0.043 A 
HETATM   17  C   UNL     1      -4.467  -4.039 -34.480  1.00  0.00     0.001 A 
HETATM   18  C   UNL     1      -5.692  -4.632 -34.770  1.00  0.00     0.002 A 
HETATM   19  C   UNL     1      -6.882  -3.900 -34.699  1.00  0.00     0.030 A 
HETATM   20  N   UNL     1      -7.783  -1.609 -34.184  1.00  0.00    -0.364 N 
HETATM   21  H   UNL     1      -8.768  -1.783 -34.332  1.00  0.00     0.165 HD
HETATM   22  C   UNL     1      -7.241  -0.408 -33.817  1.00  0.00     0.102 A 
ENDBRANCH  12  13
ENDBRANCH   8  11
ENDBRANCH   1   7
BRANCH   4  23
HETATM   23  N   UNL     1      -0.228   6.967 -30.729  1.00  0.00    -0.386 N 
HETATM   24  H   UNL     1       0.452   7.406 -31.345  1.00  0.00     0.160 HD
BRANCH  23  25
HETATM   25  C   UNL     1       0.388   6.378 -29.548  1.00  0.00     0.158 C 
BRANCH  25  26
HETATM   26  C   UNL     1       0.423   7.406 -28.438  1.00  0.00    -0.038 A 
HETATM   27  C   UNL     1       1.279   7.242 -27.336  1.00  0.00     0.048 A 
HETATM   28  C   UNL     1       1.250   8.200 -26.344  1.00  0.00     0.105 A 
HETATM   29  C   UNL     1       0.418   9.294 -26.412  1.00  0.00     0.105 A 
HETATM   30  O   UNL     1       2.003   8.192 -25.212  1.00  0.00    -0.323 OA
HETATM   31  O   UNL     1       0.545  10.110 -25.332  1.00  0.00    -0.323 OA
HETATM   32  C   UNL     1      -0.432   9.493 -27.476  1.00  0.00     0.040 A 
HETATM   33  C   UNL     1       1.546   9.402 -24.572  1.00  0.00     0.352 A 
HETATM   34  C   UNL     1      -0.427   8.537 -28.497  1.00  0.00     0.012 A 
ENDBRANCH  25  26
ENDBRANCH  23  25
ENDBRANCH   4  23
TORSDOF 6
ENDMDL
MODEL 6
REMARK VINA RESULT:      -8.8      2.967     11.687
REMARK  6 active torsions:
REMARK  status: ('A' for Active; 'I' for Inactive)
REMARK    1  A    between atoms: C_8  and  C_9 
REMARK    2  A    between atoms: N_10  and  N_11 
REMARK       I    between atoms: N_11  and  C_12 
REMARK    3  A    between atoms: C_12  and  C_13 
REMARK    4  A    between atoms: C_16  and  N_17 
REMARK    5  A    between atoms: N_17  and  C_18 
REMARK    6  A    between atoms: C_18  and  C_19 
ROOT
HETATM    1  C   UNL     1      -1.455   5.433 -31.812  1.00  0.00     0.033 A 
HETATM    2  C   UNL     1      -0.088   5.198 -31.647  1.00  0.00     0.019 A 
HETATM    3  C   UNL     1       0.651   5.949 -30.722  1.00  0.00     0.030 A 
HETATM    4  C   UNL     1       0.057   6.970 -29.970  1.00  0.00     0.028 A 
HETATM    5  C   UNL     1      -1.316   7.192 -30.150  1.00  0.00     0.030 A 
HETATM    6  C   UNL     1      -2.063   6.449 -31.070  1.00  0.00     0.019 A 
ENDROOT
BRANCH   1   7
HETATM    7  C   UNL     1      -2.302   4.637 -32.746  1.00  0.00     0.271 C 
HETATM    8  N   UNL     1      -3.446   4.087 -32.183  1.00  0.00    -0.243 N 
HETATM    9  H   UNL     1      -3.611   4.177 -31.188  1.00  0.00     0.192 HD
HETATM   10  O   UNL     1      -1.956   4.546 -33.920  1.00  0.00    -0.266 OA
BRANCH   8  11
HETATM   11  N   UNL     1      -4.372   3.286 -32.802  1.00  0.00    -0.183 NA
HETATM   12  C   UNL     1      -4.605   2.101 -32.334  1.00  0.00     0.152 C 
BRANCH  12  13
HETATM   13  C   UNL     1      -5.603   1.273 -32.989  1.00  0.00     0.011 A 
HETATM   14  C   UNL     1      -5.438  -0.068 -33.463  1.00  0.00     0.004 A 
HETATM   15  C   UNL     1      -4.367  -0.987 -33.468  1.00  0.00     0.014 A 
HETATM   16  C   UNL     1      -6.649  -0.462 -34.035  1.00  0.00     0.043 A 
HETATM   17  C   UNL     1      -4.543  -2.252 -34.040  1.00  0.00     0.001 A 
HETATM   18  C   UNL     1      -5.764  -2.611 -34.604  1.00  0.00     0.002 A 
HETATM   19  C   UNL     1      -6.843  -1.723 -34.611  1.00  0.00     0.030 A 
HETATM   20  N   UNL     1      -7.521   0.595 -33.905  1.00  0.00    -0.364 N 
HETATM   21  H   UNL     1      -8.478   0.591 -34.230  1.00  0.00     0.165 HD
HETATM   22  C   UNL     1      -6.902   1.643 -33.283  1.00  0.00     0.102 A 
ENDBRANCH  12  13
ENDBRANCH   8  11
ENDBRANCH   1   7
BRANCH   4  23
HETATM   23  N   UNL     1       0.711   7.669 -28.958  1.00  0.00    -0.386 N 
HETATM   24  H   UNL     1       1.534   8.166 -29.290  1.00  0.00     0.160 HD
BRANCH  23  25
HETATM   25  C   UNL     1       0.911   7.077 -27.643  1.00  0.00     0.158 C 
BRANCH  25  26
HETATM   26  C   UNL     1      -0.008   7.750 -26.647  1.00  0.00    -0.038 A 
HETATM   27  C   UNL     1      -1.330   7.306 -26.478  1.00  0.00     0.048 A 
HETATM   28  C   UNL     1      -2.128   7.974 -25.572  1.00  0.00     0.105 A 
HETATM   29  C   UNL     1      -1.663   9.044 -24.843  1.00  0.00     0.105 A 
HETATM   30  O   UNL     1      -3.426   7.681 -25.293  1.00  0.00    -0.323 OA
HETATM   31  O   UNL     1      -2.610   9.557 -24.014  1.00  0.00    -0.323 OA
HETATM   32  C   UNL     1      -0.374   9.508 -24.976  1.00  0.00     0.040 A 
HETATM   33  C   UNL     1      -3.728   8.694 -24.309  1.00  0.00     0.352 A 
HETATM   34  C   UNL     1       0.458   8.852 -25.889  1.00  0.00     0.012 A 
ENDBRANCH  25  26
ENDBRANCH  23  25
ENDBRANCH   4  23
TORSDOF 6
ENDMDL
MODEL 7
REMARK VINA RESULT:      -8.8      0.954      1.637
REMARK  6 active torsions:
REMARK  status: ('A' for Active; 'I' for Inactive)
REMARK    1  A    between atoms: C_8  and  C_9 
REMARK    2  A    between atoms: N_10  and  N_11 
REMARK       I    between atoms: N_11  and  C_12 
REMARK    3  A    between atoms: C_12  and  C_13 
REMARK    4  A    between atoms: C_16  and  N_17 
REMARK    5  A    between atoms: N_17  and  C_18 
REMARK    6  A    between atoms: C_18  and  C_19 
ROOT
HETATM    1  C   UNL     1      -4.243   4.119 -31.722  1.00  0.00     0.033 A 
HETATM    2  C   UNL     1      -4.793   3.294 -30.739  1.00  0.00     0.019 A 
HETATM    3  C   UNL     1      -5.782   2.358 -31.074  1.00  0.00     0.030 A 
HETATM    4  C   UNL     1      -6.268   2.248 -32.383  1.00  0.00     0.028 A 
HETATM    5  C   UNL     1      -5.705   3.086 -33.356  1.00  0.00     0.030 A 
HETATM    6  C   UNL     1      -4.717   4.023 -33.033  1.00  0.00     0.019 A 
ENDROOT
BRANCH   1   7
HETATM    7  C   UNL     1      -3.157   5.100 -31.435  1.00  0.00     0.271 C 
HETATM    8  N   UNL     1      -3.323   5.841 -30.272  1.00  0.00    -0.243 N 
HETATM    9  H   UNL     1      -4.175   5.747 -29.732  1.00  0.00     0.192 HD
HETATM   10  O   UNL     1      -2.206   5.167 -32.207  1.00  0.00    -0.266 OA
BRANCH   8  11
HETATM   11  N   UNL     1      -2.502   6.830 -29.794  1.00  0.00    -0.183 NA
HETATM   12  C   UNL     1      -2.812   7.444 -28.697  1.00  0.00     0.152 C 
BRANCH  12  13
HETATM   13  C   UNL     1      -1.921   8.475 -28.195  1.00  0.00     0.011 A 
HETATM   14  C   UNL     1      -0.609   8.295 -27.651  1.00  0.00     0.004 A 
HETATM   15  C   UNL     1       0.220   7.174 -27.429  1.00  0.00     0.014 A 
HETATM   16  C   UNL     1      -0.131   9.554 -27.283  1.00  0.00     0.043 A 
HETATM   17  C   UNL     1       1.482   7.352 -26.850  1.00  0.00     0.001 A 
HETATM   18  C   UNL     1       1.926   8.622 -26.492  1.00  0.00     0.002 A 
HETATM   19  C   UNL     1       1.128   9.750 -26.704  1.00  0.00     0.030 A 
HETATM   20  N   UNL     1      -1.111  10.467 -27.599  1.00  0.00    -0.364 N 
HETATM   21  H   UNL     1      -1.038  11.463 -27.445  1.00  0.00     0.165 HD
HETATM   22  C   UNL     1      -2.192   9.830 -28.143  1.00  0.00     0.102 A 
ENDBRANCH  12  13
ENDBRANCH   8  11
ENDBRANCH   1   7
BRANCH   4  23
HETATM   23  N   UNL     1      -7.164   1.264 -32.798  1.00  0.00    -0.386 N 
HETATM   24  H   UNL     1      -7.288   0.528 -32.107  1.00  0.00     0.160 HD
BRANCH  23  25
HETATM   25  C   UNL     1      -7.140   0.753 -34.161  1.00  0.00     0.158 C 
BRANCH  25  26
HETATM   26  C   UNL     1      -6.367  -0.547 -34.193  1.00  0.00    -0.038 A 
HETATM   27  C   UNL     1      -6.976  -1.733 -34.636  1.00  0.00     0.048 A 
HETATM   28  C   UNL     1      -6.228  -2.891 -34.621  1.00  0.00     0.105 A 
HETATM   29  C   UNL     1      -4.921  -2.909 -34.192  1.00  0.00     0.105 A 
HETATM   30  O   UNL     1      -6.663  -4.121 -35.007  1.00  0.00    -0.323 OA
HETATM   31  O   UNL     1      -4.370  -4.150 -34.256  1.00  0.00    -0.323 OA
HETATM   32  C   UNL     1      -4.286  -1.768 -33.755  1.00  0.00     0.040 A 
HETATM   33  C   UNL     1      -5.482  -4.915 -34.766  1.00  0.00     0.352 A 
HETATM   34  C   UNL     1      -5.020  -0.578 -33.756  1.00  0.00     0.012 A 
ENDBRANCH  25  26
ENDBRANCH  23  25
ENDBRANCH   4  23
TORSDOF 6
ENDMDL
MODEL 8
REMARK VINA RESULT:      -8.6      4.671     11.492
REMARK  6 active torsions:
REMARK  status: ('A' for Active; 'I' for Inactive)
REMARK    1  A    between atoms: C_8  and  C_9 
REMARK    2  A    between atoms: N_10  and  N_11 
REMARK       I    between atoms: N_11  and  C_12 
REMARK    3  A    between atoms: C_12  and  C_13 
REMARK    4  A    between atoms: C_16  and  N_17 
REMARK    5  A    between atoms: N_17  and  C_18 
REMARK    6  A    between atoms: C_18  and  C_19 
ROOT
HETATM    1  C   UNL     1      -3.031   5.746 -33.522  1.00  0.00     0.033 A 
HETATM    2  C   UNL     1      -2.173   6.807 -33.821  1.00  0.00     0.019 A 
HETATM    3  C   UNL     1      -1.048   7.053 -33.021  1.00  0.00     0.030 A 
HETATM    4  C   UNL     1      -0.773   6.274 -31.890  1.00  0.00     0.028 A 
HETATM    5  C   UNL     1      -1.645   5.214 -31.605  1.00  0.00     0.030 A 
HETATM    6  C   UNL     1      -2.770   4.960 -32.397  1.00  0.00     0.019 A 
ENDROOT
BRANCH   1   7
HETATM    7  C   UNL     1      -4.215   5.408 -34.361  1.00  0.00     0.271 C 
HETATM    8  N   UNL     1      -5.404   5.237 -33.664  1.00  0.00    -0.243 N 
HETATM    9  H   UNL     1      -5.403   5.270 -32.651  1.00  0.00     0.192 HD
HETATM   10  O   UNL     1      -4.071   5.330 -35.577  1.00  0.00    -0.266 OA
BRANCH   8  11
HETATM   11  N   UNL     1      -6.626   4.888 -34.180  1.00  0.00    -0.183 NA
HETATM   12  C   UNL     1      -7.592   4.575 -33.378  1.00  0.00     0.152 C 
BRANCH  12  13
HETATM   13  C   UNL     1      -8.885   4.226 -33.940  1.00  0.00     0.011 A 
HETATM   14  C   UNL     1      -9.598   2.996 -33.772  1.00  0.00     0.004 A 
HETATM   15  C   UNL     1      -9.342   1.796 -33.073  1.00  0.00     0.014 A 
HETATM   16  C   UNL     1     -10.784   3.096 -34.500  1.00  0.00     0.043 A 
HETATM   17  C   UNL     1     -10.271   0.751 -33.130  1.00  0.00     0.001 A 
HETATM   18  C   UNL     1     -11.444   0.884 -33.868  1.00  0.00     0.002 A 
HETATM   19  C   UNL     1     -11.725   2.061 -34.567  1.00  0.00     0.030 A 
HETATM   20  N   UNL     1     -10.799   4.343 -35.082  1.00  0.00    -0.364 N 
HETATM   21  H   UNL     1     -11.544   4.694 -35.667  1.00  0.00     0.165 HD
HETATM   22  C   UNL     1      -9.662   5.029 -34.755  1.00  0.00     0.102 A 
ENDBRANCH  12  13
ENDBRANCH   8  11
ENDBRANCH   1   7
BRANCH   4  23
HETATM   23  N   UNL     1       0.386   6.398 -31.126  1.00  0.00    -0.386 N 
HETATM   24  H   UNL     1       1.235   6.306 -31.679  1.00  0.00     0.160 HD
BRANCH  23  25
HETATM   25  C   UNL     1       0.499   5.761 -29.822  1.00  0.00     0.158 C 
BRANCH  25  26
HETATM   26  C   UNL     1       0.234   6.786 -28.741  1.00  0.00    -0.038 A 
HETATM   27  C   UNL     1      -0.884   6.666 -27.898  1.00  0.00     0.048 A 
HETATM   28  C   UNL     1      -1.085   7.643 -26.946  1.00  0.00     0.105 A 
HETATM   29  C   UNL     1      -0.230   8.711 -26.806  1.00  0.00     0.105 A 
HETATM   30  O   UNL     1      -2.115   7.684 -26.059  1.00  0.00    -0.323 OA
HETATM   31  O   UNL     1      -0.614   9.556 -25.813  1.00  0.00    -0.323 OA
HETATM   32  C   UNL     1       0.878   8.863 -27.608  1.00  0.00     0.040 A 
HETATM   33  C   UNL     1      -1.814   8.904 -25.348  1.00  0.00     0.352 A 
HETATM   34  C   UNL     1       1.108   7.889 -28.585  1.00  0.00     0.012 A 
ENDBRANCH  25  26
ENDBRANCH  23  25
ENDBRANCH   4  23
TORSDOF 6
ENDMDL
MODEL 9
REMARK VINA RESULT:      -8.5      1.546      2.350
REMARK  6 active torsions:
REMARK  status: ('A' for Active; 'I' for Inactive)
REMARK    1  A    between atoms: C_8  and  C_9 
REMARK    2  A    between atoms: N_10  and  N_11 
REMARK       I    between atoms: N_11  and  C_12 
REMARK    3  A    between atoms: C_12  and  C_13 
REMARK    4  A    between atoms: C_16  and  N_17 
REMARK    5  A    between atoms: N_17  and  C_18 
REMARK    6  A    between atoms: C_18  and  C_19 
ROOT
HETATM    1  C   UNL     1      -3.066   4.630 -32.079  1.00  0.00     0.033 A 
HETATM    2  C   UNL     1      -3.415   3.530 -31.292  1.00  0.00     0.019 A 
HETATM    3  C   UNL     1      -4.437   2.663 -31.704  1.00  0.00     0.030 A 
HETATM    4  C   UNL     1      -5.156   2.891 -32.884  1.00  0.00     0.028 A 
HETATM    5  C   UNL     1      -4.793   4.001 -33.660  1.00  0.00     0.030 A 
HETATM    6  C   UNL     1      -3.774   4.872 -33.259  1.00  0.00     0.019 A 
ENDROOT
BRANCH   1   7
HETATM    7  C   UNL     1      -1.959   5.559 -31.717  1.00  0.00     0.271 C 
HETATM    8  N   UNL     1      -1.818   5.810 -30.359  1.00  0.00    -0.243 N 
HETATM    9  H   UNL     1      -2.492   5.431 -29.704  1.00  0.00     0.192 HD
HETATM   10  O   UNL     1      -1.251   6.007 -32.614  1.00  0.00    -0.266 OA
BRANCH   8  11
HETATM   11  N   UNL     1      -0.913   6.649 -29.759  1.00  0.00    -0.183 NA
HETATM   12  C   UNL     1      -1.016   6.900 -28.493  1.00  0.00     0.152 C 
BRANCH  12  13
HETATM   13  C   UNL     1      -0.039   7.774 -27.870  1.00  0.00     0.011 A 
HETATM   14  C   UNL     1      -0.180   8.490 -26.637  1.00  0.00     0.004 A 
HETATM   15  C   UNL     1      -1.204   8.598 -25.673  1.00  0.00     0.014 A 
HETATM   16  C   UNL     1       0.997   9.213 -26.436  1.00  0.00     0.043 A 
HETATM   17  C   UNL     1      -1.018   9.420 -24.554  1.00  0.00     0.001 A 
HETATM   18  C   UNL     1       0.168  10.129 -24.386  1.00  0.00     0.002 A 
HETATM   19  C   UNL     1       1.201  10.038 -25.323  1.00  0.00     0.030 A 
HETATM   20  N   UNL     1       1.827   8.941 -27.499  1.00  0.00    -0.364 N 
HETATM   21  H   UNL     1       2.753   9.327 -27.617  1.00  0.00     0.165 HD
HETATM   22  C   UNL     1       1.213   8.082 -28.368  1.00  0.00     0.102 A 
ENDBRANCH  12  13
ENDBRANCH   8  11
ENDBRANCH   1   7
BRANCH   4  23
HETATM   23  N   UNL     1      -6.101   2.006 -33.400  1.00  0.00    -0.386 N 
HETATM   24  H   UNL     1      -6.846   2.476 -33.908  1.00  0.00     0.160 HD
BRANCH  23  25
HETATM   25  C   UNL     1      -6.585   0.881 -32.613  1.00  0.00     0.158 C 
BRANCH  25  26
HETATM   26  C   UNL     1      -6.057  -0.407 -33.206  1.00  0.00    -0.038 A 
HETATM   27  C   UNL     1      -6.934  -1.351 -33.767  1.00  0.00     0.048 A 
HETATM   28  C   UNL     1      -6.396  -2.516 -34.271  1.00  0.00     0.105 A 
HETATM   29  C   UNL     1      -5.044  -2.768 -34.239  1.00  0.00     0.105 A 
HETATM   30  O   UNL     1      -7.100  -3.533 -34.838  1.00  0.00    -0.323 OA
HETATM   31  O   UNL     1      -4.728  -3.973 -34.784  1.00  0.00    -0.323 OA
HETATM   32  C   UNL     1      -4.151  -1.868 -33.704  1.00  0.00     0.040 A 
HETATM   33  C   UNL     1      -6.036  -4.456 -35.155  1.00  0.00     0.352 A 
HETATM   34  C   UNL     1      -4.667  -0.678 -33.182  1.00  0.00     0.012 A 
ENDBRANCH  25  26
ENDBRANCH  23  25
ENDBRANCH   4  23
TORSDOF 6
ENDMDL
MODEL 10
REMARK VINA RESULT:      -8.5      3.098     11.169
REMARK  6 active torsions:
REMARK  status: ('A' for Active; 'I' for Inactive)
REMARK    1  A    between atoms: C_8  and  C_9 
REMARK    2  A    between atoms: N_10  and  N_11 
REMARK       I    between atoms: N_11  and  C_12 
REMARK    3  A    between atoms: C_12  and  C_13 
REMARK    4  A    between atoms: C_16  and  N_17 
REMARK    5  A    between atoms: N_17  and  C_18 
REMARK    6  A    between atoms: C_18  and  C_19 
ROOT
HETATM    1  C   UNL     1      -5.802   4.436 -32.190  1.00  0.00     0.033 A 
HETATM    2  C   UNL     1      -4.957   5.036 -33.128  1.00  0.00     0.019 A 
HETATM    3  C   UNL     1      -4.374   6.282 -32.858  1.00  0.00     0.030 A 
HETATM    4  C   UNL     1      -4.645   6.973 -31.671  1.00  0.00     0.028 A 
HETATM    5  C   UNL     1      -5.496   6.357 -30.742  1.00  0.00     0.030 A 
HETATM    6  C   UNL     1      -6.083   5.113 -31.000  1.00  0.00     0.019 A 
ENDROOT
BRANCH   1   7
HETATM    7  C   UNL     1      -6.414   3.094 -32.400  1.00  0.00     0.271 C 
HETATM    8  N   UNL     1      -5.761   2.284 -33.320  1.00  0.00    -0.243 N 
HETATM    9  H   UNL     1      -4.977   2.650 -33.846  1.00  0.00     0.192 HD
HETATM   10  O   UNL     1      -7.409   2.793 -31.747  1.00  0.00    -0.266 OA
BRANCH   8  11
HETATM   11  N   UNL     1      -6.130   1.027 -33.727  1.00  0.00    -0.183 NA
HETATM   12  C   UNL     1      -5.270   0.061 -33.673  1.00  0.00     0.152 C 
BRANCH  12  13
HETATM   13  C   UNL     1      -5.682  -1.268 -34.090  1.00  0.00     0.011 A 
HETATM   14  C   UNL     1      -4.984  -2.499 -33.870  1.00  0.00     0.004 A 
HETATM   15  C   UNL     1      -3.773  -2.845 -33.233  1.00  0.00     0.014 A 
HETATM   16  C   UNL     1      -5.738  -3.518 -34.453  1.00  0.00     0.043 A 
HETATM   17  C   UNL     1      -3.362  -4.183 -33.206  1.00  0.00     0.001 A 
HETATM   18  C   UNL     1      -4.138  -5.174 -33.800  1.00  0.00     0.002 A 
HETATM   19  C   UNL     1      -5.344  -4.862 -34.435  1.00  0.00     0.030 A 
HETATM   20  N   UNL     1      -6.857  -2.933 -35.000  1.00  0.00    -0.364 N 
HETATM   21  H   UNL     1      -7.587  -3.434 -35.487  1.00  0.00     0.165 HD
HETATM   22  C   UNL     1      -6.832  -1.582 -34.791  1.00  0.00     0.102 A 
ENDBRANCH  12  13
ENDBRANCH   8  11
ENDBRANCH   1   7
BRANCH   4  23
HETATM   23  N   UNL     1      -4.008   8.155 -31.299  1.00  0.00    -0.386 N 
HETATM   24  H   UNL     1      -4.584   8.979 -31.456  1.00  0.00     0.160 HD
BRANCH  23  25
HETATM   25  C   UNL     1      -2.606   8.386 -31.617  1.00  0.00     0.158 C 
BRANCH  25  26
HETATM   26  C   UNL     1      -1.741   7.701 -30.582  1.00  0.00    -0.038 A 
HETATM   27  C   UNL     1      -2.116   7.688 -29.228  1.00  0.00     0.048 A 
HETATM   28  C   UNL     1      -1.275   7.068 -28.328  1.00  0.00     0.105 A 
HETATM   29  C   UNL     1      -0.100   6.470 -28.721  1.00  0.00     0.105 A 
HETATM   30  O   UNL     1      -1.482   6.972 -26.987  1.00  0.00    -0.323 OA
HETATM   31  O   UNL     1       0.578   5.923 -27.678  1.00  0.00    -0.323 OA
HETATM   32  C   UNL     1       0.301   6.457 -30.038  1.00  0.00     0.040 A 
HETATM   33  C   UNL     1      -0.300   6.250 -26.581  1.00  0.00     0.352 A 
HETATM   34  C   UNL     1      -0.530   7.080 -30.974  1.00  0.00     0.012 A 
ENDBRANCH  25  26
ENDBRANCH  23  25
ENDBRANCH   4  23
TORSDOF 6
ENDMDL
