MODEL 1
REMARK VINA RESULT:      -9.2      0.000      0.000
REMARK  8 active torsions:
REMARK  status: ('A' for Active; 'I' for Inactive)
REMARK    1  A    between atoms: C_2  and  S_3 
REMARK    2  A    between atoms: S_3  and  C_4 
REMARK    3  A    between atoms: C_4  and  C_5 
REMARK    4  A    between atoms: C_8  and  C_9 
REMARK    5  A    between atoms: C_10  and  C_11 
REMARK    6  A    between atoms: C_23  and  N_24 
REMARK       I    between atoms: N_24  and  C_25 
REMARK    7  A    between atoms: C_25  and  C_26 
REMARK    8  A    between atoms: C_26  and  C_27 
ROOT
HETATM    1  C   UNL     1       0.149   7.346 -29.199  1.00  0.00    -0.035 A 
HETATM    2  C   UNL     1      -1.133   6.786 -29.243  1.00  0.00     0.030 A 
HETATM    3  C   UNL     1      -1.686   6.298 -30.442  1.00  0.00     0.059 A 
HETATM    4  C   UNL     1      -0.933   6.356 -31.622  1.00  0.00     0.050 A 
HETATM    5  N   UNL     1      -1.296   5.814 -32.867  1.00  0.00    -0.324 N 
HETATM    6  C   UNL     1      -2.050   4.697 -33.120  1.00  0.00     0.245 C 
HETATM    7  O   UNL     1      -2.021   4.236 -34.264  1.00  0.00    -0.271 OA
HETATM    8  C   UNL     1      -2.688   3.962 -31.944  1.00  0.00     0.182 C 
HETATM    9  N   UNL     1      -3.543   4.858 -31.180  1.00  0.00    -0.332 N 
HETATM   10  C   UNL     1      -3.106   5.870 -30.364  1.00  0.00     0.256 C 
HETATM   11  O   UNL     1      -3.846   6.426 -29.555  1.00  0.00    -0.267 OA
HETATM   12  C   UNL     1      -3.603   2.810 -32.383  1.00  0.00     0.061 C 
HETATM   13  C   UNL     1      -4.747   2.857 -31.366  1.00  0.00     0.105 C 
HETATM   14  C   UNL     1      -4.905   4.355 -31.107  1.00  0.00     0.152 C 
HETATM   15  C   UNL     1       0.322   6.985 -31.589  1.00  0.00     0.031 A 
HETATM   16  C   UNL     1       0.867   7.457 -30.389  1.00  0.00     0.013 A 
HETATM   17  H   UNL     1      -0.767   6.094 -33.684  1.00  0.00     0.169 HD
ENDROOT
BRANCH   1  18
HETATM   18  C   UNL     1       0.784   7.714 -27.927  1.00  0.00     0.012 C 
HETATM   19  C   UNL     1       1.096   8.977 -27.595  1.00  0.00     0.012 C 
BRANCH  19  20
HETATM   20  C   UNL     1       1.580   9.386 -26.269  1.00  0.00    -0.036 A 
HETATM   21  C   UNL     1       2.358   8.495 -25.523  1.00  0.00     0.012 A 
HETATM   22  C   UNL     1       2.958   8.902 -24.329  1.00  0.00     0.009 A 
HETATM   23  C   UNL     1       2.804  10.215 -23.864  1.00  0.00    -0.049 A 
HETATM   24  C   UNL     1       2.011  11.103 -24.602  1.00  0.00     0.009 A 
HETATM   25  C   UNL     1       1.406  10.692 -25.793  1.00  0.00     0.012 A 
BRANCH  23  26
HETATM   26  C   UNL     1       3.544  10.682 -22.636  1.00  0.00     0.112 C 
BRANCH  26  27
HETATM   27  S   UNL     1       5.232   9.993 -22.602  1.00  0.00    -0.165 SA
BRANCH  27  28
HETATM   28  C   UNL     1       5.073   8.924 -21.145  1.00  0.00     0.069 C 
HETATM   29  C   UNL     1       4.879   7.484 -21.587  1.00  0.00     0.016 C 
ENDBRANCH  27  28
ENDBRANCH  26  27
ENDBRANCH  23  26
ENDBRANCH  19  20
ENDBRANCH   1  18
BRANCH  13  30
HETATM   30  N   UNL     1      -5.949   2.137 -31.741  1.00  0.00    -0.355 N 
HETATM   31  C   UNL     1      -6.626   1.269 -30.916  1.00  0.00     0.222 C 
HETATM   32  O   UNL     1      -6.262   1.047 -29.762  1.00  0.00    -0.273 OA
HETATM   33  H   UNL     1      -6.231   2.189 -32.715  1.00  0.00     0.162 HD
BRANCH  31  34
HETATM   34  C   UNL     1      -7.839   0.539 -31.483  1.00  0.00     0.148 C 
BRANCH  34  35
HETATM   35  C   UNL     1      -7.705   0.115 -32.916  1.00  0.00    -0.009 A 
HETATM   36  S   UNL     1      -8.522   0.982 -34.151  1.00  0.00    -0.106 SA
HETATM   37  C   UNL     1      -7.889  -0.034 -35.371  1.00  0.00     0.050 A 
HETATM   38  C   UNL     1      -7.069  -1.011 -34.855  1.00  0.00     0.008 A 
HETATM   39  C   UNL     1      -6.961  -0.926 -33.436  1.00  0.00     0.015 A 
ENDBRANCH  34  35
ENDBRANCH  31  34
ENDBRANCH  13  30
TORSDOF 8
ENDMDL
MODEL 2
REMARK VINA RESULT:      -9.0      3.222     13.151
REMARK  8 active torsions:
REMARK  status: ('A' for Active; 'I' for Inactive)
REMARK    1  A    between atoms: C_2  and  S_3 
REMARK    2  A    between atoms: S_3  and  C_4 
REMARK    3  A    between atoms: C_4  and  C_5 
REMARK    4  A    between atoms: C_8  and  C_9 
REMARK    5  A    between atoms: C_10  and  C_11 
REMARK    6  A    between atoms: C_23  and  N_24 
REMARK       I    between atoms: N_24  and  C_25 
REMARK    7  A    between atoms: C_25  and  C_26 
REMARK    8  A    between atoms: C_26  and  C_27 
ROOT
HETATM    1  C   UNL     1      -5.549   3.535 -33.677  1.00  0.00    -0.035 A 
HETATM    2  C   UNL     1      -4.564   3.561 -32.682  1.00  0.00     0.030 A 
HETATM    3  C   UNL     1      -3.429   4.387 -32.786  1.00  0.00     0.059 A 
HETATM    4  C   UNL     1      -3.284   5.220 -33.903  1.00  0.00     0.050 A 
HETATM    5  N   UNL     1      -2.273   6.177 -34.100  1.00  0.00    -0.324 N 
HETATM    6  C   UNL     1      -1.617   6.926 -33.157  1.00  0.00     0.245 C 
HETATM    7  O   UNL     1      -0.968   7.898 -33.551  1.00  0.00    -0.271 OA
HETATM    8  C   UNL     1      -1.905   6.661 -31.682  1.00  0.00     0.182 C 
HETATM    9  N   UNL     1      -1.637   5.270 -31.347  1.00  0.00    -0.332 N 
HETATM   10  C   UNL     1      -2.402   4.199 -31.730  1.00  0.00     0.256 C 
HETATM   11  O   UNL     1      -2.279   3.088 -31.218  1.00  0.00    -0.267 OA
HETATM   12  C   UNL     1      -1.009   7.480 -30.741  1.00  0.00     0.061 C 
HETATM   13  C   UNL     1      -0.741   6.520 -29.579  1.00  0.00     0.105 C 
HETATM   14  C   UNL     1      -0.657   5.163 -30.277  1.00  0.00     0.152 C 
HETATM   15  C   UNL     1      -4.235   5.137 -34.933  1.00  0.00     0.031 A 
HETATM   16  C   UNL     1      -5.365   4.320 -34.814  1.00  0.00     0.013 A 
HETATM   17  H   UNL     1      -2.159   6.569 -35.027  1.00  0.00     0.169 HD
ENDROOT
BRANCH   1  18
HETATM   18  C   UNL     1      -6.803   2.791 -33.499  1.00  0.00     0.012 C 
HETATM   19  C   UNL     1      -7.962   3.149 -34.072  1.00  0.00     0.012 C 
BRANCH  19  20
HETATM   20  C   UNL     1      -9.185   2.335 -34.041  1.00  0.00    -0.036 A 
HETATM   21  C   UNL     1      -9.179   1.125 -33.339  1.00  0.00     0.012 A 
HETATM   22  C   UNL     1     -10.360   0.400 -33.162  1.00  0.00     0.009 A 
HETATM   23  C   UNL     1     -11.576   0.879 -33.671  1.00  0.00    -0.049 A 
HETATM   24  C   UNL     1     -11.579   2.083 -34.387  1.00  0.00     0.009 A 
HETATM   25  C   UNL     1     -10.395   2.803 -34.569  1.00  0.00     0.012 A 
BRANCH  23  26
HETATM   26  C   UNL     1     -12.864   0.152 -33.381  1.00  0.00     0.112 C 
BRANCH  26  27
HETATM   27  S   UNL     1     -14.257   0.939 -34.256  1.00  0.00    -0.165 SA
BRANCH  27  28
HETATM   28  C   UNL     1     -15.219   1.492 -32.820  1.00  0.00     0.069 C 
HETATM   29  C   UNL     1     -14.569   2.724 -32.215  1.00  0.00     0.016 C 
ENDBRANCH  27  28
ENDBRANCH  26  27
ENDBRANCH  23  26
ENDBRANCH  19  20
ENDBRANCH   1  18
BRANCH  13  30
HETATM   30  N   UNL     1       0.374   6.872 -28.720  1.00  0.00    -0.355 N 
HETATM   31  C   UNL     1       0.315   6.910 -27.346  1.00  0.00     0.222 C 
HETATM   32  O   UNL     1      -0.709   6.622 -26.727  1.00  0.00    -0.273 OA
HETATM   33  H   UNL     1       1.208   7.230 -29.172  1.00  0.00     0.162 HD
BRANCH  31  34
HETATM   34  C   UNL     1       1.558   7.363 -26.587  1.00  0.00     0.148 C 
BRANCH  34  35
HETATM   35  C   UNL     1       1.518   8.785 -26.109  1.00  0.00    -0.009 A 
HETATM   36  S   UNL     1       2.379   9.243 -24.697  1.00  0.00    -0.106 SA
HETATM   37  C   UNL     1       1.877  10.870 -24.841  1.00  0.00     0.050 A 
HETATM   38  C   UNL     1       1.074  11.067 -25.941  1.00  0.00     0.008 A 
HETATM   39  C   UNL     1       0.867   9.863 -26.675  1.00  0.00     0.015 A 
ENDBRANCH  34  35
ENDBRANCH  31  34
ENDBRANCH  13  30
TORSDOF 8
ENDMDL
MODEL 3
REMARK VINA RESULT:      -8.5      2.617      3.038
REMARK  8 active torsions:
REMARK  status: ('A' for Active; 'I' for Inactive)
REMARK    1  A    between atoms: C_2  and  S_3 
REMARK    2  A    between atoms: S_3  and  C_4 
REMARK    3  A    between atoms: C_4  and  C_5 
REMARK    4  A    between atoms: C_8  and  C_9 
REMARK    5  A    between atoms: C_10  and  C_11 
REMARK    6  A    between atoms: C_23  and  N_24 
REMARK       I    between atoms: N_24  and  C_25 
REMARK    7  A    between atoms: C_25  and  C_26 
REMARK    8  A    between atoms: C_26  and  C_27 
ROOT
HETATM    1  C   UNL     1      -1.789   7.058 -30.245  1.00  0.00    -0.035 A 
HETATM    2  C   UNL     1      -3.096   6.565 -30.334  1.00  0.00     0.030 A 
HETATM    3  C   UNL     1      -3.699   6.293 -31.577  1.00  0.00     0.059 A 
HETATM    4  C   UNL     1      -2.973   6.502 -32.756  1.00  0.00     0.050 A 
HETATM    5  N   UNL     1      -3.390   6.176 -34.058  1.00  0.00    -0.324 N 
HETATM    6  C   UNL     1      -4.200   5.145 -34.457  1.00  0.00     0.245 C 
HETATM    7  O   UNL     1      -4.221   4.867 -35.659  1.00  0.00    -0.271 OA
HETATM    8  C   UNL     1      -4.842   4.263 -33.389  1.00  0.00     0.182 C 
HETATM    9  N   UNL     1      -5.637   5.064 -32.470  1.00  0.00    -0.332 N 
HETATM   10  C   UNL     1      -5.135   5.917 -31.521  1.00  0.00     0.256 C 
HETATM   11  O   UNL     1      -5.829   6.371 -30.614  1.00  0.00    -0.267 OA
HETATM   12  C   UNL     1      -5.820   3.232 -33.972  1.00  0.00     0.061 C 
HETATM   13  C   UNL     1      -6.936   3.168 -32.925  1.00  0.00     0.105 C 
HETATM   14  C   UNL     1      -7.019   4.612 -32.434  1.00  0.00     0.152 C 
HETATM   15  C   UNL     1      -1.690   7.067 -32.666  1.00  0.00     0.031 A 
HETATM   16  C   UNL     1      -1.096   7.323 -31.424  1.00  0.00     0.013 A 
HETATM   17  H   UNL     1      -2.869   6.558 -34.838  1.00  0.00     0.169 HD
ENDROOT
BRANCH   1  18
HETATM   18  C   UNL     1      -1.107   7.198 -28.951  1.00  0.00     0.012 C 
HETATM   19  C   UNL     1      -0.281   8.215 -28.656  1.00  0.00     0.012 C 
BRANCH  19  20
HETATM   20  C   UNL     1       0.281   8.461 -27.321  1.00  0.00    -0.036 A 
HETATM   21  C   UNL     1       1.590   8.051 -27.048  1.00  0.00     0.012 A 
HETATM   22  C   UNL     1       2.208   8.400 -25.844  1.00  0.00     0.009 A 
HETATM   23  C   UNL     1       1.532   9.179 -24.894  1.00  0.00    -0.049 A 
HETATM   24  C   UNL     1       0.216   9.576 -25.161  1.00  0.00     0.009 A 
HETATM   25  C   UNL     1      -0.402   9.221 -26.364  1.00  0.00     0.012 A 
BRANCH  23  26
HETATM   26  C   UNL     1       2.240   9.648 -23.649  1.00  0.00     0.112 C 
BRANCH  26  27
HETATM   27  S   UNL     1       4.045   9.677 -23.907  1.00  0.00    -0.165 SA
BRANCH  27  28
HETATM   28  C   UNL     1       4.525   8.411 -22.699  1.00  0.00     0.069 C 
HETATM   29  C   UNL     1       3.350   8.108 -21.785  1.00  0.00     0.016 C 
ENDBRANCH  27  28
ENDBRANCH  26  27
ENDBRANCH  23  26
ENDBRANCH  19  20
ENDBRANCH   1  18
BRANCH  13  30
HETATM   30  N   UNL     1      -8.178   2.566 -33.370  1.00  0.00    -0.355 N 
HETATM   31  C   UNL     1      -8.990   1.783 -32.581  1.00  0.00     0.222 C 
HETATM   32  O   UNL     1      -8.724   1.546 -31.403  1.00  0.00    -0.273 OA
HETATM   33  H   UNL     1      -8.392   2.629 -34.360  1.00  0.00     0.162 HD
BRANCH  31  34
HETATM   34  C   UNL     1     -10.232   1.169 -33.217  1.00  0.00     0.148 C 
BRANCH  34  35
HETATM   35  C   UNL     1     -11.230   2.163 -33.734  1.00  0.00    -0.009 A 
HETATM   36  S   UNL     1     -11.675   3.515 -32.775  1.00  0.00    -0.106 SA
HETATM   37  C   UNL     1     -12.734   4.102 -33.981  1.00  0.00     0.050 A 
HETATM   38  C   UNL     1     -12.749   3.293 -35.094  1.00  0.00     0.008 A 
HETATM   39  C   UNL     1     -11.880   2.172 -34.953  1.00  0.00     0.015 A 
ENDBRANCH  34  35
ENDBRANCH  31  34
ENDBRANCH  13  30
TORSDOF 8
ENDMDL
MODEL 4
REMARK VINA RESULT:      -8.4      2.158      2.317
REMARK  8 active torsions:
REMARK  status: ('A' for Active; 'I' for Inactive)
REMARK    1  A    between atoms: C_2  and  S_3 
REMARK    2  A    between atoms: S_3  and  C_4 
REMARK    3  A    between atoms: C_4  and  C_5 
REMARK    4  A    between atoms: C_8  and  C_9 
REMARK    5  A    between atoms: C_10  and  C_11 
REMARK    6  A    between atoms: C_23  and  N_24 
REMARK       I    between atoms: N_24  and  C_25 
REMARK    7  A    between atoms: C_25  and  C_26 
REMARK    8  A    between atoms: C_26  and  C_27 
ROOT
HETATM    1  C   UNL     1      -0.241   7.483 -29.618  1.00  0.00    -0.035 A 
HETATM    2  C   UNL     1      -1.586   7.459 -30.007  1.00  0.00     0.030 A 
HETATM    3  C   UNL     1      -1.978   7.015 -31.284  1.00  0.00     0.059 A 
HETATM    4  C   UNL     1      -1.005   6.568 -32.187  1.00  0.00     0.050 A 
HETATM    5  N   UNL     1      -1.243   5.994 -33.448  1.00  0.00    -0.324 N 
HETATM    6  C   UNL     1      -2.308   5.226 -33.845  1.00  0.00     0.245 C 
HETATM    7  O   UNL     1      -2.194   4.594 -34.897  1.00  0.00    -0.271 OA
HETATM    8  C   UNL     1      -3.462   5.015 -32.868  1.00  0.00     0.182 C 
HETATM    9  N   UNL     1      -4.022   6.291 -32.450  1.00  0.00    -0.332 N 
HETATM   10  C   UNL     1      -3.418   7.186 -31.605  1.00  0.00     0.256 C 
HETATM   11  O   UNL     1      -4.031   8.118 -31.090  1.00  0.00    -0.267 OA
HETATM   12  C   UNL     1      -4.637   4.244 -33.488  1.00  0.00     0.061 C 
HETATM   13  C   UNL     1      -5.867   4.907 -32.863  1.00  0.00     0.105 C 
HETATM   14  C   UNL     1      -5.442   6.371 -32.755  1.00  0.00     0.152 C 
HETATM   15  C   UNL     1       0.347   6.663 -31.821  1.00  0.00     0.031 A 
HETATM   16  C   UNL     1       0.725   7.095 -30.545  1.00  0.00     0.013 A 
HETATM   17  H   UNL     1      -0.462   5.900 -34.086  1.00  0.00     0.169 HD
ENDROOT
BRANCH   1  18
HETATM   18  C   UNL     1       0.155   7.800 -28.240  1.00  0.00     0.012 C 
HETATM   19  C   UNL     1       1.178   8.614 -27.933  1.00  0.00     0.012 C 
BRANCH  19  20
HETATM   20  C   UNL     1       1.489   9.072 -26.572  1.00  0.00    -0.036 A 
HETATM   21  C   UNL     1       2.224   8.237 -25.724  1.00  0.00     0.012 A 
HETATM   22  C   UNL     1       2.666   8.697 -24.481  1.00  0.00     0.009 A 
HETATM   23  C   UNL     1       2.392  10.008 -24.066  1.00  0.00    -0.049 A 
HETATM   24  C   UNL     1       1.642  10.839 -24.908  1.00  0.00     0.009 A 
HETATM   25  C   UNL     1       1.196  10.375 -26.149  1.00  0.00     0.012 A 
BRANCH  23  26
HETATM   26  C   UNL     1       2.966  10.536 -22.776  1.00  0.00     0.112 C 
BRANCH  26  27
HETATM   27  S   UNL     1       4.323   9.468 -22.191  1.00  0.00    -0.165 SA
BRANCH  27  28
HETATM   28  C   UNL     1       5.703  10.259 -23.065  1.00  0.00     0.069 C 
HETATM   29  C   UNL     1       6.633   9.193 -23.618  1.00  0.00     0.016 C 
ENDBRANCH  27  28
ENDBRANCH  26  27
ENDBRANCH  23  26
ENDBRANCH  19  20
ENDBRANCH   1  18
BRANCH  13  30
HETATM   30  N   UNL     1      -7.127   4.649 -33.534  1.00  0.00    -0.355 N 
HETATM   31  C   UNL     1      -8.334   4.495 -32.891  1.00  0.00     0.222 C 
HETATM   32  O   UNL     1      -8.439   4.584 -31.668  1.00  0.00    -0.273 OA
HETATM   33  H   UNL     1      -7.086   4.450 -34.528  1.00  0.00     0.162 HD
BRANCH  31  34
HETATM   34  C   UNL     1      -9.559   4.163 -33.736  1.00  0.00     0.148 C 
BRANCH  34  35
HETATM   35  C   UNL     1     -10.067   2.759 -33.583  1.00  0.00    -0.009 A 
HETATM   36  S   UNL     1     -11.717   2.402 -33.889  1.00  0.00    -0.106 SA
HETATM   37  C   UNL     1     -11.489   0.745 -33.539  1.00  0.00     0.050 A 
HETATM   38  C   UNL     1     -10.186   0.463 -33.201  1.00  0.00     0.008 A 
HETATM   39  C   UNL     1      -9.362   1.626 -33.226  1.00  0.00     0.015 A 
ENDBRANCH  34  35
ENDBRANCH  31  34
ENDBRANCH  13  30
TORSDOF 8
ENDMDL
MODEL 5
REMARK VINA RESULT:      -7.8      5.854     13.457
REMARK  8 active torsions:
REMARK  status: ('A' for Active; 'I' for Inactive)
REMARK    1  A    between atoms: C_2  and  S_3 
REMARK    2  A    between atoms: S_3  and  C_4 
REMARK    3  A    between atoms: C_4  and  C_5 
REMARK    4  A    between atoms: C_8  and  C_9 
REMARK    5  A    between atoms: C_10  and  C_11 
REMARK    6  A    between atoms: C_23  and  N_24 
REMARK       I    between atoms: N_24  and  C_25 
REMARK    7  A    between atoms: C_25  and  C_26 
REMARK    8  A    between atoms: C_26  and  C_27 
ROOT
HETATM    1  C   UNL     1      -9.782   3.264 -34.095  1.00  0.00    -0.035 A 
HETATM    2  C   UNL     1      -8.766   3.860 -33.339  1.00  0.00     0.030 A 
HETATM    3  C   UNL     1      -7.732   3.099 -32.761  1.00  0.00     0.059 A 
HETATM    4  C   UNL     1      -7.704   1.713 -32.958  1.00  0.00     0.050 A 
HETATM    5  N   UNL     1      -6.686   0.835 -32.545  1.00  0.00    -0.324 N 
HETATM    6  C   UNL     1      -5.344   1.087 -32.427  1.00  0.00     0.245 C 
HETATM    7  O   UNL     1      -4.589   0.118 -32.318  1.00  0.00    -0.271 OA
HETATM    8  C   UNL     1      -4.842   2.509 -32.664  1.00  0.00     0.182 C 
HETATM    9  N   UNL     1      -5.505   3.445 -31.769  1.00  0.00    -0.332 N 
HETATM   10  C   UNL     1      -6.812   3.847 -31.866  1.00  0.00     0.256 C 
HETATM   11  O   UNL     1      -7.247   4.817 -31.250  1.00  0.00    -0.267 OA
HETATM   12  C   UNL     1      -3.342   2.670 -32.375  1.00  0.00     0.061 C 
HETATM   13  C   UNL     1      -3.247   4.069 -31.761  1.00  0.00     0.105 C 
HETATM   14  C   UNL     1      -4.543   4.173 -30.957  1.00  0.00     0.152 C 
HETATM   15  C   UNL     1      -8.764   1.110 -33.654  1.00  0.00     0.031 A 
HETATM   16  C   UNL     1      -9.781   1.877 -34.234  1.00  0.00     0.013 A 
HETATM   17  H   UNL     1      -6.874  -0.160 -32.565  1.00  0.00     0.169 HD
ENDROOT
BRANCH   1  18
HETATM   18  C   UNL     1     -10.772   4.069 -34.823  1.00  0.00     0.012 C 
HETATM   19  C   UNL     1     -10.991   5.371 -34.577  1.00  0.00     0.012 C 
BRANCH  19  20
HETATM   20  C   UNL     1     -11.855   6.232 -35.397  1.00  0.00    -0.036 A 
HETATM   21  C   UNL     1     -13.106   5.755 -35.800  1.00  0.00     0.012 A 
HETATM   22  C   UNL     1     -14.012   6.597 -36.450  1.00  0.00     0.009 A 
HETATM   23  C   UNL     1     -13.690   7.938 -36.698  1.00  0.00    -0.049 A 
HETATM   24  C   UNL     1     -12.430   8.411 -36.309  1.00  0.00     0.009 A 
HETATM   25  C   UNL     1     -11.523   7.566 -35.664  1.00  0.00     0.012 A 
BRANCH  23  26
HETATM   26  C   UNL     1     -14.711   8.871 -37.297  1.00  0.00     0.112 C 
BRANCH  26  27
HETATM   27  S   UNL     1     -13.900  10.344 -38.003  1.00  0.00    -0.165 SA
BRANCH  27  28
HETATM   28  C   UNL     1     -13.374   9.645 -39.593  1.00  0.00     0.069 C 
HETATM   29  C   UNL     1     -11.867   9.772 -39.732  1.00  0.00     0.016 C 
ENDBRANCH  27  28
ENDBRANCH  26  27
ENDBRANCH  23  26
ENDBRANCH  19  20
ENDBRANCH   1  18
BRANCH  13  30
HETATM   30  N   UNL     1      -2.019   4.357 -31.043  1.00  0.00    -0.355 N 
HETATM   31  C   UNL     1      -0.973   5.092 -31.553  1.00  0.00     0.222 C 
HETATM   32  O   UNL     1      -1.011   5.589 -32.678  1.00  0.00    -0.273 OA
HETATM   33  H   UNL     1      -1.881   3.878 -30.159  1.00  0.00     0.162 HD
BRANCH  31  34
HETATM   34  C   UNL     1       0.278   5.249 -30.695  1.00  0.00     0.148 C 
BRANCH  34  35
HETATM   35  C   UNL     1       0.122   6.168 -29.519  1.00  0.00    -0.009 A 
HETATM   36  S   UNL     1      -0.837   7.585 -29.654  1.00  0.00    -0.106 SA
HETATM   37  C   UNL     1      -0.539   8.019 -28.029  1.00  0.00     0.050 A 
HETATM   38  C   UNL     1       0.268   7.106 -27.390  1.00  0.00     0.008 A 
HETATM   39  C   UNL     1       0.651   6.036 -28.250  1.00  0.00     0.015 A 
ENDBRANCH  34  35
ENDBRANCH  31  34
ENDBRANCH  13  30
TORSDOF 8
ENDMDL
MODEL 6
REMARK VINA RESULT:      -7.8      3.160      3.710
REMARK  8 active torsions:
REMARK  status: ('A' for Active; 'I' for Inactive)
REMARK    1  A    between atoms: C_2  and  S_3 
REMARK    2  A    between atoms: S_3  and  C_4 
REMARK    3  A    between atoms: C_4  and  C_5 
REMARK    4  A    between atoms: C_8  and  C_9 
REMARK    5  A    between atoms: C_10  and  C_11 
REMARK    6  A    between atoms: C_23  and  N_24 
REMARK       I    between atoms: N_24  and  C_25 
REMARK    7  A    between atoms: C_25  and  C_26 
REMARK    8  A    between atoms: C_26  and  C_27 
ROOT
HETATM    1  C   UNL     1      -2.032   7.957 -30.393  1.00  0.00    -0.035 A 
HETATM    2  C   UNL     1      -3.431   7.973 -30.461  1.00  0.00     0.030 A 
HETATM    3  C   UNL     1      -4.124   7.389 -31.538  1.00  0.00     0.059 A 
HETATM    4  C   UNL     1      -3.405   6.760 -32.562  1.00  0.00     0.050 A 
HETATM    5  N   UNL     1      -3.949   6.040 -33.639  1.00  0.00    -0.324 N 
HETATM    6  C   UNL     1      -5.103   5.300 -33.669  1.00  0.00     0.245 C 
HETATM    7  O   UNL     1      -5.260   4.525 -34.616  1.00  0.00    -0.271 OA
HETATM    8  C   UNL     1      -6.006   5.300 -32.438  1.00  0.00     0.182 C 
HETATM    9  N   UNL     1      -6.408   6.656 -32.095  1.00  0.00    -0.332 N 
HETATM   10  C   UNL     1      -5.593   7.613 -31.548  1.00  0.00     0.256 C 
HETATM   11  O   UNL     1      -6.036   8.645 -31.050  1.00  0.00    -0.267 OA
HETATM   12  C   UNL     1      -7.318   4.534 -32.658  1.00  0.00     0.061 C 
HETATM   13  C   UNL     1      -8.346   5.357 -31.875  1.00  0.00     0.105 C 
HETATM   14  C   UNL     1      -7.856   6.790 -32.081  1.00  0.00     0.152 C 
HETATM   15  C   UNL     1      -2.002   6.812 -32.528  1.00  0.00     0.031 A 
HETATM   16  C   UNL     1      -1.322   7.384 -31.446  1.00  0.00     0.013 A 
HETATM   17  H   UNL     1      -3.342   5.808 -34.416  1.00  0.00     0.169 HD
ENDROOT
BRANCH   1  18
HETATM   18  C   UNL     1      -1.315   8.428 -29.201  1.00  0.00     0.012 C 
HETATM   19  C   UNL     1      -0.165   7.887 -28.768  1.00  0.00     0.012 C 
BRANCH  19  20
HETATM   20  C   UNL     1       0.650   8.443 -27.679  1.00  0.00    -0.036 A 
HETATM   21  C   UNL     1       0.468   9.779 -27.306  1.00  0.00     0.012 A 
HETATM   22  C   UNL     1       1.115  10.297 -26.181  1.00  0.00     0.009 A 
HETATM   23  C   UNL     1       1.947   9.485 -25.397  1.00  0.00    -0.049 A 
HETATM   24  C   UNL     1       2.141   8.152 -25.780  1.00  0.00     0.009 A 
HETATM   25  C   UNL     1       1.497   7.636 -26.909  1.00  0.00     0.012 A 
BRANCH  23  26
HETATM   26  C   UNL     1       2.552  10.016 -24.123  1.00  0.00     0.112 C 
BRANCH  26  27
HETATM   27  S   UNL     1       3.007   8.647 -23.008  1.00  0.00    -0.165 SA
BRANCH  27  28
HETATM   28  C   UNL     1       4.662   9.213 -22.524  1.00  0.00     0.069 C 
HETATM   29  C   UNL     1       5.455   9.588 -23.764  1.00  0.00     0.016 C 
ENDBRANCH  27  28
ENDBRANCH  26  27
ENDBRANCH  23  26
ENDBRANCH  19  20
ENDBRANCH   1  18
BRANCH  13  30
HETATM   30  N   UNL     1      -9.735   5.098 -32.200  1.00  0.00    -0.355 N 
HETATM   31  C   UNL     1     -10.535   4.196 -31.536  1.00  0.00     0.222 C 
HETATM   32  O   UNL     1     -10.124   3.540 -30.579  1.00  0.00    -0.273 OA
HETATM   33  H   UNL     1     -10.096   5.521 -33.049  1.00  0.00     0.162 HD
BRANCH  31  34
HETATM   34  C   UNL     1     -11.959   3.991 -32.041  1.00  0.00     0.148 C 
BRANCH  34  35
HETATM   35  C   UNL     1     -12.058   3.363 -33.401  1.00  0.00    -0.009 A 
HETATM   36  S   UNL     1     -11.756   1.685 -33.598  1.00  0.00    -0.106 SA
HETATM   37  C   UNL     1     -12.068   1.762 -35.276  1.00  0.00     0.050 A 
HETATM   38  C   UNL     1     -12.400   3.034 -35.683  1.00  0.00     0.008 A 
HETATM   39  C   UNL     1     -12.395   3.960 -34.599  1.00  0.00     0.015 A 
ENDBRANCH  34  35
ENDBRANCH  31  34
ENDBRANCH  13  30
TORSDOF 8
ENDMDL
MODEL 7
REMARK VINA RESULT:      -7.8     10.238     15.095
REMARK  8 active torsions:
REMARK  status: ('A' for Active; 'I' for Inactive)
REMARK    1  A    between atoms: C_2  and  S_3 
REMARK    2  A    between atoms: S_3  and  C_4 
REMARK    3  A    between atoms: C_4  and  C_5 
REMARK    4  A    between atoms: C_8  and  C_9 
REMARK    5  A    between atoms: C_10  and  C_11 
REMARK    6  A    between atoms: C_23  and  N_24 
REMARK       I    between atoms: N_24  and  C_25 
REMARK    7  A    between atoms: C_25  and  C_26 
REMARK    8  A    between atoms: C_26  and  C_27 
ROOT
HETATM    1  C   UNL     1     -12.294   5.311 -34.955  1.00  0.00    -0.035 A 
HETATM    2  C   UNL     1     -10.954   4.927 -34.825  1.00  0.00     0.030 A 
HETATM    3  C   UNL     1     -10.583   3.763 -34.124  1.00  0.00     0.059 A 
HETATM    4  C   UNL     1     -11.576   2.956 -33.556  1.00  0.00     0.050 A 
HETATM    5  N   UNL     1     -11.379   1.714 -32.926  1.00  0.00    -0.324 N 
HETATM    6  C   UNL     1     -10.428   0.765 -33.200  1.00  0.00     0.245 C 
HETATM    7  O   UNL     1     -10.594  -0.362 -32.728  1.00  0.00    -0.271 OA
HETATM    8  C   UNL     1      -9.357   1.081 -34.241  1.00  0.00     0.182 C 
HETATM    9  N   UNL     1      -8.628   2.287 -33.880  1.00  0.00    -0.332 N 
HETATM   10  C   UNL     1      -9.123   3.564 -33.943  1.00  0.00     0.256 C 
HETATM   11  O   UNL     1      -8.397   4.553 -33.871  1.00  0.00    -0.267 OA
HETATM   12  C   UNL     1      -8.289  -0.017 -34.352  1.00  0.00     0.061 C 
HETATM   13  C   UNL     1      -6.998   0.767 -34.604  1.00  0.00     0.105 C 
HETATM   14  C   UNL     1      -7.201   2.028 -33.764  1.00  0.00     0.152 C 
HETATM   15  C   UNL     1     -12.913   3.383 -33.624  1.00  0.00     0.031 A 
HETATM   16  C   UNL     1     -13.270   4.536 -34.333  1.00  0.00     0.013 A 
HETATM   17  H   UNL     1     -12.140   1.327 -32.381  1.00  0.00     0.169 HD
ENDROOT
BRANCH   1  18
HETATM   18  C   UNL     1     -12.691   6.436 -35.811  1.00  0.00     0.012 C 
HETATM   19  C   UNL     1     -13.698   6.371 -36.697  1.00  0.00     0.012 C 
BRANCH  19  20
HETATM   20  C   UNL     1     -14.216   7.526 -37.443  1.00  0.00    -0.036 A 
HETATM   21  C   UNL     1     -13.422   8.105 -38.439  1.00  0.00     0.012 A 
HETATM   22  C   UNL     1     -13.938   9.105 -39.268  1.00  0.00     0.009 A 
HETATM   23  C   UNL     1     -15.265   9.536 -39.127  1.00  0.00    -0.049 A 
HETATM   24  C   UNL     1     -16.055   8.967 -38.120  1.00  0.00     0.009 A 
HETATM   25  C   UNL     1     -15.535   7.972 -37.288  1.00  0.00     0.012 A 
BRANCH  23  26
HETATM   26  C   UNL     1     -15.851  10.532 -40.096  1.00  0.00     0.112 C 
BRANCH  26  27
HETATM   27  S   UNL     1     -17.366   9.867 -40.863  1.00  0.00    -0.165 SA
BRANCH  27  28
HETATM   28  C   UNL     1     -16.807   9.807 -42.589  1.00  0.00     0.069 C 
HETATM   29  C   UNL     1     -15.931   8.584 -42.798  1.00  0.00     0.016 C 
ENDBRANCH  27  28
ENDBRANCH  26  27
ENDBRANCH  23  26
ENDBRANCH  19  20
ENDBRANCH   1  18
BRANCH  13  30
HETATM   30  N   UNL     1      -5.766   0.035 -34.379  1.00  0.00    -0.355 N 
HETATM   31  C   UNL     1      -5.419  -0.557 -33.187  1.00  0.00     0.222 C 
HETATM   32  O   UNL     1      -6.157  -0.525 -32.202  1.00  0.00    -0.273 OA
HETATM   33  H   UNL     1      -5.068   0.073 -35.115  1.00  0.00     0.162 HD
BRANCH  31  34
HETATM   34  C   UNL     1      -4.056  -1.235 -33.092  1.00  0.00     0.148 C 
BRANCH  34  35
HETATM   35  C   UNL     1      -4.071  -2.714 -33.349  1.00  0.00    -0.009 A 
HETATM   36  S   UNL     1      -4.987  -3.352 -34.653  1.00  0.00    -0.106 SA
HETATM   37  C   UNL     1      -4.497  -4.950 -34.299  1.00  0.00     0.050 A 
HETATM   38  C   UNL     1      -3.651  -5.002 -33.214  1.00  0.00     0.008 A 
HETATM   39  C   UNL     1      -3.404  -3.710 -32.665  1.00  0.00     0.015 A 
ENDBRANCH  34  35
ENDBRANCH  31  34
ENDBRANCH  13  30
TORSDOF 8
ENDMDL
MODEL 8
REMARK VINA RESULT:      -7.7      9.921     14.061
REMARK  8 active torsions:
REMARK  status: ('A' for Active; 'I' for Inactive)
REMARK    1  A    between atoms: C_2  and  S_3 
REMARK    2  A    between atoms: S_3  and  C_4 
REMARK    3  A    between atoms: C_4  and  C_5 
REMARK    4  A    between atoms: C_8  and  C_9 
REMARK    5  A    between atoms: C_10  and  C_11 
REMARK    6  A    between atoms: C_23  and  N_24 
REMARK       I    between atoms: N_24  and  C_25 
REMARK    7  A    between atoms: C_25  and  C_26 
REMARK    8  A    between atoms: C_26  and  C_27 
ROOT
HETATM    1  C   UNL     1     -11.156   1.816 -33.514  1.00  0.00    -0.035 A 
HETATM    2  C   UNL     1     -11.089   3.066 -32.889  1.00  0.00     0.030 A 
HETATM    3  C   UNL     1     -12.243   3.836 -32.650  1.00  0.00     0.059 A 
HETATM    4  C   UNL     1     -13.495   3.337 -33.030  1.00  0.00     0.050 A 
HETATM    5  N   UNL     1     -14.742   3.929 -32.763  1.00  0.00    -0.324 N 
HETATM    6  C   UNL     1     -15.107   4.691 -31.682  1.00  0.00     0.245 C 
HETATM    7  O   UNL     1     -16.311   4.881 -31.499  1.00  0.00    -0.271 OA
HETATM    8  C   UNL     1     -14.040   5.061 -30.654  1.00  0.00     0.182 C 
HETATM    9  N   UNL     1     -12.937   5.767 -31.288  1.00  0.00    -0.332 N 
HETATM   10  C   UNL     1     -12.001   5.201 -32.115  1.00  0.00     0.256 C 
HETATM   11  O   UNL     1     -10.958   5.777 -32.417  1.00  0.00    -0.267 OA
HETATM   12  C   UNL     1     -14.560   6.018 -29.571  1.00  0.00     0.061 C 
HETATM   13  C   UNL     1     -13.363   6.934 -29.302  1.00  0.00     0.105 C 
HETATM   14  C   UNL     1     -12.730   7.075 -30.686  1.00  0.00     0.152 C 
HETATM   15  C   UNL     1     -13.551   2.117 -33.723  1.00  0.00     0.031 A 
HETATM   16  C   UNL     1     -12.399   1.355 -33.945  1.00  0.00     0.013 A 
HETATM   17  H   UNL     1     -15.554   3.582 -33.260  1.00  0.00     0.169 HD
ENDROOT
BRANCH   1  18
HETATM   18  C   UNL     1      -9.977   0.947 -33.626  1.00  0.00     0.012 C 
HETATM   19  C   UNL     1      -8.843   1.317 -34.242  1.00  0.00     0.012 C 
BRANCH  19  20
HETATM   20  C   UNL     1      -7.601   0.531 -34.225  1.00  0.00    -0.036 A 
HETATM   21  C   UNL     1      -6.515   0.991 -33.473  1.00  0.00     0.012 A 
HETATM   22  C   UNL     1      -5.375   0.200 -33.313  1.00  0.00     0.009 A 
HETATM   23  C   UNL     1      -5.304  -1.076 -33.890  1.00  0.00    -0.049 A 
HETATM   24  C   UNL     1      -6.385  -1.530 -34.656  1.00  0.00     0.009 A 
HETATM   25  C   UNL     1      -7.522  -0.734 -34.821  1.00  0.00     0.012 A 
BRANCH  23  26
HETATM   26  C   UNL     1      -4.121  -1.971 -33.622  1.00  0.00     0.112 C 
BRANCH  26  27
HETATM   27  S   UNL     1      -4.400  -3.632 -34.320  1.00  0.00    -0.165 SA
BRANCH  27  28
HETATM   28  C   UNL     1      -3.381  -4.598 -33.171  1.00  0.00     0.069 C 
HETATM   29  C   UNL     1      -3.033  -3.749 -31.961  1.00  0.00     0.016 C 
ENDBRANCH  27  28
ENDBRANCH  26  27
ENDBRANCH  23  26
ENDBRANCH  19  20
ENDBRANCH   1  18
BRANCH  13  30
HETATM   30  N   UNL     1     -13.665   8.170 -28.604  1.00  0.00    -0.355 N 
HETATM   31  C   UNL     1     -13.699   8.301 -27.234  1.00  0.00     0.222 C 
HETATM   32  O   UNL     1     -13.451   7.360 -26.481  1.00  0.00    -0.273 OA
HETATM   33  H   UNL     1     -13.990   8.949 -29.167  1.00  0.00     0.162 HD
BRANCH  31  34
HETATM   34  C   UNL     1     -14.097   9.654 -26.653  1.00  0.00     0.148 C 
BRANCH  34  35
HETATM   35  C   UNL     1     -13.169  10.182 -25.599  1.00  0.00    -0.009 A 
HETATM   36  S   UNL     1     -11.743  11.025 -26.051  1.00  0.00    -0.106 SA
HETATM   37  C   UNL     1     -11.301  11.281 -24.421  1.00  0.00     0.050 A 
HETATM   38  C   UNL     1     -12.218  10.743 -23.546  1.00  0.00     0.008 A 
HETATM   39  C   UNL     1     -13.298  10.108 -24.227  1.00  0.00     0.015 A 
ENDBRANCH  34  35
ENDBRANCH  31  34
ENDBRANCH  13  30
TORSDOF 8
ENDMDL
MODEL 9
REMARK VINA RESULT:      -7.6      6.447      9.884
REMARK  8 active torsions:
REMARK  status: ('A' for Active; 'I' for Inactive)
REMARK    1  A    between atoms: C_2  and  S_3 
REMARK    2  A    between atoms: S_3  and  C_4 
REMARK    3  A    between atoms: C_4  and  C_5 
REMARK    4  A    between atoms: C_8  and  C_9 
REMARK    5  A    between atoms: C_10  and  C_11 
REMARK    6  A    between atoms: C_23  and  N_24 
REMARK       I    between atoms: N_24  and  C_25 
REMARK    7  A    between atoms: C_25  and  C_26 
REMARK    8  A    between atoms: C_26  and  C_27 
ROOT
HETATM    1  C   UNL     1      -6.596   2.624 -33.730  1.00  0.00    -0.035 A 
HETATM    2  C   UNL     1      -7.654   3.541 -33.698  1.00  0.00     0.030 A 
HETATM    3  C   UNL     1      -8.966   3.167 -34.046  1.00  0.00     0.059 A 
HETATM    4  C   UNL     1      -9.230   1.843 -34.418  1.00  0.00     0.050 A 
HETATM    5  N   UNL     1     -10.495   1.291 -34.684  1.00  0.00    -0.324 N 
HETATM    6  C   UNL     1     -11.703   1.628 -34.129  1.00  0.00     0.245 C 
HETATM    7  O   UNL     1     -12.643   0.845 -34.288  1.00  0.00    -0.271 OA
HETATM    8  C   UNL     1     -11.761   2.812 -33.167  1.00  0.00     0.182 C 
HETATM    9  N   UNL     1     -11.264   4.020 -33.807  1.00  0.00    -0.332 N 
HETATM   10  C   UNL     1      -9.951   4.278 -34.108  1.00  0.00     0.256 C 
HETATM   11  O   UNL     1      -9.556   5.401 -34.412  1.00  0.00    -0.267 OA
HETATM   12  C   UNL     1     -13.192   3.152 -32.723  1.00  0.00     0.061 C 
HETATM   13  C   UNL     1     -13.184   4.681 -32.638  1.00  0.00     0.105 C 
HETATM   14  C   UNL     1     -12.263   5.077 -33.792  1.00  0.00     0.152 C 
HETATM   15  C   UNL     1      -8.155   0.946 -34.521  1.00  0.00     0.031 A 
HETATM   16  C   UNL     1      -6.856   1.325 -34.161  1.00  0.00     0.013 A 
HETATM   17  H   UNL     1     -10.538   0.386 -35.136  1.00  0.00     0.169 HD
ENDROOT
BRANCH   1  18
HETATM   18  C   UNL     1      -5.263   2.972 -33.223  1.00  0.00     0.012 C 
HETATM   19  C   UNL     1      -4.557   4.026 -33.662  1.00  0.00     0.012 C 
BRANCH  19  20
HETATM   20  C   UNL     1      -3.298   4.485 -33.058  1.00  0.00    -0.036 A 
HETATM   21  C   UNL     1      -2.619   5.562 -33.636  1.00  0.00     0.012 A 
HETATM   22  C   UNL     1      -1.503   6.120 -33.007  1.00  0.00     0.009 A 
HETATM   23  C   UNL     1      -1.053   5.621 -31.776  1.00  0.00    -0.049 A 
HETATM   24  C   UNL     1      -1.723   4.532 -31.205  1.00  0.00     0.009 A 
HETATM   25  C   UNL     1      -2.835   3.971 -31.840  1.00  0.00     0.012 A 
BRANCH  23  26
HETATM   26  C   UNL     1       0.080   6.296 -31.046  1.00  0.00     0.112 C 
BRANCH  26  27
HETATM   27  S   UNL     1       0.663   5.259 -29.664  1.00  0.00    -0.165 SA
BRANCH  27  28
HETATM   28  C   UNL     1       0.319   6.396 -28.292  1.00  0.00     0.069 C 
HETATM   29  C   UNL     1       0.759   7.800 -28.671  1.00  0.00     0.016 C 
ENDBRANCH  27  28
ENDBRANCH  26  27
ENDBRANCH  23  26
ENDBRANCH  19  20
ENDBRANCH   1  18
BRANCH  13  30
HETATM   30  N   UNL     1     -14.489   5.314 -32.609  1.00  0.00    -0.355 N 
HETATM   31  C   UNL     1     -15.181   5.617 -31.459  1.00  0.00     0.222 C 
HETATM   32  O   UNL     1     -14.724   5.384 -30.341  1.00  0.00    -0.273 OA
HETATM   33  H   UNL     1     -14.967   5.424 -33.497  1.00  0.00     0.162 HD
BRANCH  31  34
HETATM   34  C   UNL     1     -16.574   6.223 -31.599  1.00  0.00     0.148 C 
BRANCH  34  35
HETATM   35  C   UNL     1     -17.565   5.360 -32.323  1.00  0.00    -0.009 A 
HETATM   36  S   UNL     1     -17.682   3.688 -31.954  1.00  0.00    -0.106 SA
HETATM   37  C   UNL     1     -18.935   3.460 -33.092  1.00  0.00     0.050 A 
HETATM   38  C   UNL     1     -19.265   4.629 -33.739  1.00  0.00     0.008 A 
HETATM   39  C   UNL     1     -18.474   5.728 -33.295  1.00  0.00     0.015 A 
ENDBRANCH  34  35
ENDBRANCH  31  34
ENDBRANCH  13  30
TORSDOF 8
ENDMDL
MODEL 10
REMARK VINA RESULT:      -7.5      6.208      8.663
REMARK  8 active torsions:
REMARK  status: ('A' for Active; 'I' for Inactive)
REMARK    1  A    between atoms: C_2  and  S_3 
REMARK    2  A    between atoms: S_3  and  C_4 
REMARK    3  A    between atoms: C_4  and  C_5 
REMARK    4  A    between atoms: C_8  and  C_9 
REMARK    5  A    between atoms: C_10  and  C_11 
REMARK    6  A    between atoms: C_23  and  N_24 
REMARK       I    between atoms: N_24  and  C_25 
REMARK    7  A    between atoms: C_25  and  C_26 
REMARK    8  A    between atoms: C_26  and  C_27 
ROOT
HETATM    1  C   UNL     1      -6.199   7.701 -29.198  1.00  0.00    -0.035 A 
HETATM    2  C   UNL     1      -6.566   6.868 -30.262  1.00  0.00     0.030 A 
HETATM    3  C   UNL     1      -5.639   6.011 -30.884  1.00  0.00     0.059 A 
HETATM    4  C   UNL     1      -4.318   5.973 -30.420  1.00  0.00     0.050 A 
HETATM    5  N   UNL     1      -3.308   5.097 -30.857  1.00  0.00    -0.324 N 
HETATM    6  C   UNL     1      -3.439   3.811 -31.314  1.00  0.00     0.245 C 
HETATM    7  O   UNL     1      -2.417   3.124 -31.384  1.00  0.00    -0.271 OA
HETATM    8  C   UNL     1      -4.842   3.233 -31.485  1.00  0.00     0.182 C 
HETATM    9  N   UNL     1      -5.632   4.060 -32.386  1.00  0.00    -0.332 N 
HETATM   10  C   UNL     1      -6.135   5.301 -32.090  1.00  0.00     0.256 C 
HETATM   11  O   UNL     1      -6.995   5.841 -32.781  1.00  0.00    -0.267 OA
HETATM   12  C   UNL     1      -4.840   1.835 -32.120  1.00  0.00     0.061 C 
HETATM   13  C   UNL     1      -6.084   1.848 -33.012  1.00  0.00     0.105 C 
HETATM   14  C   UNL     1      -6.120   3.290 -33.518  1.00  0.00     0.152 C 
HETATM   15  C   UNL     1      -3.935   6.862 -29.403  1.00  0.00     0.031 A 
HETATM   16  C   UNL     1      -4.868   7.702 -28.784  1.00  0.00     0.013 A 
HETATM   17  H   UNL     1      -2.351   5.300 -30.595  1.00  0.00     0.169 HD
ENDROOT
BRANCH   1  18
HETATM   18  C   UNL     1      -7.196   8.479 -28.451  1.00  0.00     0.012 C 
HETATM   19  C   UNL     1      -8.491   8.135 -28.368  1.00  0.00     0.012 C 
BRANCH  19  20
HETATM   20  C   UNL     1      -9.469   8.804 -27.499  1.00  0.00    -0.036 A 
HETATM   21  C   UNL     1      -9.399  10.192 -27.338  1.00  0.00     0.012 A 
HETATM   22  C   UNL     1     -10.398  10.878 -26.642  1.00  0.00     0.009 A 
HETATM   23  C   UNL     1     -11.495  10.191 -26.105  1.00  0.00    -0.049 A 
HETATM   24  C   UNL     1     -11.557   8.799 -26.252  1.00  0.00     0.009 A 
HETATM   25  C   UNL     1     -10.553   8.114 -26.943  1.00  0.00     0.012 A 
BRANCH  23  26
HETATM   26  C   UNL     1     -12.626  10.947 -25.454  1.00  0.00     0.112 C 
BRANCH  26  27
HETATM   27  S   UNL     1     -13.419   9.932 -24.163  1.00  0.00    -0.165 SA
BRANCH  27  28
HETATM   28  C   UNL     1     -12.048   9.861 -22.976  1.00  0.00     0.069 C 
HETATM   29  C   UNL     1     -11.707  11.265 -22.507  1.00  0.00     0.016 C 
ENDBRANCH  27  28
ENDBRANCH  26  27
ENDBRANCH  23  26
ENDBRANCH  19  20
ENDBRANCH   1  18
BRANCH  13  30
HETATM   30  N   UNL     1      -6.142   0.809 -34.022  1.00  0.00    -0.355 N 
HETATM   31  C   UNL     1      -6.664  -0.448 -33.818  1.00  0.00     0.222 C 
HETATM   32  O   UNL     1      -7.151  -0.785 -32.739  1.00  0.00    -0.273 OA
HETATM   33  H   UNL     1      -5.654   0.987 -34.894  1.00  0.00     0.162 HD
BRANCH  31  34
HETATM   34  C   UNL     1      -6.591  -1.451 -34.964  1.00  0.00     0.148 C 
BRANCH  34  35
HETATM   35  C   UNL     1      -5.791  -2.685 -34.670  1.00  0.00    -0.009 A 
HETATM   36  S   UNL     1      -6.435  -4.235 -35.029  1.00  0.00    -0.106 SA
HETATM   37  C   UNL     1      -5.027  -5.021 -34.464  1.00  0.00     0.050 A 
HETATM   38  C   UNL     1      -4.082  -4.128 -34.015  1.00  0.00     0.008 A 
HETATM   39  C   UNL     1      -4.522  -2.777 -34.133  1.00  0.00     0.015 A 
ENDBRANCH  34  35
ENDBRANCH  31  34
ENDBRANCH  13  30
TORSDOF 8
ENDMDL
