MODEL 1
REMARK VINA RESULT:      -8.6      0.000      0.000
REMARK  5 active torsions:
REMARK  status: ('A' for Active; 'I' for Inactive)
REMARK    1  A    between atoms: C_5  and  C_6 
REMARK    2  A    between atoms: C_9  and  O_10 
REMARK    3  A    between atoms: N_14  and  C_15 
REMARK    4  A    between atoms: C_15  and  C_16 
REMARK       I    between atoms: C_16  and  N_17 
REMARK    5  A    between atoms: N_17  and  C_18 
ROOT
HETATM    1  C   UNL     1      -2.870  -0.392 -32.888  1.00  0.00     0.156 C 
HETATM    2  N   UNL     1      -4.291  -0.644 -32.856  1.00  0.00    -0.346 N 
HETATM    3  C   UNL     1      -5.202   0.048 -32.132  1.00  0.00     0.113 A 
HETATM    4  C   UNL     1      -6.453  -0.456 -32.366  1.00  0.00     0.014 A 
HETATM    5  C   UNL     1      -7.467   0.308 -31.594  1.00  0.00     0.158 C 
HETATM    6  N   UNL     1      -6.604   1.382 -31.046  1.00  0.00    -0.325 N 
HETATM    7  C   UNL     1      -5.243   1.181 -31.268  1.00  0.00     0.272 C 
HETATM    8  O   UNL     1      -4.317   1.844 -30.835  1.00  0.00    -0.266 OA
HETATM    9  C   UNL     1      -6.340  -1.491 -33.312  1.00  0.00     0.002 A 
HETATM   10  C   UNL     1      -4.967  -1.588 -33.622  1.00  0.00     0.045 A 
HETATM   11  C   UNL     1      -7.252  -2.333 -33.976  1.00  0.00     0.014 A 
HETATM   12  C   UNL     1      -6.783  -3.241 -34.931  1.00  0.00     0.001 A 
HETATM   13  C   UNL     1      -5.425  -3.322 -35.226  1.00  0.00     0.002 A 
HETATM   14  C   UNL     1      -4.494  -2.503 -34.578  1.00  0.00     0.030 A 
ENDROOT
BRANCH   6  15
HETATM   15  C   UNL     1      -7.148   2.516 -30.323  1.00  0.00     0.229 C 
BRANCH  15  16
HETATM   16  C   UNL     1      -6.882   3.862 -30.983  1.00  0.00     0.235 C 
HETATM   17  N   UNL     1      -5.626   4.390 -30.752  1.00  0.00    -0.355 N 
HETATM   18  H   UNL     1      -4.953   3.788 -30.287  1.00  0.00     0.162 HD
HETATM   19  O   UNL     1      -7.690   4.370 -31.759  1.00  0.00    -0.272 OA
BRANCH  17  20
HETATM   20  C   UNL     1      -5.137   5.463 -31.592  1.00  0.00     0.084 C 
HETATM   21  C   UNL     1      -4.008   6.266 -30.962  1.00  0.00     0.025 C 
HETATM   22  C   UNL     1      -3.418   7.001 -32.158  1.00  0.00     0.002 C 
HETATM   23  C   UNL     1      -3.493   6.003 -33.310  1.00  0.00     0.002 C 
HETATM   24  C   UNL     1      -4.519   4.948 -32.895  1.00  0.00     0.025 C 
ENDBRANCH  17  20
ENDBRANCH  15  16
ENDBRANCH   6  15
BRANCH   5  25
HETATM   25  C   UNL     1      -8.534   0.767 -32.554  1.00  0.00    -0.030 A 
HETATM   26  C   UNL     1      -9.828   0.235 -32.442  1.00  0.00     0.012 A 
HETATM   27  C   UNL     1     -10.844   0.643 -33.309  1.00  0.00     0.037 A 
HETATM   28  C   UNL     1     -10.597   1.593 -34.300  1.00  0.00     0.068 A 
HETATM   29  C   UNL     1      -9.315   2.126 -34.426  1.00  0.00     0.037 A 
HETATM   30  C   UNL     1      -8.293   1.715 -33.562  1.00  0.00     0.012 A 
BRANCH  28  31
HETATM   31  O   UNL     1     -11.680   1.908 -35.072  1.00  0.00    -0.356 OA
HETATM   32  C   UNL     1     -12.893   1.226 -34.782  1.00  0.00     0.210 C 
ENDBRANCH  28  31
ENDBRANCH   5  25
TORSDOF 5
ENDMDL
MODEL 2
REMARK VINA RESULT:      -8.6      1.975      6.664
REMARK  5 active torsions:
REMARK  status: ('A' for Active; 'I' for Inactive)
REMARK    1  A    between atoms: C_5  and  C_6 
REMARK    2  A    between atoms: C_9  and  O_10 
REMARK    3  A    between atoms: N_14  and  C_15 
REMARK    4  A    between atoms: C_15  and  C_16 
REMARK       I    between atoms: C_16  and  N_17 
REMARK    5  A    between atoms: N_17  and  C_18 
ROOT
HETATM    1  C   UNL     1      -7.057   6.253 -32.805  1.00  0.00     0.156 C 
HETATM    2  N   UNL     1      -6.277   5.082 -32.484  1.00  0.00    -0.346 N 
HETATM    3  C   UNL     1      -6.759   3.925 -31.971  1.00  0.00     0.113 A 
HETATM    4  C   UNL     1      -5.736   3.029 -31.817  1.00  0.00     0.014 A 
HETATM    5  C   UNL     1      -6.254   1.746 -31.275  1.00  0.00     0.158 C 
HETATM    6  N   UNL     1      -7.709   2.030 -31.313  1.00  0.00    -0.325 N 
HETATM    7  C   UNL     1      -8.018   3.354 -31.622  1.00  0.00     0.272 C 
HETATM    8  O   UNL     1      -9.118   3.878 -31.612  1.00  0.00    -0.266 OA
HETATM    9  C   UNL     1      -4.553   3.627 -32.289  1.00  0.00     0.002 A 
HETATM   10  C   UNL     1      -4.915   4.921 -32.721  1.00  0.00     0.045 A 
HETATM   11  C   UNL     1      -3.220   3.205 -32.440  1.00  0.00     0.014 A 
HETATM   12  C   UNL     1      -2.284   4.069 -33.019  1.00  0.00     0.001 A 
HETATM   13  C   UNL     1      -2.659   5.341 -33.441  1.00  0.00     0.002 A 
HETATM   14  C   UNL     1      -3.975   5.791 -33.298  1.00  0.00     0.030 A 
ENDROOT
BRANCH   6  15
HETATM   15  C   UNL     1      -8.702   1.013 -31.024  1.00  0.00     0.229 C 
BRANCH  15  16
HETATM   16  C   UNL     1      -9.559   0.621 -32.220  1.00  0.00     0.235 C 
HETATM   17  N   UNL     1     -10.625   1.461 -32.477  1.00  0.00    -0.355 N 
HETATM   18  H   UNL     1     -10.667   2.325 -31.946  1.00  0.00     0.162 HD
HETATM   19  O   UNL     1      -9.242  -0.308 -32.963  1.00  0.00    -0.272 OA
BRANCH  17  20
HETATM   20  C   UNL     1     -11.287   1.401 -33.764  1.00  0.00     0.084 C 
HETATM   21  C   UNL     1     -12.738   0.951 -33.684  1.00  0.00     0.025 C 
HETATM   22  C   UNL     1     -13.291   1.375 -35.038  1.00  0.00     0.002 C 
HETATM   23  C   UNL     1     -12.610   2.706 -35.342  1.00  0.00     0.002 C 
HETATM   24  C   UNL     1     -11.380   2.773 -34.437  1.00  0.00     0.025 C 
ENDBRANCH  17  20
ENDBRANCH  15  16
ENDBRANCH   6  15
BRANCH   5  25
HETATM   25  C   UNL     1      -5.791   0.636 -32.183  1.00  0.00    -0.030 A 
HETATM   26  C   UNL     1      -4.946  -0.359 -31.667  1.00  0.00     0.012 A 
HETATM   27  C   UNL     1      -4.503  -1.408 -32.478  1.00  0.00     0.037 A 
HETATM   28  C   UNL     1      -4.898  -1.492 -33.813  1.00  0.00     0.068 A 
HETATM   29  C   UNL     1      -5.733  -0.507 -34.339  1.00  0.00     0.037 A 
HETATM   30  C   UNL     1      -6.173   0.548 -33.531  1.00  0.00     0.012 A 
BRANCH  28  31
HETATM   31  O   UNL     1      -4.400  -2.571 -34.488  1.00  0.00    -0.356 OA
HETATM   32  C   UNL     1      -5.349  -3.491 -35.012  1.00  0.00     0.210 C 
ENDBRANCH  28  31
ENDBRANCH   5  25
TORSDOF 5
ENDMDL
MODEL 3
REMARK VINA RESULT:      -8.4      2.181      6.240
REMARK  5 active torsions:
REMARK  status: ('A' for Active; 'I' for Inactive)
REMARK    1  A    between atoms: C_5  and  C_6 
REMARK    2  A    between atoms: C_9  and  O_10 
REMARK    3  A    between atoms: N_14  and  C_15 
REMARK    4  A    between atoms: C_15  and  C_16 
REMARK       I    between atoms: C_16  and  N_17 
REMARK    5  A    between atoms: N_17  and  C_18 
ROOT
HETATM    1  C   UNL     1      -6.746  -2.390 -34.368  1.00  0.00     0.156 C 
HETATM    2  N   UNL     1      -6.091  -1.195 -33.893  1.00  0.00    -0.346 N 
HETATM    3  C   UNL     1      -6.548   0.071 -34.039  1.00  0.00     0.113 A 
HETATM    4  C   UNL     1      -5.677   0.945 -33.445  1.00  0.00     0.014 A 
HETATM    5  C   UNL     1      -6.177   2.338 -33.579  1.00  0.00     0.158 C 
HETATM    6  N   UNL     1      -7.505   2.068 -34.183  1.00  0.00    -0.325 N 
HETATM    7  C   UNL     1      -7.695   0.739 -34.559  1.00  0.00     0.272 C 
HETATM    8  O   UNL     1      -8.639   0.271 -35.171  1.00  0.00    -0.266 OA
HETATM    9  C   UNL     1      -4.638   0.200 -32.859  1.00  0.00     0.002 A 
HETATM   10  C   UNL     1      -4.922  -1.153 -33.139  1.00  0.00     0.045 A 
HETATM   11  C   UNL     1      -3.507   0.515 -32.084  1.00  0.00     0.014 A 
HETATM   12  C   UNL     1      -2.692  -0.515 -31.603  1.00  0.00     0.001 A 
HETATM   13  C   UNL     1      -2.987  -1.845 -31.887  1.00  0.00     0.002 A 
HETATM   14  C   UNL     1      -4.102  -2.188 -32.660  1.00  0.00     0.030 A 
ENDROOT
BRANCH   6  15
HETATM   15  C   UNL     1      -8.491   3.114 -34.380  1.00  0.00     0.229 C 
BRANCH  15  16
HETATM   16  C   UNL     1      -9.824   2.852 -33.692  1.00  0.00     0.235 C 
HETATM   17  N   UNL     1     -10.823   2.371 -34.516  1.00  0.00    -0.355 N 
HETATM   18  H   UNL     1     -10.554   2.108 -35.460  1.00  0.00     0.162 HD
HETATM   19  O   UNL     1      -9.950   2.950 -32.472  1.00  0.00    -0.272 OA
BRANCH  17  20
HETATM   20  C   UNL     1     -11.998   1.761 -33.932  1.00  0.00     0.084 C 
HETATM   21  C   UNL     1     -13.183   1.681 -34.884  1.00  0.00     0.025 C 
HETATM   22  C   UNL     1     -14.086   0.661 -34.203  1.00  0.00     0.002 C 
HETATM   23  C   UNL     1     -13.135  -0.373 -33.608  1.00  0.00     0.002 C 
HETATM   24  C   UNL     1     -11.763   0.300 -33.539  1.00  0.00     0.025 C 
ENDBRANCH  17  20
ENDBRANCH  15  16
ENDBRANCH   6  15
BRANCH   5  25
HETATM   25  C   UNL     1      -6.209   2.956 -32.205  1.00  0.00    -0.030 A 
HETATM   26  C   UNL     1      -5.552   4.177 -31.991  1.00  0.00     0.012 A 
HETATM   27  C   UNL     1      -5.567   4.783 -30.732  1.00  0.00     0.037 A 
HETATM   28  C   UNL     1      -6.242   4.191 -29.664  1.00  0.00     0.068 A 
HETATM   29  C   UNL     1      -6.894   2.975 -29.862  1.00  0.00     0.037 A 
HETATM   30  C   UNL     1      -6.876   2.363 -31.121  1.00  0.00     0.012 A 
BRANCH  28  31
HETATM   31  O   UNL     1      -6.184   4.894 -28.493  1.00  0.00    -0.356 OA
HETATM   32  C   UNL     1      -6.862   6.143 -28.462  1.00  0.00     0.210 C 
ENDBRANCH  28  31
ENDBRANCH   5  25
TORSDOF 5
ENDMDL
MODEL 4
REMARK VINA RESULT:      -8.4      2.654      5.402
REMARK  5 active torsions:
REMARK  status: ('A' for Active; 'I' for Inactive)
REMARK    1  A    between atoms: C_5  and  C_6 
REMARK    2  A    between atoms: C_9  and  O_10 
REMARK    3  A    between atoms: N_14  and  C_15 
REMARK    4  A    between atoms: C_15  and  C_16 
REMARK       I    between atoms: C_16  and  N_17 
REMARK    5  A    between atoms: N_17  and  C_18 
ROOT
HETATM    1  C   UNL     1      -8.722   5.028 -29.916  1.00  0.00     0.156 C 
HETATM    2  N   UNL     1      -8.524   4.293 -31.142  1.00  0.00    -0.346 N 
HETATM    3  C   UNL     1      -7.336   3.860 -31.624  1.00  0.00     0.113 A 
HETATM    4  C   UNL     1      -7.534   3.182 -32.797  1.00  0.00     0.014 A 
HETATM    5  C   UNL     1      -6.239   2.682 -33.326  1.00  0.00     0.158 C 
HETATM    6  N   UNL     1      -5.351   3.048 -32.196  1.00  0.00    -0.325 N 
HETATM    7  C   UNL     1      -5.966   3.840 -31.228  1.00  0.00     0.272 C 
HETATM    8  O   UNL     1      -5.443   4.368 -30.263  1.00  0.00    -0.266 OA
HETATM    9  C   UNL     1      -8.917   3.148 -33.055  1.00  0.00     0.002 A 
HETATM   10  C   UNL     1      -9.530   3.843 -31.992  1.00  0.00     0.045 A 
HETATM   11  C   UNL     1      -9.725   2.569 -34.051  1.00  0.00     0.014 A 
HETATM   12  C   UNL     1     -11.117   2.687 -33.964  1.00  0.00     0.001 A 
HETATM   13  C   UNL     1     -11.706   3.375 -32.907  1.00  0.00     0.002 A 
HETATM   14  C   UNL     1     -10.927   3.966 -31.907  1.00  0.00     0.030 A 
ENDROOT
BRANCH   6  15
HETATM   15  C   UNL     1      -3.963   2.630 -32.138  1.00  0.00     0.229 C 
BRANCH  15  16
HETATM   16  C   UNL     1      -2.964   3.743 -32.425  1.00  0.00     0.235 C 
HETATM   17  N   UNL     1      -2.416   4.341 -31.307  1.00  0.00    -0.355 N 
HETATM   18  H   UNL     1      -2.615   3.907 -30.410  1.00  0.00     0.162 HD
HETATM   19  O   UNL     1      -2.594   3.996 -33.571  1.00  0.00    -0.272 OA
BRANCH  17  20
HETATM   20  C   UNL     1      -1.220   5.145 -31.442  1.00  0.00     0.084 C 
HETATM   21  C   UNL     1      -1.494   6.641 -31.502  1.00  0.00     0.025 C 
HETATM   22  C   UNL     1      -0.124   7.240 -31.215  1.00  0.00     0.002 C 
HETATM   23  C   UNL     1       0.497   6.319 -30.169  1.00  0.00     0.002 C 
HETATM   24  C   UNL     1      -0.285   5.007 -30.237  1.00  0.00     0.025 C 
ENDBRANCH  17  20
ENDBRANCH  15  16
ENDBRANCH   6  15
BRANCH   5  25
HETATM   25  C   UNL     1      -6.380   1.203 -33.580  1.00  0.00    -0.030 A 
HETATM   26  C   UNL     1      -6.745   0.763 -34.862  1.00  0.00     0.012 A 
HETATM   27  C   UNL     1      -6.878  -0.600 -35.137  1.00  0.00     0.037 A 
HETATM   28  C   UNL     1      -6.643  -1.553 -34.145  1.00  0.00     0.068 A 
HETATM   29  C   UNL     1      -6.286  -1.130 -32.866  1.00  0.00     0.037 A 
HETATM   30  C   UNL     1      -6.158   0.236 -32.586  1.00  0.00     0.012 A 
BRANCH  28  31
HETATM   31  O   UNL     1      -6.800  -2.849 -34.550  1.00  0.00    -0.356 OA
HETATM   32  C   UNL     1      -5.641  -3.511 -35.040  1.00  0.00     0.210 C 
ENDBRANCH  28  31
ENDBRANCH   5  25
TORSDOF 5
ENDMDL
MODEL 5
REMARK VINA RESULT:      -8.1      2.371      5.436
REMARK  5 active torsions:
REMARK  status: ('A' for Active; 'I' for Inactive)
REMARK    1  A    between atoms: C_5  and  C_6 
REMARK    2  A    between atoms: C_9  and  O_10 
REMARK    3  A    between atoms: N_14  and  C_15 
REMARK    4  A    between atoms: C_15  and  C_16 
REMARK       I    between atoms: C_16  and  N_17 
REMARK    5  A    between atoms: N_17  and  C_18 
ROOT
HETATM    1  C   UNL     1     -11.263   4.533 -30.832  1.00  0.00     0.156 C 
HETATM    2  N   UNL     1     -10.799   3.766 -31.963  1.00  0.00    -0.346 N 
HETATM    3  C   UNL     1      -9.513   3.655 -32.371  1.00  0.00     0.113 A 
HETATM    4  C   UNL     1      -9.447   2.829 -33.461  1.00  0.00     0.014 A 
HETATM    5  C   UNL     1      -8.037   2.681 -33.908  1.00  0.00     0.158 C 
HETATM    6  N   UNL     1      -7.352   3.409 -32.812  1.00  0.00    -0.325 N 
HETATM    7  C   UNL     1      -8.219   4.081 -31.952  1.00  0.00     0.272 C 
HETATM    8  O   UNL     1      -7.921   4.838 -31.045  1.00  0.00    -0.266 OA
HETATM    9  C   UNL     1     -10.744   2.362 -33.738  1.00  0.00     0.002 A 
HETATM   10  C   UNL     1     -11.586   2.952 -32.772  1.00  0.00     0.045 A 
HETATM   11  C   UNL     1     -11.298   1.469 -34.674  1.00  0.00     0.014 A 
HETATM   12  C   UNL     1     -12.666   1.180 -34.625  1.00  0.00     0.001 A 
HETATM   13  C   UNL     1     -13.482   1.770 -33.664  1.00  0.00     0.002 A 
HETATM   14  C   UNL     1     -12.961   2.666 -32.725  1.00  0.00     0.030 A 
ENDROOT
BRANCH   6  15
HETATM   15  C   UNL     1      -5.907   3.428 -32.683  1.00  0.00     0.229 C 
BRANCH  15  16
HETATM   16  C   UNL     1      -5.250   4.694 -33.216  1.00  0.00     0.235 C 
HETATM   17  N   UNL     1      -4.084   5.063 -32.574  1.00  0.00    -0.355 N 
HETATM   18  H   UNL     1      -3.696   4.401 -31.908  1.00  0.00     0.162 HD
HETATM   19  O   UNL     1      -5.672   5.265 -34.221  1.00  0.00    -0.272 OA
BRANCH  17  20
HETATM   20  C   UNL     1      -3.196   6.020 -33.201  1.00  0.00     0.084 C 
HETATM   21  C   UNL     1      -2.892   7.231 -32.331  1.00  0.00     0.025 C 
HETATM   22  C   UNL     1      -1.664   7.824 -33.008  1.00  0.00     0.002 C 
HETATM   23  C   UNL     1      -0.848   6.621 -33.470  1.00  0.00     0.002 C 
HETATM   24  C   UNL     1      -1.810   5.432 -33.484  1.00  0.00     0.025 C 
ENDBRANCH  17  20
ENDBRANCH  15  16
ENDBRANCH   6  15
BRANCH   5  25
HETATM   25  C   UNL     1      -7.728   1.208 -33.993  1.00  0.00    -0.030 A 
HETATM   26  C   UNL     1      -7.359   0.660 -35.231  1.00  0.00     0.012 A 
HETATM   27  C   UNL     1      -7.058  -0.700 -35.347  1.00  0.00     0.037 A 
HETATM   28  C   UNL     1      -7.111  -1.539 -34.233  1.00  0.00     0.068 A 
HETATM   29  C   UNL     1      -7.482  -1.008 -32.998  1.00  0.00     0.037 A 
HETATM   30  C   UNL     1      -7.790   0.353 -32.881  1.00  0.00     0.012 A 
BRANCH  28  31
HETATM   31  O   UNL     1      -6.784  -2.842 -34.484  1.00  0.00    -0.356 OA
HETATM   32  C   UNL     1      -5.403  -3.135 -34.650  1.00  0.00     0.210 C 
ENDBRANCH  28  31
ENDBRANCH   5  25
TORSDOF 5
ENDMDL
MODEL 6
REMARK VINA RESULT:      -7.8     15.524     17.439
REMARK  5 active torsions:
REMARK  status: ('A' for Active; 'I' for Inactive)
REMARK    1  A    between atoms: C_5  and  C_6 
REMARK    2  A    between atoms: C_9  and  O_10 
REMARK    3  A    between atoms: N_14  and  C_15 
REMARK    4  A    between atoms: C_15  and  C_16 
REMARK       I    between atoms: C_16  and  N_17 
REMARK    5  A    between atoms: N_17  and  C_18 
ROOT
HETATM    1  C   UNL     1      -2.322 -14.581 -35.909  1.00  0.00     0.156 C 
HETATM    2  N   UNL     1      -3.697 -14.159 -36.026  1.00  0.00    -0.346 N 
HETATM    3  C   UNL     1      -4.223 -13.447 -37.051  1.00  0.00     0.113 A 
HETATM    4  C   UNL     1      -5.560 -13.248 -36.833  1.00  0.00     0.014 A 
HETATM    5  C   UNL     1      -6.156 -12.487 -37.961  1.00  0.00     0.158 C 
HETATM    6  N   UNL     1      -4.990 -12.448 -38.878  1.00  0.00    -0.325 N 
HETATM    7  C   UNL     1      -3.809 -12.920 -38.308  1.00  0.00     0.272 C 
HETATM    8  O   UNL     1      -2.692 -12.897 -38.796  1.00  0.00    -0.266 OA
HETATM    9  C   UNL     1      -5.912 -13.896 -35.635  1.00  0.00     0.002 A 
HETATM   10  C   UNL     1      -4.725 -14.479 -35.143  1.00  0.00     0.045 A 
HETATM   11  C   UNL     1      -7.113 -14.091 -34.928  1.00  0.00     0.014 A 
HETATM   12  C   UNL     1      -7.108 -14.861 -33.760  1.00  0.00     0.001 A 
HETATM   13  C   UNL     1      -5.928 -15.431 -33.291  1.00  0.00     0.002 A 
HETATM   14  C   UNL     1      -4.719 -15.249 -33.969  1.00  0.00     0.030 A 
ENDROOT
BRANCH   6  15
HETATM   15  C   UNL     1      -5.089 -11.936 -40.231  1.00  0.00     0.229 C 
BRANCH  15  16
HETATM   16  C   UNL     1      -5.210 -13.016 -41.299  1.00  0.00     0.235 C 
HETATM   17  N   UNL     1      -4.016 -13.585 -41.694  1.00  0.00    -0.355 N 
HETATM   18  H   UNL     1      -3.190 -13.342 -41.155  1.00  0.00     0.162 HD
HETATM   19  O   UNL     1      -6.307 -13.422 -41.682  1.00  0.00    -0.272 OA
BRANCH  17  20
HETATM   20  C   UNL     1      -4.027 -14.837 -42.422  1.00  0.00     0.084 C 
HETATM   21  C   UNL     1      -4.119 -14.665 -43.931  1.00  0.00     0.025 C 
HETATM   22  C   UNL     1      -3.693 -16.033 -44.446  1.00  0.00     0.002 C 
HETATM   23  C   UNL     1      -2.587 -16.484 -43.497  1.00  0.00     0.002 C 
HETATM   24  C   UNL     1      -2.732 -15.632 -42.236  1.00  0.00     0.025 C 
ENDBRANCH  17  20
ENDBRANCH  15  16
ENDBRANCH   6  15
BRANCH   5  25
HETATM   25  C   UNL     1      -7.347 -13.259 -38.468  1.00  0.00    -0.030 A 
HETATM   26  C   UNL     1      -8.501 -12.559 -38.851  1.00  0.00     0.012 A 
HETATM   27  C   UNL     1      -9.621 -13.241 -39.333  1.00  0.00     0.037 A 
HETATM   28  C   UNL     1      -9.614 -14.631 -39.449  1.00  0.00     0.068 A 
HETATM   29  C   UNL     1      -8.476 -15.340 -39.066  1.00  0.00     0.037 A 
HETATM   30  C   UNL     1      -7.354 -14.659 -38.577  1.00  0.00     0.012 A 
BRANCH  28  31
HETATM   31  O   UNL     1     -10.770 -15.169 -39.942  1.00  0.00    -0.356 OA
HETATM   32  C   UNL     1     -10.987 -15.047 -41.341  1.00  0.00     0.210 C 
ENDBRANCH  28  31
ENDBRANCH   5  25
TORSDOF 5
ENDMDL
MODEL 7
REMARK VINA RESULT:      -7.8      2.310      6.384
REMARK  5 active torsions:
REMARK  status: ('A' for Active; 'I' for Inactive)
REMARK    1  A    between atoms: C_5  and  C_6 
REMARK    2  A    between atoms: C_9  and  O_10 
REMARK    3  A    between atoms: N_14  and  C_15 
REMARK    4  A    between atoms: C_15  and  C_16 
REMARK       I    between atoms: C_16  and  N_17 
REMARK    5  A    between atoms: N_17  and  C_18 
ROOT
HETATM    1  C   UNL     1      -5.888   7.616 -31.918  1.00  0.00     0.156 C 
HETATM    2  N   UNL     1      -5.520   6.221 -31.891  1.00  0.00    -0.346 N 
HETATM    3  C   UNL     1      -6.295   5.206 -31.442  1.00  0.00     0.113 A 
HETATM    4  C   UNL     1      -5.629   4.019 -31.589  1.00  0.00     0.014 A 
HETATM    5  C   UNL     1      -6.477   2.893 -31.120  1.00  0.00     0.158 C 
HETATM    6  N   UNL     1      -7.739   3.625 -30.856  1.00  0.00    -0.325 N 
HETATM    7  C   UNL     1      -7.615   5.011 -30.940  1.00  0.00     0.272 C 
HETATM    8  O   UNL     1      -8.458   5.847 -30.665  1.00  0.00    -0.266 OA
HETATM    9  C   UNL     1      -4.387   4.285 -32.195  1.00  0.00     0.002 A 
HETATM   10  C   UNL     1      -4.340   5.681 -32.392  1.00  0.00     0.045 A 
HETATM   11  C   UNL     1      -3.311   3.494 -32.638  1.00  0.00     0.014 A 
HETATM   12  C   UNL     1      -2.221   4.104 -33.270  1.00  0.00     0.001 A 
HETATM   13  C   UNL     1      -2.192   5.483 -33.458  1.00  0.00     0.002 A 
HETATM   14  C   UNL     1      -3.244   6.295 -33.022  1.00  0.00     0.030 A 
ENDROOT
BRANCH   6  15
HETATM   15  C   UNL     1      -8.971   2.941 -30.514  1.00  0.00     0.229 C 
BRANCH  15  16
HETATM   16  C   UNL     1     -10.145   3.281 -31.423  1.00  0.00     0.235 C 
HETATM   17  N   UNL     1     -10.198   2.566 -32.603  1.00  0.00    -0.355 N 
HETATM   18  H   UNL     1      -9.546   1.794 -32.703  1.00  0.00     0.162 HD
HETATM   19  O   UNL     1     -11.036   4.050 -31.064  1.00  0.00    -0.272 OA
BRANCH  17  20
HETATM   20  C   UNL     1     -11.427   2.540 -33.368  1.00  0.00     0.084 C 
HETATM   21  C   UNL     1     -11.345   3.305 -34.682  1.00  0.00     0.025 C 
HETATM   22  C   UNL     1     -12.553   2.779 -35.446  1.00  0.00     0.002 C 
HETATM   23  C   UNL     1     -12.634   1.299 -35.086  1.00  0.00     0.002 C 
HETATM   24  C   UNL     1     -11.812   1.125 -33.808  1.00  0.00     0.025 C 
ENDBRANCH  17  20
ENDBRANCH  15  16
ENDBRANCH   6  15
BRANCH   5  25
HETATM   25  C   UNL     1      -6.546   1.871 -32.226  1.00  0.00    -0.030 A 
HETATM   26  C   UNL     1      -6.328   0.518 -31.919  1.00  0.00     0.012 A 
HETATM   27  C   UNL     1      -6.392  -0.458 -32.917  1.00  0.00     0.037 A 
HETATM   28  C   UNL     1      -6.682  -0.110 -34.237  1.00  0.00     0.068 A 
HETATM   29  C   UNL     1      -6.895   1.230 -34.556  1.00  0.00     0.037 A 
HETATM   30  C   UNL     1      -6.825   2.211 -33.559  1.00  0.00     0.012 A 
BRANCH  28  31
HETATM   31  O   UNL     1      -6.722  -1.162 -35.108  1.00  0.00    -0.356 OA
HETATM   32  C   UNL     1      -6.375  -2.438 -34.588  1.00  0.00     0.210 C 
ENDBRANCH  28  31
ENDBRANCH   5  25
TORSDOF 5
ENDMDL
MODEL 8
REMARK VINA RESULT:      -7.7     15.361     17.788
REMARK  5 active torsions:
REMARK  status: ('A' for Active; 'I' for Inactive)
REMARK    1  A    between atoms: C_5  and  C_6 
REMARK    2  A    between atoms: C_9  and  O_10 
REMARK    3  A    between atoms: N_14  and  C_15 
REMARK    4  A    between atoms: C_15  and  C_16 
REMARK       I    between atoms: C_16  and  N_17 
REMARK    5  A    between atoms: N_17  and  C_18 
ROOT
HETATM    1  C   UNL     1      -3.571 -14.297 -42.384  1.00  0.00     0.156 C 
HETATM    2  N   UNL     1      -3.394 -13.898 -41.009  1.00  0.00    -0.346 N 
HETATM    3  C   UNL     1      -4.350 -13.370 -40.208  1.00  0.00     0.113 A 
HETATM    4  C   UNL     1      -3.828 -13.135 -38.964  1.00  0.00     0.014 A 
HETATM    5  C   UNL     1      -4.871 -12.575 -38.067  1.00  0.00     0.158 C 
HETATM    6  N   UNL     1      -6.053 -12.695 -38.955  1.00  0.00    -0.325 N 
HETATM    7  C   UNL     1      -5.741 -13.064 -40.262  1.00  0.00     0.272 C 
HETATM    8  O   UNL     1      -6.499 -13.126 -41.215  1.00  0.00    -0.266 OA
HETATM    9  C   UNL     1      -2.489 -13.569 -38.960  1.00  0.00     0.002 A 
HETATM   10  C   UNL     1      -2.235 -14.062 -40.257  1.00  0.00     0.045 A 
HETATM   11  C   UNL     1      -1.473 -13.640 -37.990  1.00  0.00     0.014 A 
HETATM   12  C   UNL     1      -0.236 -14.201 -38.326  1.00  0.00     0.001 A 
HETATM   13  C   UNL     1      -0.003 -14.684 -39.611  1.00  0.00     0.002 A 
HETATM   14  C   UNL     1      -0.992 -14.622 -40.597  1.00  0.00     0.030 A 
ENDROOT
BRANCH   6  15
HETATM   15  C   UNL     1      -7.399 -12.420 -38.491  1.00  0.00     0.229 C 
BRANCH  15  16
HETATM   16  C   UNL     1      -8.370 -13.580 -38.671  1.00  0.00     0.235 C 
HETATM   17  N   UNL     1      -9.242 -13.453 -39.734  1.00  0.00    -0.355 N 
HETATM   18  H   UNL     1      -9.077 -12.683 -40.376  1.00  0.00     0.162 HD
HETATM   19  O   UNL     1      -8.290 -14.599 -37.986  1.00  0.00    -0.272 OA
BRANCH  17  20
HETATM   20  C   UNL     1      -9.955 -14.618 -40.215  1.00  0.00     0.084 C 
HETATM   21  C   UNL     1     -11.232 -14.284 -40.971  1.00  0.00     0.025 C 
HETATM   22  C   UNL     1     -11.534 -15.584 -41.703  1.00  0.00     0.002 C 
HETATM   23  C   UNL     1     -10.170 -16.129 -42.118  1.00  0.00     0.002 C 
HETATM   24  C   UNL     1      -9.142 -15.420 -41.235  1.00  0.00     0.025 C 
ENDBRANCH  17  20
ENDBRANCH  15  16
ENDBRANCH   6  15
BRANCH   5  25
HETATM   25  C   UNL     1      -4.916 -13.421 -36.820  1.00  0.00    -0.030 A 
HETATM   26  C   UNL     1      -4.820 -12.795 -35.567  1.00  0.00     0.012 A 
HETATM   27  C   UNL     1      -4.866 -13.546 -34.390  1.00  0.00     0.037 A 
HETATM   28  C   UNL     1      -5.016 -14.932 -34.434  1.00  0.00     0.068 A 
HETATM   29  C   UNL     1      -5.107 -15.567 -35.672  1.00  0.00     0.037 A 
HETATM   30  C   UNL     1      -5.055 -14.818 -36.854  1.00  0.00     0.012 A 
BRANCH  28  31
HETATM   31  O   UNL     1      -5.054 -15.542 -33.211  1.00  0.00    -0.356 OA
HETATM   32  C   UNL     1      -5.319 -14.709 -32.090  1.00  0.00     0.210 C 
ENDBRANCH  28  31
ENDBRANCH   5  25
TORSDOF 5
ENDMDL
MODEL 9
REMARK VINA RESULT:      -7.4      2.768      6.610
REMARK  5 active torsions:
REMARK  status: ('A' for Active; 'I' for Inactive)
REMARK    1  A    between atoms: C_5  and  C_6 
REMARK    2  A    between atoms: C_9  and  O_10 
REMARK    3  A    between atoms: N_14  and  C_15 
REMARK    4  A    between atoms: C_15  and  C_16 
REMARK       I    between atoms: C_16  and  N_17 
REMARK    5  A    between atoms: N_17  and  C_18 
ROOT
HETATM    1  C   UNL     1      -6.708   5.807 -33.402  1.00  0.00     0.156 C 
HETATM    2  N   UNL     1      -6.524   4.451 -32.944  1.00  0.00    -0.346 N 
HETATM    3  C   UNL     1      -7.430   3.450 -33.045  1.00  0.00     0.113 A 
HETATM    4  C   UNL     1      -6.903   2.299 -32.525  1.00  0.00     0.014 A 
HETATM    5  C   UNL     1      -7.879   1.186 -32.650  1.00  0.00     0.158 C 
HETATM    6  N   UNL     1      -8.929   1.864 -33.448  1.00  0.00    -0.325 N 
HETATM    7  C   UNL     1      -8.726   3.235 -33.599  1.00  0.00     0.272 C 
HETATM    8  O   UNL     1      -9.483   4.043 -34.107  1.00  0.00    -0.266 OA
HETATM    9  C   UNL     1      -5.586   2.568 -32.109  1.00  0.00     0.002 A 
HETATM   10  C   UNL     1      -5.357   3.930 -32.393  1.00  0.00     0.045 A 
HETATM   11  C   UNL     1      -4.544   1.799 -31.559  1.00  0.00     0.014 A 
HETATM   12  C   UNL     1      -3.303   2.396 -31.312  1.00  0.00     0.001 A 
HETATM   13  C   UNL     1      -3.093   3.742 -31.601  1.00  0.00     0.002 A 
HETATM   14  C   UNL     1      -4.112   4.532 -32.142  1.00  0.00     0.030 A 
ENDROOT
BRANCH   6  15
HETATM   15  C   UNL     1     -10.069   1.150 -33.989  1.00  0.00     0.229 C 
BRANCH  15  16
HETATM   16  C   UNL     1     -11.375   1.933 -33.942  1.00  0.00     0.235 C 
HETATM   17  N   UNL     1     -11.798   2.291 -32.677  1.00  0.00    -0.355 N 
HETATM   18  H   UNL     1     -11.150   2.127 -31.912  1.00  0.00     0.162 HD
HETATM   19  O   UNL     1     -11.935   2.314 -34.970  1.00  0.00    -0.272 OA
BRANCH  17  20
HETATM   20  C   UNL     1     -12.809   3.316 -32.526  1.00  0.00     0.084 C 
HETATM   21  C   UNL     1     -14.209   2.766 -32.301  1.00  0.00     0.025 C 
HETATM   22  C   UNL     1     -14.959   3.978 -31.765  1.00  0.00     0.002 C 
HETATM   23  C   UNL     1     -13.952   4.704 -30.878  1.00  0.00     0.002 C 
HETATM   24  C   UNL     1     -12.572   4.191 -31.292  1.00  0.00     0.025 C 
ENDBRANCH  17  20
ENDBRANCH  15  16
ENDBRANCH   6  15
BRANCH   5  25
HETATM   25  C   UNL     1      -7.189   0.036 -33.339  1.00  0.00    -0.030 A 
HETATM   26  C   UNL     1      -6.356  -0.808 -32.588  1.00  0.00     0.012 A 
HETATM   27  C   UNL     1      -5.707  -1.888 -33.192  1.00  0.00     0.037 A 
HETATM   28  C   UNL     1      -5.879  -2.155 -34.551  1.00  0.00     0.068 A 
HETATM   29  C   UNL     1      -6.699  -1.320 -35.309  1.00  0.00     0.037 A 
HETATM   30  C   UNL     1      -7.346  -0.233 -34.708  1.00  0.00     0.012 A 
BRANCH  28  31
HETATM   31  O   UNL     1      -5.195  -3.245 -35.010  1.00  0.00    -0.356 OA
HETATM   32  C   UNL     1      -5.934  -4.451 -35.153  1.00  0.00     0.210 C 
ENDBRANCH  28  31
ENDBRANCH   5  25
TORSDOF 5
ENDMDL
MODEL 10
REMARK VINA RESULT:      -7.3     15.435     16.928
REMARK  5 active torsions:
REMARK  status: ('A' for Active; 'I' for Inactive)
REMARK    1  A    between atoms: C_5  and  C_6 
REMARK    2  A    between atoms: C_9  and  O_10 
REMARK    3  A    between atoms: N_14  and  C_15 
REMARK    4  A    between atoms: C_15  and  C_16 
REMARK       I    between atoms: C_16  and  N_17 
REMARK    5  A    between atoms: N_17  and  C_18 
ROOT
HETATM    1  C   UNL     1      -2.064 -12.762 -38.332  1.00  0.00     0.156 C 
HETATM    2  N   UNL     1      -3.261 -13.502 -38.655  1.00  0.00    -0.346 N 
HETATM    3  C   UNL     1      -4.308 -13.717 -37.824  1.00  0.00     0.113 A 
HETATM    4  C   UNL     1      -5.272 -14.438 -38.476  1.00  0.00     0.014 A 
HETATM    5  C   UNL     1      -6.437 -14.663 -37.582  1.00  0.00     0.158 C 
HETATM    6  N   UNL     1      -6.028 -13.830 -36.426  1.00  0.00    -0.325 N 
HETATM    7  C   UNL     1      -4.722 -13.349 -36.510  1.00  0.00     0.272 C 
HETATM    8  O   UNL     1      -4.102 -12.739 -35.657  1.00  0.00    -0.266 OA
HETATM    9  C   UNL     1      -4.837 -14.660 -39.796  1.00  0.00     0.002 A 
HETATM   10  C   UNL     1      -3.569 -14.049 -39.897  1.00  0.00     0.045 A 
HETATM   11  C   UNL     1      -5.393 -15.274 -40.933  1.00  0.00     0.014 A 
HETATM   12  C   UNL     1      -4.684 -15.262 -42.139  1.00  0.00     0.001 A 
HETATM   13  C   UNL     1      -3.435 -14.653 -42.221  1.00  0.00     0.002 A 
HETATM   14  C   UNL     1      -2.854 -14.040 -41.106  1.00  0.00     0.030 A 
ENDROOT
BRANCH   6  15
HETATM   15  C   UNL     1      -6.914 -13.574 -35.306  1.00  0.00     0.229 C 
BRANCH  15  16
HETATM   16  C   UNL     1      -6.827 -14.610 -34.193  1.00  0.00     0.235 C 
HETATM   17  N   UNL     1      -5.602 -15.236 -34.070  1.00  0.00    -0.355 N 
HETATM   18  H   UNL     1      -4.838 -14.866 -34.627  1.00  0.00     0.162 HD
HETATM   19  O   UNL     1      -7.750 -14.777 -33.396  1.00  0.00    -0.272 OA
BRANCH  17  20
HETATM   20  C   UNL     1      -5.290 -15.962 -32.857  1.00  0.00     0.084 C 
HETATM   21  C   UNL     1      -4.121 -16.925 -33.005  1.00  0.00     0.025 C 
HETATM   22  C   UNL     1      -3.745 -17.213 -31.557  1.00  0.00     0.002 C 
HETATM   23  C   UNL     1      -3.939 -15.886 -30.828  1.00  0.00     0.002 C 
HETATM   24  C   UNL     1      -4.844 -15.037 -31.722  1.00  0.00     0.025 C 
ENDBRANCH  17  20
ENDBRANCH  15  16
ENDBRANCH   6  15
BRANCH   5  25
HETATM   25  C   UNL     1      -7.675 -14.198 -38.304  1.00  0.00    -0.030 A 
HETATM   26  C   UNL     1      -7.839 -12.828 -38.564  1.00  0.00     0.012 A 
HETATM   27  C   UNL     1      -8.970 -12.361 -39.238  1.00  0.00     0.037 A 
HETATM   28  C   UNL     1      -9.956 -13.247 -39.674  1.00  0.00     0.068 A 
HETATM   29  C   UNL     1      -9.808 -14.609 -39.418  1.00  0.00     0.037 A 
HETATM   30  C   UNL     1      -8.679 -15.079 -38.737  1.00  0.00     0.012 A 
BRANCH  28  31
HETATM   31  O   UNL     1     -11.003 -12.659 -40.327  1.00  0.00    -0.356 OA
HETATM   32  C   UNL     1     -10.892 -11.266 -40.591  1.00  0.00     0.210 C 
ENDBRANCH  28  31
ENDBRANCH   5  25
TORSDOF 5
ENDMDL
