MODEL 1
REMARK VINA RESULT:      -9.7      0.000      0.000
REMARK  7 active torsions:
REMARK  status: ('A' for Active; 'I' for Inactive)
REMARK    1  A    between atoms: C_3  and  C_4 
REMARK       I    between atoms: C_4  and  N_5 
REMARK    2  A    between atoms: N_5  and  C_6 
REMARK    3  A    between atoms: C_6  and  C_7 
REMARK    4  A    between atoms: C_13  and  N_14 
REMARK    5  A    between atoms: N_14  and  C_15 
REMARK    6  A    between atoms: C_15  and  N_16 
REMARK       I    between atoms: N_16  and  C_17 
REMARK    7  A    between atoms: C_17  and  C_18 
ROOT
HETATM    1  C   UNL     1      -1.222   6.591 -33.799  1.00  0.00     0.001 A 
HETATM    2  C   UNL     1      -0.635   6.409 -32.549  1.00  0.00     0.019 A 
HETATM    3  C   UNL     1      -1.057   5.368 -31.700  1.00  0.00     0.058 A 
HETATM    4  C   UNL     1      -2.094   4.504 -32.106  1.00  0.00     0.050 A 
HETATM    5  C   UNL     1      -2.675   4.710 -33.367  1.00  0.00     0.030 A 
HETATM    6  C   UNL     1      -2.239   5.739 -34.207  1.00  0.00     0.002 A 
ENDROOT
BRANCH   4   7
HETATM    7  N   UNL     1      -2.634   3.544 -31.211  1.00  0.00    -0.332 N 
HETATM    8  H   UNL     1      -2.017   3.261 -30.445  1.00  0.00     0.168 HD
BRANCH   7   9
HETATM    9  C   UNL     1      -3.869   2.946 -31.206  1.00  0.00     0.179 C 
HETATM   10  S   UNL     1      -5.238   3.428 -30.371  1.00  0.00    -0.040 SA
BRANCH   9  11
HETATM   11  N   UNL     1      -3.999   1.824 -32.000  1.00  0.00    -0.299 N 
HETATM   12  C   UNL     1      -3.491   0.553 -31.777  1.00  0.00     0.257 C 
HETATM   13  O   UNL     1      -2.612   0.294 -30.963  1.00  0.00    -0.267 OA
HETATM   14  H   UNL     1      -4.711   1.946 -32.707  1.00  0.00     0.171 HD
BRANCH  12  15
HETATM   15  C   UNL     1      -4.092  -0.537 -32.590  1.00  0.00     0.035 A 
HETATM   16  C   UNL     1      -3.545  -1.825 -32.629  1.00  0.00     0.041 A 
HETATM   17  C   UNL     1      -4.128  -2.792 -33.449  1.00  0.00     0.036 A 
HETATM   18 CL   UNL     1      -3.446  -4.371 -33.510  1.00  0.00    -0.084 Cl
HETATM   19  C   UNL     1      -5.248  -2.495 -34.222  1.00  0.00     0.047 A 
HETATM   20  C   UNL     1      -5.798  -1.217 -34.160  1.00  0.00     0.036 A 
HETATM   21 CL   UNL     1      -7.181  -0.842 -35.111  1.00  0.00    -0.084 Cl
HETATM   22  C   UNL     1      -5.233  -0.238 -33.346  1.00  0.00     0.041 A 
ENDBRANCH  12  15
ENDBRANCH   9  11
ENDBRANCH   7   9
ENDBRANCH   4   7
BRANCH   3  23
HETATM   23  C   UNL     1      -0.290   5.225 -30.429  1.00  0.00     0.254 C 
HETATM   24  N   UNL     1      -0.503   6.184 -29.466  1.00  0.00    -0.351 N 
HETATM   25  H   UNL     1      -1.262   6.847 -29.587  1.00  0.00     0.163 HD
HETATM   26  O   UNL     1       0.427   4.246 -30.247  1.00  0.00    -0.268 OA
BRANCH  24  27
HETATM   27  C   UNL     1      -0.061   5.952 -28.111  1.00  0.00     0.187 C 
BRANCH  27  28
HETATM   28  C   UNL     1       0.722   7.111 -27.618  1.00  0.00     0.070 A 
HETATM   29  O   UNL     1       1.189   7.067 -26.332  1.00  0.00    -0.325 OA
HETATM   30  C   UNL     1       1.884   8.214 -26.124  1.00  0.00     0.142 A 
HETATM   31  C   UNL     1       1.880   8.995 -27.256  1.00  0.00     0.027 A 
HETATM   32  C   UNL     1       1.133   8.282 -28.223  1.00  0.00     0.036 A 
ENDBRANCH  27  28
ENDBRANCH  24  27
ENDBRANCH   3  23
TORSDOF 7
ENDMDL
MODEL 2
REMARK VINA RESULT:      -9.6      0.252      1.693
REMARK  7 active torsions:
REMARK  status: ('A' for Active; 'I' for Inactive)
REMARK    1  A    between atoms: C_3  and  C_4 
REMARK       I    between atoms: C_4  and  N_5 
REMARK    2  A    between atoms: N_5  and  C_6 
REMARK    3  A    between atoms: C_6  and  C_7 
REMARK    4  A    between atoms: C_13  and  N_14 
REMARK    5  A    between atoms: N_14  and  C_15 
REMARK    6  A    between atoms: C_15  and  N_16 
REMARK       I    between atoms: N_16  and  C_17 
REMARK    7  A    between atoms: C_17  and  C_18 
ROOT
HETATM    1  C   UNL     1      -1.053   6.734 -33.728  1.00  0.00     0.001 A 
HETATM    2  C   UNL     1      -0.543   6.543 -32.446  1.00  0.00     0.019 A 
HETATM    3  C   UNL     1      -1.003   5.486 -31.638  1.00  0.00     0.058 A 
HETATM    4  C   UNL     1      -2.001   4.615 -32.118  1.00  0.00     0.050 A 
HETATM    5  C   UNL     1      -2.506   4.830 -33.409  1.00  0.00     0.030 A 
HETATM    6  C   UNL     1      -2.032   5.875 -34.209  1.00  0.00     0.002 A 
ENDROOT
BRANCH   4   7
HETATM    7  N   UNL     1      -2.584   3.637 -31.270  1.00  0.00    -0.332 N 
HETATM    8  H   UNL     1      -1.973   3.276 -30.531  1.00  0.00     0.168 HD
BRANCH   7   9
HETATM    9  C   UNL     1      -3.851   3.111 -31.277  1.00  0.00     0.179 C 
HETATM   10  S   UNL     1      -5.184   3.635 -30.411  1.00  0.00    -0.040 SA
BRANCH   9  11
HETATM   11  N   UNL     1      -4.050   2.032 -32.115  1.00  0.00    -0.299 N 
HETATM   12  C   UNL     1      -3.602   0.729 -31.956  1.00  0.00     0.257 C 
HETATM   13  O   UNL     1      -2.722   0.393 -31.171  1.00  0.00    -0.267 OA
HETATM   14  H   UNL     1      -4.767   2.218 -32.802  1.00  0.00     0.171 HD
BRANCH  12  15
HETATM   15  C   UNL     1      -4.270  -0.295 -32.802  1.00  0.00     0.035 A 
HETATM   16  C   UNL     1      -5.426  -0.013 -33.539  1.00  0.00     0.041 A 
HETATM   17  C   UNL     1      -6.033  -1.030 -34.278  1.00  0.00     0.036 A 
HETATM   18 CL   UNL     1      -7.463  -0.688 -35.171  1.00  0.00    -0.084 Cl
HETATM   19  C   UNL     1      -5.499  -2.316 -34.296  1.00  0.00     0.047 A 
HETATM   20  C   UNL     1      -4.336  -2.583 -33.578  1.00  0.00     0.036 A 
HETATM   21 CL   UNL     1      -3.672  -4.169 -33.596  1.00  0.00    -0.084 Cl
HETATM   22  C   UNL     1      -3.714  -1.580 -32.836  1.00  0.00     0.041 A 
ENDBRANCH  12  15
ENDBRANCH   9  11
ENDBRANCH   7   9
ENDBRANCH   4   7
BRANCH   3  23
HETATM   23  C   UNL     1      -0.314   5.336 -30.324  1.00  0.00     0.254 C 
HETATM   24  N   UNL     1      -0.585   6.290 -29.370  1.00  0.00    -0.351 N 
HETATM   25  H   UNL     1      -1.335   6.954 -29.533  1.00  0.00     0.163 HD
HETATM   26  O   UNL     1       0.391   4.356 -30.104  1.00  0.00    -0.268 OA
BRANCH  24  27
HETATM   27  C   UNL     1      -0.226   6.051 -27.992  1.00  0.00     0.187 C 
BRANCH  27  28
HETATM   28  C   UNL     1       0.612   7.162 -27.477  1.00  0.00     0.070 A 
HETATM   29  O   UNL     1       0.930   7.157 -26.146  1.00  0.00    -0.325 OA
HETATM   30  C   UNL     1       1.710   8.246 -25.922  1.00  0.00     0.142 A 
HETATM   31  C   UNL     1       1.906   8.949 -27.088  1.00  0.00     0.027 A 
HETATM   32  C   UNL     1       1.199   8.249 -28.093  1.00  0.00     0.036 A 
ENDBRANCH  27  28
ENDBRANCH  24  27
ENDBRANCH   3  23
TORSDOF 7
ENDMDL
MODEL 3
REMARK VINA RESULT:      -9.1      1.271      1.686
REMARK  7 active torsions:
REMARK  status: ('A' for Active; 'I' for Inactive)
REMARK    1  A    between atoms: C_3  and  C_4 
REMARK       I    between atoms: C_4  and  N_5 
REMARK    2  A    between atoms: N_5  and  C_6 
REMARK    3  A    between atoms: C_6  and  C_7 
REMARK    4  A    between atoms: C_13  and  N_14 
REMARK    5  A    between atoms: N_14  and  C_15 
REMARK    6  A    between atoms: C_15  and  N_16 
REMARK       I    between atoms: N_16  and  C_17 
REMARK    7  A    between atoms: C_17  and  C_18 
ROOT
HETATM    1  C   UNL     1      -1.257   6.314 -34.129  1.00  0.00     0.001 A 
HETATM    2  C   UNL     1      -0.673   6.251 -32.866  1.00  0.00     0.019 A 
HETATM    3  C   UNL     1      -1.108   5.306 -31.917  1.00  0.00     0.058 A 
HETATM    4  C   UNL     1      -2.154   4.418 -32.236  1.00  0.00     0.050 A 
HETATM    5  C   UNL     1      -2.733   4.503 -33.512  1.00  0.00     0.030 A 
HETATM    6  C   UNL     1      -2.284   5.438 -34.451  1.00  0.00     0.002 A 
ENDROOT
BRANCH   4   7
HETATM    7  N   UNL     1      -2.706   3.558 -31.251  1.00  0.00    -0.332 N 
HETATM    8  H   UNL     1      -2.106   3.376 -30.441  1.00  0.00     0.168 HD
BRANCH   7   9
HETATM    9  C   UNL     1      -3.934   2.946 -31.207  1.00  0.00     0.179 C 
HETATM   10  S   UNL     1      -5.267   3.386 -30.296  1.00  0.00    -0.040 SA
BRANCH   9  11
HETATM   11  N   UNL     1      -4.088   1.848 -32.029  1.00  0.00    -0.299 N 
HETATM   12  C   UNL     1      -3.569   0.573 -31.862  1.00  0.00     0.257 C 
HETATM   13  O   UNL     1      -2.661   0.293 -31.088  1.00  0.00    -0.267 OA
HETATM   14  H   UNL     1      -4.824   1.987 -32.708  1.00  0.00     0.171 HD
BRANCH  12  15
HETATM   15  C   UNL     1      -4.194  -0.495 -32.686  1.00  0.00     0.035 A 
HETATM   16  C   UNL     1      -3.660  -1.787 -32.761  1.00  0.00     0.041 A 
HETATM   17  C   UNL     1      -4.267  -2.732 -33.589  1.00  0.00     0.036 A 
HETATM   18 CL   UNL     1      -3.602  -4.316 -33.694  1.00  0.00    -0.084 Cl
HETATM   19  C   UNL     1      -5.398  -2.409 -34.335  1.00  0.00     0.047 A 
HETATM   20  C   UNL     1      -5.935  -1.128 -34.238  1.00  0.00     0.036 A 
HETATM   21 CL   UNL     1      -7.331  -0.721 -35.156  1.00  0.00    -0.084 Cl
HETATM   22  C   UNL     1      -5.346  -0.171 -33.415  1.00  0.00     0.041 A 
ENDBRANCH  12  15
ENDBRANCH   9  11
ENDBRANCH   7   9
ENDBRANCH   4   7
BRANCH   3  23
HETATM   23  C   UNL     1      -0.342   5.282 -30.637  1.00  0.00     0.254 C 
HETATM   24  N   UNL     1      -0.300   6.456 -29.920  1.00  0.00    -0.351 N 
HETATM   25  H   UNL     1      -0.898   7.227 -30.198  1.00  0.00     0.163 HD
HETATM   26  O   UNL     1       0.146   4.233 -30.229  1.00  0.00    -0.268 OA
BRANCH  24  27
HETATM   27  C   UNL     1       0.132   6.440 -28.542  1.00  0.00     0.187 C 
BRANCH  27  28
HETATM   28  C   UNL     1      -1.007   6.740 -27.640  1.00  0.00     0.070 A 
HETATM   29  O   UNL     1      -2.164   7.205 -28.206  1.00  0.00    -0.325 OA
HETATM   30  C   UNL     1      -3.053   7.382 -27.196  1.00  0.00     0.142 A 
HETATM   31  C   UNL     1      -2.493   7.033 -25.989  1.00  0.00     0.027 A 
HETATM   32  C   UNL     1      -1.172   6.616 -26.275  1.00  0.00     0.036 A 
ENDBRANCH  27  28
ENDBRANCH  24  27
ENDBRANCH   3  23
TORSDOF 7
ENDMDL
MODEL 4
REMARK VINA RESULT:      -8.6      4.510      7.566
REMARK  7 active torsions:
REMARK  status: ('A' for Active; 'I' for Inactive)
REMARK    1  A    between atoms: C_3  and  C_4 
REMARK       I    between atoms: C_4  and  N_5 
REMARK    2  A    between atoms: N_5  and  C_6 
REMARK    3  A    between atoms: C_6  and  C_7 
REMARK    4  A    between atoms: C_13  and  N_14 
REMARK    5  A    between atoms: N_14  and  C_15 
REMARK    6  A    between atoms: C_15  and  N_16 
REMARK       I    between atoms: N_16  and  C_17 
REMARK    7  A    between atoms: C_17  and  C_18 
ROOT
HETATM    1  C   UNL     1      -4.778  -2.247 -34.432  1.00  0.00     0.001 A 
HETATM    2  C   UNL     1      -4.174  -1.357 -33.548  1.00  0.00     0.019 A 
HETATM    3  C   UNL     1      -4.951  -0.525 -32.720  1.00  0.00     0.058 A 
HETATM    4  C   UNL     1      -6.358  -0.579 -32.789  1.00  0.00     0.050 A 
HETATM    5  C   UNL     1      -6.945  -1.478 -33.692  1.00  0.00     0.030 A 
HETATM    6  C   UNL     1      -6.163  -2.309 -34.501  1.00  0.00     0.002 A 
ENDROOT
BRANCH   4   7
HETATM    7  N   UNL     1      -7.158   0.349 -32.073  1.00  0.00    -0.332 N 
HETATM    8  H   UNL     1      -7.476   0.036 -31.151  1.00  0.00     0.168 HD
BRANCH   7   9
HETATM    9  C   UNL     1      -7.560   1.615 -32.421  1.00  0.00     0.179 C 
HETATM   10  S   UNL     1      -6.801   3.064 -32.068  1.00  0.00    -0.040 SA
BRANCH   9  11
HETATM   11  N   UNL     1      -8.719   1.695 -33.167  1.00  0.00    -0.299 N 
HETATM   12  C   UNL     1      -9.880   0.951 -33.028  1.00  0.00     0.257 C 
HETATM   13  O   UNL     1      -9.960  -0.090 -32.386  1.00  0.00    -0.267 OA
HETATM   14  H   UNL     1      -8.743   2.532 -33.734  1.00  0.00     0.171 HD
BRANCH  12  15
HETATM   15  C   UNL     1     -11.085   1.496 -33.707  1.00  0.00     0.035 A 
HETATM   16  C   UNL     1     -11.086   2.750 -34.328  1.00  0.00     0.041 A 
HETATM   17  C   UNL     1     -12.263   3.227 -34.908  1.00  0.00     0.036 A 
HETATM   18 CL   UNL     1     -12.269   4.776 -35.658  1.00  0.00    -0.084 Cl
HETATM   19  C   UNL     1     -13.431   2.469 -34.883  1.00  0.00     0.047 A 
HETATM   20  C   UNL     1     -13.415   1.213 -34.282  1.00  0.00     0.036 A 
HETATM   21 CL   UNL     1     -14.854   0.270 -34.246  1.00  0.00    -0.084 Cl
HETATM   22  C   UNL     1     -12.250   0.718 -33.700  1.00  0.00     0.041 A 
ENDBRANCH  12  15
ENDBRANCH   9  11
ENDBRANCH   7   9
ENDBRANCH   4   7
BRANCH   3  23
HETATM   23  C   UNL     1      -4.186   0.317 -31.755  1.00  0.00     0.254 C 
HETATM   24  N   UNL     1      -3.700   1.514 -32.229  1.00  0.00    -0.351 N 
HETATM   25  H   UNL     1      -3.999   1.843 -33.142  1.00  0.00     0.163 HD
HETATM   26  O   UNL     1      -4.081  -0.027 -30.582  1.00  0.00    -0.268 OA
BRANCH  24  27
HETATM   27  C   UNL     1      -3.240   2.520 -31.301  1.00  0.00     0.187 C 
BRANCH  27  28
HETATM   28  C   UNL     1      -2.551   3.615 -32.027  1.00  0.00     0.070 A 
HETATM   29  O   UNL     1      -1.492   4.224 -31.410  1.00  0.00    -0.325 OA
HETATM   30  C   UNL     1      -1.022   5.164 -32.269  1.00  0.00     0.142 A 
HETATM   31  C   UNL     1      -1.755   5.168 -33.432  1.00  0.00     0.027 A 
HETATM   32  C   UNL     1      -2.742   4.166 -33.279  1.00  0.00     0.036 A 
ENDBRANCH  27  28
ENDBRANCH  24  27
ENDBRANCH   3  23
TORSDOF 7
ENDMDL
MODEL 5
REMARK VINA RESULT:      -8.6      3.420      6.458
REMARK  7 active torsions:
REMARK  status: ('A' for Active; 'I' for Inactive)
REMARK    1  A    between atoms: C_3  and  C_4 
REMARK       I    between atoms: C_4  and  N_5 
REMARK    2  A    between atoms: N_5  and  C_6 
REMARK    3  A    between atoms: C_6  and  C_7 
REMARK    4  A    between atoms: C_13  and  N_14 
REMARK    5  A    between atoms: N_14  and  C_15 
REMARK    6  A    between atoms: C_15  and  N_16 
REMARK       I    between atoms: N_16  and  C_17 
REMARK    7  A    between atoms: C_17  and  C_18 
ROOT
HETATM    1  C   UNL     1      -1.836   5.774 -34.414  1.00  0.00     0.001 A 
HETATM    2  C   UNL     1      -3.210   5.967 -34.296  1.00  0.00     0.019 A 
HETATM    3  C   UNL     1      -3.894   5.582 -33.127  1.00  0.00     0.058 A 
HETATM    4  C   UNL     1      -3.189   4.981 -32.065  1.00  0.00     0.050 A 
HETATM    5  C   UNL     1      -1.806   4.790 -32.208  1.00  0.00     0.030 A 
HETATM    6  C   UNL     1      -1.135   5.188 -33.369  1.00  0.00     0.002 A 
ENDROOT
BRANCH   4   7
HETATM    7  N   UNL     1      -3.877   4.453 -30.941  1.00  0.00    -0.332 N 
HETATM    8  H   UNL     1      -3.554   4.791 -30.030  1.00  0.00     0.168 HD
BRANCH   7   9
HETATM    9  C   UNL     1      -4.924   3.568 -30.889  1.00  0.00     0.179 C 
HETATM   10  S   UNL     1      -6.356   3.723 -30.036  1.00  0.00    -0.040 SA
BRANCH   9  11
HETATM   11  N   UNL     1      -4.783   2.422 -31.647  1.00  0.00    -0.299 N 
HETATM   12  C   UNL     1      -3.786   1.462 -31.570  1.00  0.00     0.257 C 
HETATM   13  O   UNL     1      -2.717   1.620 -30.991  1.00  0.00    -0.267 OA
HETATM   14  H   UNL     1      -5.625   2.208 -32.163  1.00  0.00     0.171 HD
BRANCH  12  15
HETATM   15  C   UNL     1      -4.082   0.165 -32.234  1.00  0.00     0.035 A 
HETATM   16  C   UNL     1      -5.035   0.051 -33.253  1.00  0.00     0.041 A 
HETATM   17  C   UNL     1      -5.301  -1.203 -33.805  1.00  0.00     0.036 A 
HETATM   18 CL   UNL     1      -6.483  -1.346 -35.048  1.00  0.00    -0.084 Cl
HETATM   19  C   UNL     1      -4.628  -2.338 -33.360  1.00  0.00     0.047 A 
HETATM   20  C   UNL     1      -3.666  -2.212 -32.361  1.00  0.00     0.036 A 
HETATM   21 CL   UNL     1      -2.831  -3.609 -31.806  1.00  0.00    -0.084 Cl
HETATM   22  C   UNL     1      -3.384  -0.969 -31.799  1.00  0.00     0.041 A 
ENDBRANCH  12  15
ENDBRANCH   9  11
ENDBRANCH   7   9
ENDBRANCH   4   7
BRANCH   3  23
HETATM   23  C   UNL     1      -5.345   5.924 -33.089  1.00  0.00     0.254 C 
HETATM   24  N   UNL     1      -6.187   5.133 -33.838  1.00  0.00    -0.351 N 
HETATM   25  H   UNL     1      -5.825   4.281 -34.255  1.00  0.00     0.163 HD
HETATM   26  O   UNL     1      -5.750   6.818 -32.354  1.00  0.00    -0.268 OA
BRANCH  24  27
HETATM   27  C   UNL     1      -7.612   5.185 -33.612  1.00  0.00     0.187 C 
BRANCH  27  28
HETATM   28  C   UNL     1      -8.205   3.832 -33.744  1.00  0.00     0.070 A 
HETATM   29  O   UNL     1      -7.435   2.759 -33.384  1.00  0.00    -0.325 OA
HETATM   30  C   UNL     1      -8.193   1.649 -33.571  1.00  0.00     0.142 A 
HETATM   31  C   UNL     1      -9.441   1.987 -34.040  1.00  0.00     0.027 A 
HETATM   32  C   UNL     1      -9.451   3.398 -34.150  1.00  0.00     0.036 A 
ENDBRANCH  27  28
ENDBRANCH  24  27
ENDBRANCH   3  23
TORSDOF 7
ENDMDL
MODEL 6
REMARK VINA RESULT:      -8.5      4.385      8.978
REMARK  7 active torsions:
REMARK  status: ('A' for Active; 'I' for Inactive)
REMARK    1  A    between atoms: C_3  and  C_4 
REMARK       I    between atoms: C_4  and  N_5 
REMARK    2  A    between atoms: N_5  and  C_6 
REMARK    3  A    between atoms: C_6  and  C_7 
REMARK    4  A    between atoms: C_13  and  N_14 
REMARK    5  A    between atoms: N_14  and  C_15 
REMARK    6  A    between atoms: C_15  and  N_16 
REMARK       I    between atoms: N_16  and  C_17 
REMARK    7  A    between atoms: C_17  and  C_18 
ROOT
HETATM    1  C   UNL     1      -5.859  -3.598 -34.800  1.00  0.00     0.001 A 
HETATM    2  C   UNL     1      -6.725  -2.521 -34.981  1.00  0.00     0.019 A 
HETATM    3  C   UNL     1      -6.386  -1.238 -34.511  1.00  0.00     0.058 A 
HETATM    4  C   UNL     1      -5.165  -1.034 -33.838  1.00  0.00     0.050 A 
HETATM    5  C   UNL     1      -4.312  -2.134 -33.661  1.00  0.00     0.030 A 
HETATM    6  C   UNL     1      -4.652  -3.402 -34.143  1.00  0.00     0.002 A 
ENDROOT
BRANCH   4   7
HETATM    7  N   UNL     1      -4.869   0.214 -33.228  1.00  0.00    -0.332 N 
HETATM    8  H   UNL     1      -4.228   0.816 -33.751  1.00  0.00     0.168 HD
BRANCH   7   9
HETATM    9  C   UNL     1      -5.327   0.745 -32.049  1.00  0.00     0.179 C 
HETATM   10  S   UNL     1      -6.314   0.016 -30.910  1.00  0.00    -0.040 SA
BRANCH   9  11
HETATM   11  N   UNL     1      -4.907   2.029 -31.764  1.00  0.00    -0.299 N 
HETATM   12  C   UNL     1      -3.623   2.465 -31.476  1.00  0.00     0.257 C 
HETATM   13  O   UNL     1      -2.696   1.727 -31.162  1.00  0.00    -0.267 OA
HETATM   14  H   UNL     1      -5.612   2.715 -31.995  1.00  0.00     0.171 HD
BRANCH  12  15
HETATM   15  C   UNL     1      -3.397   3.931 -31.580  1.00  0.00     0.035 A 
HETATM   16  C   UNL     1      -2.115   4.491 -31.558  1.00  0.00     0.041 A 
HETATM   17  C   UNL     1      -1.971   5.878 -31.612  1.00  0.00     0.036 A 
HETATM   18 CL   UNL     1      -0.395   6.568 -31.570  1.00  0.00    -0.084 Cl
HETATM   19  C   UNL     1      -3.085   6.710 -31.695  1.00  0.00     0.047 A 
HETATM   20  C   UNL     1      -4.357   6.144 -31.738  1.00  0.00     0.036 A 
HETATM   21 CL   UNL     1      -5.737   7.164 -31.840  1.00  0.00    -0.084 Cl
HETATM   22  C   UNL     1      -4.521   4.761 -31.687  1.00  0.00     0.041 A 
ENDBRANCH  12  15
ENDBRANCH   9  11
ENDBRANCH   7   9
ENDBRANCH   4   7
BRANCH   3  23
HETATM   23  C   UNL     1      -7.356  -0.155 -34.846  1.00  0.00     0.254 C 
HETATM   24  N   UNL     1      -8.478  -0.063 -34.055  1.00  0.00    -0.351 N 
HETATM   25  H   UNL     1      -8.531  -0.616 -33.206  1.00  0.00     0.163 HD
HETATM   26  O   UNL     1      -7.100   0.649 -35.737  1.00  0.00    -0.268 OA
BRANCH  24  27
HETATM   27  C   UNL     1      -9.291   1.130 -34.099  1.00  0.00     0.187 C 
BRANCH  27  28
HETATM   28  C   UNL     1      -8.919   2.049 -32.996  1.00  0.00     0.070 A 
HETATM   29  O   UNL     1      -9.426   1.792 -31.751  1.00  0.00    -0.325 OA
HETATM   30  C   UNL     1      -8.933   2.744 -30.919  1.00  0.00     0.142 A 
HETATM   31  C   UNL     1      -8.111   3.608 -31.605  1.00  0.00     0.027 A 
HETATM   32  C   UNL     1      -8.099   3.158 -32.946  1.00  0.00     0.036 A 
ENDBRANCH  27  28
ENDBRANCH  24  27
ENDBRANCH   3  23
TORSDOF 7
ENDMDL
MODEL 7
REMARK VINA RESULT:      -8.4      5.146     10.389
REMARK  7 active torsions:
REMARK  status: ('A' for Active; 'I' for Inactive)
REMARK    1  A    between atoms: C_3  and  C_4 
REMARK       I    between atoms: C_4  and  N_5 
REMARK    2  A    between atoms: N_5  and  C_6 
REMARK    3  A    between atoms: C_6  and  C_7 
REMARK    4  A    between atoms: C_13  and  N_14 
REMARK    5  A    between atoms: N_14  and  C_15 
REMARK    6  A    between atoms: C_15  and  N_16 
REMARK       I    between atoms: N_16  and  C_17 
REMARK    7  A    between atoms: C_17  and  C_18 
ROOT
HETATM    1  C   UNL     1      -6.704  -1.534 -35.020  1.00  0.00     0.001 A 
HETATM    2  C   UNL     1      -7.649  -0.511 -35.050  1.00  0.00     0.019 A 
HETATM    3  C   UNL     1      -7.630   0.516 -34.088  1.00  0.00     0.058 A 
HETATM    4  C   UNL     1      -6.654   0.510 -33.071  1.00  0.00     0.050 A 
HETATM    5  C   UNL     1      -5.716  -0.534 -33.056  1.00  0.00     0.030 A 
HETATM    6  C   UNL     1      -5.737  -1.542 -34.025  1.00  0.00     0.002 A 
ENDROOT
BRANCH   4   7
HETATM    7  N   UNL     1      -6.704   1.450 -32.008  1.00  0.00    -0.332 N 
HETATM    8  H   UNL     1      -7.493   2.102 -32.035  1.00  0.00     0.168 HD
BRANCH   7   9
HETATM    9  C   UNL     1      -5.863   1.608 -30.935  1.00  0.00     0.179 C 
HETATM   10  S   UNL     1      -5.843   0.729 -29.511  1.00  0.00    -0.040 SA
BRANCH   9  11
HETATM   11  N   UNL     1      -4.909   2.598 -31.059  1.00  0.00    -0.299 N 
HETATM   12  C   UNL     1      -3.763   2.592 -31.838  1.00  0.00     0.257 C 
HETATM   13  O   UNL     1      -3.274   1.586 -32.339  1.00  0.00    -0.267 OA
HETATM   14  H   UNL     1      -5.228   3.476 -30.670  1.00  0.00     0.171 HD
BRANCH  12  15
HETATM   15  C   UNL     1      -3.126   3.916 -32.067  1.00  0.00     0.035 A 
HETATM   16  C   UNL     1      -3.250   4.970 -31.154  1.00  0.00     0.041 A 
HETATM   17  C   UNL     1      -2.668   6.204 -31.448  1.00  0.00     0.036 A 
HETATM   18 CL   UNL     1      -2.834   7.504 -30.332  1.00  0.00    -0.084 Cl
HETATM   19  C   UNL     1      -1.963   6.398 -32.633  1.00  0.00     0.047 A 
HETATM   20  C   UNL     1      -1.826   5.338 -33.526  1.00  0.00     0.036 A 
HETATM   21 CL   UNL     1      -0.955   5.569 -34.991  1.00  0.00    -0.084 Cl
HETATM   22  C   UNL     1      -2.397   4.097 -33.249  1.00  0.00     0.041 A 
ENDBRANCH  12  15
ENDBRANCH   9  11
ENDBRANCH   7   9
ENDBRANCH   4   7
BRANCH   3  23
HETATM   23  C   UNL     1      -8.638   1.598 -34.283  1.00  0.00     0.254 C 
HETATM   24  N   UNL     1      -9.887   1.210 -34.710  1.00  0.00    -0.351 N 
HETATM   25  H   UNL     1     -10.118   0.222 -34.730  1.00  0.00     0.163 HD
HETATM   26  O   UNL     1      -8.364   2.758 -33.990  1.00  0.00    -0.268 OA
BRANCH  24  27
HETATM   27  C   UNL     1     -10.997   2.129 -34.615  1.00  0.00     0.187 C 
BRANCH  27  28
HETATM   28  C   UNL     1     -12.251   1.396 -34.316  1.00  0.00     0.070 A 
HETATM   29  O   UNL     1     -13.404   1.837 -34.905  1.00  0.00    -0.325 OA
HETATM   30  C   UNL     1     -14.397   1.004 -34.502  1.00  0.00     0.142 A 
HETATM   31  C   UNL     1     -13.902   0.028 -33.668  1.00  0.00     0.027 A 
HETATM   32  C   UNL     1     -12.515   0.279 -33.549  1.00  0.00     0.036 A 
ENDBRANCH  27  28
ENDBRANCH  24  27
ENDBRANCH   3  23
TORSDOF 7
ENDMDL
MODEL 8
REMARK VINA RESULT:      -8.2      7.841     11.416
REMARK  7 active torsions:
REMARK  status: ('A' for Active; 'I' for Inactive)
REMARK    1  A    between atoms: C_3  and  C_4 
REMARK       I    between atoms: C_4  and  N_5 
REMARK    2  A    between atoms: N_5  and  C_6 
REMARK    3  A    between atoms: C_6  and  C_7 
REMARK    4  A    between atoms: C_13  and  N_14 
REMARK    5  A    between atoms: N_14  and  C_15 
REMARK    6  A    between atoms: C_15  and  N_16 
REMARK       I    between atoms: N_16  and  C_17 
REMARK    7  A    between atoms: C_17  and  C_18 
ROOT
HETATM    1  C   UNL     1     -11.870   4.341 -35.625  1.00  0.00     0.001 A 
HETATM    2  C   UNL     1     -12.740   3.488 -34.949  1.00  0.00     0.019 A 
HETATM    3  C   UNL     1     -12.257   2.585 -33.982  1.00  0.00     0.058 A 
HETATM    4  C   UNL     1     -10.878   2.528 -33.698  1.00  0.00     0.050 A 
HETATM    5  C   UNL     1     -10.019   3.392 -34.396  1.00  0.00     0.030 A 
HETATM    6  C   UNL     1     -10.511   4.294 -35.345  1.00  0.00     0.002 A 
ENDROOT
BRANCH   4   7
HETATM    7  N   UNL     1     -10.353   1.529 -32.838  1.00  0.00    -0.332 N 
HETATM    8  H   UNL     1     -10.995   0.765 -32.608  1.00  0.00     0.168 HD
BRANCH   7   9
HETATM    9  C   UNL     1      -9.104   1.420 -32.278  1.00  0.00     0.179 C 
HETATM   10  S   UNL     1      -8.414   2.403 -31.112  1.00  0.00    -0.040 SA
BRANCH   9  11
HETATM   11  N   UNL     1      -8.337   0.361 -32.720  1.00  0.00    -0.299 N 
HETATM   12  C   UNL     1      -7.388   0.353 -33.731  1.00  0.00     0.257 C 
HETATM   13  O   UNL     1      -7.275   1.231 -34.578  1.00  0.00    -0.267 OA
HETATM   14  H   UNL     1      -8.367  -0.418 -32.076  1.00  0.00     0.171 HD
BRANCH  12  15
HETATM   15  C   UNL     1      -6.460  -0.808 -33.740  1.00  0.00     0.035 A 
HETATM   16  C   UNL     1      -5.282  -0.826 -32.985  1.00  0.00     0.041 A 
HETATM   17  C   UNL     1      -4.428  -1.927 -33.072  1.00  0.00     0.036 A 
HETATM   18 CL   UNL     1      -2.972  -1.943 -32.156  1.00  0.00    -0.084 Cl
HETATM   19  C   UNL     1      -4.737  -3.007 -33.896  1.00  0.00     0.047 A 
HETATM   20  C   UNL     1      -5.921  -2.991 -34.627  1.00  0.00     0.036 A 
HETATM   21 CL   UNL     1      -6.309  -4.321 -35.646  1.00  0.00    -0.084 Cl
HETATM   22  C   UNL     1      -6.788  -1.903 -34.551  1.00  0.00     0.041 A 
ENDBRANCH  12  15
ENDBRANCH   9  11
ENDBRANCH   7   9
ENDBRANCH   4   7
BRANCH   3  23
HETATM   23  C   UNL     1     -13.299   1.793 -33.268  1.00  0.00     0.254 C 
HETATM   24  N   UNL     1     -14.189   2.498 -32.491  1.00  0.00    -0.351 N 
HETATM   25  H   UNL     1     -14.202   3.512 -32.550  1.00  0.00     0.163 HD
HETATM   26  O   UNL     1     -13.385   0.582 -33.447  1.00  0.00    -0.268 OA
BRANCH  24  27
HETATM   27  C   UNL     1     -15.403   1.864 -32.034  1.00  0.00     0.187 C 
BRANCH  27  28
HETATM   28  C   UNL     1     -16.553   2.791 -32.170  1.00  0.00     0.070 A 
HETATM   29  O   UNL     1     -17.750   2.268 -32.578  1.00  0.00    -0.325 OA
HETATM   30  C   UNL     1     -18.640   3.293 -32.605  1.00  0.00     0.142 A 
HETATM   31  C   UNL     1     -18.039   4.467 -32.215  1.00  0.00     0.027 A 
HETATM   32  C   UNL     1     -16.691   4.144 -31.931  1.00  0.00     0.036 A 
ENDBRANCH  27  28
ENDBRANCH  24  27
ENDBRANCH   3  23
TORSDOF 7
ENDMDL
MODEL 9
REMARK VINA RESULT:      -8.2      4.876      9.541
REMARK  7 active torsions:
REMARK  status: ('A' for Active; 'I' for Inactive)
REMARK    1  A    between atoms: C_3  and  C_4 
REMARK       I    between atoms: C_4  and  N_5 
REMARK    2  A    between atoms: N_5  and  C_6 
REMARK    3  A    between atoms: C_6  and  C_7 
REMARK    4  A    between atoms: C_13  and  N_14 
REMARK    5  A    between atoms: N_14  and  C_15 
REMARK    6  A    between atoms: C_15  and  N_16 
REMARK       I    between atoms: N_16  and  C_17 
REMARK    7  A    between atoms: C_17  and  C_18 
ROOT
HETATM    1  C   UNL     1      -6.344  -1.682 -34.719  1.00  0.00     0.001 A 
HETATM    2  C   UNL     1      -7.620  -1.166 -34.508  1.00  0.00     0.019 A 
HETATM    3  C   UNL     1      -7.877  -0.298 -33.429  1.00  0.00     0.058 A 
HETATM    4  C   UNL     1      -6.839   0.047 -32.540  1.00  0.00     0.050 A 
HETATM    5  C   UNL     1      -5.563  -0.490 -32.768  1.00  0.00     0.030 A 
HETATM    6  C   UNL     1      -5.316  -1.341 -33.851  1.00  0.00     0.002 A 
ENDROOT
BRANCH   4   7
HETATM    7  N   UNL     1      -7.106   0.799 -31.366  1.00  0.00    -0.332 N 
HETATM    8  H   UNL     1      -7.153   0.257 -30.499  1.00  0.00     0.168 HD
BRANCH   7   9
HETATM    9  C   UNL     1      -7.293   2.150 -31.212  1.00  0.00     0.179 C 
HETATM   10  S   UNL     1      -8.681   2.942 -30.715  1.00  0.00    -0.040 SA
BRANCH   9  11
HETATM   11  N   UNL     1      -6.197   2.944 -31.483  1.00  0.00    -0.299 N 
HETATM   12  C   UNL     1      -4.868   2.708 -31.166  1.00  0.00     0.257 C 
HETATM   13  O   UNL     1      -4.490   1.875 -30.350  1.00  0.00    -0.267 OA
HETATM   14  H   UNL     1      -6.414   3.667 -32.156  1.00  0.00     0.171 HD
BRANCH  12  15
HETATM   15  C   UNL     1      -3.870   3.531 -31.899  1.00  0.00     0.035 A 
HETATM   16  C   UNL     1      -2.637   3.882 -31.337  1.00  0.00     0.041 A 
HETATM   17  C   UNL     1      -1.762   4.697 -32.057  1.00  0.00     0.036 A 
HETATM   18 CL   UNL     1      -0.253   5.141 -31.360  1.00  0.00    -0.084 Cl
HETATM   19  C   UNL     1      -2.097   5.159 -33.327  1.00  0.00     0.047 A 
HETATM   20  C   UNL     1      -3.317   4.788 -33.888  1.00  0.00     0.036 A 
HETATM   21 CL   UNL     1      -3.738   5.355 -35.456  1.00  0.00    -0.084 Cl
HETATM   22  C   UNL     1      -4.203   3.973 -33.186  1.00  0.00     0.041 A 
ENDBRANCH  12  15
ENDBRANCH   9  11
ENDBRANCH   7   9
ENDBRANCH   4   7
BRANCH   3  23
HETATM   23  C   UNL     1      -9.260   0.256 -33.366  1.00  0.00     0.254 C 
HETATM   24  N   UNL     1      -9.620   1.138 -34.358  1.00  0.00    -0.351 N 
HETATM   25  H   UNL     1      -9.006   1.260 -35.158  1.00  0.00     0.163 HD
HETATM   26  O   UNL     1     -10.044  -0.137 -32.507  1.00  0.00    -0.268 OA
BRANCH  24  27
HETATM   27  C   UNL     1     -11.012   1.466 -34.559  1.00  0.00     0.187 C 
BRANCH  27  28
HETATM   28  C   UNL     1     -11.167   2.917 -34.825  1.00  0.00     0.070 A 
HETATM   29  O   UNL     1     -10.036   3.686 -34.850  1.00  0.00    -0.325 OA
HETATM   30  C   UNL     1     -10.427   4.956 -35.130  1.00  0.00     0.142 A 
HETATM   31  C   UNL     1     -11.792   5.017 -35.294  1.00  0.00     0.027 A 
HETATM   32  C   UNL     1     -12.270   3.700 -35.100  1.00  0.00     0.036 A 
ENDBRANCH  27  28
ENDBRANCH  24  27
ENDBRANCH   3  23
TORSDOF 7
ENDMDL
MODEL 10
REMARK VINA RESULT:      -8.1      2.196      2.859
REMARK  7 active torsions:
REMARK  status: ('A' for Active; 'I' for Inactive)
REMARK    1  A    between atoms: C_3  and  C_4 
REMARK       I    between atoms: C_4  and  N_5 
REMARK    2  A    between atoms: N_5  and  C_6 
REMARK    3  A    between atoms: C_6  and  C_7 
REMARK    4  A    between atoms: C_13  and  N_14 
REMARK    5  A    between atoms: N_14  and  C_15 
REMARK    6  A    between atoms: C_15  and  N_16 
REMARK       I    between atoms: N_16  and  C_17 
REMARK    7  A    between atoms: C_17  and  C_18 
ROOT
HETATM    1  C   UNL     1      -1.436   6.940 -33.603  1.00  0.00     0.001 A 
HETATM    2  C   UNL     1      -1.835   7.154 -32.286  1.00  0.00     0.019 A 
HETATM    3  C   UNL     1      -2.247   6.080 -31.474  1.00  0.00     0.058 A 
HETATM    4  C   UNL     1      -2.270   4.771 -31.996  1.00  0.00     0.050 A 
HETATM    5  C   UNL     1      -1.870   4.580 -33.328  1.00  0.00     0.030 A 
HETATM    6  C   UNL     1      -1.450   5.652 -34.121  1.00  0.00     0.002 A 
ENDROOT
BRANCH   4   7
HETATM    7  N   UNL     1      -2.819   3.697 -31.247  1.00  0.00    -0.332 N 
HETATM    8  H   UNL     1      -2.179   3.254 -30.582  1.00  0.00     0.168 HD
BRANCH   7   9
HETATM    9  C   UNL     1      -4.086   3.172 -31.265  1.00  0.00     0.179 C 
HETATM   10  S   UNL     1      -5.402   3.638 -30.341  1.00  0.00    -0.040 SA
BRANCH   9  11
HETATM   11  N   UNL     1      -4.301   2.149 -32.167  1.00  0.00    -0.299 N 
HETATM   12  C   UNL     1      -3.902   0.824 -32.071  1.00  0.00     0.257 C 
HETATM   13  O   UNL     1      -3.054   0.414 -31.288  1.00  0.00    -0.267 OA
HETATM   14  H   UNL     1      -4.995   2.398 -32.858  1.00  0.00     0.171 HD
BRANCH  12  15
HETATM   15  C   UNL     1      -4.583  -0.126 -32.989  1.00  0.00     0.035 A 
HETATM   16  C   UNL     1      -5.747   0.217 -33.687  1.00  0.00     0.041 A 
HETATM   17  C   UNL     1      -6.367  -0.736 -34.497  1.00  0.00     0.036 A 
HETATM   18 CL   UNL     1      -7.807  -0.319 -35.343  1.00  0.00    -0.084 Cl
HETATM   19  C   UNL     1      -5.838  -2.018 -34.626  1.00  0.00     0.047 A 
HETATM   20  C   UNL     1      -4.668  -2.344 -33.946  1.00  0.00     0.036 A 
HETATM   21 CL   UNL     1      -4.009  -3.925 -34.099  1.00  0.00    -0.084 Cl
HETATM   22  C   UNL     1      -4.033  -1.406 -33.134  1.00  0.00     0.041 A 
ENDBRANCH  12  15
ENDBRANCH   9  11
ENDBRANCH   7   9
ENDBRANCH   4   7
BRANCH   3  23
HETATM   23  C   UNL     1      -2.564   6.428 -30.059  1.00  0.00     0.254 C 
HETATM   24  N   UNL     1      -1.494   6.674 -29.228  1.00  0.00    -0.351 N 
HETATM   25  H   UNL     1      -0.565   6.757 -29.629  1.00  0.00     0.163 HD
HETATM   26  O   UNL     1      -3.729   6.563 -29.702  1.00  0.00    -0.268 OA
BRANCH  24  27
HETATM   27  C   UNL     1      -1.707   7.322 -27.956  1.00  0.00     0.187 C 
BRANCH  27  28
HETATM   28  C   UNL     1      -2.158   8.721 -28.158  1.00  0.00     0.070 A 
HETATM   29  O   UNL     1      -3.260   9.143 -27.465  1.00  0.00    -0.325 OA
HETATM   30  C   UNL     1      -3.460  10.444 -27.795  1.00  0.00     0.142 A 
HETATM   31  C   UNL     1      -2.501  10.871 -28.684  1.00  0.00     0.027 A 
HETATM   32  C   UNL     1      -1.658   9.759 -28.918  1.00  0.00     0.036 A 
ENDBRANCH  27  28
ENDBRANCH  24  27
ENDBRANCH   3  23
TORSDOF 7
ENDMDL
