MODEL 1
REMARK VINA RESULT:      -9.7      0.000      0.000
REMARK  5 active torsions:
REMARK  status: ('A' for Active; 'I' for Inactive)
REMARK    1  A    between atoms: C_3  and  O_4 
REMARK    2  A    between atoms: C_6  and  C_7 
REMARK       I    between atoms: N_10  and  C_11 
REMARK    3  A    between atoms: C_11  and  C_12 
REMARK    4  A    between atoms: C_18  and  C_19 
REMARK    5  A    between atoms: C_19  and  O_20 
ROOT
HETATM    1  C   UNL     1      -5.254  -0.896 -34.176  1.00  0.00     0.022 C 
HETATM    2  C   UNL     1      -6.701  -1.010 -34.716  1.00  0.00     0.029 C 
HETATM    3  C   UNL     1      -7.784  -0.981 -33.633  1.00  0.00     0.127 C 
HETATM    4  N   UNL     1      -7.548   0.115 -32.702  1.00  0.00    -0.348 N 
HETATM    5  C   UNL     1      -8.444   1.119 -32.346  1.00  0.00     0.253 C 
HETATM    6  O   UNL     1      -8.264   1.869 -31.387  1.00  0.00    -0.267 OA
HETATM    7  C   UNL     1      -6.254   0.058 -32.033  1.00  0.00     0.127 C 
HETATM    8  C   UNL     1      -5.153   0.189 -33.080  1.00  0.00     0.029 C 
ENDROOT
BRANCH   5   9
HETATM    9  C   UNL     1      -9.660   1.360 -33.159  1.00  0.00     0.034 A 
HETATM   10  C   UNL     1     -10.759   0.511 -32.965  1.00  0.00     0.051 A 
HETATM   11  C   UNL     1     -11.954   0.810 -33.631  1.00  0.00     0.086 A 
HETATM   12  C   UNL     1     -12.018   1.925 -34.460  1.00  0.00     0.062 A 
HETATM   13  N   UNL     1     -13.167   0.167 -33.585  1.00  0.00    -0.231 NA
HETATM   14  N   UNL     1     -13.311   1.934 -34.917  1.00  0.00    -0.341 N 
HETATM   15  C   UNL     1     -10.942   2.790 -34.669  1.00  0.00     0.033 A 
HETATM   16  H   UNL     1     -13.724   2.636 -35.516  1.00  0.00     0.167 HD
HETATM   17  C   UNL     1     -13.971   0.868 -34.360  1.00  0.00     0.128 A 
HETATM   18  C   UNL     1      -9.761   2.495 -33.979  1.00  0.00     0.019 A 
BRANCH  17  19
HETATM   19  C   UNL     1     -15.420   0.620 -34.573  1.00  0.00     0.242 C 
BRANCH  19  20
HETATM   20  O   UNL     1     -16.122   1.528 -33.734  1.00  0.00    -0.393 OA
HETATM   21  H   UNL     1     -16.608   0.968 -33.095  1.00  0.00     0.209 HD
ENDBRANCH  19  20
ENDBRANCH  17  19
ENDBRANCH   5   9
BRANCH   1  22
HETATM   22  C   UNL     1      -4.567  -2.189 -33.750  1.00  0.00    -0.051 A 
HETATM   23  C   UNL     1      -3.735  -2.303 -32.630  1.00  0.00     0.044 A 
HETATM   24  C   UNL     1      -3.155  -3.527 -32.301  1.00  0.00     0.066 A 
HETATM   25  C   UNL     1      -3.383  -4.664 -33.067  1.00  0.00     0.036 A 
HETATM   26  C   UNL     1      -4.212  -4.573 -34.181  1.00  0.00     0.003 A 
HETATM   27  C   UNL     1      -4.799  -3.350 -34.515  1.00  0.00     0.007 A 
BRANCH  24  28
HETATM   28  O   UNL     1      -2.357  -3.571 -31.195  1.00  0.00    -0.361 OA
HETATM   29  H   UNL     1      -2.428  -4.454 -30.798  1.00  0.00     0.217 HD
ENDBRANCH  24  28
ENDBRANCH   1  22
TORSDOF 5
ENDMDL
MODEL 2
REMARK VINA RESULT:      -9.0      3.347      3.734
REMARK  5 active torsions:
REMARK  status: ('A' for Active; 'I' for Inactive)
REMARK    1  A    between atoms: C_3  and  O_4 
REMARK    2  A    between atoms: C_6  and  C_7 
REMARK       I    between atoms: N_10  and  C_11 
REMARK    3  A    between atoms: C_11  and  C_12 
REMARK    4  A    between atoms: C_18  and  C_19 
REMARK    5  A    between atoms: C_19  and  O_20 
ROOT
HETATM    1  C   UNL     1      -5.487  -0.682 -34.228  1.00  0.00     0.022 C 
HETATM    2  C   UNL     1      -6.846   0.032 -34.433  1.00  0.00     0.029 C 
HETATM    3  C   UNL     1      -7.713   0.113 -33.173  1.00  0.00     0.127 C 
HETATM    4  N   UNL     1      -6.925   0.579 -32.038  1.00  0.00    -0.348 N 
HETATM    5  C   UNL     1      -7.213   1.657 -31.206  1.00  0.00     0.253 C 
HETATM    6  O   UNL     1      -6.638   1.850 -30.135  1.00  0.00    -0.267 OA
HETATM    7  C   UNL     1      -5.774  -0.259 -31.730  1.00  0.00     0.127 C 
HETATM    8  C   UNL     1      -4.812  -0.229 -32.913  1.00  0.00     0.029 C 
ENDROOT
BRANCH   5   9
HETATM    9  C   UNL     1      -8.218   2.669 -31.612  1.00  0.00     0.034 A 
HETATM   10  C   UNL     1      -7.980   3.396 -32.787  1.00  0.00     0.051 A 
HETATM   11  C   UNL     1      -8.983   4.258 -33.249  1.00  0.00     0.086 A 
HETATM   12  C   UNL     1     -10.172   4.372 -32.537  1.00  0.00     0.062 A 
HETATM   13  N   UNL     1      -9.011   5.045 -34.374  1.00  0.00    -0.231 NA
HETATM   14  N   UNL     1     -10.922   5.257 -33.268  1.00  0.00    -0.341 N 
HETATM   15  C   UNL     1     -10.439   3.658 -31.366  1.00  0.00     0.033 A 
HETATM   16  H   UNL     1     -11.869   5.543 -33.063  1.00  0.00     0.167 HD
HETATM   17  C   UNL     1     -10.193   5.630 -34.370  1.00  0.00     0.128 A 
HETATM   18  C   UNL     1      -9.439   2.781 -30.929  1.00  0.00     0.019 A 
BRANCH  17  19
HETATM   19  C   UNL     1     -10.735   6.520 -35.428  1.00  0.00     0.242 C 
BRANCH  19  20
HETATM   20  O   UNL     1      -9.633   6.935 -36.223  1.00  0.00    -0.393 OA
HETATM   21  H   UNL     1      -9.786   6.542 -37.105  1.00  0.00     0.209 HD
ENDBRANCH  19  20
ENDBRANCH  17  19
ENDBRANCH   5   9
BRANCH   1  22
HETATM   22  C   UNL     1      -5.469  -2.199 -34.373  1.00  0.00    -0.051 A 
HETATM   23  C   UNL     1      -4.346  -2.998 -34.128  1.00  0.00     0.044 A 
HETATM   24  C   UNL     1      -4.417  -4.383 -34.271  1.00  0.00     0.066 A 
HETATM   25  C   UNL     1      -5.596  -5.009 -34.656  1.00  0.00     0.036 A 
HETATM   26  C   UNL     1      -6.726  -4.234 -34.897  1.00  0.00     0.003 A 
HETATM   27  C   UNL     1      -6.662  -2.846 -34.754  1.00  0.00     0.007 A 
BRANCH  24  28
HETATM   28  O   UNL     1      -3.287  -5.103 -34.015  1.00  0.00    -0.361 OA
HETATM   29  H   UNL     1      -2.515  -4.550 -34.219  1.00  0.00     0.217 HD
ENDBRANCH  24  28
ENDBRANCH   1  22
TORSDOF 5
ENDMDL
MODEL 3
REMARK VINA RESULT:      -8.8      2.876      3.854
REMARK  5 active torsions:
REMARK  status: ('A' for Active; 'I' for Inactive)
REMARK    1  A    between atoms: C_3  and  O_4 
REMARK    2  A    between atoms: C_6  and  C_7 
REMARK       I    between atoms: N_10  and  C_11 
REMARK    3  A    between atoms: C_11  and  C_12 
REMARK    4  A    between atoms: C_18  and  C_19 
REMARK    5  A    between atoms: C_19  and  O_20 
ROOT
HETATM    1  C   UNL     1      -5.782  -0.394 -34.152  1.00  0.00     0.022 C 
HETATM    2  C   UNL     1      -7.001   0.170 -34.922  1.00  0.00     0.029 C 
HETATM    3  C   UNL     1      -8.321   0.110 -34.146  1.00  0.00     0.127 C 
HETATM    4  N   UNL     1      -8.143   0.621 -32.792  1.00  0.00    -0.348 N 
HETATM    5  C   UNL     1      -8.876   1.631 -32.176  1.00  0.00     0.253 C 
HETATM    6  O   UNL     1      -8.830   1.849 -30.966  1.00  0.00    -0.267 OA
HETATM    7  C   UNL     1      -7.138  -0.093 -32.015  1.00  0.00     0.127 C 
HETATM    8  C   UNL     1      -5.779   0.086 -32.683  1.00  0.00     0.029 C 
ENDROOT
BRANCH   5   9
HETATM    9  C   UNL     1      -9.727   2.537 -32.983  1.00  0.00     0.034 A 
HETATM   10  C   UNL     1      -9.286   3.854 -33.176  1.00  0.00     0.051 A 
HETATM   11  C   UNL     1     -10.014   4.678 -34.044  1.00  0.00     0.086 A 
HETATM   12  C   UNL     1     -11.145   4.176 -34.679  1.00  0.00     0.062 A 
HETATM   13  N   UNL     1      -9.777   5.976 -34.424  1.00  0.00    -0.231 NA
HETATM   14  N   UNL     1     -11.586   5.216 -35.458  1.00  0.00    -0.341 N 
HETATM   15  C   UNL     1     -11.606   2.869 -34.509  1.00  0.00     0.033 A 
HETATM   16  H   UNL     1     -12.371   5.190 -36.092  1.00  0.00     0.167 HD
HETATM   17  C   UNL     1     -10.731   6.276 -35.283  1.00  0.00     0.128 A 
HETATM   18  C   UNL     1     -10.855   2.048 -33.660  1.00  0.00     0.019 A 
BRANCH  17  19
HETATM   19  C   UNL     1     -10.861   7.546 -36.042  1.00  0.00     0.242 C 
BRANCH  19  20
HETATM   20  O   UNL     1      -9.709   7.654 -36.867  1.00  0.00    -0.393 OA
HETATM   21  H   UNL     1     -10.042   7.942 -37.741  1.00  0.00     0.209 HD
ENDBRANCH  19  20
ENDBRANCH  17  19
ENDBRANCH   5   9
BRANCH   1  22
HETATM   22  C   UNL     1      -5.529  -1.894 -34.253  1.00  0.00    -0.051 A 
HETATM   23  C   UNL     1      -6.439  -2.808 -34.797  1.00  0.00     0.044 A 
HETATM   24  C   UNL     1      -6.125  -4.165 -34.865  1.00  0.00     0.066 A 
HETATM   25  C   UNL     1      -4.907  -4.648 -34.402  1.00  0.00     0.036 A 
HETATM   26  C   UNL     1      -3.986  -3.755 -33.864  1.00  0.00     0.003 A 
HETATM   27  C   UNL     1      -4.293  -2.395 -33.794  1.00  0.00     0.007 A 
BRANCH  24  28
HETATM   28  O   UNL     1      -7.055  -5.002 -35.410  1.00  0.00    -0.361 OA
HETATM   29  H   UNL     1      -7.894  -4.880 -34.936  1.00  0.00     0.217 HD
ENDBRANCH  24  28
ENDBRANCH   1  22
TORSDOF 5
ENDMDL
MODEL 4
REMARK VINA RESULT:      -8.7      5.050      7.787
REMARK  5 active torsions:
REMARK  status: ('A' for Active; 'I' for Inactive)
REMARK    1  A    between atoms: C_3  and  O_4 
REMARK    2  A    between atoms: C_6  and  C_7 
REMARK       I    between atoms: N_10  and  C_11 
REMARK    3  A    between atoms: C_11  and  C_12 
REMARK    4  A    between atoms: C_18  and  C_19 
REMARK    5  A    between atoms: C_19  and  O_20 
ROOT
HETATM    1  C   UNL     1      -2.803   5.232 -32.451  1.00  0.00     0.022 C 
HETATM    2  C   UNL     1      -2.732   3.841 -33.129  1.00  0.00     0.029 C 
HETATM    3  C   UNL     1      -3.332   2.702 -32.300  1.00  0.00     0.127 C 
HETATM    4  N   UNL     1      -4.642   3.081 -31.782  1.00  0.00    -0.348 N 
HETATM    5  C   UNL     1      -5.836   2.383 -31.935  1.00  0.00     0.253 C 
HETATM    6  O   UNL     1      -6.847   2.633 -31.280  1.00  0.00    -0.267 OA
HETATM    7  C   UNL     1      -4.628   4.277 -30.949  1.00  0.00     0.127 C 
HETATM    8  C   UNL     1      -4.184   5.463 -31.797  1.00  0.00     0.029 C 
ENDROOT
BRANCH   5   9
HETATM    9  C   UNL     1      -5.952   1.313 -32.954  1.00  0.00     0.034 A 
HETATM   10  C   UNL     1      -5.369   0.069 -32.671  1.00  0.00     0.051 A 
HETATM   11  C   UNL     1      -5.586  -0.986 -33.566  1.00  0.00     0.086 A 
HETATM   12  C   UNL     1      -6.360  -0.773 -34.702  1.00  0.00     0.062 A 
HETATM   13  N   UNL     1      -5.161  -2.290 -33.503  1.00  0.00    -0.231 NA
HETATM   14  N   UNL     1      -6.389  -1.995 -35.326  1.00  0.00    -0.341 N 
HETATM   15  C   UNL     1      -6.956   0.452 -35.009  1.00  0.00     0.033 A 
HETATM   16  H   UNL     1      -6.899  -2.218 -36.169  1.00  0.00     0.167 HD
HETATM   17  C   UNL     1      -5.665  -2.881 -34.569  1.00  0.00     0.128 A 
HETATM   18  C   UNL     1      -6.753   1.491 -34.093  1.00  0.00     0.019 A 
BRANCH  17  19
HETATM   19  C   UNL     1      -5.554  -4.323 -34.907  1.00  0.00     0.242 C 
BRANCH  19  20
HETATM   20  O   UNL     1      -6.876  -4.798 -35.124  1.00  0.00    -0.393 OA
HETATM   21  H   UNL     1      -6.888  -5.116 -36.050  1.00  0.00     0.209 HD
ENDBRANCH  19  20
ENDBRANCH  17  19
ENDBRANCH   5   9
BRANCH   1  22
HETATM   22  C   UNL     1      -1.666   5.603 -31.506  1.00  0.00    -0.051 A 
HETATM   23  C   UNL     1      -0.805   4.673 -30.911  1.00  0.00     0.044 A 
HETATM   24  C   UNL     1       0.222   5.098 -30.068  1.00  0.00     0.066 A 
HETATM   25  C   UNL     1       0.422   6.445 -29.795  1.00  0.00     0.036 A 
HETATM   26  C   UNL     1      -0.419   7.386 -30.381  1.00  0.00     0.003 A 
HETATM   27  C   UNL     1      -1.448   6.968 -31.228  1.00  0.00     0.007 A 
BRANCH  24  28
HETATM   28  O   UNL     1       1.028   4.140 -29.523  1.00  0.00    -0.361 OA
HETATM   29  H   UNL     1       1.159   3.438 -30.180  1.00  0.00     0.217 HD
ENDBRANCH  24  28
ENDBRANCH   1  22
TORSDOF 5
ENDMDL
MODEL 5
REMARK VINA RESULT:      -8.7      2.480      3.022
REMARK  5 active torsions:
REMARK  status: ('A' for Active; 'I' for Inactive)
REMARK    1  A    between atoms: C_3  and  O_4 
REMARK    2  A    between atoms: C_6  and  C_7 
REMARK       I    between atoms: N_10  and  C_11 
REMARK    3  A    between atoms: C_11  and  C_12 
REMARK    4  A    between atoms: C_18  and  C_19 
REMARK    5  A    between atoms: C_19  and  O_20 
ROOT
HETATM    1  C   UNL     1      -7.513  -0.767 -34.801  1.00  0.00     0.022 C 
HETATM    2  C   UNL     1      -8.517  -0.454 -33.664  1.00  0.00     0.029 C 
HETATM    3  C   UNL     1      -8.074   0.670 -32.722  1.00  0.00     0.127 C 
HETATM    4  N   UNL     1      -7.611   1.824 -33.483  1.00  0.00    -0.348 N 
HETATM    5  C   UNL     1      -8.058   3.136 -33.369  1.00  0.00     0.253 C 
HETATM    6  O   UNL     1      -7.467   4.092 -33.869  1.00  0.00    -0.267 OA
HETATM    7  C   UNL     1      -6.500   1.535 -34.382  1.00  0.00     0.127 C 
HETATM    8  C   UNL     1      -6.964   0.533 -35.433  1.00  0.00     0.029 C 
ENDROOT
BRANCH   5   9
HETATM    9  C   UNL     1      -9.326   3.436 -32.661  1.00  0.00     0.034 A 
HETATM   10  C   UNL     1     -10.530   3.172 -33.330  1.00  0.00     0.051 A 
HETATM   11  C   UNL     1     -11.730   3.326 -32.624  1.00  0.00     0.086 A 
HETATM   12  C   UNL     1     -11.697   3.737 -31.296  1.00  0.00     0.062 A 
HETATM   13  N   UNL     1     -13.022   3.103 -33.033  1.00  0.00    -0.231 NA
HETATM   14  N   UNL     1     -13.014   3.756 -30.914  1.00  0.00    -0.341 N 
HETATM   15  C   UNL     1     -10.514   4.004 -30.603  1.00  0.00     0.033 A 
HETATM   16  H   UNL     1     -13.360   3.972 -29.990  1.00  0.00     0.167 HD
HETATM   17  C   UNL     1     -13.777   3.359 -31.983  1.00  0.00     0.128 A 
HETATM   18  C   UNL     1      -9.321   3.821 -31.312  1.00  0.00     0.019 A 
BRANCH  17  19
HETATM   19  C   UNL     1     -15.249   3.184 -31.898  1.00  0.00     0.242 C 
BRANCH  19  20
HETATM   20  O   UNL     1     -15.485   1.822 -31.570  1.00  0.00    -0.393 OA
HETATM   21  H   UNL     1     -14.598   1.416 -31.492  1.00  0.00     0.209 HD
ENDBRANCH  19  20
ENDBRANCH  17  19
ENDBRANCH   5   9
BRANCH   1  22
HETATM   22  C   UNL     1      -6.394  -1.754 -34.489  1.00  0.00    -0.051 A 
HETATM   23  C   UNL     1      -6.425  -3.110 -34.839  1.00  0.00     0.044 A 
HETATM   24  C   UNL     1      -5.352  -3.945 -34.529  1.00  0.00     0.066 A 
HETATM   25  C   UNL     1      -4.227  -3.462 -33.871  1.00  0.00     0.036 A 
HETATM   26  C   UNL     1      -4.174  -2.116 -33.521  1.00  0.00     0.003 A 
HETATM   27  C   UNL     1      -5.244  -1.274 -33.830  1.00  0.00     0.007 A 
BRANCH  24  28
HETATM   28  O   UNL     1      -5.444  -5.255 -34.900  1.00  0.00    -0.361 OA
HETATM   29  H   UNL     1      -6.382  -5.502 -34.928  1.00  0.00     0.217 HD
ENDBRANCH  24  28
ENDBRANCH   1  22
TORSDOF 5
ENDMDL
MODEL 6
REMARK VINA RESULT:      -8.6      2.329      3.509
REMARK  5 active torsions:
REMARK  status: ('A' for Active; 'I' for Inactive)
REMARK    1  A    between atoms: C_3  and  O_4 
REMARK    2  A    between atoms: C_6  and  C_7 
REMARK       I    between atoms: N_10  and  C_11 
REMARK    3  A    between atoms: C_11  and  C_12 
REMARK    4  A    between atoms: C_18  and  C_19 
REMARK    5  A    between atoms: C_19  and  O_20 
ROOT
HETATM    1  C   UNL     1      -7.698  -0.394 -33.868  1.00  0.00     0.022 C 
HETATM    2  C   UNL     1      -9.061  -0.504 -33.141  1.00  0.00     0.029 C 
HETATM    3  C   UNL     1      -9.647   0.838 -32.692  1.00  0.00     0.127 C 
HETATM    4  N   UNL     1      -9.592   1.810 -33.778  1.00  0.00    -0.348 N 
HETATM    5  C   UNL     1     -10.652   2.551 -34.292  1.00  0.00     0.253 C 
HETATM    6  O   UNL     1     -10.495   3.515 -35.041  1.00  0.00    -0.267 OA
HETATM    7  C   UNL     1      -8.248   2.060 -34.283  1.00  0.00     0.127 C 
HETATM    8  C   UNL     1      -7.700   0.770 -34.884  1.00  0.00     0.029 C 
ENDROOT
BRANCH   5   9
HETATM    9  C   UNL     1     -12.051   2.168 -33.987  1.00  0.00     0.034 A 
HETATM   10  C   UNL     1     -12.756   2.941 -33.053  1.00  0.00     0.051 A 
HETATM   11  C   UNL     1     -14.115   2.669 -32.856  1.00  0.00     0.086 A 
HETATM   12  C   UNL     1     -14.723   1.648 -33.579  1.00  0.00     0.062 A 
HETATM   13  N   UNL     1     -15.024   3.293 -32.036  1.00  0.00    -0.231 NA
HETATM   14  N   UNL     1     -16.031   1.674 -33.169  1.00  0.00    -0.341 N 
HETATM   15  C   UNL     1     -14.049   0.865 -34.518  1.00  0.00     0.033 A 
HETATM   16  H   UNL     1     -16.776   1.090 -33.522  1.00  0.00     0.167 HD
HETATM   17  C   UNL     1     -16.173   2.683 -32.249  1.00  0.00     0.128 A 
HETATM   18  C   UNL     1     -12.697   1.163 -34.724  1.00  0.00     0.019 A 
BRANCH  17  19
HETATM   19  C   UNL     1     -17.484   3.050 -31.655  1.00  0.00     0.242 C 
BRANCH  19  20
HETATM   20  O   UNL     1     -18.487   2.471 -32.479  1.00  0.00    -0.393 OA
HETATM   21  H   UNL     1     -19.101   3.201 -32.693  1.00  0.00     0.209 HD
ENDBRANCH  19  20
ENDBRANCH  17  19
ENDBRANCH   5   9
BRANCH   1  22
HETATM   22  C   UNL     1      -6.445  -0.377 -32.998  1.00  0.00    -0.051 A 
HETATM   23  C   UNL     1      -6.411   0.096 -31.681  1.00  0.00     0.044 A 
HETATM   24  C   UNL     1      -5.226   0.064 -30.948  1.00  0.00     0.066 A 
HETATM   25  C   UNL     1      -4.051  -0.438 -31.496  1.00  0.00     0.036 A 
HETATM   26  C   UNL     1      -4.066  -0.919 -32.801  1.00  0.00     0.003 A 
HETATM   27  C   UNL     1      -5.250  -0.891 -33.541  1.00  0.00     0.007 A 
BRANCH  24  28
HETATM   28  O   UNL     1      -5.261   0.538 -29.669  1.00  0.00    -0.361 OA
HETATM   29  H   UNL     1      -4.851  -0.121 -29.085  1.00  0.00     0.217 HD
ENDBRANCH  24  28
ENDBRANCH   1  22
TORSDOF 5
ENDMDL
MODEL 7
REMARK VINA RESULT:      -8.6      3.416      3.607
REMARK  5 active torsions:
REMARK  status: ('A' for Active; 'I' for Inactive)
REMARK    1  A    between atoms: C_3  and  O_4 
REMARK    2  A    between atoms: C_6  and  C_7 
REMARK       I    between atoms: N_10  and  C_11 
REMARK    3  A    between atoms: C_11  and  C_12 
REMARK    4  A    between atoms: C_18  and  C_19 
REMARK    5  A    between atoms: C_19  and  O_20 
ROOT
HETATM    1  C   UNL     1      -5.245  -0.693 -33.993  1.00  0.00     0.022 C 
HETATM    2  C   UNL     1      -6.544   0.129 -34.180  1.00  0.00     0.029 C 
HETATM    3  C   UNL     1      -7.440   0.185 -32.940  1.00  0.00     0.127 C 
HETATM    4  N   UNL     1      -6.655   0.514 -31.755  1.00  0.00    -0.348 N 
HETATM    5  C   UNL     1      -6.892   1.551 -30.857  1.00  0.00     0.253 C 
HETATM    6  O   UNL     1      -6.336   1.628 -29.762  1.00  0.00    -0.267 OA
HETATM    7  C   UNL     1      -5.575  -0.423 -31.480  1.00  0.00     0.127 C 
HETATM    8  C   UNL     1      -4.579  -0.381 -32.634  1.00  0.00     0.029 C 
ENDROOT
BRANCH   5   9
HETATM    9  C   UNL     1      -7.811   2.657 -31.215  1.00  0.00     0.034 A 
HETATM   10  C   UNL     1      -9.102   2.641 -30.667  1.00  0.00     0.051 A 
HETATM   11  C   UNL     1      -9.932   3.746 -30.892  1.00  0.00     0.086 A 
HETATM   12  C   UNL     1      -9.463   4.816 -31.647  1.00  0.00     0.062 A 
HETATM   13  N   UNL     1     -11.208   3.988 -30.445  1.00  0.00    -0.231 NA
HETATM   14  N   UNL     1     -10.499   5.715 -31.643  1.00  0.00    -0.341 N 
HETATM   15  C   UNL     1      -8.182   4.861 -32.201  1.00  0.00     0.033 A 
HETATM   16  H   UNL     1     -10.489   6.632 -32.066  1.00  0.00     0.167 HD
HETATM   17  C   UNL     1     -11.525   5.184 -30.902  1.00  0.00     0.128 A 
HETATM   18  C   UNL     1      -7.353   3.762 -31.948  1.00  0.00     0.019 A 
BRANCH  17  19
HETATM   19  C   UNL     1     -12.778   5.928 -30.618  1.00  0.00     0.242 C 
BRANCH  19  20
HETATM   20  O   UNL     1     -13.485   5.186 -29.634  1.00  0.00    -0.393 OA
HETATM   21  H   UNL     1     -13.406   4.249 -29.907  1.00  0.00     0.209 HD
ENDBRANCH  19  20
ENDBRANCH  17  19
ENDBRANCH   5   9
BRANCH   1  22
HETATM   22  C   UNL     1      -5.329  -2.194 -34.245  1.00  0.00    -0.051 A 
HETATM   23  C   UNL     1      -4.286  -3.092 -33.990  1.00  0.00     0.044 A 
HETATM   24  C   UNL     1      -4.449  -4.455 -34.235  1.00  0.00     0.066 A 
HETATM   25  C   UNL     1      -5.643  -4.961 -34.733  1.00  0.00     0.036 A 
HETATM   26  C   UNL     1      -6.695  -4.087 -34.988  1.00  0.00     0.003 A 
HETATM   27  C   UNL     1      -6.539  -2.720 -34.743  1.00  0.00     0.007 A 
BRANCH  24  28
HETATM   28  O   UNL     1      -3.394  -5.276 -33.961  1.00  0.00    -0.361 OA
HETATM   29  H   UNL     1      -2.572  -4.775 -34.089  1.00  0.00     0.217 HD
ENDBRANCH  24  28
ENDBRANCH   1  22
TORSDOF 5
ENDMDL
MODEL 8
REMARK VINA RESULT:      -8.6      2.355      2.915
REMARK  5 active torsions:
REMARK  status: ('A' for Active; 'I' for Inactive)
REMARK    1  A    between atoms: C_3  and  O_4 
REMARK    2  A    between atoms: C_6  and  C_7 
REMARK       I    between atoms: N_10  and  C_11 
REMARK    3  A    between atoms: C_11  and  C_12 
REMARK    4  A    between atoms: C_18  and  C_19 
REMARK    5  A    between atoms: C_19  and  O_20 
ROOT
HETATM    1  C   UNL     1      -5.635  -0.598 -34.015  1.00  0.00     0.022 C 
HETATM    2  C   UNL     1      -6.542   0.244 -34.946  1.00  0.00     0.029 C 
HETATM    3  C   UNL     1      -8.002   0.334 -34.493  1.00  0.00     0.127 C 
HETATM    4  N   UNL     1      -8.078   0.666 -33.075  1.00  0.00    -0.348 N 
HETATM    5  C   UNL     1      -8.783   1.719 -32.499  1.00  0.00     0.253 C 
HETATM    6  O   UNL     1      -8.994   1.802 -31.290  1.00  0.00    -0.267 OA
HETATM    7  C   UNL     1      -7.401  -0.286 -32.204  1.00  0.00     0.127 C 
HETATM    8  C   UNL     1      -5.912  -0.278 -32.529  1.00  0.00     0.029 C 
ENDROOT
BRANCH   5   9
HETATM    9  C   UNL     1      -9.278   2.837 -33.338  1.00  0.00     0.034 A 
HETATM   10  C   UNL     1     -10.617   2.804 -33.752  1.00  0.00     0.051 A 
HETATM   11  C   UNL     1     -11.129   3.916 -34.432  1.00  0.00     0.086 A 
HETATM   12  C   UNL     1     -10.305   5.008 -34.681  1.00  0.00     0.062 A 
HETATM   13  N   UNL     1     -12.398   4.145 -34.907  1.00  0.00    -0.231 NA
HETATM   14  N   UNL     1     -11.118   5.907 -35.324  1.00  0.00    -0.341 N 
HETATM   15  C   UNL     1      -8.970   5.071 -34.278  1.00  0.00     0.033 A 
HETATM   16  H   UNL     1     -10.856   6.837 -35.619  1.00  0.00     0.167 HD
HETATM   17  C   UNL     1     -12.369   5.354 -35.432  1.00  0.00     0.128 A 
HETATM   18  C   UNL     1      -8.477   3.964 -33.577  1.00  0.00     0.019 A 
BRANCH  17  19
HETATM   19  C   UNL     1     -13.525   6.089 -36.004  1.00  0.00     0.242 C 
BRANCH  19  20
HETATM   20  O   UNL     1     -14.449   6.296 -34.944  1.00  0.00    -0.393 OA
HETATM   21  H   UNL     1     -15.310   5.978 -35.283  1.00  0.00     0.209 HD
ENDBRANCH  19  20
ENDBRANCH  17  19
ENDBRANCH   5   9
BRANCH   1  22
HETATM   22  C   UNL     1      -5.585  -2.101 -34.266  1.00  0.00    -0.051 A 
HETATM   23  C   UNL     1      -4.443  -2.889 -34.083  1.00  0.00     0.044 A 
HETATM   24  C   UNL     1      -4.485  -4.263 -34.321  1.00  0.00     0.066 A 
HETATM   25  C   UNL     1      -5.653  -4.887 -34.742  1.00  0.00     0.036 A 
HETATM   26  C   UNL     1      -6.801  -4.122 -34.924  1.00  0.00     0.003 A 
HETATM   27  C   UNL     1      -6.766  -2.747 -34.685  1.00  0.00     0.007 A 
BRANCH  24  28
HETATM   28  O   UNL     1      -3.338  -4.974 -34.120  1.00  0.00    -0.361 OA
HETATM   29  H   UNL     1      -3.163  -5.014 -33.166  1.00  0.00     0.217 HD
ENDBRANCH  24  28
ENDBRANCH   1  22
TORSDOF 5
ENDMDL
MODEL 9
REMARK VINA RESULT:      -8.5      4.401      6.884
REMARK  5 active torsions:
REMARK  status: ('A' for Active; 'I' for Inactive)
REMARK    1  A    between atoms: C_3  and  O_4 
REMARK    2  A    between atoms: C_6  and  C_7 
REMARK       I    between atoms: N_10  and  C_11 
REMARK    3  A    between atoms: C_11  and  C_12 
REMARK    4  A    between atoms: C_18  and  C_19 
REMARK    5  A    between atoms: C_19  and  O_20 
ROOT
HETATM    1  C   UNL     1      -6.743  -0.713 -32.916  1.00  0.00     0.022 C 
HETATM    2  C   UNL     1      -5.742   0.162 -32.123  1.00  0.00     0.029 C 
HETATM    3  C   UNL     1      -5.076   1.267 -32.948  1.00  0.00     0.127 C 
HETATM    4  N   UNL     1      -6.072   1.999 -33.722  1.00  0.00    -0.348 N 
HETATM    5  C   UNL     1      -6.282   3.375 -33.727  1.00  0.00     0.253 C 
HETATM    6  O   UNL     1      -6.974   3.944 -34.570  1.00  0.00    -0.267 OA
HETATM    7  C   UNL     1      -6.844   1.166 -34.636  1.00  0.00     0.127 C 
HETATM    8  C   UNL     1      -7.645   0.155 -33.823  1.00  0.00     0.029 C 
ENDROOT
BRANCH   5   9
HETATM    9  C   UNL     1      -5.703   4.224 -32.659  1.00  0.00     0.034 A 
HETATM   10  C   UNL     1      -6.345   4.242 -31.413  1.00  0.00     0.051 A 
HETATM   11  C   UNL     1      -5.734   4.936 -30.361  1.00  0.00     0.086 A 
HETATM   12  C   UNL     1      -4.523   5.584 -30.577  1.00  0.00     0.062 A 
HETATM   13  N   UNL     1      -6.136   5.076 -29.055  1.00  0.00    -0.231 NA
HETATM   14  N   UNL     1      -4.204   6.124 -29.357  1.00  0.00    -0.341 N 
HETATM   15  C   UNL     1      -3.858   5.580 -31.805  1.00  0.00     0.033 A 
HETATM   16  H   UNL     1      -3.361   6.634 -29.137  1.00  0.00     0.167 HD
HETATM   17  C   UNL     1      -5.193   5.787 -28.467  1.00  0.00     0.128 A 
HETATM   18  C   UNL     1      -4.466   4.863 -32.842  1.00  0.00     0.019 A 
BRANCH  17  19
HETATM   19  C   UNL     1      -5.129   6.137 -27.026  1.00  0.00     0.242 C 
BRANCH  19  20
HETATM   20  O   UNL     1      -4.542   5.029 -26.357  1.00  0.00    -0.393 OA
HETATM   21  H   UNL     1      -4.655   4.270 -26.964  1.00  0.00     0.209 HD
ENDBRANCH  19  20
ENDBRANCH  17  19
ENDBRANCH   5   9
BRANCH   1  22
HETATM   22  C   UNL     1      -6.175  -1.910 -33.670  1.00  0.00    -0.051 A 
HETATM   23  C   UNL     1      -6.959  -2.888 -34.295  1.00  0.00     0.044 A 
HETATM   24  C   UNL     1      -6.360  -3.946 -34.978  1.00  0.00     0.066 A 
HETATM   25  C   UNL     1      -4.978  -4.061 -35.062  1.00  0.00     0.036 A 
HETATM   26  C   UNL     1      -4.181  -3.096 -34.454  1.00  0.00     0.003 A 
HETATM   27  C   UNL     1      -4.774  -2.033 -33.770  1.00  0.00     0.007 A 
BRANCH  24  28
HETATM   28  O   UNL     1      -7.182  -4.862 -35.567  1.00  0.00    -0.361 OA
HETATM   29  H   UNL     1      -6.635  -5.486 -36.073  1.00  0.00     0.217 HD
ENDBRANCH  24  28
ENDBRANCH   1  22
TORSDOF 5
ENDMDL
MODEL 10
REMARK VINA RESULT:      -8.4      2.450      3.040
REMARK  5 active torsions:
REMARK  status: ('A' for Active; 'I' for Inactive)
REMARK    1  A    between atoms: C_3  and  O_4 
REMARK    2  A    between atoms: C_6  and  C_7 
REMARK       I    between atoms: N_10  and  C_11 
REMARK    3  A    between atoms: C_11  and  C_12 
REMARK    4  A    between atoms: C_18  and  C_19 
REMARK    5  A    between atoms: C_19  and  O_20 
ROOT
HETATM    1  C   UNL     1      -5.332  -0.738 -33.961  1.00  0.00     0.022 C 
HETATM    2  C   UNL     1      -6.746  -0.113 -34.052  1.00  0.00     0.029 C 
HETATM    3  C   UNL     1      -7.525  -0.121 -32.734  1.00  0.00     0.127 C 
HETATM    4  N   UNL     1      -6.692   0.371 -31.643  1.00  0.00    -0.348 N 
HETATM    5  C   UNL     1      -6.990   1.407 -30.763  1.00  0.00     0.253 C 
HETATM    6  O   UNL     1      -6.354   1.613 -29.730  1.00  0.00    -0.267 OA
HETATM    7  C   UNL     1      -5.468  -0.394 -31.439  1.00  0.00     0.127 C 
HETATM    8  C   UNL     1      -4.597  -0.272 -32.684  1.00  0.00     0.029 C 
ENDROOT
BRANCH   5   9
HETATM    9  C   UNL     1      -8.086   2.358 -31.070  1.00  0.00     0.034 A 
HETATM   10  C   UNL     1      -9.049   1.968 -32.011  1.00  0.00     0.051 A 
HETATM   11  C   UNL     1     -10.158   2.800 -32.210  1.00  0.00     0.086 A 
HETATM   12  C   UNL     1     -10.270   3.980 -31.483  1.00  0.00     0.062 A 
HETATM   13  N   UNL     1     -11.242   2.632 -33.037  1.00  0.00    -0.231 NA
HETATM   14  N   UNL     1     -11.460   4.522 -31.897  1.00  0.00    -0.341 N 
HETATM   15  C   UNL     1      -9.329   4.392 -30.537  1.00  0.00     0.033 A 
HETATM   16  H   UNL     1     -11.881   5.369 -31.543  1.00  0.00     0.167 HD
HETATM   17  C   UNL     1     -12.018   3.677 -32.824  1.00  0.00     0.128 A 
HETATM   18  C   UNL     1      -8.239   3.539 -30.328  1.00  0.00     0.019 A 
BRANCH  17  19
HETATM   19  C   UNL     1     -13.355   3.913 -33.424  1.00  0.00     0.242 C 
BRANCH  19  20
HETATM   20  O   UNL     1     -13.656   2.776 -34.222  1.00  0.00    -0.393 OA
HETATM   21  H   UNL     1     -12.810   2.522 -34.642  1.00  0.00     0.209 HD
ENDBRANCH  19  20
ENDBRANCH  17  19
ENDBRANCH   5   9
BRANCH   1  22
HETATM   22  C   UNL     1      -5.225  -2.247 -34.150  1.00  0.00    -0.051 A 
HETATM   23  C   UNL     1      -6.204  -3.031 -34.772  1.00  0.00     0.044 A 
HETATM   24  C   UNL     1      -6.022  -4.406 -34.918  1.00  0.00     0.066 A 
HETATM   25  C   UNL     1      -4.873  -5.036 -34.457  1.00  0.00     0.036 A 
HETATM   26  C   UNL     1      -3.885  -4.274 -33.841  1.00  0.00     0.003 A 
HETATM   27  C   UNL     1      -4.059  -2.896 -33.694  1.00  0.00     0.007 A 
BRANCH  24  28
HETATM   28  O   UNL     1      -7.013  -5.112 -35.536  1.00  0.00    -0.361 OA
HETATM   29  H   UNL     1      -6.617  -5.642 -36.247  1.00  0.00     0.217 HD
ENDBRANCH  24  28
ENDBRANCH   1  22
TORSDOF 5
ENDMDL
