MODEL 1
REMARK VINA RESULT:      -8.1      0.000      0.000
REMARK  7 active torsions:
REMARK  status: ('A' for Active; 'I' for Inactive)
REMARK    1  A    between atoms: C_2  and  O_3 
REMARK    2  A    between atoms: O_3  and  C_4 
REMARK    3  A    between atoms: C_4  and  C_5 
REMARK    4  A    between atoms: C_10  and  N_11 
REMARK       I    between atoms: N_11  and  C_12 
REMARK       I    between atoms: C_12  and  N_13 
REMARK    5  A    between atoms: N_13  and  N_14 
REMARK       I    between atoms: N_14  and  C_15 
REMARK    6  A    between atoms: C_15  and  C_16 
REMARK    7  A    between atoms: C_19  and  O_20 
ROOT
HETATM    1  N   UNL     1      -7.599   0.838 -34.437  1.00  0.00    -0.293 N 
HETATM    2  C   UNL     1      -8.875   0.718 -33.923  1.00  0.00     0.340 C 
HETATM    3  N   UNL     1      -9.785   1.474 -34.642  1.00  0.00    -0.249 N 
HETATM    4  O   UNL     1      -9.196   0.067 -32.929  1.00  0.00    -0.245 OA
HETATM    5  H   UNL     1      -7.453   1.466 -35.213  1.00  0.00     0.172 HD
HETATM    6  H   UNL     1      -9.625   1.634 -35.635  1.00  0.00     0.192 HD
ENDROOT
BRANCH   1   7
HETATM    7  C   UNL     1      -6.491   0.242 -33.868  1.00  0.00     0.116 A 
HETATM    8  N   UNL     1      -5.574   0.938 -33.130  1.00  0.00    -0.345 N 
HETATM    9  C   UNL     1      -4.563   0.108 -32.721  1.00  0.00     0.024 A 
HETATM   10  H   UNL     1      -5.646   1.934 -32.947  1.00  0.00     0.167 HD
HETATM   11  C   UNL     1      -4.828  -1.169 -33.211  1.00  0.00     0.071 A 
HETATM   12  C   UNL     1      -3.428   0.630 -31.914  1.00  0.00     0.069 C 
HETATM   13  C   UNL     1      -6.086  -1.081 -33.923  1.00  0.00     0.000 A 
HETATM   14  C   UNL     1      -6.798  -2.201 -34.603  1.00  0.00     0.053 C 
BRANCH  11  15
HETATM   15  C   UNL     1      -3.950  -2.331 -33.013  1.00  0.00     0.295 C 
HETATM   16  O   UNL     1      -3.406  -2.597 -31.947  1.00  0.00    -0.259 OA
BRANCH  15  17
HETATM   17  O   UNL     1      -3.792  -3.073 -34.149  1.00  0.00    -0.318 OA
BRANCH  17  18
HETATM   18  C   UNL     1      -3.603  -4.481 -33.961  1.00  0.00     0.174 C 
HETATM   19  C   UNL     1      -4.858  -5.238 -34.354  1.00  0.00     0.034 C 
ENDBRANCH  17  18
ENDBRANCH  15  17
ENDBRANCH  11  15
ENDBRANCH   1   7
BRANCH   3  20
HETATM   20  N   UNL     1     -11.143   1.371 -34.296  1.00  0.00    -0.262 N 
HETATM   21  C   UNL     1     -11.688   2.416 -33.577  1.00  0.00     0.270 C 
HETATM   22  O   UNL     1     -11.012   3.378 -33.217  1.00  0.00    -0.266 OA
HETATM   23  H   UNL     1     -11.690   0.696 -34.828  1.00  0.00     0.190 HD
BRANCH  21  24
HETATM   24  C   UNL     1     -13.143   2.347 -33.266  1.00  0.00     0.033 A 
HETATM   25  C   UNL     1     -14.001   1.416 -33.860  1.00  0.00     0.020 A 
HETATM   26  C   UNL     1     -15.351   1.381 -33.496  1.00  0.00     0.038 A 
HETATM   27  C   UNL     1     -15.859   2.260 -32.535  1.00  0.00     0.068 A 
HETATM   28  C   UNL     1     -15.004   3.189 -31.941  1.00  0.00     0.038 A 
HETATM   29  C   UNL     1     -13.653   3.229 -32.304  1.00  0.00     0.020 A 
BRANCH  27  30
HETATM   30  O   UNL     1     -17.191   2.108 -32.266  1.00  0.00    -0.356 OA
HETATM   31  C   UNL     1     -17.889   3.259 -31.805  1.00  0.00     0.210 C 
ENDBRANCH  27  30
ENDBRANCH  21  24
ENDBRANCH   3  20
TORSDOF 7
ENDMDL
MODEL 2
REMARK VINA RESULT:      -8.0      5.902     10.153
REMARK  7 active torsions:
REMARK  status: ('A' for Active; 'I' for Inactive)
REMARK    1  A    between atoms: C_2  and  O_3 
REMARK    2  A    between atoms: O_3  and  C_4 
REMARK    3  A    between atoms: C_4  and  C_5 
REMARK    4  A    between atoms: C_10  and  N_11 
REMARK       I    between atoms: N_11  and  C_12 
REMARK       I    between atoms: C_12  and  N_13 
REMARK    5  A    between atoms: N_13  and  N_14 
REMARK       I    between atoms: N_14  and  C_15 
REMARK    6  A    between atoms: C_15  and  C_16 
REMARK    7  A    between atoms: C_19  and  O_20 
ROOT
HETATM    1  N   UNL     1      -3.914   4.879 -31.704  1.00  0.00    -0.293 N 
HETATM    2  C   UNL     1      -3.736   3.516 -31.836  1.00  0.00     0.340 C 
HETATM    3  N   UNL     1      -4.873   2.900 -32.328  1.00  0.00    -0.249 N 
HETATM    4  O   UNL     1      -2.725   2.885 -31.526  1.00  0.00    -0.245 OA
HETATM    5  H   UNL     1      -4.821   5.265 -31.922  1.00  0.00     0.172 HD
HETATM    6  H   UNL     1      -5.489   3.417 -32.953  1.00  0.00     0.192 HD
ENDROOT
BRANCH   1   7
HETATM    7  C   UNL     1      -2.960   5.722 -31.172  1.00  0.00     0.116 A 
HETATM    8  N   UNL     1      -1.649   5.696 -31.565  1.00  0.00    -0.345 N 
HETATM    9  C   UNL     1      -0.920   6.610 -30.850  1.00  0.00     0.024 A 
HETATM   10  H   UNL     1      -1.292   5.062 -32.273  1.00  0.00     0.167 HD
HETATM   11  C   UNL     1      -1.781   7.249 -29.961  1.00  0.00     0.071 A 
HETATM   12  C   UNL     1       0.541   6.766 -31.078  1.00  0.00     0.069 C 
HETATM   13  C   UNL     1      -3.098   6.693 -30.195  1.00  0.00     0.000 A 
HETATM   14  C   UNL     1      -4.359   7.080 -29.500  1.00  0.00     0.053 C 
BRANCH  11  15
HETATM   15  C   UNL     1      -1.362   8.273 -28.993  1.00  0.00     0.295 C 
HETATM   16  O   UNL     1      -1.586   9.470 -29.131  1.00  0.00    -0.259 OA
BRANCH  15  17
HETATM   17  O   UNL     1      -0.683   7.748 -27.930  1.00  0.00    -0.318 OA
BRANCH  17  18
HETATM   18  C   UNL     1       0.172   8.653 -27.219  1.00  0.00     0.174 C 
HETATM   19  C   UNL     1       1.589   8.569 -27.753  1.00  0.00     0.034 C 
ENDBRANCH  17  18
ENDBRANCH  15  17
ENDBRANCH  11  15
ENDBRANCH   1   7
BRANCH   3  20
HETATM   20  N   UNL     1      -4.806   1.525 -32.611  1.00  0.00    -0.262 N 
HETATM   21  C   UNL     1      -5.738   1.021 -33.497  1.00  0.00     0.270 C 
HETATM   22  O   UNL     1      -6.616   1.728 -33.987  1.00  0.00    -0.266 OA
HETATM   23  H   UNL     1      -3.928   1.063 -32.381  1.00  0.00     0.190 HD
BRANCH  21  24
HETATM   24  C   UNL     1      -5.631  -0.421 -33.856  1.00  0.00     0.033 A 
HETATM   25  C   UNL     1      -4.482  -1.179 -33.607  1.00  0.00     0.020 A 
HETATM   26  C   UNL     1      -4.461  -2.539 -33.936  1.00  0.00     0.038 A 
HETATM   27  C   UNL     1      -5.578  -3.159 -34.503  1.00  0.00     0.068 A 
HETATM   28  C   UNL     1      -6.725  -2.404 -34.749  1.00  0.00     0.038 A 
HETATM   29  C   UNL     1      -6.751  -1.043 -34.424  1.00  0.00     0.020 A 
BRANCH  27  30
HETATM   30  O   UNL     1      -5.424  -4.492 -34.761  1.00  0.00    -0.356 OA
HETATM   31  C   UNL     1      -4.375  -5.163 -34.071  1.00  0.00     0.210 C 
ENDBRANCH  27  30
ENDBRANCH  21  24
ENDBRANCH   3  20
TORSDOF 7
ENDMDL
MODEL 3
REMARK VINA RESULT:      -7.7      5.749     10.230
REMARK  7 active torsions:
REMARK  status: ('A' for Active; 'I' for Inactive)
REMARK    1  A    between atoms: C_2  and  O_3 
REMARK    2  A    between atoms: O_3  and  C_4 
REMARK    3  A    between atoms: C_4  and  C_5 
REMARK    4  A    between atoms: C_10  and  N_11 
REMARK       I    between atoms: N_11  and  C_12 
REMARK       I    between atoms: C_12  and  N_13 
REMARK    5  A    between atoms: N_13  and  N_14 
REMARK       I    between atoms: N_14  and  C_15 
REMARK    6  A    between atoms: C_15  and  C_16 
REMARK    7  A    between atoms: C_19  and  O_20 
ROOT
HETATM    1  N   UNL     1      -4.411   2.371 -32.590  1.00  0.00    -0.293 N 
HETATM    2  C   UNL     1      -3.408   2.837 -31.764  1.00  0.00     0.340 C 
HETATM    3  N   UNL     1      -3.348   4.220 -31.770  1.00  0.00    -0.249 N 
HETATM    4  O   UNL     1      -2.619   2.145 -31.122  1.00  0.00    -0.245 OA
HETATM    5  H   UNL     1      -4.942   3.043 -33.124  1.00  0.00     0.172 HD
HETATM    6  H   UNL     1      -4.200   4.755 -31.923  1.00  0.00     0.192 HD
ENDROOT
BRANCH   1   7
HETATM    7  C   UNL     1      -4.645   1.030 -32.820  1.00  0.00     0.116 A 
HETATM    8  N   UNL     1      -3.846   0.043 -32.310  1.00  0.00    -0.345 N 
HETATM    9  C   UNL     1      -4.285  -1.187 -32.725  1.00  0.00     0.024 A 
HETATM   10  H   UNL     1      -3.034   0.227 -31.729  1.00  0.00     0.167 HD
HETATM   11  C   UNL     1      -5.405  -0.996 -33.533  1.00  0.00     0.071 A 
HETATM   12  C   UNL     1      -3.573  -2.428 -32.320  1.00  0.00     0.069 C 
HETATM   13  C   UNL     1      -5.647   0.432 -33.564  1.00  0.00     0.000 A 
HETATM   14  C   UNL     1      -6.755   1.126 -34.281  1.00  0.00     0.053 C 
BRANCH  11  15
HETATM   15  C   UNL     1      -6.140  -2.079 -34.200  1.00  0.00     0.295 C 
HETATM   16  O   UNL     1      -7.310  -2.352 -33.962  1.00  0.00    -0.259 OA
BRANCH  15  17
HETATM   17  O   UNL     1      -5.373  -2.760 -35.103  1.00  0.00    -0.318 OA
BRANCH  17  18
HETATM   18  C   UNL     1      -5.723  -4.133 -35.320  1.00  0.00     0.174 C 
HETATM   19  C   UNL     1      -4.928  -5.034 -34.394  1.00  0.00     0.034 C 
ENDBRANCH  17  18
ENDBRANCH  15  17
ENDBRANCH  11  15
ENDBRANCH   1   7
BRANCH   3  20
HETATM   20  N   UNL     1      -2.439   4.841 -30.897  1.00  0.00    -0.262 N 
HETATM   21  C   UNL     1      -2.233   6.197 -31.066  1.00  0.00     0.270 C 
HETATM   22  O   UNL     1      -2.784   6.829 -31.965  1.00  0.00    -0.266 OA
HETATM   23  H   UNL     1      -2.220   4.333 -30.042  1.00  0.00     0.190 HD
BRANCH  21  24
HETATM   24  C   UNL     1      -1.324   6.877 -30.101  1.00  0.00     0.033 A 
HETATM   25  C   UNL     1      -1.626   8.113 -29.520  1.00  0.00     0.020 A 
HETATM   26  C   UNL     1      -0.745   8.679 -28.593  1.00  0.00     0.038 A 
HETATM   27  C   UNL     1       0.434   8.022 -28.227  1.00  0.00     0.068 A 
HETATM   28  C   UNL     1       0.735   6.790 -28.805  1.00  0.00     0.038 A 
HETATM   29  C   UNL     1      -0.142   6.219 -29.735  1.00  0.00     0.020 A 
BRANCH  27  30
HETATM   30  O   UNL     1       1.194   8.683 -27.302  1.00  0.00    -0.356 OA
HETATM   31  C   UNL     1       1.545   7.963 -26.127  1.00  0.00     0.210 C 
ENDBRANCH  27  30
ENDBRANCH  21  24
ENDBRANCH   3  20
TORSDOF 7
ENDMDL
MODEL 4
REMARK VINA RESULT:      -7.6      5.872      9.638
REMARK  7 active torsions:
REMARK  status: ('A' for Active; 'I' for Inactive)
REMARK    1  A    between atoms: C_2  and  O_3 
REMARK    2  A    between atoms: O_3  and  C_4 
REMARK    3  A    between atoms: C_4  and  C_5 
REMARK    4  A    between atoms: C_10  and  N_11 
REMARK       I    between atoms: N_11  and  C_12 
REMARK       I    between atoms: C_12  and  N_13 
REMARK    5  A    between atoms: N_13  and  N_14 
REMARK       I    between atoms: N_14  and  C_15 
REMARK    6  A    between atoms: C_15  and  C_16 
REMARK    7  A    between atoms: C_19  and  O_20 
ROOT
HETATM    1  N   UNL     1      -3.403   3.729 -30.768  1.00  0.00    -0.293 N 
HETATM    2  C   UNL     1      -3.457   2.580 -31.533  1.00  0.00     0.340 C 
HETATM    3  N   UNL     1      -4.197   1.589 -30.911  1.00  0.00    -0.249 N 
HETATM    4  O   UNL     1      -2.896   2.405 -32.615  1.00  0.00    -0.245 OA
HETATM    5  H   UNL     1      -3.844   3.719 -29.860  1.00  0.00     0.172 HD
HETATM    6  H   UNL     1      -4.964   1.853 -30.296  1.00  0.00     0.192 HD
ENDROOT
BRANCH   1   7
HETATM    7  C   UNL     1      -2.675   4.846 -31.124  1.00  0.00     0.116 A 
HETATM    8  N   UNL     1      -1.434   5.113 -30.612  1.00  0.00    -0.345 N 
HETATM    9  C   UNL     1      -0.961   6.300 -31.108  1.00  0.00     0.024 A 
HETATM   10  H   UNL     1      -0.965   4.511 -29.943  1.00  0.00     0.167 HD
HETATM   11  C   UNL     1      -1.924   6.824 -31.967  1.00  0.00     0.071 A 
HETATM   12  C   UNL     1       0.366   6.825 -30.690  1.00  0.00     0.069 C 
HETATM   13  C   UNL     1      -3.011   5.867 -31.996  1.00  0.00     0.000 A 
HETATM   14  C   UNL     1      -4.264   5.975 -32.796  1.00  0.00     0.053 C 
BRANCH  11  15
HETATM   15  C   UNL     1      -1.798   8.110 -32.667  1.00  0.00     0.295 C 
HETATM   16  O   UNL     1      -1.685   8.213 -33.883  1.00  0.00    -0.259 OA
BRANCH  15  17
HETATM   17  O   UNL     1      -1.803   9.178 -31.815  1.00  0.00    -0.318 OA
BRANCH  17  18
HETATM   18  C   UNL     1      -2.711   9.098 -30.709  1.00  0.00     0.174 C 
HETATM   19  C   UNL     1      -4.122   9.422 -31.162  1.00  0.00     0.034 C 
ENDBRANCH  17  18
ENDBRANCH  15  17
ENDBRANCH  11  15
ENDBRANCH   1   7
BRANCH   3  20
HETATM   20  N   UNL     1      -4.423   0.397 -31.618  1.00  0.00    -0.262 N 
HETATM   21  C   UNL     1      -5.491   0.380 -32.494  1.00  0.00     0.270 C 
HETATM   22  O   UNL     1      -6.239   1.348 -32.623  1.00  0.00    -0.266 OA
HETATM   23  H   UNL     1      -3.643  -0.256 -31.657  1.00  0.00     0.190 HD
BRANCH  21  24
HETATM   24  C   UNL     1      -5.697  -0.856 -33.300  1.00  0.00     0.033 A 
HETATM   25  C   UNL     1      -4.652  -1.720 -33.640  1.00  0.00     0.020 A 
HETATM   26  C   UNL     1      -4.920  -2.884 -34.368  1.00  0.00     0.038 A 
HETATM   27  C   UNL     1      -6.225  -3.206 -34.754  1.00  0.00     0.068 A 
HETATM   28  C   UNL     1      -7.268  -2.346 -34.413  1.00  0.00     0.038 A 
HETATM   29  C   UNL     1      -7.005  -1.178 -33.687  1.00  0.00     0.020 A 
BRANCH  27  30
HETATM   30  O   UNL     1      -6.344  -4.378 -35.448  1.00  0.00    -0.356 OA
HETATM   31  C   UNL     1      -5.376  -5.386 -35.178  1.00  0.00     0.210 C 
ENDBRANCH  27  30
ENDBRANCH  21  24
ENDBRANCH   3  20
TORSDOF 7
ENDMDL
MODEL 5
REMARK VINA RESULT:      -7.6      1.602      1.788
REMARK  7 active torsions:
REMARK  status: ('A' for Active; 'I' for Inactive)
REMARK    1  A    between atoms: C_2  and  O_3 
REMARK    2  A    between atoms: O_3  and  C_4 
REMARK    3  A    between atoms: C_4  and  C_5 
REMARK    4  A    between atoms: C_10  and  N_11 
REMARK       I    between atoms: N_11  and  C_12 
REMARK       I    between atoms: C_12  and  N_13 
REMARK    5  A    between atoms: N_13  and  N_14 
REMARK       I    between atoms: N_14  and  C_15 
REMARK    6  A    between atoms: C_15  and  C_16 
REMARK    7  A    between atoms: C_19  and  O_20 
ROOT
HETATM    1  N   UNL     1      -8.372   2.092 -33.116  1.00  0.00    -0.293 N 
HETATM    2  C   UNL     1      -9.693   1.733 -32.935  1.00  0.00     0.340 C 
HETATM    3  N   UNL     1     -10.542   2.812 -33.115  1.00  0.00    -0.249 N 
HETATM    4  O   UNL     1     -10.103   0.618 -32.613  1.00  0.00    -0.245 OA
HETATM    5  H   UNL     1      -8.162   3.061 -33.304  1.00  0.00     0.172 HD
HETATM    6  H   UNL     1     -10.277   3.552 -33.763  1.00  0.00     0.192 HD
ENDROOT
BRANCH   1   7
HETATM    7  C   UNL     1      -7.317   1.223 -32.930  1.00  0.00     0.116 A 
HETATM    8  N   UNL     1      -6.605   1.163 -31.763  1.00  0.00    -0.345 N 
HETATM    9  C   UNL     1      -5.594   0.244 -31.869  1.00  0.00     0.024 A 
HETATM   10  H   UNL     1      -6.805   1.747 -30.958  1.00  0.00     0.167 HD
HETATM   11  C   UNL     1      -5.647  -0.312 -33.145  1.00  0.00     0.071 A 
HETATM   12  C   UNL     1      -4.662   0.002 -30.735  1.00  0.00     0.069 C 
HETATM   13  C   UNL     1      -6.777   0.302 -33.812  1.00  0.00     0.000 A 
HETATM   14  C   UNL     1      -7.254   0.011 -35.194  1.00  0.00     0.053 C 
BRANCH  11  15
HETATM   15  C   UNL     1      -4.700  -1.315 -33.652  1.00  0.00     0.295 C 
HETATM   16  O   UNL     1      -3.547  -1.056 -33.978  1.00  0.00    -0.259 OA
BRANCH  15  17
HETATM   17  O   UNL     1      -5.248  -2.563 -33.737  1.00  0.00    -0.318 OA
BRANCH  17  18
HETATM   18  C   UNL     1      -5.424  -3.087 -35.060  1.00  0.00     0.174 C 
HETATM   19  C   UNL     1      -6.563  -4.089 -35.083  1.00  0.00     0.034 C 
ENDBRANCH  17  18
ENDBRANCH  15  17
ENDBRANCH  11  15
ENDBRANCH   1   7
BRANCH   3  20
HETATM   20  N   UNL     1     -11.926   2.575 -33.063  1.00  0.00    -0.262 N 
HETATM   21  C   UNL     1     -12.686   3.459 -32.320  1.00  0.00     0.270 C 
HETATM   22  O   UNL     1     -12.176   4.388 -31.697  1.00  0.00    -0.266 OA
HETATM   23  H   UNL     1     -12.303   1.963 -33.784  1.00  0.00     0.190 HD
BRANCH  21  24
HETATM   24  C   UNL     1     -14.161   3.256 -32.315  1.00  0.00     0.033 A 
HETATM   25  C   UNL     1     -14.760   2.047 -32.686  1.00  0.00     0.020 A 
HETATM   26  C   UNL     1     -16.151   1.911 -32.624  1.00  0.00     0.038 A 
HETATM   27  C   UNL     1     -16.957   2.966 -32.185  1.00  0.00     0.068 A 
HETATM   28  C   UNL     1     -16.361   4.171 -31.815  1.00  0.00     0.038 A 
HETATM   29  C   UNL     1     -14.970   4.313 -31.877  1.00  0.00     0.020 A 
BRANCH  27  30
HETATM   30  O   UNL     1     -18.296   2.692 -32.162  1.00  0.00    -0.356 OA
HETATM   31  C   UNL     1     -19.058   3.114 -33.287  1.00  0.00     0.210 C 
ENDBRANCH  27  30
ENDBRANCH  21  24
ENDBRANCH   3  20
TORSDOF 7
ENDMDL
MODEL 6
REMARK VINA RESULT:      -7.5      4.793     10.563
REMARK  7 active torsions:
REMARK  status: ('A' for Active; 'I' for Inactive)
REMARK    1  A    between atoms: C_2  and  O_3 
REMARK    2  A    between atoms: O_3  and  C_4 
REMARK    3  A    between atoms: C_4  and  C_5 
REMARK    4  A    between atoms: C_10  and  N_11 
REMARK       I    between atoms: N_11  and  C_12 
REMARK       I    between atoms: C_12  and  N_13 
REMARK    5  A    between atoms: N_13  and  N_14 
REMARK       I    between atoms: N_14  and  C_15 
REMARK    6  A    between atoms: C_15  and  C_16 
REMARK    7  A    between atoms: C_19  and  O_20 
ROOT
HETATM    1  N   UNL     1      -8.396   4.416 -34.171  1.00  0.00    -0.293 N 
HETATM    2  C   UNL     1      -7.218   4.461 -33.454  1.00  0.00     0.340 C 
HETATM    3  N   UNL     1      -6.421   5.522 -33.850  1.00  0.00    -0.249 N 
HETATM    4  O   UNL     1      -6.863   3.655 -32.594  1.00  0.00    -0.245 OA
HETATM    5  H   UNL     1      -8.534   5.094 -34.906  1.00  0.00     0.172 HD
HETATM    6  H   UNL     1      -6.861   6.370 -34.202  1.00  0.00     0.192 HD
ENDROOT
BRANCH   1   7
HETATM    7  C   UNL     1      -9.339   3.419 -34.022  1.00  0.00     0.116 A 
HETATM    8  N   UNL     1      -9.053   2.212 -33.446  1.00  0.00    -0.345 N 
HETATM    9  C   UNL     1     -10.159   1.403 -33.462  1.00  0.00     0.024 A 
HETATM   10  H   UNL     1      -8.135   1.968 -33.087  1.00  0.00     0.167 HD
HETATM   11  C   UNL     1     -11.198   2.104 -34.071  1.00  0.00     0.071 A 
HETATM   12  C   UNL     1     -10.104   0.024 -32.907  1.00  0.00     0.069 C 
HETATM   13  C   UNL     1     -10.671   3.412 -34.401  1.00  0.00     0.000 A 
HETATM   14  C   UNL     1     -11.416   4.530 -35.047  1.00  0.00     0.053 C 
BRANCH  11  15
HETATM   15  C   UNL     1     -12.541   1.555 -34.308  1.00  0.00     0.295 C 
HETATM   16  O   UNL     1     -12.976   1.282 -35.420  1.00  0.00    -0.259 OA
BRANCH  15  17
HETATM   17  O   UNL     1     -13.258   1.398 -33.156  1.00  0.00    -0.318 OA
BRANCH  17  18
HETATM   18  C   UNL     1     -14.066   2.513 -32.759  1.00  0.00     0.174 C 
HETATM   19  C   UNL     1     -15.443   2.040 -32.330  1.00  0.00     0.034 C 
ENDBRANCH  17  18
ENDBRANCH  15  17
ENDBRANCH  11  15
ENDBRANCH   1   7
BRANCH   3  20
HETATM   20  N   UNL     1      -5.234   5.754 -33.137  1.00  0.00    -0.262 N 
HETATM   21  C   UNL     1      -4.054   5.718 -33.855  1.00  0.00     0.270 C 
HETATM   22  O   UNL     1      -4.033   5.453 -35.055  1.00  0.00    -0.266 OA
HETATM   23  H   UNL     1      -5.336   6.206 -32.230  1.00  0.00     0.190 HD
BRANCH  21  24
HETATM   24  C   UNL     1      -2.796   6.031 -33.120  1.00  0.00     0.033 A 
HETATM   25  C   UNL     1      -2.466   7.324 -32.702  1.00  0.00     0.020 A 
HETATM   26  C   UNL     1      -1.285   7.543 -31.984  1.00  0.00     0.038 A 
HETATM   27  C   UNL     1      -0.430   6.484 -31.667  1.00  0.00     0.068 A 
HETATM   28  C   UNL     1      -0.759   5.194 -32.083  1.00  0.00     0.038 A 
HETATM   29  C   UNL     1      -1.938   4.969 -32.803  1.00  0.00     0.020 A 
BRANCH  27  30
HETATM   30  O   UNL     1       0.680   6.839 -30.952  1.00  0.00    -0.356 OA
HETATM   31  C   UNL     1       0.483   7.167 -29.581  1.00  0.00     0.210 C 
ENDBRANCH  27  30
ENDBRANCH  21  24
ENDBRANCH   3  20
TORSDOF 7
ENDMDL
MODEL 7
REMARK VINA RESULT:      -7.5      6.967     11.287
REMARK  7 active torsions:
REMARK  status: ('A' for Active; 'I' for Inactive)
REMARK    1  A    between atoms: C_2  and  O_3 
REMARK    2  A    between atoms: O_3  and  C_4 
REMARK    3  A    between atoms: C_4  and  C_5 
REMARK    4  A    between atoms: C_10  and  N_11 
REMARK       I    between atoms: N_11  and  C_12 
REMARK       I    between atoms: C_12  and  N_13 
REMARK    5  A    between atoms: N_13  and  N_14 
REMARK       I    between atoms: N_14  and  C_15 
REMARK    6  A    between atoms: C_15  and  C_16 
REMARK    7  A    between atoms: C_19  and  O_20 
ROOT
HETATM    1  N   UNL     1      -2.891   3.346 -32.058  1.00  0.00    -0.293 N 
HETATM    2  C   UNL     1      -2.881   4.456 -31.237  1.00  0.00     0.340 C 
HETATM    3  N   UNL     1      -1.593   4.797 -30.860  1.00  0.00    -0.249 N 
HETATM    4  O   UNL     1      -3.870   5.066 -30.833  1.00  0.00    -0.245 OA
HETATM    5  H   UNL     1      -2.013   2.889 -32.255  1.00  0.00     0.172 HD
HETATM    6  H   UNL     1      -0.820   4.597 -31.492  1.00  0.00     0.192 HD
ENDROOT
BRANCH   1   7
HETATM    7  C   UNL     1      -4.049   2.755 -32.523  1.00  0.00     0.116 A 
HETATM    8  N   UNL     1      -5.138   3.480 -32.925  1.00  0.00    -0.345 N 
HETATM    9  C   UNL     1      -6.154   2.641 -33.301  1.00  0.00     0.024 A 
HETATM   10  H   UNL     1      -5.169   4.494 -32.912  1.00  0.00     0.167 HD
HETATM   11  C   UNL     1      -5.715   1.329 -33.137  1.00  0.00     0.071 A 
HETATM   12  C   UNL     1      -7.459   3.184 -33.764  1.00  0.00     0.069 C 
HETATM   13  C   UNL     1      -4.348   1.411 -32.665  1.00  0.00     0.000 A 
HETATM   14  C   UNL     1      -3.444   0.264 -32.367  1.00  0.00     0.053 C 
BRANCH  11  15
HETATM   15  C   UNL     1      -6.538   0.140 -33.402  1.00  0.00     0.295 C 
HETATM   16  O   UNL     1      -7.411  -0.264 -32.643  1.00  0.00    -0.259 OA
BRANCH  15  17
HETATM   17  O   UNL     1      -6.213  -0.475 -34.578  1.00  0.00    -0.318 OA
BRANCH  17  18
HETATM   18  C   UNL     1      -6.310  -1.905 -34.589  1.00  0.00     0.174 C 
HETATM   19  C   UNL     1      -4.938  -2.528 -34.411  1.00  0.00     0.034 C 
ENDBRANCH  17  18
ENDBRANCH  15  17
ENDBRANCH  11  15
ENDBRANCH   1   7
BRANCH   3  20
HETATM   20  N   UNL     1      -1.418   5.969 -30.105  1.00  0.00    -0.262 N 
HETATM   21  C   UNL     1      -0.258   6.069 -29.361  1.00  0.00     0.270 C 
HETATM   22  O   UNL     1       0.569   5.160 -29.325  1.00  0.00    -0.266 OA
HETATM   23  H   UNL     1      -1.997   6.764 -30.371  1.00  0.00     0.190 HD
BRANCH  21  24
HETATM   24  C   UNL     1      -0.033   7.337 -28.612  1.00  0.00     0.033 A 
HETATM   25  C   UNL     1       1.218   7.703 -28.104  1.00  0.00     0.020 A 
HETATM   26  C   UNL     1       1.369   8.925 -27.441  1.00  0.00     0.038 A 
HETATM   27  C   UNL     1       0.287   9.797 -27.286  1.00  0.00     0.068 A 
HETATM   28  C   UNL     1      -0.960   9.434 -27.794  1.00  0.00     0.038 A 
HETATM   29  C   UNL     1      -1.117   8.210 -28.456  1.00  0.00     0.020 A 
BRANCH  27  30
HETATM   30  O   UNL     1       0.579  10.961 -26.631  1.00  0.00    -0.356 OA
HETATM   31  C   UNL     1       1.346  10.851 -25.437  1.00  0.00     0.210 C 
ENDBRANCH  27  30
ENDBRANCH  21  24
ENDBRANCH   3  20
TORSDOF 7
ENDMDL
MODEL 8
REMARK VINA RESULT:      -7.4      6.273     10.118
REMARK  7 active torsions:
REMARK  status: ('A' for Active; 'I' for Inactive)
REMARK    1  A    between atoms: C_2  and  O_3 
REMARK    2  A    between atoms: O_3  and  C_4 
REMARK    3  A    between atoms: C_4  and  C_5 
REMARK    4  A    between atoms: C_10  and  N_11 
REMARK       I    between atoms: N_11  and  C_12 
REMARK       I    between atoms: C_12  and  N_13 
REMARK    5  A    between atoms: N_13  and  N_14 
REMARK       I    between atoms: N_14  and  C_15 
REMARK    6  A    between atoms: C_15  and  C_16 
REMARK    7  A    between atoms: C_19  and  O_20 
ROOT
HETATM    1  N   UNL     1      -7.280   4.161 -29.054  1.00  0.00    -0.293 N 
HETATM    2  C   UNL     1      -6.654   3.084 -29.650  1.00  0.00     0.340 C 
HETATM    3  N   UNL     1      -7.563   2.105 -30.014  1.00  0.00    -0.249 N 
HETATM    4  O   UNL     1      -5.441   2.953 -29.815  1.00  0.00    -0.245 OA
HETATM    5  H   UNL     1      -8.277   4.112 -28.907  1.00  0.00     0.172 HD
HETATM    6  H   UNL     1      -8.510   2.376 -30.270  1.00  0.00     0.192 HD
ENDROOT
BRANCH   1   7
HETATM    7  C   UNL     1      -6.600   5.245 -28.537  1.00  0.00     0.116 A 
HETATM    8  N   UNL     1      -5.385   5.128 -27.919  1.00  0.00    -0.345 N 
HETATM    9  C   UNL     1      -4.960   6.352 -27.470  1.00  0.00     0.024 A 
HETATM   10  H   UNL     1      -4.901   4.244 -27.801  1.00  0.00     0.167 HD
HETATM   11  C   UNL     1      -5.930   7.295 -27.805  1.00  0.00     0.071 A 
HETATM   12  C   UNL     1      -3.669   6.492 -26.745  1.00  0.00     0.069 C 
HETATM   13  C   UNL     1      -6.968   6.580 -28.517  1.00  0.00     0.000 A 
HETATM   14  C   UNL     1      -8.208   7.167 -29.100  1.00  0.00     0.053 C 
BRANCH  11  15
HETATM   15  C   UNL     1      -5.852   8.722 -27.459  1.00  0.00     0.295 C 
HETATM   16  O   UNL     1      -5.380   9.575 -28.201  1.00  0.00    -0.259 OA
BRANCH  15  17
HETATM   17  O   UNL     1      -6.348   8.991 -26.215  1.00  0.00    -0.318 OA
BRANCH  17  18
HETATM   18  C   UNL     1      -5.554   9.857 -25.393  1.00  0.00     0.174 C 
HETATM   19  C   UNL     1      -4.723   9.043 -24.420  1.00  0.00     0.034 C 
ENDBRANCH  17  18
ENDBRANCH  15  17
ENDBRANCH  11  15
ENDBRANCH   1   7
BRANCH   3  20
HETATM   20  N   UNL     1      -7.081   0.993 -30.723  1.00  0.00    -0.262 N 
HETATM   21  C   UNL     1      -7.349   0.949 -32.078  1.00  0.00     0.270 C 
HETATM   22  O   UNL     1      -8.014   1.820 -32.636  1.00  0.00    -0.266 OA
HETATM   23  H   UNL     1      -6.343   0.457 -30.269  1.00  0.00     0.190 HD
BRANCH  21  24
HETATM   24  C   UNL     1      -6.783  -0.192 -32.851  1.00  0.00     0.033 A 
HETATM   25  C   UNL     1      -7.553  -0.978 -33.713  1.00  0.00     0.020 A 
HETATM   26  C   UNL     1      -6.951  -2.012 -34.438  1.00  0.00     0.038 A 
HETATM   27  C   UNL     1      -5.581  -2.267 -34.322  1.00  0.00     0.068 A 
HETATM   28  C   UNL     1      -4.812  -1.483 -33.463  1.00  0.00     0.038 A 
HETATM   29  C   UNL     1      -5.410  -0.449 -32.734  1.00  0.00     0.020 A 
BRANCH  27  30
HETATM   30  O   UNL     1      -5.124  -3.297 -35.096  1.00  0.00    -0.356 OA
HETATM   31  C   UNL     1      -5.983  -4.422 -35.242  1.00  0.00     0.210 C 
ENDBRANCH  27  30
ENDBRANCH  21  24
ENDBRANCH   3  20
TORSDOF 7
ENDMDL
MODEL 9
REMARK VINA RESULT:      -7.2      5.921      9.915
REMARK  7 active torsions:
REMARK  status: ('A' for Active; 'I' for Inactive)
REMARK    1  A    between atoms: C_2  and  O_3 
REMARK    2  A    between atoms: O_3  and  C_4 
REMARK    3  A    between atoms: C_4  and  C_5 
REMARK    4  A    between atoms: C_10  and  N_11 
REMARK       I    between atoms: N_11  and  C_12 
REMARK       I    between atoms: C_12  and  N_13 
REMARK    5  A    between atoms: N_13  and  N_14 
REMARK       I    between atoms: N_14  and  C_15 
REMARK    6  A    between atoms: C_15  and  C_16 
REMARK    7  A    between atoms: C_19  and  O_20 
ROOT
HETATM    1  N   UNL     1      -4.629   5.299 -31.277  1.00  0.00    -0.293 N 
HETATM    2  C   UNL     1      -4.354   3.994 -31.632  1.00  0.00     0.340 C 
HETATM    3  N   UNL     1      -5.341   3.471 -32.450  1.00  0.00    -0.249 N 
HETATM    4  O   UNL     1      -3.389   3.329 -31.255  1.00  0.00    -0.245 OA
HETATM    5  H   UNL     1      -5.497   5.707 -31.591  1.00  0.00     0.172 HD
HETATM    6  H   UNL     1      -5.853   4.093 -33.072  1.00  0.00     0.192 HD
ENDROOT
BRANCH   1   7
HETATM    7  C   UNL     1      -3.842   6.034 -30.413  1.00  0.00     0.116 A 
HETATM    8  N   UNL     1      -4.110   6.136 -29.075  1.00  0.00    -0.345 N 
HETATM    9  C   UNL     1      -3.193   6.953 -28.468  1.00  0.00     0.024 A 
HETATM   10  H   UNL     1      -4.898   5.679 -28.627  1.00  0.00     0.167 HD
HETATM   11  C   UNL     1      -2.301   7.401 -29.440  1.00  0.00     0.071 A 
HETATM   12  C   UNL     1      -3.275   7.241 -27.011  1.00  0.00     0.069 C 
HETATM   13  C   UNL     1      -2.708   6.780 -30.684  1.00  0.00     0.000 A 
HETATM   14  C   UNL     1      -2.043   6.934 -32.010  1.00  0.00     0.053 C 
BRANCH  11  15
HETATM   15  C   UNL     1      -1.192   8.330 -29.183  1.00  0.00     0.295 C 
HETATM   16  O   UNL     1      -1.349   9.504 -28.871  1.00  0.00    -0.259 OA
BRANCH  15  17
HETATM   17  O   UNL     1       0.033   7.747 -29.346  1.00  0.00    -0.318 OA
BRANCH  17  18
HETATM   18  C   UNL     1       0.994   8.000 -28.313  1.00  0.00     0.174 C 
HETATM   19  C   UNL     1       0.737   7.096 -27.122  1.00  0.00     0.034 C 
ENDBRANCH  17  18
ENDBRANCH  15  17
ENDBRANCH  11  15
ENDBRANCH   1   7
BRANCH   3  20
HETATM   20  N   UNL     1      -5.145   2.182 -32.974  1.00  0.00    -0.262 N 
HETATM   21  C   UNL     1      -6.130   1.246 -32.723  1.00  0.00     0.270 C 
HETATM   22  O   UNL     1      -7.116   1.511 -32.037  1.00  0.00    -0.266 OA
HETATM   23  H   UNL     1      -4.459   2.102 -33.723  1.00  0.00     0.190 HD
BRANCH  21  24
HETATM   24  C   UNL     1      -5.964  -0.103 -33.333  1.00  0.00     0.033 A 
HETATM   25  C   UNL     1      -7.008  -0.776 -33.975  1.00  0.00     0.020 A 
HETATM   26  C   UNL     1      -6.775  -2.026 -34.559  1.00  0.00     0.038 A 
HETATM   27  C   UNL     1      -5.506  -2.612 -34.520  1.00  0.00     0.068 A 
HETATM   28  C   UNL     1      -4.464  -1.940 -33.881  1.00  0.00     0.038 A 
HETATM   29  C   UNL     1      -4.693  -0.691 -33.293  1.00  0.00     0.020 A 
BRANCH  27  30
HETATM   30  O   UNL     1      -5.417  -3.827 -35.140  1.00  0.00    -0.356 OA
HETATM   31  C   UNL     1      -4.927  -4.912 -34.361  1.00  0.00     0.210 C 
ENDBRANCH  27  30
ENDBRANCH  21  24
ENDBRANCH   3  20
TORSDOF 7
ENDMDL
MODEL 10
REMARK VINA RESULT:      -7.1      5.084      7.062
REMARK  7 active torsions:
REMARK  status: ('A' for Active; 'I' for Inactive)
REMARK    1  A    between atoms: C_2  and  O_3 
REMARK    2  A    between atoms: O_3  and  C_4 
REMARK    3  A    between atoms: C_4  and  C_5 
REMARK    4  A    between atoms: C_10  and  N_11 
REMARK       I    between atoms: N_11  and  C_12 
REMARK       I    between atoms: C_12  and  N_13 
REMARK    5  A    between atoms: N_13  and  N_14 
REMARK       I    between atoms: N_14  and  C_15 
REMARK    6  A    between atoms: C_15  and  C_16 
REMARK    7  A    between atoms: C_19  and  O_20 
ROOT
HETATM    1  N   UNL     1      -4.324   3.447 -31.929  1.00  0.00    -0.293 N 
HETATM    2  C   UNL     1      -5.700   3.380 -32.019  1.00  0.00     0.340 C 
HETATM    3  N   UNL     1      -6.125   2.114 -32.387  1.00  0.00    -0.249 N 
HETATM    4  O   UNL     1      -6.483   4.313 -31.844  1.00  0.00    -0.245 OA
HETATM    5  H   UNL     1      -3.789   2.627 -32.173  1.00  0.00     0.172 HD
HETATM    6  H   UNL     1      -5.571   1.305 -32.115  1.00  0.00     0.192 HD
ENDROOT
BRANCH   1   7
HETATM    7  C   UNL     1      -3.637   4.609 -31.645  1.00  0.00     0.116 A 
HETATM    8  N   UNL     1      -3.892   5.365 -30.534  1.00  0.00    -0.345 N 
HETATM    9  C   UNL     1      -3.093   6.479 -30.522  1.00  0.00     0.024 A 
HETATM   10  H   UNL     1      -4.596   5.123 -29.844  1.00  0.00     0.167 HD
HETATM   11  C   UNL     1      -2.294   6.449 -31.664  1.00  0.00     0.071 A 
HETATM   12  C   UNL     1      -3.189   7.475 -29.422  1.00  0.00     0.069 C 
HETATM   13  C   UNL     1      -2.630   5.228 -32.366  1.00  0.00     0.000 A 
HETATM   14  C   UNL     1      -2.019   4.741 -33.636  1.00  0.00     0.053 C 
BRANCH  11  15
HETATM   15  C   UNL     1      -1.328   7.496 -32.026  1.00  0.00     0.295 C 
HETATM   16  O   UNL     1      -1.650   8.612 -32.414  1.00  0.00    -0.259 OA
BRANCH  15  17
HETATM   17  O   UNL     1      -0.032   7.084 -31.900  1.00  0.00    -0.318 OA
BRANCH  17  18
HETATM   18  C   UNL     1       0.301   6.414 -30.677  1.00  0.00     0.174 C 
HETATM   19  C   UNL     1       0.517   7.424 -29.565  1.00  0.00     0.034 C 
ENDBRANCH  17  18
ENDBRANCH  15  17
ENDBRANCH  11  15
ENDBRANCH   1   7
BRANCH   3  20
HETATM   20  N   UNL     1      -7.507   1.869 -32.420  1.00  0.00    -0.262 N 
HETATM   21  C   UNL     1      -8.045   1.468 -33.628  1.00  0.00     0.270 C 
HETATM   22  O   UNL     1      -7.358   1.369 -34.642  1.00  0.00    -0.266 OA
HETATM   23  H   UNL     1      -7.959   1.725 -31.518  1.00  0.00     0.190 HD
BRANCH  21  24
HETATM   24  C   UNL     1      -9.498   1.139 -33.655  1.00  0.00     0.033 A 
HETATM   25  C   UNL     1     -10.029   0.006 -33.029  1.00  0.00     0.020 A 
HETATM   26  C   UNL     1     -11.408  -0.225 -33.062  1.00  0.00     0.038 A 
HETATM   27  C   UNL     1     -12.271   0.668 -33.704  1.00  0.00     0.068 A 
HETATM   28  C   UNL     1     -11.743   1.798 -34.327  1.00  0.00     0.038 A 
HETATM   29  C   UNL     1     -10.363   2.033 -34.299  1.00  0.00     0.020 A 
BRANCH  27  30
HETATM   30  O   UNL     1     -13.594   0.327 -33.648  1.00  0.00    -0.356 OA
HETATM   31  C   UNL     1     -14.518   1.376 -33.385  1.00  0.00     0.210 C 
ENDBRANCH  27  30
ENDBRANCH  21  24
ENDBRANCH   3  20
TORSDOF 7
ENDMDL
