MODEL 1
REMARK VINA RESULT:      -9.5      0.000      0.000
REMARK  8 active torsions:
REMARK  status: ('A' for Active; 'I' for Inactive)
REMARK    1  A    between atoms: C_4  and  S_5 
REMARK    2  A    between atoms: S_5  and  C_6 
REMARK    3  A    between atoms: C_6  and  C_7 
REMARK       I    between atoms: C_7  and  N_8 
REMARK    4  A    between atoms: N_8  and  C_9 
REMARK    5  A    between atoms: C_20  and  C_21 
REMARK    6  A    between atoms: C_27  and  C_28 
REMARK       I    between atoms: C_28  and  N_29 
REMARK    7  A    between atoms: N_29  and  C_30 
REMARK    8  A    between atoms: C_31  and  O_32 
ROOT
HETATM    1  C   UNL     1      -3.340   1.804 -31.219  1.00  0.00     0.069 C 
HETATM    2  C   UNL     1      -4.761   2.240 -30.967  1.00  0.00     0.019 C 
HETATM    3  N   UNL     1      -4.932   3.519 -30.486  1.00  0.00    -0.353 N 
HETATM    4  C   UNL     1      -6.144   4.101 -30.166  1.00  0.00     0.088 C 
HETATM    5  C   UNL     1      -7.301   3.444 -30.439  1.00  0.00     0.069 C 
HETATM    6  C   UNL     1      -8.585   4.027 -30.203  1.00  0.00     0.099 C 
HETATM    7  N   UNL     1      -9.619   4.513 -29.995  1.00  0.00    -0.192 NA
HETATM    8  C   UNL     1      -7.260   1.979 -30.906  1.00  0.00     0.106 C 
HETATM    9  C   UNL     1      -5.850   1.465 -31.149  1.00  0.00     0.046 C 
HETATM   10  H   UNL     1      -4.113   4.105 -30.353  1.00  0.00     0.166 HD
ENDROOT
BRANCH   4  11
HETATM   11  S   UNL     1      -6.088   5.666 -29.377  1.00  0.00    -0.102 SA
BRANCH  11  12
HETATM   12  C   UNL     1      -6.401   6.845 -30.729  1.00  0.00     0.184 C 
BRANCH  12  13
HETATM   13  C   UNL     1      -5.599   6.603 -32.002  1.00  0.00     0.231 C 
HETATM   14  N   UNL     1      -4.228   6.648 -31.833  1.00  0.00    -0.325 N 
HETATM   15  H   UNL     1      -3.867   6.970 -30.940  1.00  0.00     0.169 HD
HETATM   16  O   UNL     1      -6.164   6.375 -33.070  1.00  0.00    -0.272 OA
BRANCH  14  17
HETATM   17  C   UNL     1      -3.237   6.299 -32.790  1.00  0.00     0.056 A 
HETATM   18  C   UNL     1      -2.108   7.128 -32.928  1.00  0.00     0.060 A 
HETATM   19 CL   UNL     1      -1.942   8.568 -31.981  1.00  0.00    -0.082 Cl
HETATM   20  C   UNL     1      -1.086   6.812 -33.830  1.00  0.00     0.026 A 
HETATM   21  C   UNL     1      -1.176   5.659 -34.608  1.00  0.00     0.002 A 
HETATM   22  C   UNL     1      -2.284   4.829 -34.483  1.00  0.00     0.002 A 
HETATM   23  C   UNL     1      -3.307   5.146 -33.581  1.00  0.00     0.031 A 
ENDBRANCH  14  17
ENDBRANCH  12  13
ENDBRANCH  11  12
ENDBRANCH   4  11
BRANCH   8  24
HETATM   24  C   UNL     1      -8.208   1.713 -32.073  1.00  0.00    -0.044 A 
HETATM   25  C   UNL     1      -8.154   2.459 -33.259  1.00  0.00     0.008 A 
HETATM   26  C   UNL     1      -9.052   2.199 -34.297  1.00  0.00     0.001 A 
HETATM   27  C   UNL     1     -10.017   1.203 -34.161  1.00  0.00     0.000 A 
HETATM   28  C   UNL     1     -10.089   0.461 -32.984  1.00  0.00     0.001 A 
HETATM   29  C   UNL     1      -9.190   0.714 -31.948  1.00  0.00     0.008 A 
ENDBRANCH   8  24
BRANCH   9  30
HETATM   30  C   UNL     1      -5.667   0.019 -31.431  1.00  0.00     0.255 C 
HETATM   31  N   UNL     1      -5.629  -0.187 -32.796  1.00  0.00    -0.321 N 
HETATM   32  H   UNL     1      -5.812   0.633 -33.363  1.00  0.00     0.169 HD
HETATM   33  O   UNL     1      -5.716  -0.787 -30.516  1.00  0.00    -0.268 OA
BRANCH  31  34
HETATM   34  C   UNL     1      -5.575  -1.404 -33.513  1.00  0.00     0.068 A 
HETATM   35  C   UNL     1      -4.517  -2.323 -33.523  1.00  0.00     0.095 A 
HETATM   36  C   UNL     1      -4.613  -3.498 -34.284  1.00  0.00     0.039 A 
HETATM   37  C   UNL     1      -5.762  -3.776 -35.023  1.00  0.00     0.003 A 
HETATM   38  C   UNL     1      -6.811  -2.866 -35.032  1.00  0.00     0.002 A 
HETATM   39  C   UNL     1      -6.713  -1.686 -34.293  1.00  0.00     0.032 A 
BRANCH  35  40
HETATM   40  O   UNL     1      -3.316  -2.020 -32.941  1.00  0.00    -0.354 OA
HETATM   41  C   UNL     1      -2.997  -2.913 -31.873  1.00  0.00     0.210 C 
ENDBRANCH  35  40
ENDBRANCH  31  34
ENDBRANCH   9  30
TORSDOF 8
ENDMDL
MODEL 2
REMARK VINA RESULT:      -9.2      2.005      2.531
REMARK  8 active torsions:
REMARK  status: ('A' for Active; 'I' for Inactive)
REMARK    1  A    between atoms: C_4  and  S_5 
REMARK    2  A    between atoms: S_5  and  C_6 
REMARK    3  A    between atoms: C_6  and  C_7 
REMARK       I    between atoms: C_7  and  N_8 
REMARK    4  A    between atoms: N_8  and  C_9 
REMARK    5  A    between atoms: C_20  and  C_21 
REMARK    6  A    between atoms: C_27  and  C_28 
REMARK       I    between atoms: C_28  and  N_29 
REMARK    7  A    between atoms: N_29  and  C_30 
REMARK    8  A    between atoms: C_31  and  O_32 
ROOT
HETATM    1  C   UNL     1      -3.417   2.409 -31.943  1.00  0.00     0.069 C 
HETATM    2  C   UNL     1      -4.823   2.792 -31.557  1.00  0.00     0.019 C 
HETATM    3  N   UNL     1      -5.021   4.105 -31.195  1.00  0.00    -0.353 N 
HETATM    4  C   UNL     1      -6.222   4.652 -30.782  1.00  0.00     0.088 C 
HETATM    5  C   UNL     1      -7.356   3.906 -30.833  1.00  0.00     0.069 C 
HETATM    6  C   UNL     1      -8.638   4.441 -30.494  1.00  0.00     0.099 C 
HETATM    7  N   UNL     1      -9.670   4.889 -30.206  1.00  0.00    -0.192 NA
HETATM    8  C   UNL     1      -7.271   2.402 -31.145  1.00  0.00     0.106 C 
HETATM    9  C   UNL     1      -5.870   1.942 -31.513  1.00  0.00     0.046 C 
HETATM   10  H   UNL     1      -4.234   4.746 -31.231  1.00  0.00     0.166 HD
ENDROOT
BRANCH   4  11
HETATM   11  S   UNL     1      -6.178   6.297 -30.177  1.00  0.00    -0.102 SA
BRANCH  11  12
HETATM   12  C   UNL     1      -5.299   7.217 -31.481  1.00  0.00     0.184 C 
BRANCH  12  13
HETATM   13  C   UNL     1      -3.957   7.808 -31.069  1.00  0.00     0.231 C 
HETATM   14  N   UNL     1      -3.310   7.115 -30.062  1.00  0.00    -0.325 N 
HETATM   15  H   UNL     1      -3.820   6.376 -29.587  1.00  0.00     0.169 HD
HETATM   16  O   UNL     1      -3.513   8.812 -31.622  1.00  0.00    -0.272 OA
BRANCH  14  17
HETATM   17  C   UNL     1      -1.985   7.328 -29.594  1.00  0.00     0.056 A 
HETATM   18  C   UNL     1      -0.936   6.594 -30.179  1.00  0.00     0.060 A 
HETATM   19 CL   UNL     1      -1.251   5.426 -31.419  1.00  0.00    -0.082 Cl
HETATM   20  C   UNL     1       0.391   6.789 -29.782  1.00  0.00     0.026 A 
HETATM   21  C   UNL     1       0.691   7.722 -28.792  1.00  0.00     0.002 A 
HETATM   22  C   UNL     1      -0.333   8.456 -28.203  1.00  0.00     0.002 A 
HETATM   23  C   UNL     1      -1.661   8.260 -28.602  1.00  0.00     0.031 A 
ENDBRANCH  14  17
ENDBRANCH  12  13
ENDBRANCH  11  12
ENDBRANCH   4  11
BRANCH   8  24
HETATM   24  C   UNL     1      -8.336   1.954 -32.143  1.00  0.00    -0.044 A 
HETATM   25  C   UNL     1      -9.172   0.856 -31.896  1.00  0.00     0.008 A 
HETATM   26  C   UNL     1     -10.121   0.464 -32.843  1.00  0.00     0.001 A 
HETATM   27  C   UNL     1     -10.240   1.154 -34.048  1.00  0.00     0.000 A 
HETATM   28  C   UNL     1      -9.409   2.240 -34.312  1.00  0.00     0.001 A 
HETATM   29  C   UNL     1      -8.464   2.638 -33.366  1.00  0.00     0.008 A 
ENDBRANCH   8  24
BRANCH   9  30
HETATM   30  C   UNL     1      -5.624   0.486 -31.663  1.00  0.00     0.255 C 
HETATM   31  N   UNL     1      -5.730   0.130 -32.994  1.00  0.00    -0.321 N 
HETATM   32  H   UNL     1      -6.032   0.871 -33.616  1.00  0.00     0.169 HD
HETATM   33  O   UNL     1      -5.513  -0.215 -30.670  1.00  0.00    -0.268 OA
BRANCH  31  34
HETATM   34  C   UNL     1      -5.678  -1.154 -33.580  1.00  0.00     0.068 A 
HETATM   35  C   UNL     1      -4.591  -2.038 -33.562  1.00  0.00     0.095 A 
HETATM   36  C   UNL     1      -4.692  -3.291 -34.188  1.00  0.00     0.039 A 
HETATM   37  C   UNL     1      -5.873  -3.678 -34.817  1.00  0.00     0.003 A 
HETATM   38  C   UNL     1      -6.953  -2.804 -34.855  1.00  0.00     0.002 A 
HETATM   39  C   UNL     1      -6.851  -1.549 -34.252  1.00  0.00     0.032 A 
BRANCH  35  40
HETATM   40  O   UNL     1      -3.368  -1.642 -33.093  1.00  0.00    -0.354 OA
HETATM   41  C   UNL     1      -2.988  -2.353 -31.916  1.00  0.00     0.210 C 
ENDBRANCH  35  40
ENDBRANCH  31  34
ENDBRANCH   9  30
TORSDOF 8
ENDMDL
MODEL 3
REMARK VINA RESULT:      -9.2      3.279      5.041
REMARK  8 active torsions:
REMARK  status: ('A' for Active; 'I' for Inactive)
REMARK    1  A    between atoms: C_4  and  S_5 
REMARK    2  A    between atoms: S_5  and  C_6 
REMARK    3  A    between atoms: C_6  and  C_7 
REMARK       I    between atoms: C_7  and  N_8 
REMARK    4  A    between atoms: N_8  and  C_9 
REMARK    5  A    between atoms: C_20  and  C_21 
REMARK    6  A    between atoms: C_27  and  C_28 
REMARK       I    between atoms: C_28  and  N_29 
REMARK    7  A    between atoms: N_29  and  C_30 
REMARK    8  A    between atoms: C_31  and  O_32 
ROOT
HETATM    1  C   UNL     1      -5.328   1.487 -29.506  1.00  0.00     0.069 C 
HETATM    2  C   UNL     1      -5.253   2.902 -30.021  1.00  0.00     0.019 C 
HETATM    3  N   UNL     1      -5.599   3.895 -29.133  1.00  0.00    -0.353 N 
HETATM    4  C   UNL     1      -5.624   5.249 -29.412  1.00  0.00     0.088 C 
HETATM    5  C   UNL     1      -5.167   5.700 -30.609  1.00  0.00     0.069 C 
HETATM    6  C   UNL     1      -5.095   7.093 -30.924  1.00  0.00     0.099 C 
HETATM    7  N   UNL     1      -5.053   8.228 -31.166  1.00  0.00    -0.192 NA
HETATM    8  C   UNL     1      -4.822   4.699 -31.724  1.00  0.00     0.106 C 
HETATM    9  C   UNL     1      -4.908   3.248 -31.279  1.00  0.00     0.046 C 
HETATM   10  H   UNL     1      -5.855   3.636 -28.185  1.00  0.00     0.166 HD
ENDROOT
BRANCH   4  11
HETATM   11  S   UNL     1      -6.296   6.301 -28.179  1.00  0.00    -0.102 SA
BRANCH  11  12
HETATM   12  C   UNL     1      -4.960   6.436 -26.948  1.00  0.00     0.184 C 
BRANCH  12  13
HETATM   13  C   UNL     1      -3.783   7.311 -27.360  1.00  0.00     0.231 C 
HETATM   14  N   UNL     1      -2.542   6.742 -27.145  1.00  0.00    -0.325 N 
HETATM   15  H   UNL     1      -2.499   5.876 -26.616  1.00  0.00     0.169 HD
HETATM   16  O   UNL     1      -3.965   8.423 -27.853  1.00  0.00    -0.272 OA
BRANCH  14  17
HETATM   17  C   UNL     1      -1.285   7.244 -27.579  1.00  0.00     0.056 A 
HETATM   18  C   UNL     1      -0.596   8.149 -26.750  1.00  0.00     0.060 A 
HETATM   19 CL   UNL     1      -1.278   8.674 -25.247  1.00  0.00    -0.082 Cl
HETATM   20  C   UNL     1       0.661   8.647 -27.112  1.00  0.00     0.026 A 
HETATM   21  C   UNL     1       1.250   8.247 -28.310  1.00  0.00     0.002 A 
HETATM   22  C   UNL     1       0.582   7.353 -29.140  1.00  0.00     0.002 A 
HETATM   23  C   UNL     1      -0.675   6.855 -28.777  1.00  0.00     0.031 A 
ENDBRANCH  14  17
ENDBRANCH  12  13
ENDBRANCH  11  12
ENDBRANCH   4  11
BRANCH   8  24
HETATM   24  C   UNL     1      -3.508   5.038 -32.424  1.00  0.00    -0.044 A 
HETATM   25  C   UNL     1      -3.458   5.393 -33.780  1.00  0.00     0.008 A 
HETATM   26  C   UNL     1      -2.234   5.677 -34.391  1.00  0.00     0.001 A 
HETATM   27  C   UNL     1      -1.049   5.600 -33.662  1.00  0.00     0.000 A 
HETATM   28  C   UNL     1      -1.082   5.239 -32.317  1.00  0.00     0.001 A 
HETATM   29  C   UNL     1      -2.303   4.960 -31.703  1.00  0.00     0.008 A 
ENDBRANCH   8  24
BRANCH   9  30
HETATM   30  C   UNL     1      -4.771   2.186 -32.307  1.00  0.00     0.255 C 
HETATM   31  N   UNL     1      -6.008   1.625 -32.563  1.00  0.00    -0.321 N 
HETATM   32  H   UNL     1      -6.762   1.953 -31.970  1.00  0.00     0.169 HD
HETATM   33  O   UNL     1      -3.661   1.843 -32.679  1.00  0.00    -0.268 OA
BRANCH  31  34
HETATM   34  C   UNL     1      -6.334   0.522 -33.384  1.00  0.00     0.068 A 
HETATM   35  C   UNL     1      -6.019  -0.822 -33.141  1.00  0.00     0.095 A 
HETATM   36  C   UNL     1      -6.418  -1.813 -34.052  1.00  0.00     0.039 A 
HETATM   37  C   UNL     1      -7.144  -1.479 -35.194  1.00  0.00     0.003 A 
HETATM   38  C   UNL     1      -7.448  -0.149 -35.452  1.00  0.00     0.002 A 
HETATM   39  C   UNL     1      -7.036   0.843 -34.560  1.00  0.00     0.032 A 
BRANCH  35  40
HETATM   40  O   UNL     1      -5.180  -1.176 -32.120  1.00  0.00    -0.354 OA
HETATM   41  C   UNL     1      -3.943  -1.703 -32.600  1.00  0.00     0.210 C 
ENDBRANCH  35  40
ENDBRANCH  31  34
ENDBRANCH   9  30
TORSDOF 8
ENDMDL
MODEL 4
REMARK VINA RESULT:      -9.1      3.449      6.750
REMARK  8 active torsions:
REMARK  status: ('A' for Active; 'I' for Inactive)
REMARK    1  A    between atoms: C_4  and  S_5 
REMARK    2  A    between atoms: S_5  and  C_6 
REMARK    3  A    between atoms: C_6  and  C_7 
REMARK       I    between atoms: C_7  and  N_8 
REMARK    4  A    between atoms: N_8  and  C_9 
REMARK    5  A    between atoms: C_20  and  C_21 
REMARK    6  A    between atoms: C_27  and  C_28 
REMARK       I    between atoms: C_28  and  N_29 
REMARK    7  A    between atoms: N_29  and  C_30 
REMARK    8  A    between atoms: C_31  and  O_32 
ROOT
HETATM    1  C   UNL     1      -9.748  -0.102 -32.286  1.00  0.00     0.069 C 
HETATM    2  C   UNL     1      -9.081   1.248 -32.224  1.00  0.00     0.019 C 
HETATM    3  N   UNL     1      -9.722   2.212 -31.478  1.00  0.00    -0.353 N 
HETATM    4  C   UNL     1      -9.294   3.516 -31.315  1.00  0.00     0.088 C 
HETATM    5  C   UNL     1      -8.090   3.899 -31.813  1.00  0.00     0.069 C 
HETATM    6  C   UNL     1      -7.561   5.212 -31.608  1.00  0.00     0.099 C 
HETATM    7  N   UNL     1      -7.151   6.285 -31.440  1.00  0.00    -0.192 NA
HETATM    8  C   UNL     1      -7.303   2.950 -32.732  1.00  0.00     0.106 C 
HETATM    9  C   UNL     1      -7.939   1.576 -32.864  1.00  0.00     0.046 C 
HETATM   10  H   UNL     1     -10.579   1.965 -30.993  1.00  0.00     0.166 HD
ENDROOT
BRANCH   4  11
HETATM   11  S   UNL     1     -10.387   4.612 -30.488  1.00  0.00    -0.102 SA
BRANCH  11  12
HETATM   12  C   UNL     1     -11.132   5.583 -31.837  1.00  0.00     0.184 C 
BRANCH  12  13
HETATM   13  C   UNL     1     -12.040   4.800 -32.777  1.00  0.00     0.231 C 
HETATM   14  N   UNL     1     -12.419   3.557 -32.306  1.00  0.00    -0.325 N 
HETATM   15  H   UNL     1     -11.968   3.207 -31.467  1.00  0.00     0.169 HD
HETATM   16  O   UNL     1     -12.396   5.278 -33.854  1.00  0.00    -0.272 OA
BRANCH  14  17
HETATM   17  C   UNL     1     -13.383   2.685 -32.879  1.00  0.00     0.056 A 
HETATM   18  C   UNL     1     -13.010   1.896 -33.984  1.00  0.00     0.060 A 
HETATM   19 CL   UNL     1     -11.420   2.010 -34.660  1.00  0.00    -0.082 Cl
HETATM   20  C   UNL     1     -13.909   0.994 -34.564  1.00  0.00     0.026 A 
HETATM   21  C   UNL     1     -15.197   0.866 -34.048  1.00  0.00     0.002 A 
HETATM   22  C   UNL     1     -15.582   1.637 -32.957  1.00  0.00     0.002 A 
HETATM   23  C   UNL     1     -14.682   2.539 -32.377  1.00  0.00     0.031 A 
ENDBRANCH  14  17
ENDBRANCH  12  13
ENDBRANCH  11  12
ENDBRANCH   4  11
BRANCH   8  24
HETATM   24  C   UNL     1      -5.819   2.896 -32.379  1.00  0.00    -0.044 A 
HETATM   25  C   UNL     1      -5.345   2.187 -31.265  1.00  0.00     0.008 A 
HETATM   26  C   UNL     1      -3.981   2.177 -30.963  1.00  0.00     0.001 A 
HETATM   27  C   UNL     1      -3.078   2.879 -31.759  1.00  0.00     0.000 A 
HETATM   28  C   UNL     1      -3.536   3.596 -32.862  1.00  0.00     0.001 A 
HETATM   29  C   UNL     1      -4.896   3.604 -33.170  1.00  0.00     0.008 A 
ENDBRANCH   8  24
BRANCH   9  30
HETATM   30  C   UNL     1      -7.374   0.631 -33.859  1.00  0.00     0.255 C 
HETATM   31  N   UNL     1      -6.907  -0.499 -33.214  1.00  0.00    -0.321 N 
HETATM   32  H   UNL     1      -6.943  -0.464 -32.202  1.00  0.00     0.169 HD
HETATM   33  O   UNL     1      -7.251   0.977 -35.022  1.00  0.00    -0.268 OA
BRANCH  31  34
HETATM   34  C   UNL     1      -6.202  -1.602 -33.746  1.00  0.00     0.068 A 
HETATM   35  C   UNL     1      -4.816  -1.805 -33.710  1.00  0.00     0.095 A 
HETATM   36  C   UNL     1      -4.259  -2.961 -34.280  1.00  0.00     0.039 A 
HETATM   37  C   UNL     1      -5.072  -3.926 -34.870  1.00  0.00     0.003 A 
HETATM   38  C   UNL     1      -6.447  -3.729 -34.925  1.00  0.00     0.002 A 
HETATM   39  C   UNL     1      -7.004  -2.571 -34.378  1.00  0.00     0.032 A 
BRANCH  35  40
HETATM   40  O   UNL     1      -3.970  -0.818 -33.282  1.00  0.00    -0.354 OA
HETATM   41  C   UNL     1      -3.168  -1.240 -32.178  1.00  0.00     0.210 C 
ENDBRANCH  35  40
ENDBRANCH  31  34
ENDBRANCH   9  30
TORSDOF 8
ENDMDL
MODEL 5
REMARK VINA RESULT:      -8.9      2.994      8.046
REMARK  8 active torsions:
REMARK  status: ('A' for Active; 'I' for Inactive)
REMARK    1  A    between atoms: C_4  and  S_5 
REMARK    2  A    between atoms: S_5  and  C_6 
REMARK    3  A    between atoms: C_6  and  C_7 
REMARK       I    between atoms: C_7  and  N_8 
REMARK    4  A    between atoms: N_8  and  C_9 
REMARK    5  A    between atoms: C_20  and  C_21 
REMARK    6  A    between atoms: C_27  and  C_28 
REMARK       I    between atoms: C_28  and  N_29 
REMARK    7  A    between atoms: N_29  and  C_30 
REMARK    8  A    between atoms: C_31  and  O_32 
ROOT
HETATM    1  C   UNL     1      -3.376   2.146 -32.384  1.00  0.00     0.069 C 
HETATM    2  C   UNL     1      -4.714   2.774 -32.088  1.00  0.00     0.019 C 
HETATM    3  N   UNL     1      -5.805   1.935 -32.124  1.00  0.00    -0.353 N 
HETATM    4  C   UNL     1      -7.117   2.314 -31.910  1.00  0.00     0.088 C 
HETATM    5  C   UNL     1      -7.396   3.582 -31.513  1.00  0.00     0.069 C 
HETATM    6  C   UNL     1      -8.725   4.010 -31.201  1.00  0.00     0.099 C 
HETATM    7  N   UNL     1      -9.812   4.342 -30.961  1.00  0.00    -0.192 NA
HETATM    8  C   UNL     1      -6.286   4.646 -31.505  1.00  0.00     0.106 C 
HETATM    9  C   UNL     1      -4.912   4.083 -31.827  1.00  0.00     0.046 C 
HETATM   10  H   UNL     1      -5.657   0.948 -32.316  1.00  0.00     0.166 HD
ENDROOT
BRANCH   4  11
HETATM   11  S   UNL     1      -8.351   1.105 -32.213  1.00  0.00    -0.102 SA
BRANCH  11  12
HETATM   12  C   UNL     1      -8.395   0.974 -34.029  1.00  0.00     0.184 C 
BRANCH  12  13
HETATM   13  C   UNL     1      -7.433  -0.042 -34.631  1.00  0.00     0.231 C 
HETATM   14  N   UNL     1      -7.185  -1.142 -33.831  1.00  0.00    -0.325 N 
HETATM   15  H   UNL     1      -7.533  -1.126 -32.877  1.00  0.00     0.169 HD
HETATM   16  O   UNL     1      -6.949   0.132 -35.748  1.00  0.00    -0.272 OA
BRANCH  14  17
HETATM   17  C   UNL     1      -6.474  -2.318 -34.192  1.00  0.00     0.056 A 
HETATM   18  C   UNL     1      -5.075  -2.336 -34.036  1.00  0.00     0.060 A 
HETATM   19 CL   UNL     1      -4.228  -0.944 -33.451  1.00  0.00    -0.082 Cl
HETATM   20  C   UNL     1      -4.329  -3.480 -34.342  1.00  0.00     0.026 A 
HETATM   21  C   UNL     1      -4.970  -4.625 -34.810  1.00  0.00     0.002 A 
HETATM   22  C   UNL     1      -6.351  -4.623 -34.971  1.00  0.00     0.002 A 
HETATM   23  C   UNL     1      -7.098  -3.479 -34.663  1.00  0.00     0.031 A 
ENDBRANCH  14  17
ENDBRANCH  12  13
ENDBRANCH  11  12
ENDBRANCH   4  11
BRANCH   8  24
HETATM   24  C   UNL     1      -6.307   5.500 -30.239  1.00  0.00    -0.044 A 
HETATM   25  C   UNL     1      -6.060   4.954 -28.970  1.00  0.00     0.008 A 
HETATM   26  C   UNL     1      -6.107   5.763 -27.833  1.00  0.00     0.001 A 
HETATM   27  C   UNL     1      -6.409   7.119 -27.945  1.00  0.00     0.000 A 
HETATM   28  C   UNL     1      -6.666   7.672 -29.198  1.00  0.00     0.001 A 
HETATM   29  C   UNL     1      -6.615   6.869 -30.336  1.00  0.00     0.008 A 
ENDBRANCH   8  24
BRANCH   9  30
HETATM   30  C   UNL     1      -3.789   5.035 -32.024  1.00  0.00     0.255 C 
HETATM   31  N   UNL     1      -2.945   4.991 -30.931  1.00  0.00    -0.321 N 
HETATM   32  H   UNL     1      -3.260   4.407 -30.165  1.00  0.00     0.169 HD
HETATM   33  O   UNL     1      -3.804   5.800 -32.974  1.00  0.00    -0.268 OA
BRANCH  31  34
HETATM   34  C   UNL     1      -1.818   5.793 -30.643  1.00  0.00     0.068 A 
HETATM   35  C   UNL     1      -1.762   6.861 -29.737  1.00  0.00     0.095 A 
HETATM   36  C   UNL     1      -0.561   7.565 -29.552  1.00  0.00     0.039 A 
HETATM   37  C   UNL     1       0.590   7.202 -30.249  1.00  0.00     0.003 A 
HETATM   38  C   UNL     1       0.543   6.154 -31.160  1.00  0.00     0.002 A 
HETATM   39  C   UNL     1      -0.654   5.465 -31.363  1.00  0.00     0.032 A 
BRANCH  35  40
HETATM   40  O   UNL     1      -2.899   7.348 -29.151  1.00  0.00    -0.354 OA
HETATM   41  C   UNL     1      -2.684   7.712 -27.787  1.00  0.00     0.210 C 
ENDBRANCH  35  40
ENDBRANCH  31  34
ENDBRANCH   9  30
TORSDOF 8
ENDMDL
MODEL 6
REMARK VINA RESULT:      -8.9      1.862      2.196
REMARK  8 active torsions:
REMARK  status: ('A' for Active; 'I' for Inactive)
REMARK    1  A    between atoms: C_4  and  S_5 
REMARK    2  A    between atoms: S_5  and  C_6 
REMARK    3  A    between atoms: C_6  and  C_7 
REMARK       I    between atoms: C_7  and  N_8 
REMARK    4  A    between atoms: N_8  and  C_9 
REMARK    5  A    between atoms: C_20  and  C_21 
REMARK    6  A    between atoms: C_27  and  C_28 
REMARK       I    between atoms: C_28  and  N_29 
REMARK    7  A    between atoms: N_29  and  C_30 
REMARK    8  A    between atoms: C_31  and  O_32 
ROOT
HETATM    1  C   UNL     1      -4.966   2.967 -33.494  1.00  0.00     0.069 C 
HETATM    2  C   UNL     1      -6.324   2.984 -32.838  1.00  0.00     0.019 C 
HETATM    3  N   UNL     1      -6.505   3.904 -31.830  1.00  0.00    -0.353 N 
HETATM    4  C   UNL     1      -7.659   4.063 -31.087  1.00  0.00     0.088 C 
HETATM    5  C   UNL     1      -8.775   3.362 -31.414  1.00  0.00     0.069 C 
HETATM    6  C   UNL     1     -10.019   3.542 -30.731  1.00  0.00     0.099 C 
HETATM    7  N   UNL     1     -11.018   3.695 -30.160  1.00  0.00    -0.192 NA
HETATM    8  C   UNL     1      -8.697   2.244 -32.467  1.00  0.00     0.106 C 
HETATM    9  C   UNL     1      -7.340   2.152 -33.147  1.00  0.00     0.046 C 
HETATM   10  H   UNL     1      -5.741   4.533 -31.600  1.00  0.00     0.166 HD
ENDROOT
BRANCH   4  11
HETATM   11  S   UNL     1      -7.577   5.161 -29.721  1.00  0.00    -0.102 SA
BRANCH  11  12
HETATM   12  C   UNL     1      -5.821   5.125 -29.239  1.00  0.00     0.184 C 
BRANCH  12  13
HETATM   13  C   UNL     1      -4.913   6.066 -30.020  1.00  0.00     0.231 C 
HETATM   14  N   UNL     1      -3.764   5.476 -30.514  1.00  0.00    -0.325 N 
HETATM   15  H   UNL     1      -3.543   4.532 -30.210  1.00  0.00     0.169 HD
HETATM   16  O   UNL     1      -5.220   7.245 -30.188  1.00  0.00    -0.272 OA
BRANCH  14  17
HETATM   17  C   UNL     1      -2.825   6.053 -31.411  1.00  0.00     0.056 A 
HETATM   18  C   UNL     1      -1.678   6.674 -30.881  1.00  0.00     0.060 A 
HETATM   19 CL   UNL     1      -1.428   6.769 -29.170  1.00  0.00    -0.082 Cl
HETATM   20  C   UNL     1      -0.703   7.227 -31.719  1.00  0.00     0.026 A 
HETATM   21  C   UNL     1      -0.861   7.168 -33.103  1.00  0.00     0.002 A 
HETATM   22  C   UNL     1      -1.988   6.559 -33.642  1.00  0.00     0.002 A 
HETATM   23  C   UNL     1      -2.963   6.005 -32.803  1.00  0.00     0.031 A 
ENDBRANCH  14  17
ENDBRANCH  12  13
ENDBRANCH  11  12
ENDBRANCH   4  11
BRANCH   8  24
HETATM   24  C   UNL     1      -9.863   2.290 -33.452  1.00  0.00    -0.044 A 
HETATM   25  C   UNL     1     -10.072   3.381 -34.307  1.00  0.00     0.008 A 
HETATM   26  C   UNL     1     -11.161   3.396 -35.181  1.00  0.00     0.001 A 
HETATM   27  C   UNL     1     -12.059   2.329 -35.204  1.00  0.00     0.000 A 
HETATM   28  C   UNL     1     -11.870   1.243 -34.353  1.00  0.00     0.001 A 
HETATM   29  C   UNL     1     -10.780   1.223 -33.483  1.00  0.00     0.008 A 
ENDBRANCH   8  24
BRANCH   9  30
HETATM   30  C   UNL     1      -7.083   1.004 -34.053  1.00  0.00     0.255 C 
HETATM   31  N   UNL     1      -6.584  -0.059 -33.326  1.00  0.00    -0.321 N 
HETATM   32  H   UNL     1      -6.398   0.135 -32.349  1.00  0.00     0.169 HD
HETATM   33  O   UNL     1      -7.185   1.151 -35.260  1.00  0.00    -0.268 OA
BRANCH  31  34
HETATM   34  C   UNL     1      -6.105  -1.307 -33.785  1.00  0.00     0.068 A 
HETATM   35  C   UNL     1      -4.771  -1.735 -33.801  1.00  0.00     0.095 A 
HETATM   36  C   UNL     1      -4.448  -3.013 -34.286  1.00  0.00     0.039 A 
HETATM   37  C   UNL     1      -5.445  -3.875 -34.738  1.00  0.00     0.003 A 
HETATM   38  C   UNL     1      -6.770  -3.456 -34.740  1.00  0.00     0.002 A 
HETATM   39  C   UNL     1      -7.094  -2.178 -34.279  1.00  0.00     0.032 A 
BRANCH  35  40
HETATM   40  O   UNL     1      -3.749  -0.871 -33.514  1.00  0.00    -0.354 OA
HETATM   41  C   UNL     1      -3.206  -1.097 -32.213  1.00  0.00     0.210 C 
ENDBRANCH  35  40
ENDBRANCH  31  34
ENDBRANCH   9  30
TORSDOF 8
ENDMDL
MODEL 7
REMARK VINA RESULT:      -8.8      2.343      5.781
REMARK  8 active torsions:
REMARK  status: ('A' for Active; 'I' for Inactive)
REMARK    1  A    between atoms: C_4  and  S_5 
REMARK    2  A    between atoms: S_5  and  C_6 
REMARK    3  A    between atoms: C_6  and  C_7 
REMARK       I    between atoms: C_7  and  N_8 
REMARK    4  A    between atoms: N_8  and  C_9 
REMARK    5  A    between atoms: C_20  and  C_21 
REMARK    6  A    between atoms: C_27  and  C_28 
REMARK       I    between atoms: C_28  and  N_29 
REMARK    7  A    between atoms: N_29  and  C_30 
REMARK    8  A    between atoms: C_31  and  O_32 
ROOT
HETATM    1  C   UNL     1      -5.752   0.694 -29.678  1.00  0.00     0.069 C 
HETATM    2  C   UNL     1      -5.753   2.066 -30.301  1.00  0.00     0.019 C 
HETATM    3  N   UNL     1      -6.461   3.041 -29.633  1.00  0.00    -0.353 N 
HETATM    4  C   UNL     1      -6.610   4.351 -30.047  1.00  0.00     0.088 C 
HETATM    5  C   UNL     1      -5.926   4.797 -31.132  1.00  0.00     0.069 C 
HETATM    6  C   UNL     1      -5.979   6.161 -31.561  1.00  0.00     0.099 C 
HETATM    7  N   UNL     1      -6.041   7.270 -31.900  1.00  0.00    -0.192 NA
HETATM    8  C   UNL     1      -5.158   3.802 -32.019  1.00  0.00     0.106 C 
HETATM    9  C   UNL     1      -5.145   2.388 -31.462  1.00  0.00     0.046 C 
HETATM   10  H   UNL     1      -6.916   2.801 -28.757  1.00  0.00     0.166 HD
ENDROOT
BRANCH   4  11
HETATM   11  S   UNL     1      -7.727   5.349 -29.135  1.00  0.00    -0.102 SA
BRANCH  11  12
HETATM   12  C   UNL     1      -9.139   5.565 -30.266  1.00  0.00     0.184 C 
BRANCH  12  13
HETATM   13  C   UNL     1      -9.811   4.276 -30.722  1.00  0.00     0.231 C 
HETATM   14  N   UNL     1     -10.449   4.363 -31.945  1.00  0.00    -0.325 N 
HETATM   15  H   UNL     1     -10.546   5.281 -32.369  1.00  0.00     0.169 HD
HETATM   16  O   UNL     1      -9.754   3.258 -30.034  1.00  0.00    -0.272 OA
BRANCH  14  17
HETATM   17  C   UNL     1     -11.010   3.293 -32.693  1.00  0.00     0.056 A 
HETATM   18  C   UNL     1     -10.142   2.375 -33.314  1.00  0.00     0.060 A 
HETATM   19 CL   UNL     1      -8.424   2.560 -33.202  1.00  0.00    -0.082 Cl
HETATM   20  C   UNL     1     -10.641   1.283 -34.033  1.00  0.00     0.026 A 
HETATM   21  C   UNL     1     -12.017   1.091 -34.144  1.00  0.00     0.002 A 
HETATM   22  C   UNL     1     -12.887   1.990 -33.537  1.00  0.00     0.002 A 
HETATM   23  C   UNL     1     -12.388   3.082 -32.817  1.00  0.00     0.031 A 
ENDBRANCH  14  17
ENDBRANCH  12  13
ENDBRANCH  11  12
ENDBRANCH   4  11
BRANCH   8  24
HETATM   24  C   UNL     1      -3.771   4.313 -32.401  1.00  0.00    -0.044 A 
HETATM   25  C   UNL     1      -2.748   4.467 -31.453  1.00  0.00     0.008 A 
HETATM   26  C   UNL     1      -1.498   4.956 -31.837  1.00  0.00     0.001 A 
HETATM   27  C   UNL     1      -1.256   5.306 -33.165  1.00  0.00     0.000 A 
HETATM   28  C   UNL     1      -2.266   5.168 -34.115  1.00  0.00     0.001 A 
HETATM   29  C   UNL     1      -3.514   4.675 -33.736  1.00  0.00     0.008 A 
ENDBRANCH   8  24
BRANCH   9  30
HETATM   30  C   UNL     1      -4.590   1.303 -32.309  1.00  0.00     0.255 C 
HETATM   31  N   UNL     1      -5.602   0.438 -32.680  1.00  0.00    -0.321 N 
HETATM   32  H   UNL     1      -6.505   0.625 -32.260  1.00  0.00     0.169 HD
HETATM   33  O   UNL     1      -3.382   1.206 -32.456  1.00  0.00    -0.268 OA
BRANCH  31  34
HETATM   34  C   UNL     1      -5.518  -0.780 -33.391  1.00  0.00     0.068 A 
HETATM   35  C   UNL     1      -4.645  -1.844 -33.127  1.00  0.00     0.095 A 
HETATM   36  C   UNL     1      -4.684  -3.000 -33.922  1.00  0.00     0.039 A 
HETATM   37  C   UNL     1      -5.598  -3.113 -34.969  1.00  0.00     0.003 A 
HETATM   38  C   UNL     1      -6.458  -2.059 -35.249  1.00  0.00     0.002 A 
HETATM   39  C   UNL     1      -6.410  -0.899 -34.474  1.00  0.00     0.032 A 
BRANCH  35  40
HETATM   40  O   UNL     1      -3.634  -1.715 -32.214  1.00  0.00    -0.354 OA
HETATM   41  C   UNL     1      -3.039  -2.972 -31.893  1.00  0.00     0.210 C 
ENDBRANCH  35  40
ENDBRANCH  31  34
ENDBRANCH   9  30
TORSDOF 8
ENDMDL
MODEL 8
REMARK VINA RESULT:      -8.7      3.279      5.154
REMARK  8 active torsions:
REMARK  status: ('A' for Active; 'I' for Inactive)
REMARK    1  A    between atoms: C_4  and  S_5 
REMARK    2  A    between atoms: S_5  and  C_6 
REMARK    3  A    between atoms: C_6  and  C_7 
REMARK       I    between atoms: C_7  and  N_8 
REMARK    4  A    between atoms: N_8  and  C_9 
REMARK    5  A    between atoms: C_20  and  C_21 
REMARK    6  A    between atoms: C_27  and  C_28 
REMARK       I    between atoms: C_28  and  N_29 
REMARK    7  A    between atoms: N_29  and  C_30 
REMARK    8  A    between atoms: C_31  and  O_32 
ROOT
HETATM    1  C   UNL     1      -6.692   1.728 -29.841  1.00  0.00     0.069 C 
HETATM    2  C   UNL     1      -6.270   3.105 -30.287  1.00  0.00     0.019 C 
HETATM    3  N   UNL     1      -6.215   4.074 -29.311  1.00  0.00    -0.353 N 
HETATM    4  C   UNL     1      -5.879   5.399 -29.514  1.00  0.00     0.088 C 
HETATM    5  C   UNL     1      -5.446   5.806 -30.735  1.00  0.00     0.069 C 
HETATM    6  C   UNL     1      -5.011   7.146 -30.985  1.00  0.00     0.099 C 
HETATM    7  N   UNL     1      -4.670   8.240 -31.171  1.00  0.00    -0.192 NA
HETATM    8  C   UNL     1      -5.529   4.850 -31.937  1.00  0.00     0.106 C 
HETATM    9  C   UNL     1      -5.980   3.448 -31.559  1.00  0.00     0.046 C 
HETATM   10  H   UNL     1      -6.429   3.815 -28.352  1.00  0.00     0.166 HD
ENDROOT
BRANCH   4  11
HETATM   11  S   UNL     1      -6.079   6.486 -28.152  1.00  0.00    -0.102 SA
BRANCH  11  12
HETATM   12  C   UNL     1      -4.607   6.173 -27.127  1.00  0.00     0.184 C 
BRANCH  12  13
HETATM   13  C   UNL     1      -3.450   7.143 -27.337  1.00  0.00     0.231 C 
HETATM   14  N   UNL     1      -2.209   6.638 -26.997  1.00  0.00    -0.325 N 
HETATM   15  H   UNL     1      -2.173   5.745 -26.514  1.00  0.00     0.169 HD
HETATM   16  O   UNL     1      -3.646   8.270 -27.789  1.00  0.00    -0.272 OA
BRANCH  14  17
HETATM   17  C   UNL     1      -0.946   7.241 -27.240  1.00  0.00     0.056 A 
HETATM   18  C   UNL     1      -0.427   7.221 -28.548  1.00  0.00     0.060 A 
HETATM   19 CL   UNL     1      -1.289   6.444 -29.833  1.00  0.00    -0.082 Cl
HETATM   20  C   UNL     1       0.795   7.831 -28.850  1.00  0.00     0.026 A 
HETATM   21  C   UNL     1       1.520   8.472 -27.848  1.00  0.00     0.002 A 
HETATM   22  C   UNL     1       1.022   8.501 -26.550  1.00  0.00     0.002 A 
HETATM   23  C   UNL     1      -0.202   7.891 -26.248  1.00  0.00     0.031 A 
ENDBRANCH  14  17
ENDBRANCH  12  13
ENDBRANCH  11  12
ENDBRANCH   4  11
BRANCH   8  24
HETATM   24  C   UNL     1      -4.259   4.867 -32.784  1.00  0.00    -0.044 A 
HETATM   25  C   UNL     1      -3.023   4.437 -32.279  1.00  0.00     0.008 A 
HETATM   26  C   UNL     1      -1.879   4.486 -33.078  1.00  0.00     0.001 A 
HETATM   27  C   UNL     1      -1.951   4.973 -34.382  1.00  0.00     0.000 A 
HETATM   28  C   UNL     1      -3.169   5.413 -34.893  1.00  0.00     0.001 A 
HETATM   29  C   UNL     1      -4.315   5.360 -34.100  1.00  0.00     0.008 A 
ENDBRANCH   8  24
BRANCH   9  30
HETATM   30  C   UNL     1      -6.270   2.484 -32.651  1.00  0.00     0.255 C 
HETATM   31  N   UNL     1      -5.873   1.217 -32.269  1.00  0.00    -0.321 N 
HETATM   32  H   UNL     1      -5.389   1.165 -31.380  1.00  0.00     0.169 HD
HETATM   33  O   UNL     1      -6.654   2.893 -33.734  1.00  0.00    -0.268 OA
BRANCH  31  34
HETATM   34  C   UNL     1      -5.860   0.022 -33.022  1.00  0.00     0.068 A 
HETATM   35  C   UNL     1      -6.975  -0.654 -33.536  1.00  0.00     0.095 A 
HETATM   36  C   UNL     1      -6.802  -1.835 -34.276  1.00  0.00     0.039 A 
HETATM   37  C   UNL     1      -5.527  -2.340 -34.523  1.00  0.00     0.003 A 
HETATM   38  C   UNL     1      -4.416  -1.686 -34.006  1.00  0.00     0.002 A 
HETATM   39  C   UNL     1      -4.583  -0.523 -33.253  1.00  0.00     0.032 A 
BRANCH  35  40
HETATM   40  O   UNL     1      -8.246  -0.283 -33.190  1.00  0.00    -0.354 OA
HETATM   41  C   UNL     1      -8.897   0.439 -34.235  1.00  0.00     0.210 C 
ENDBRANCH  35  40
ENDBRANCH  31  34
ENDBRANCH   9  30
TORSDOF 8
ENDMDL
MODEL 9
REMARK VINA RESULT:      -8.7      2.520      4.268
REMARK  8 active torsions:
REMARK  status: ('A' for Active; 'I' for Inactive)
REMARK    1  A    between atoms: C_4  and  S_5 
REMARK    2  A    between atoms: S_5  and  C_6 
REMARK    3  A    between atoms: C_6  and  C_7 
REMARK       I    between atoms: C_7  and  N_8 
REMARK    4  A    between atoms: N_8  and  C_9 
REMARK    5  A    between atoms: C_20  and  C_21 
REMARK    6  A    between atoms: C_27  and  C_28 
REMARK       I    between atoms: C_28  and  N_29 
REMARK    7  A    between atoms: N_29  and  C_30 
REMARK    8  A    between atoms: C_31  and  O_32 
ROOT
HETATM    1  C   UNL     1      -5.647   0.624 -29.714  1.00  0.00     0.069 C 
HETATM    2  C   UNL     1      -5.715   1.975 -30.380  1.00  0.00     0.019 C 
HETATM    3  N   UNL     1      -6.458   2.938 -29.735  1.00  0.00    -0.353 N 
HETATM    4  C   UNL     1      -6.669   4.226 -30.188  1.00  0.00     0.088 C 
HETATM    5  C   UNL     1      -6.018   4.667 -31.296  1.00  0.00     0.069 C 
HETATM    6  C   UNL     1      -6.136   6.012 -31.767  1.00  0.00     0.099 C 
HETATM    7  N   UNL     1      -6.251   7.106 -32.140  1.00  0.00    -0.192 NA
HETATM    8  C   UNL     1      -5.217   3.678 -32.160  1.00  0.00     0.106 C 
HETATM    9  C   UNL     1      -5.135   2.285 -31.558  1.00  0.00     0.046 C 
HETATM   10  H   UNL     1      -6.891   2.707 -28.846  1.00  0.00     0.166 HD
ENDROOT
BRANCH   4  11
HETATM   11  S   UNL     1      -7.819   5.203 -29.294  1.00  0.00    -0.102 SA
BRANCH  11  12
HETATM   12  C   UNL     1      -6.888   5.730 -27.820  1.00  0.00     0.184 C 
BRANCH  12  13
HETATM   13  C   UNL     1      -5.829   6.798 -28.067  1.00  0.00     0.231 C 
HETATM   14  N   UNL     1      -4.557   6.305 -28.287  1.00  0.00    -0.325 N 
HETATM   15  H   UNL     1      -4.395   5.314 -28.130  1.00  0.00     0.169 HD
HETATM   16  O   UNL     1      -6.127   7.992 -28.076  1.00  0.00    -0.272 OA
BRANCH  14  17
HETATM   17  C   UNL     1      -3.416   7.041 -28.706  1.00  0.00     0.056 A 
HETATM   18  C   UNL     1      -2.377   7.262 -27.782  1.00  0.00     0.060 A 
HETATM   19 CL   UNL     1      -2.497   6.683 -26.155  1.00  0.00    -0.082 Cl
HETATM   20  C   UNL     1      -1.216   7.950 -28.152  1.00  0.00     0.026 A 
HETATM   21  C   UNL     1      -1.074   8.428 -29.453  1.00  0.00     0.002 A 
HETATM   22  C   UNL     1      -2.091   8.218 -30.378  1.00  0.00     0.002 A 
HETATM   23  C   UNL     1      -3.253   7.530 -30.008  1.00  0.00     0.031 A 
ENDBRANCH  14  17
ENDBRANCH  12  13
ENDBRANCH  11  12
ENDBRANCH   4  11
BRANCH   8  24
HETATM   24  C   UNL     1      -3.858   4.236 -32.576  1.00  0.00    -0.044 A 
HETATM   25  C   UNL     1      -3.586   4.623 -33.896  1.00  0.00     0.008 A 
HETATM   26  C   UNL     1      -2.324   5.111 -34.243  1.00  0.00     0.001 A 
HETATM   27  C   UNL     1      -1.319   5.209 -33.282  1.00  0.00     0.000 A 
HETATM   28  C   UNL     1      -1.572   4.820 -31.969  1.00  0.00     0.001 A 
HETATM   29  C   UNL     1      -2.832   4.337 -31.618  1.00  0.00     0.008 A 
ENDBRANCH   8  24
BRANCH   9  30
HETATM   30  C   UNL     1      -4.543   1.198 -32.378  1.00  0.00     0.255 C 
HETATM   31  N   UNL     1      -5.532   0.316 -32.766  1.00  0.00    -0.321 N 
HETATM   32  H   UNL     1      -6.449   0.495 -32.373  1.00  0.00     0.169 HD
HETATM   33  O   UNL     1      -3.330   1.116 -32.490  1.00  0.00    -0.268 OA
BRANCH  31  34
HETATM   34  C   UNL     1      -5.413  -0.909 -33.461  1.00  0.00     0.068 A 
HETATM   35  C   UNL     1      -4.525  -1.953 -33.168  1.00  0.00     0.095 A 
HETATM   36  C   UNL     1      -4.528  -3.119 -33.950  1.00  0.00     0.039 A 
HETATM   37  C   UNL     1      -5.420  -3.262 -35.011  1.00  0.00     0.003 A 
HETATM   38  C   UNL     1      -6.295  -2.228 -35.320  1.00  0.00     0.002 A 
HETATM   39  C   UNL     1      -6.282  -1.058 -34.558  1.00  0.00     0.032 A 
BRANCH  35  40
HETATM   40  O   UNL     1      -3.533  -1.795 -32.239  1.00  0.00    -0.354 OA
HETATM   41  C   UNL     1      -2.978  -3.044 -31.828  1.00  0.00     0.210 C 
ENDBRANCH  35  40
ENDBRANCH  31  34
ENDBRANCH   9  30
TORSDOF 8
ENDMDL
MODEL 10
REMARK VINA RESULT:      -8.7      3.991      9.055
REMARK  8 active torsions:
REMARK  status: ('A' for Active; 'I' for Inactive)
REMARK    1  A    between atoms: C_4  and  S_5 
REMARK    2  A    between atoms: S_5  and  C_6 
REMARK    3  A    between atoms: C_6  and  C_7 
REMARK       I    between atoms: C_7  and  N_8 
REMARK    4  A    between atoms: N_8  and  C_9 
REMARK    5  A    between atoms: C_20  and  C_21 
REMARK    6  A    between atoms: C_27  and  C_28 
REMARK       I    between atoms: C_28  and  N_29 
REMARK    7  A    between atoms: N_29  and  C_30 
REMARK    8  A    between atoms: C_31  and  O_32 
ROOT
HETATM    1  C   UNL     1      -5.854   7.695 -28.735  1.00  0.00     0.069 C 
HETATM    2  C   UNL     1      -5.254   6.582 -29.556  1.00  0.00     0.019 C 
HETATM    3  N   UNL     1      -6.116   5.590 -29.964  1.00  0.00    -0.353 N 
HETATM    4  C   UNL     1      -5.765   4.472 -30.698  1.00  0.00     0.088 C 
HETATM    5  C   UNL     1      -4.502   4.354 -31.183  1.00  0.00     0.069 C 
HETATM    6  C   UNL     1      -4.102   3.260 -32.014  1.00  0.00     0.099 C 
HETATM    7  N   UNL     1      -3.792   2.360 -32.679  1.00  0.00    -0.192 NA
HETATM    8  C   UNL     1      -3.414   5.347 -30.742  1.00  0.00     0.106 C 
HETATM    9  C   UNL     1      -3.949   6.481 -29.883  1.00  0.00     0.046 C 
HETATM   10  H   UNL     1      -7.100   5.667 -29.723  1.00  0.00     0.166 HD
ENDROOT
BRANCH   4  11
HETATM   11  S   UNL     1      -7.001   3.248 -30.920  1.00  0.00    -0.102 SA
BRANCH  11  12
HETATM   12  C   UNL     1      -6.385   1.829 -29.958  1.00  0.00     0.184 C 
BRANCH  12  13
HETATM   13  C   UNL     1      -6.446   0.484 -30.671  1.00  0.00     0.231 C 
HETATM   14  N   UNL     1      -6.157   0.537 -32.022  1.00  0.00    -0.325 N 
HETATM   15  H   UNL     1      -6.071   1.451 -32.457  1.00  0.00     0.169 HD
HETATM   16  O   UNL     1      -6.719  -0.545 -30.056  1.00  0.00    -0.272 OA
BRANCH  14  17
HETATM   17  C   UNL     1      -5.973  -0.565 -32.900  1.00  0.00     0.056 A 
HETATM   18  C   UNL     1      -7.080  -1.045 -33.624  1.00  0.00     0.060 A 
HETATM   19 CL   UNL     1      -8.647  -0.336 -33.424  1.00  0.00    -0.082 Cl
HETATM   20  C   UNL     1      -6.948  -2.104 -34.528  1.00  0.00     0.026 A 
HETATM   21  C   UNL     1      -5.704  -2.701 -34.725  1.00  0.00     0.002 A 
HETATM   22  C   UNL     1      -4.600  -2.238 -34.018  1.00  0.00     0.002 A 
HETATM   23  C   UNL     1      -4.733  -1.178 -33.113  1.00  0.00     0.031 A 
ENDBRANCH  14  17
ENDBRANCH  12  13
ENDBRANCH  11  12
ENDBRANCH   4  11
BRANCH   8  24
HETATM   24  C   UNL     1      -2.558   5.829 -31.911  1.00  0.00    -0.044 A 
HETATM   25  C   UNL     1      -3.076   6.646 -32.926  1.00  0.00     0.008 A 
HETATM   26  C   UNL     1      -2.266   7.050 -33.989  1.00  0.00     0.001 A 
HETATM   27  C   UNL     1      -0.937   6.637 -34.059  1.00  0.00     0.000 A 
HETATM   28  C   UNL     1      -0.411   5.817 -33.063  1.00  0.00     0.001 A 
HETATM   29  C   UNL     1      -1.215   5.416 -31.997  1.00  0.00     0.008 A 
ENDBRANCH   8  24
BRANCH   9  30
HETATM   30  C   UNL     1      -2.974   7.405 -29.249  1.00  0.00     0.255 C 
HETATM   31  N   UNL     1      -1.886   6.688 -28.788  1.00  0.00    -0.321 N 
HETATM   32  H   UNL     1      -1.965   5.681 -28.874  1.00  0.00     0.169 HD
HETATM   33  O   UNL     1      -3.271   8.576 -29.079  1.00  0.00    -0.268 OA
BRANCH  31  34
HETATM   34  C   UNL     1      -0.778   7.135 -28.035  1.00  0.00     0.068 A 
HETATM   35  C   UNL     1      -0.570   6.947 -26.662  1.00  0.00     0.095 A 
HETATM   36  C   UNL     1       0.591   7.448 -26.051  1.00  0.00     0.039 A 
HETATM   37  C   UNL     1       1.556   8.120 -26.800  1.00  0.00     0.003 A 
HETATM   38  C   UNL     1       1.353   8.325 -28.159  1.00  0.00     0.002 A 
HETATM   39  C   UNL     1       0.191   7.846 -28.767  1.00  0.00     0.032 A 
BRANCH  35  40
HETATM   40  O   UNL     1      -1.555   6.434 -25.863  1.00  0.00    -0.354 OA
HETATM   41  C   UNL     1      -2.408   7.453 -25.342  1.00  0.00     0.210 C 
ENDBRANCH  35  40
ENDBRANCH  31  34
ENDBRANCH   9  30
TORSDOF 8
ENDMDL
