MODEL 1
REMARK VINA RESULT:      -8.4      0.000      0.000
REMARK  6 active torsions:
REMARK  status: ('A' for Active; 'I' for Inactive)
REMARK    1  A    between atoms: O_2  and  C_3 
REMARK    2  A    between atoms: C_4  and  O_5 
REMARK    3  A    between atoms: O_5  and  C_6 
REMARK    4  A    between atoms: C_9  and  N_10 
REMARK       I    between atoms: N_10  and  C_11 
REMARK    5  A    between atoms: C_11  and  C_12 
REMARK    6  A    between atoms: C_12  and  C_13 
ROOT
HETATM    1  C   UNL     1      -7.510  -0.455 -33.825  1.00  0.00     0.103 A 
HETATM    2  C   UNL     1      -6.346   0.138 -33.307  1.00  0.00     0.109 A 
HETATM    3  C   UNL     1      -5.120  -0.534 -33.364  1.00  0.00     0.041 A 
HETATM    4  C   UNL     1      -5.058  -1.825 -33.888  1.00  0.00     0.025 A 
HETATM    5  C   UNL     1      -6.218  -2.436 -34.376  1.00  0.00     0.047 A 
HETATM    6  C   UNL     1      -6.157  -3.763 -34.916  1.00  0.00     0.099 C 
HETATM    7  N   UNL     1      -6.113  -4.837 -35.354  1.00  0.00    -0.191 NA
HETATM    8  C   UNL     1      -7.442  -1.751 -34.346  1.00  0.00     0.062 A 
ENDROOT
BRANCH   1   9
HETATM    9  O   UNL     1      -8.653   0.297 -33.756  1.00  0.00    -0.353 OA
HETATM   10  C   UNL     1      -9.584  -0.025 -32.730  1.00  0.00     0.210 C 
ENDBRANCH   1   9
BRANCH   2  11
HETATM   11  O   UNL     1      -6.434   1.438 -32.858  1.00  0.00    -0.308 OA
BRANCH  11  12
HETATM   12  C   UNL     1      -5.279   2.127 -32.574  1.00  0.00     0.076 A 
HETATM   13  C   UNL     1      -5.068   3.284 -33.322  1.00  0.00     0.039 A 
HETATM   14  C   UNL     1      -3.955   4.095 -33.078  1.00  0.00     0.032 A 
HETATM   15  C   UNL     1      -3.042   3.760 -32.076  1.00  0.00     0.034 A 
HETATM   16  C   UNL     1      -3.262   2.597 -31.325  1.00  0.00     0.032 A 
HETATM   17  C   UNL     1      -4.384   1.792 -31.559  1.00  0.00     0.039 A 
BRANCH  15  18
HETATM   18  N   UNL     1      -1.899   4.528 -31.765  1.00  0.00    -0.327 N 
HETATM   19  C   UNL     1      -1.859   5.744 -31.098  1.00  0.00     0.227 C 
HETATM   20  O   UNL     1      -2.828   6.322 -30.607  1.00  0.00    -0.273 OA
HETATM   21  H   UNL     1      -1.009   4.115 -32.019  1.00  0.00     0.169 HD
BRANCH  19  22
HETATM   22  C   UNL     1      -0.433   6.287 -30.959  1.00  0.00     0.159 C 
BRANCH  22  23
HETATM   23  C   UNL     1      -0.027   6.576 -29.544  1.00  0.00     0.017 A 
HETATM   24  N   UNL     1      -0.420   5.797 -28.478  1.00  0.00    -0.369 N 
HETATM   25  H   UNL     1      -1.044   4.996 -28.555  1.00  0.00     0.165 HD
HETATM   26  C   UNL     1       0.118   6.286 -27.319  1.00  0.00     0.088 A 
HETATM   27  C   UNL     1       0.874   7.390 -27.636  1.00  0.00     0.019 A 
HETATM   28  C   UNL     1       0.786   7.574 -29.037  1.00  0.00     0.027 A 
ENDBRANCH  22  23
ENDBRANCH  19  22
ENDBRANCH  15  18
ENDBRANCH  11  12
ENDBRANCH   2  11
TORSDOF 6
ENDMDL
MODEL 2
REMARK VINA RESULT:      -8.4      5.290      9.627
REMARK  6 active torsions:
REMARK  status: ('A' for Active; 'I' for Inactive)
REMARK    1  A    between atoms: O_2  and  C_3 
REMARK    2  A    between atoms: C_4  and  O_5 
REMARK    3  A    between atoms: O_5  and  C_6 
REMARK    4  A    between atoms: C_9  and  N_10 
REMARK       I    between atoms: N_10  and  C_11 
REMARK    5  A    between atoms: C_11  and  C_12 
REMARK    6  A    between atoms: C_12  and  C_13 
ROOT
HETATM    1  C   UNL     1      -5.009  -0.442 -33.076  1.00  0.00     0.103 A 
HETATM    2  C   UNL     1      -6.014  -0.246 -34.038  1.00  0.00     0.109 A 
HETATM    3  C   UNL     1      -6.349  -1.266 -34.936  1.00  0.00     0.041 A 
HETATM    4  C   UNL     1      -5.643  -2.469 -34.915  1.00  0.00     0.025 A 
HETATM    5  C   UNL     1      -4.617  -2.660 -33.984  1.00  0.00     0.047 A 
HETATM    6  C   UNL     1      -3.891  -3.897 -33.960  1.00  0.00     0.099 C 
HETATM    7  N   UNL     1      -3.299  -4.895 -33.938  1.00  0.00    -0.191 NA
HETATM    8  C   UNL     1      -4.302  -1.649 -33.064  1.00  0.00     0.062 A 
ENDROOT
BRANCH   1   9
HETATM    9  O   UNL     1      -4.781   0.602 -32.219  1.00  0.00    -0.353 OA
HETATM   10  C   UNL     1      -3.802   0.411 -31.204  1.00  0.00     0.210 C 
ENDBRANCH   1   9
BRANCH   2  11
HETATM   11  O   UNL     1      -6.733   0.928 -33.984  1.00  0.00    -0.308 OA
BRANCH  11  12
HETATM   12  C   UNL     1      -8.082   0.877 -33.726  1.00  0.00     0.076 A 
HETATM   13  C   UNL     1      -8.851   1.868 -34.334  1.00  0.00     0.039 A 
HETATM   14  C   UNL     1     -10.242   1.878 -34.187  1.00  0.00     0.032 A 
HETATM   15  C   UNL     1     -10.882   0.892 -33.435  1.00  0.00     0.034 A 
HETATM   16  C   UNL     1     -10.103  -0.104 -32.829  1.00  0.00     0.032 A 
HETATM   17  C   UNL     1      -8.711  -0.123 -32.986  1.00  0.00     0.039 A 
BRANCH  15  18
HETATM   18  N   UNL     1     -12.279   0.830 -33.243  1.00  0.00    -0.327 N 
HETATM   19  C   UNL     1     -13.266   0.991 -34.206  1.00  0.00     0.227 C 
HETATM   20  O   UNL     1     -13.072   1.150 -35.410  1.00  0.00    -0.273 OA
HETATM   21  H   UNL     1     -12.585   0.597 -32.307  1.00  0.00     0.169 HD
BRANCH  19  22
HETATM   22  C   UNL     1     -14.677   0.873 -33.619  1.00  0.00     0.159 C 
BRANCH  22  23
HETATM   23  C   UNL     1     -15.129   2.093 -32.873  1.00  0.00     0.017 A 
HETATM   24  N   UNL     1     -16.448   2.487 -32.812  1.00  0.00    -0.369 N 
HETATM   25  H   UNL     1     -17.209   2.014 -33.296  1.00  0.00     0.165 HD
HETATM   26  C   UNL     1     -16.563   3.616 -32.047  1.00  0.00     0.088 A 
HETATM   27  C   UNL     1     -15.307   3.955 -31.601  1.00  0.00     0.019 A 
HETATM   28  C   UNL     1     -14.403   2.997 -32.119  1.00  0.00     0.027 A 
ENDBRANCH  22  23
ENDBRANCH  19  22
ENDBRANCH  15  18
ENDBRANCH  11  12
ENDBRANCH   2  11
TORSDOF 6
ENDMDL
MODEL 3
REMARK VINA RESULT:      -8.2      5.450      8.807
REMARK  6 active torsions:
REMARK  status: ('A' for Active; 'I' for Inactive)
REMARK    1  A    between atoms: O_2  and  C_3 
REMARK    2  A    between atoms: C_4  and  O_5 
REMARK    3  A    between atoms: O_5  and  C_6 
REMARK    4  A    between atoms: C_9  and  N_10 
REMARK       I    between atoms: N_10  and  C_11 
REMARK    5  A    between atoms: C_11  and  C_12 
REMARK    6  A    between atoms: C_12  and  C_13 
ROOT
HETATM    1  C   UNL     1      -4.663  -0.898 -33.473  1.00  0.00     0.103 A 
HETATM    2  C   UNL     1      -5.771  -0.113 -33.835  1.00  0.00     0.109 A 
HETATM    3  C   UNL     1      -6.866  -0.687 -34.491  1.00  0.00     0.041 A 
HETATM    4  C   UNL     1      -6.838  -2.036 -34.840  1.00  0.00     0.025 A 
HETATM    5  C   UNL     1      -5.725  -2.819 -34.514  1.00  0.00     0.047 A 
HETATM    6  C   UNL     1      -5.694  -4.207 -34.872  1.00  0.00     0.099 C 
HETATM    7  N   UNL     1      -5.664  -5.332 -35.159  1.00  0.00    -0.191 NA
HETATM    8  C   UNL     1      -4.640  -2.251 -33.830  1.00  0.00     0.062 A 
ENDROOT
BRANCH   1   9
HETATM    9  O   UNL     1      -3.658  -0.253 -32.802  1.00  0.00    -0.353 OA
HETATM   10  C   UNL     1      -3.094  -0.917 -31.677  1.00  0.00     0.210 C 
ENDBRANCH   1   9
BRANCH   2  11
HETATM   11  O   UNL     1      -5.791   1.199 -33.415  1.00  0.00    -0.308 OA
BRANCH  11  12
HETATM   12  C   UNL     1      -6.941   1.708 -32.860  1.00  0.00     0.076 A 
HETATM   13  C   UNL     1      -7.463   2.839 -33.484  1.00  0.00     0.039 A 
HETATM   14  C   UNL     1      -8.661   3.407 -33.038  1.00  0.00     0.032 A 
HETATM   15  C   UNL     1      -9.355   2.844 -31.966  1.00  0.00     0.034 A 
HETATM   16  C   UNL     1      -8.826   1.704 -31.345  1.00  0.00     0.032 A 
HETATM   17  C   UNL     1      -7.633   1.126 -31.799  1.00  0.00     0.039 A 
BRANCH  15  18
HETATM   18  N   UNL     1     -10.571   3.354 -31.461  1.00  0.00    -0.327 N 
HETATM   19  C   UNL     1     -11.801   3.383 -32.103  1.00  0.00     0.227 C 
HETATM   20  O   UNL     1     -12.042   2.900 -33.209  1.00  0.00    -0.273 OA
HETATM   21  H   UNL     1     -10.544   3.691 -30.506  1.00  0.00     0.169 HD
BRANCH  19  22
HETATM   22  C   UNL     1     -12.892   4.031 -31.245  1.00  0.00     0.159 C 
BRANCH  22  23
HETATM   23  C   UNL     1     -14.284   3.602 -31.603  1.00  0.00     0.017 A 
HETATM   24  N   UNL     1     -14.646   2.281 -31.750  1.00  0.00    -0.369 N 
HETATM   25  H   UNL     1     -14.000   1.499 -31.670  1.00  0.00     0.165 HD
HETATM   26  C   UNL     1     -15.977   2.193 -32.054  1.00  0.00     0.088 A 
HETATM   27  C   UNL     1     -16.487   3.470 -32.100  1.00  0.00     0.019 A 
HETATM   28  C   UNL     1     -15.423   4.359 -31.815  1.00  0.00     0.027 A 
ENDBRANCH  22  23
ENDBRANCH  19  22
ENDBRANCH  15  18
ENDBRANCH  11  12
ENDBRANCH   2  11
TORSDOF 6
ENDMDL
MODEL 4
REMARK VINA RESULT:      -8.1      1.570      1.932
REMARK  6 active torsions:
REMARK  status: ('A' for Active; 'I' for Inactive)
REMARK    1  A    between atoms: O_2  and  C_3 
REMARK    2  A    between atoms: C_4  and  O_5 
REMARK    3  A    between atoms: O_5  and  C_6 
REMARK    4  A    between atoms: C_9  and  N_10 
REMARK       I    between atoms: N_10  and  C_11 
REMARK    5  A    between atoms: C_11  and  C_12 
REMARK    6  A    between atoms: C_12  and  C_13 
ROOT
HETATM    1  C   UNL     1      -6.890   0.552 -32.330  1.00  0.00     0.103 A 
HETATM    2  C   UNL     1      -6.907   1.583 -33.283  1.00  0.00     0.109 A 
HETATM    3  C   UNL     1      -6.893   1.289 -34.651  1.00  0.00     0.041 A 
HETATM    4  C   UNL     1      -6.808  -0.037 -35.075  1.00  0.00     0.025 A 
HETATM    5  C   UNL     1      -6.756  -1.069 -34.133  1.00  0.00     0.047 A 
HETATM    6  C   UNL     1      -6.668  -2.433 -34.568  1.00  0.00     0.099 C 
HETATM    7  N   UNL     1      -6.596  -3.539 -34.914  1.00  0.00    -0.191 NA
HETATM    8  C   UNL     1      -6.799  -0.776 -32.762  1.00  0.00     0.062 A 
ENDROOT
BRANCH   1   9
HETATM    9  O   UNL     1      -6.942   0.940 -31.017  1.00  0.00    -0.353 OA
HETATM   10  C   UNL     1      -5.918   0.461 -30.154  1.00  0.00     0.210 C 
ENDBRANCH   1   9
BRANCH   2  11
HETATM   11  O   UNL     1      -7.058   2.875 -32.827  1.00  0.00    -0.308 OA
BRANCH  11  12
HETATM   12  C   UNL     1      -5.945   3.587 -32.448  1.00  0.00     0.076 A 
HETATM   13  C   UNL     1      -4.996   3.800 -33.446  1.00  0.00     0.039 A 
HETATM   14  C   UNL     1      -3.851   4.560 -33.187  1.00  0.00     0.032 A 
HETATM   15  C   UNL     1      -3.645   5.122 -31.926  1.00  0.00     0.034 A 
HETATM   16  C   UNL     1      -4.605   4.907 -30.928  1.00  0.00     0.032 A 
HETATM   17  C   UNL     1      -5.759   4.157 -31.190  1.00  0.00     0.039 A 
BRANCH  15  18
HETATM   18  N   UNL     1      -2.520   5.904 -31.587  1.00  0.00    -0.327 N 
HETATM   19  C   UNL     1      -1.287   5.452 -31.136  1.00  0.00     0.227 C 
HETATM   20  O   UNL     1      -0.957   4.273 -31.020  1.00  0.00    -0.273 OA
HETATM   21  H   UNL     1      -2.615   6.901 -31.738  1.00  0.00     0.169 HD
BRANCH  19  22
HETATM   22  C   UNL     1      -0.313   6.601 -30.854  1.00  0.00     0.159 C 
BRANCH  22  23
HETATM   23  C   UNL     1       0.052   6.748 -29.407  1.00  0.00     0.017 A 
HETATM   24  N   UNL     1      -0.366   5.864 -28.435  1.00  0.00    -0.369 N 
HETATM   25  H   UNL     1      -0.982   5.074 -28.610  1.00  0.00     0.165 HD
HETATM   26  C   UNL     1       0.137   6.236 -27.219  1.00  0.00     0.088 A 
HETATM   27  C   UNL     1       0.895   7.370 -27.402  1.00  0.00     0.019 A 
HETATM   28  C   UNL     1       0.844   7.693 -28.779  1.00  0.00     0.027 A 
ENDBRANCH  22  23
ENDBRANCH  19  22
ENDBRANCH  15  18
ENDBRANCH  11  12
ENDBRANCH   2  11
TORSDOF 6
ENDMDL
MODEL 5
REMARK VINA RESULT:      -7.8      2.264      9.812
REMARK  6 active torsions:
REMARK  status: ('A' for Active; 'I' for Inactive)
REMARK    1  A    between atoms: O_2  and  C_3 
REMARK    2  A    between atoms: C_4  and  O_5 
REMARK    3  A    between atoms: O_5  and  C_6 
REMARK    4  A    between atoms: C_9  and  N_10 
REMARK       I    between atoms: N_10  and  C_11 
REMARK    5  A    between atoms: C_11  and  C_12 
REMARK    6  A    between atoms: C_12  and  C_13 
ROOT
HETATM    1  C   UNL     1      -1.199   7.924 -29.954  1.00  0.00     0.103 A 
HETATM    2  C   UNL     1      -0.951   6.743 -30.673  1.00  0.00     0.109 A 
HETATM    3  C   UNL     1      -0.059   5.784 -30.181  1.00  0.00     0.041 A 
HETATM    4  C   UNL     1       0.633   6.023 -28.994  1.00  0.00     0.025 A 
HETATM    5  C   UNL     1       0.419   7.211 -28.288  1.00  0.00     0.047 A 
HETATM    6  C   UNL     1       1.129   7.458 -27.067  1.00  0.00     0.099 C 
HETATM    7  N   UNL     1       1.701   7.664 -26.078  1.00  0.00    -0.191 NA
HETATM    8  C   UNL     1      -0.498   8.160 -28.767  1.00  0.00     0.062 A 
ENDROOT
BRANCH   1   9
HETATM    9  O   UNL     1      -2.115   8.784 -30.500  1.00  0.00    -0.353 OA
HETATM   10  C   UNL     1      -3.381   8.881 -29.859  1.00  0.00     0.210 C 
ENDBRANCH   1   9
BRANCH   2  11
HETATM   11  O   UNL     1      -1.701   6.513 -31.806  1.00  0.00    -0.308 OA
BRANCH  11  12
HETATM   12  C   UNL     1      -2.566   5.445 -31.831  1.00  0.00     0.076 A 
HETATM   13  C   UNL     1      -2.248   4.431 -32.733  1.00  0.00     0.039 A 
HETATM   14  C   UNL     1      -3.027   3.272 -32.802  1.00  0.00     0.032 A 
HETATM   15  C   UNL     1      -4.131   3.109 -31.963  1.00  0.00     0.034 A 
HETATM   16  C   UNL     1      -4.443   4.131 -31.055  1.00  0.00     0.032 A 
HETATM   17  C   UNL     1      -3.656   5.287 -30.976  1.00  0.00     0.039 A 
BRANCH  15  18
HETATM   18  N   UNL     1      -4.962   1.968 -31.969  1.00  0.00    -0.327 N 
HETATM   19  C   UNL     1      -4.659   0.706 -31.477  1.00  0.00     0.227 C 
HETATM   20  O   UNL     1      -3.622   0.397 -30.891  1.00  0.00    -0.273 OA
HETATM   21  H   UNL     1      -5.898   2.107 -32.330  1.00  0.00     0.169 HD
BRANCH  19  22
HETATM   22  C   UNL     1      -5.808  -0.288 -31.674  1.00  0.00     0.159 C 
BRANCH  22  23
HETATM   23  C   UNL     1      -5.660  -1.158 -32.887  1.00  0.00     0.017 A 
HETATM   24  N   UNL     1      -4.502  -1.847 -33.177  1.00  0.00    -0.369 N 
HETATM   25  H   UNL     1      -3.650  -1.792 -32.623  1.00  0.00     0.165 HD
HETATM   26  C   UNL     1      -4.666  -2.571 -34.326  1.00  0.00     0.088 A 
HETATM   27  C   UNL     1      -5.944  -2.355 -34.785  1.00  0.00     0.019 A 
HETATM   28  C   UNL     1      -6.572  -1.466 -33.880  1.00  0.00     0.027 A 
ENDBRANCH  22  23
ENDBRANCH  19  22
ENDBRANCH  15  18
ENDBRANCH  11  12
ENDBRANCH   2  11
TORSDOF 6
ENDMDL
MODEL 6
REMARK VINA RESULT:      -7.4      5.957      9.304
REMARK  6 active torsions:
REMARK  status: ('A' for Active; 'I' for Inactive)
REMARK    1  A    between atoms: O_2  and  C_3 
REMARK    2  A    between atoms: C_4  and  O_5 
REMARK    3  A    between atoms: O_5  and  C_6 
REMARK    4  A    between atoms: C_9  and  N_10 
REMARK       I    between atoms: N_10  and  C_11 
REMARK    5  A    between atoms: C_11  and  C_12 
REMARK    6  A    between atoms: C_12  and  C_13 
ROOT
HETATM    1  C   UNL     1      -5.836  -2.416 -34.332  1.00  0.00     0.103 A 
HETATM    2  C   UNL     1      -6.124  -1.067 -34.068  1.00  0.00     0.109 A 
HETATM    3  C   UNL     1      -5.358  -0.342 -33.148  1.00  0.00     0.041 A 
HETATM    4  C   UNL     1      -4.333  -0.975 -32.446  1.00  0.00     0.025 A 
HETATM    5  C   UNL     1      -4.061  -2.327 -32.677  1.00  0.00     0.047 A 
HETATM    6  C   UNL     1      -3.007  -2.980 -31.956  1.00  0.00     0.099 C 
HETATM    7  N   UNL     1      -2.155  -3.513 -31.374  1.00  0.00    -0.191 NA
HETATM    8  C   UNL     1      -4.809  -3.046 -33.620  1.00  0.00     0.062 A 
ENDROOT
BRANCH   1   9
HETATM    9  O   UNL     1      -6.619  -3.029 -35.274  1.00  0.00    -0.353 OA
HETATM   10  C   UNL     1      -6.572  -4.449 -35.338  1.00  0.00     0.210 C 
ENDBRANCH   1   9
BRANCH   2  11
HETATM   11  O   UNL     1      -7.100  -0.459 -34.829  1.00  0.00    -0.308 OA
BRANCH  11  12
HETATM   12  C   UNL     1      -8.085   0.264 -34.200  1.00  0.00     0.076 A 
HETATM   13  C   UNL     1      -8.149   1.615 -34.535  1.00  0.00     0.039 A 
HETATM   14  C   UNL     1      -9.149   2.433 -34.000  1.00  0.00     0.032 A 
HETATM   15  C   UNL     1     -10.103   1.907 -33.126  1.00  0.00     0.034 A 
HETATM   16  C   UNL     1     -10.035   0.546 -32.797  1.00  0.00     0.032 A 
HETATM   17  C   UNL     1      -9.042  -0.278 -33.343  1.00  0.00     0.039 A 
BRANCH  15  18
HETATM   18  N   UNL     1     -11.144   2.665 -32.549  1.00  0.00    -0.327 N 
HETATM   19  C   UNL     1     -12.192   3.293 -33.208  1.00  0.00     0.227 C 
HETATM   20  O   UNL     1     -12.415   3.231 -34.416  1.00  0.00    -0.273 OA
HETATM   21  H   UNL     1     -11.146   2.711 -31.537  1.00  0.00     0.169 HD
BRANCH  19  22
HETATM   22  C   UNL     1     -13.122   4.039 -32.247  1.00  0.00     0.159 C 
BRANCH  22  23
HETATM   23  C   UNL     1     -14.520   3.497 -32.210  1.00  0.00     0.017 A 
HETATM   24  N   UNL     1     -15.635   4.305 -32.161  1.00  0.00    -0.369 N 
HETATM   25  H   UNL     1     -15.603   5.321 -32.103  1.00  0.00     0.165 HD
HETATM   26  C   UNL     1     -16.768   3.538 -32.160  1.00  0.00     0.088 A 
HETATM   27  C   UNL     1     -16.386   2.218 -32.215  1.00  0.00     0.019 A 
HETATM   28  C   UNL     1     -14.971   2.190 -32.249  1.00  0.00     0.027 A 
ENDBRANCH  22  23
ENDBRANCH  19  22
ENDBRANCH  15  18
ENDBRANCH  11  12
ENDBRANCH   2  11
TORSDOF 6
ENDMDL
MODEL 7
REMARK VINA RESULT:      -7.3      5.075      7.681
REMARK  6 active torsions:
REMARK  status: ('A' for Active; 'I' for Inactive)
REMARK    1  A    between atoms: O_2  and  C_3 
REMARK    2  A    between atoms: C_4  and  O_5 
REMARK    3  A    between atoms: O_5  and  C_6 
REMARK    4  A    between atoms: C_9  and  N_10 
REMARK       I    between atoms: N_10  and  C_11 
REMARK    5  A    between atoms: C_11  and  C_12 
REMARK    6  A    between atoms: C_12  and  C_13 
ROOT
HETATM    1  C   UNL     1      -4.543  -0.865 -33.432  1.00  0.00     0.103 A 
HETATM    2  C   UNL     1      -5.550   0.111 -33.509  1.00  0.00     0.109 A 
HETATM    3  C   UNL     1      -6.803  -0.198 -34.051  1.00  0.00     0.041 A 
HETATM    4  C   UNL     1      -7.039  -1.470 -34.571  1.00  0.00     0.025 A 
HETATM    5  C   UNL     1      -6.031  -2.439 -34.530  1.00  0.00     0.047 A 
HETATM    6  C   UNL     1      -6.273  -3.748 -35.064  1.00  0.00     0.099 C 
HETATM    7  N   UNL     1      -6.463  -4.810 -35.495  1.00  0.00    -0.191 NA
HETATM    8  C   UNL     1      -4.786  -2.138 -33.960  1.00  0.00     0.062 A 
ENDROOT
BRANCH   1   9
HETATM    9  O   UNL     1      -3.365  -0.475 -32.851  1.00  0.00    -0.353 OA
HETATM   10  C   UNL     1      -2.806  -1.337 -31.867  1.00  0.00     0.210 C 
ENDBRANCH   1   9
BRANCH   2  11
HETATM   11  O   UNL     1      -5.302   1.335 -32.926  1.00  0.00    -0.308 OA
BRANCH  11  12
HETATM   12  C   UNL     1      -6.252   2.325 -33.015  1.00  0.00     0.076 A 
HETATM   13  C   UNL     1      -5.929   3.400 -33.841  1.00  0.00     0.039 A 
HETATM   14  C   UNL     1      -6.845   4.435 -34.050  1.00  0.00     0.032 A 
HETATM   15  C   UNL     1      -8.100   4.405 -33.440  1.00  0.00     0.034 A 
HETATM   16  C   UNL     1      -8.420   3.319 -32.613  1.00  0.00     0.032 A 
HETATM   17  C   UNL     1      -7.508   2.274 -32.413  1.00  0.00     0.039 A 
BRANCH  15  18
HETATM   18  N   UNL     1      -9.079   5.407 -33.605  1.00  0.00    -0.327 N 
HETATM   19  C   UNL     1     -10.063   5.468 -34.583  1.00  0.00     0.227 C 
HETATM   20  O   UNL     1     -10.277   4.608 -35.436  1.00  0.00    -0.273 OA
HETATM   21  H   UNL     1      -9.089   6.134 -32.900  1.00  0.00     0.169 HD
BRANCH  19  22
HETATM   22  C   UNL     1     -10.937   6.719 -34.453  1.00  0.00     0.159 C 
BRANCH  22  23
HETATM   23  C   UNL     1     -11.009   7.545 -35.704  1.00  0.00     0.017 A 
HETATM   24  N   UNL     1      -9.894   7.896 -36.434  1.00  0.00    -0.369 N 
HETATM   25  H   UNL     1      -8.940   7.664 -36.167  1.00  0.00     0.165 HD
HETATM   26  C   UNL     1     -10.266   8.625 -37.530  1.00  0.00     0.088 A 
HETATM   27  C   UNL     1     -11.636   8.745 -37.516  1.00  0.00     0.019 A 
HETATM   28  C   UNL     1     -12.106   8.063 -36.367  1.00  0.00     0.027 A 
ENDBRANCH  22  23
ENDBRANCH  19  22
ENDBRANCH  15  18
ENDBRANCH  11  12
ENDBRANCH   2  11
TORSDOF 6
ENDMDL
MODEL 8
REMARK VINA RESULT:      -7.3      5.471      7.896
REMARK  6 active torsions:
REMARK  status: ('A' for Active; 'I' for Inactive)
REMARK    1  A    between atoms: O_2  and  C_3 
REMARK    2  A    between atoms: C_4  and  O_5 
REMARK    3  A    between atoms: O_5  and  C_6 
REMARK    4  A    between atoms: C_9  and  N_10 
REMARK       I    between atoms: N_10  and  C_11 
REMARK    5  A    between atoms: C_11  and  C_12 
REMARK    6  A    between atoms: C_12  and  C_13 
ROOT
HETATM    1  C   UNL     1      -4.730  -0.749 -33.485  1.00  0.00     0.103 A 
HETATM    2  C   UNL     1      -5.898  -0.085 -33.896  1.00  0.00     0.109 A 
HETATM    3  C   UNL     1      -6.932  -0.787 -34.528  1.00  0.00     0.041 A 
HETATM    4  C   UNL     1      -6.782  -2.146 -34.801  1.00  0.00     0.025 A 
HETATM    5  C   UNL     1      -5.609  -2.809 -34.426  1.00  0.00     0.047 A 
HETATM    6  C   UNL     1      -5.453  -4.207 -34.706  1.00  0.00     0.099 C 
HETATM    7  N   UNL     1      -5.322  -5.338 -34.931  1.00  0.00    -0.191 NA
HETATM    8  C   UNL     1      -4.585  -2.112 -33.767  1.00  0.00     0.062 A 
ENDROOT
BRANCH   1   9
HETATM    9  O   UNL     1      -3.793   0.017 -32.844  1.00  0.00    -0.353 OA
HETATM   10  C   UNL     1      -2.934  -0.641 -31.920  1.00  0.00     0.210 C 
ENDBRANCH   1   9
BRANCH   2  11
HETATM   11  O   UNL     1      -6.037   1.241 -33.550  1.00  0.00    -0.308 OA
BRANCH  11  12
HETATM   12  C   UNL     1      -7.240   1.680 -33.050  1.00  0.00     0.076 A 
HETATM   13  C   UNL     1      -8.000   2.469 -33.911  1.00  0.00     0.039 A 
HETATM   14  C   UNL     1      -9.266   2.923 -33.527  1.00  0.00     0.032 A 
HETATM   15  C   UNL     1      -9.790   2.588 -32.278  1.00  0.00     0.034 A 
HETATM   16  C   UNL     1      -9.022   1.791 -31.418  1.00  0.00     0.032 A 
HETATM   17  C   UNL     1      -7.759   1.324 -31.806  1.00  0.00     0.039 A 
BRANCH  15  18
HETATM   18  N   UNL     1     -11.059   3.002 -31.820  1.00  0.00    -0.327 N 
HETATM   19  C   UNL     1     -11.342   4.070 -30.979  1.00  0.00     0.227 C 
HETATM   20  O   UNL     1     -10.519   4.875 -30.546  1.00  0.00    -0.273 OA
HETATM   21  H   UNL     1     -11.850   2.486 -32.187  1.00  0.00     0.169 HD
BRANCH  19  22
HETATM   22  C   UNL     1     -12.840   4.201 -30.687  1.00  0.00     0.159 C 
BRANCH  22  23
HETATM   23  C   UNL     1     -13.266   5.588 -30.308  1.00  0.00     0.017 A 
HETATM   24  N   UNL     1     -12.747   6.720 -30.898  1.00  0.00    -0.369 N 
HETATM   25  H   UNL     1     -12.011   6.710 -31.601  1.00  0.00     0.165 HD
HETATM   26  C   UNL     1     -13.338   7.835 -30.370  1.00  0.00     0.088 A 
HETATM   27  C   UNL     1     -14.255   7.424 -29.431  1.00  0.00     0.019 A 
HETATM   28  C   UNL     1     -14.213   6.010 -29.391  1.00  0.00     0.027 A 
ENDBRANCH  22  23
ENDBRANCH  19  22
ENDBRANCH  15  18
ENDBRANCH  11  12
ENDBRANCH   2  11
TORSDOF 6
ENDMDL
MODEL 9
REMARK VINA RESULT:      -7.2      2.490      9.917
REMARK  6 active torsions:
REMARK  status: ('A' for Active; 'I' for Inactive)
REMARK    1  A    between atoms: O_2  and  C_3 
REMARK    2  A    between atoms: C_4  and  O_5 
REMARK    3  A    between atoms: O_5  and  C_6 
REMARK    4  A    between atoms: C_9  and  N_10 
REMARK       I    between atoms: N_10  and  C_11 
REMARK    5  A    between atoms: C_11  and  C_12 
REMARK    6  A    between atoms: C_12  and  C_13 
ROOT
HETATM    1  C   UNL     1      -0.105   6.762 -30.420  1.00  0.00     0.103 A 
HETATM    2  C   UNL     1      -1.088   7.038 -31.385  1.00  0.00     0.109 A 
HETATM    3  C   UNL     1      -1.995   8.088 -31.198  1.00  0.00     0.041 A 
HETATM    4  C   UNL     1      -1.960   8.834 -30.020  1.00  0.00     0.025 A 
HETATM    5  C   UNL     1      -1.007   8.544 -29.039  1.00  0.00     0.047 A 
HETATM    6  C   UNL     1      -0.969   9.311 -27.827  1.00  0.00     0.099 C 
HETATM    7  N   UNL     1      -0.935   9.927 -26.844  1.00  0.00    -0.191 NA
HETATM    8  C   UNL     1      -0.079   7.511 -29.239  1.00  0.00     0.062 A 
ENDROOT
BRANCH   1   9
HETATM    9  O   UNL     1       0.758   5.738 -30.712  1.00  0.00    -0.353 OA
HETATM   10  C   UNL     1       0.852   4.677 -29.770  1.00  0.00     0.210 C 
ENDBRANCH   1   9
BRANCH   2  11
HETATM   11  O   UNL     1      -1.049   6.323 -32.563  1.00  0.00    -0.308 OA
BRANCH  11  12
HETATM   12  C   UNL     1      -2.152   5.595 -32.942  1.00  0.00     0.076 A 
HETATM   13  C   UNL     1      -2.411   4.454 -32.185  1.00  0.00     0.039 A 
HETATM   14  C   UNL     1      -3.539   3.670 -32.446  1.00  0.00     0.032 A 
HETATM   15  C   UNL     1      -4.427   4.023 -33.465  1.00  0.00     0.034 A 
HETATM   16  C   UNL     1      -4.162   5.174 -34.219  1.00  0.00     0.032 A 
HETATM   17  C   UNL     1      -3.039   5.968 -33.950  1.00  0.00     0.039 A 
BRANCH  15  18
HETATM   18  N   UNL     1      -5.588   3.288 -33.786  1.00  0.00    -0.327 N 
HETATM   19  C   UNL     1      -6.799   3.290 -33.106  1.00  0.00     0.227 C 
HETATM   20  O   UNL     1      -7.073   3.997 -32.137  1.00  0.00    -0.273 OA
HETATM   21  H   UNL     1      -5.540   2.736 -34.634  1.00  0.00     0.169 HD
BRANCH  19  22
HETATM   22  C   UNL     1      -7.827   2.349 -33.743  1.00  0.00     0.159 C 
BRANCH  22  23
HETATM   23  C   UNL     1      -7.298   0.975 -34.029  1.00  0.00     0.017 A 
HETATM   24  N   UNL     1      -6.922   0.096 -33.037  1.00  0.00    -0.369 N 
HETATM   25  H   UNL     1      -6.930   0.318 -32.044  1.00  0.00     0.165 HD
HETATM   26  C   UNL     1      -6.505  -1.083 -33.592  1.00  0.00     0.088 A 
HETATM   27  C   UNL     1      -6.617  -0.972 -34.958  1.00  0.00     0.019 A 
HETATM   28  C   UNL     1      -7.119   0.323 -35.235  1.00  0.00     0.027 A 
ENDBRANCH  22  23
ENDBRANCH  19  22
ENDBRANCH  15  18
ENDBRANCH  11  12
ENDBRANCH   2  11
TORSDOF 6
ENDMDL
MODEL 10
REMARK VINA RESULT:      -7.2      6.363      9.039
REMARK  6 active torsions:
REMARK  status: ('A' for Active; 'I' for Inactive)
REMARK    1  A    between atoms: O_2  and  C_3 
REMARK    2  A    between atoms: C_4  and  O_5 
REMARK    3  A    between atoms: O_5  and  C_6 
REMARK    4  A    between atoms: C_9  and  N_10 
REMARK       I    between atoms: N_10  and  C_11 
REMARK    5  A    between atoms: C_11  and  C_12 
REMARK    6  A    between atoms: C_12  and  C_13 
ROOT
HETATM    1  C   UNL     1      -7.591   0.363 -32.367  1.00  0.00     0.103 A 
HETATM    2  C   UNL     1      -8.477   0.839 -33.348  1.00  0.00     0.109 A 
HETATM    3  C   UNL     1      -8.410   0.361 -34.661  1.00  0.00     0.041 A 
HETATM    4  C   UNL     1      -7.421  -0.555 -35.017  1.00  0.00     0.025 A 
HETATM    5  C   UNL     1      -6.511  -1.009 -34.056  1.00  0.00     0.047 A 
HETATM    6  C   UNL     1      -5.494  -1.952 -34.420  1.00  0.00     0.099 C 
HETATM    7  N   UNL     1      -4.667  -2.714 -34.709  1.00  0.00    -0.191 NA
HETATM    8  C   UNL     1      -6.598  -0.552 -32.732  1.00  0.00     0.062 A 
ENDROOT
BRANCH   1   9
HETATM    9  O   UNL     1      -7.760   0.865 -31.104  1.00  0.00    -0.353 OA
HETATM   10  C   UNL     1      -6.707   1.658 -30.571  1.00  0.00     0.210 C 
ENDBRANCH   1   9
BRANCH   2  11
HETATM   11  O   UNL     1      -9.482   1.692 -32.944  1.00  0.00    -0.308 OA
BRANCH  11  12
HETATM   12  C   UNL     1      -9.671   2.872 -33.623  1.00  0.00     0.076 A 
HETATM   13  C   UNL     1      -8.776   3.896 -33.316  1.00  0.00     0.039 A 
HETATM   14  C   UNL     1      -8.840   5.121 -33.988  1.00  0.00     0.032 A 
HETATM   15  C   UNL     1      -9.798   5.334 -34.981  1.00  0.00     0.034 A 
HETATM   16  C   UNL     1     -10.692   4.299 -35.287  1.00  0.00     0.032 A 
HETATM   17  C   UNL     1     -10.621   3.067 -34.624  1.00  0.00     0.039 A 
BRANCH  15  18
HETATM   18  N   UNL     1      -9.924   6.538 -35.706  1.00  0.00    -0.327 N 
HETATM   19  C   UNL     1     -10.915   7.501 -35.572  1.00  0.00     0.227 C 
HETATM   20  O   UNL     1     -11.820   7.483 -34.738  1.00  0.00    -0.273 OA
HETATM   21  H   UNL     1      -9.178   6.737 -36.362  1.00  0.00     0.169 HD
BRANCH  19  22
HETATM   22  C   UNL     1     -10.730   8.668 -36.546  1.00  0.00     0.159 C 
BRANCH  22  23
HETATM   23  C   UNL     1     -11.767   8.728 -37.628  1.00  0.00     0.017 A 
HETATM   24  N   UNL     1     -13.077   8.348 -37.432  1.00  0.00    -0.369 N 
HETATM   25  H   UNL     1     -13.435   7.960 -36.562  1.00  0.00     0.165 HD
HETATM   26  C   UNL     1     -13.794   8.533 -38.583  1.00  0.00     0.088 A 
HETATM   27  C   UNL     1     -12.943   9.044 -39.534  1.00  0.00     0.019 A 
HETATM   28  C   UNL     1     -11.667   9.170 -38.935  1.00  0.00     0.027 A 
ENDBRANCH  22  23
ENDBRANCH  19  22
ENDBRANCH  15  18
ENDBRANCH  11  12
ENDBRANCH   2  11
TORSDOF 6
ENDMDL
