MODEL 1
REMARK VINA RESULT:      -8.1      0.000      0.000
REMARK  3 active torsions:
REMARK  status: ('A' for Active; 'I' for Inactive)
REMARK    1  A    between atoms: C_2  and  N_3 
REMARK    2  A    between atoms: N_10  and  C_11 
REMARK    3  A    between atoms: C_11  and  C_12 
ROOT
HETATM    1  N   UNL     1     -12.593   1.816 -33.494  1.00  0.00    -0.063 N 
HETATM    2  H   UNL     1     -12.208   2.454 -32.771  1.00  0.00     0.280 HD
HETATM    3  C   UNL     1     -11.588   0.670 -33.501  1.00  0.00     0.277 C 
HETATM    4  C   UNL     1     -10.153   1.209 -33.328  1.00  0.00     0.132 C 
HETATM    5  O   UNL     1     -10.204   2.058 -32.149  1.00  0.00    -0.373 OA
HETATM    6  C   UNL     1      -8.890   2.448 -31.708  1.00  0.00     0.199 C 
HETATM    7  C   UNL     1      -8.037   1.219 -31.362  1.00  0.00     0.299 C 
HETATM    8  N   UNL     1      -7.922   0.265 -32.476  1.00  0.00     0.097 N 
HETATM    9  C   UNL     1      -9.226  -0.018 -33.077  1.00  0.00     0.314 C 
HETATM   10  C   UNL     1      -9.746   2.020 -34.582  1.00  0.00     0.209 C 
HETATM   11  O   UNL     1     -10.186   3.371 -34.516  1.00  0.00    -0.386 OA
HETATM   12  C   UNL     1     -11.536   3.700 -34.796  1.00  0.00     0.195 C 
HETATM   13  C   UNL     1     -12.584   2.587 -34.804  1.00  0.00     0.261 C 
ENDROOT
BRANCH   1  14
HETATM   14  C   UNL     1     -14.001   1.451 -33.036  1.00  0.00     0.180 C 
HETATM   15  C   UNL     1     -14.828   0.928 -34.208  1.00  0.00     0.039 C 
HETATM   16  C   UNL     1     -14.672   2.626 -32.333  1.00  0.00     0.039 C 
ENDBRANCH   1  14
BRANCH   8  17
HETATM   17  C   UNL     1      -6.839   0.567 -33.410  1.00  0.00     0.311 C 
BRANCH  17  18
HETATM   18  C   UNL     1      -6.010  -0.670 -33.680  1.00  0.00    -0.030 A 
HETATM   19  C   UNL     1      -4.852  -0.916 -32.921  1.00  0.00     0.012 A 
HETATM   20  C   UNL     1      -4.076  -2.051 -33.159  1.00  0.00     0.043 A 
HETATM   21  C   UNL     1      -4.453  -2.940 -34.160  1.00  0.00     0.116 A 
HETATM   22  F   UNL     1      -3.711  -4.029 -34.388  1.00  0.00    -0.206 F 
HETATM   23  C   UNL     1      -5.588  -2.708 -34.929  1.00  0.00     0.043 A 
HETATM   24  C   UNL     1      -6.366  -1.572 -34.693  1.00  0.00     0.012 A 
ENDBRANCH  17  18
ENDBRANCH   8  17
TORSDOF 3
ENDMDL
MODEL 2
REMARK VINA RESULT:      -7.8      4.391      6.761
REMARK  3 active torsions:
REMARK  status: ('A' for Active; 'I' for Inactive)
REMARK    1  A    between atoms: C_2  and  N_3 
REMARK    2  A    between atoms: N_10  and  C_11 
REMARK    3  A    between atoms: C_11  and  C_12 
ROOT
HETATM    1  N   UNL     1      -6.184  -1.163 -33.876  1.00  0.00    -0.063 N 
HETATM    2  H   UNL     1      -6.813  -1.052 -33.057  1.00  0.00     0.280 HD
HETATM    3  C   UNL     1      -5.011  -0.255 -33.524  1.00  0.00     0.277 C 
HETATM    4  C   UNL     1      -5.513   1.032 -32.834  1.00  0.00     0.132 C 
HETATM    5  O   UNL     1      -6.366   0.575 -31.749  1.00  0.00    -0.373 OA
HETATM    6  C   UNL     1      -6.723   1.646 -30.857  1.00  0.00     0.199 C 
HETATM    7  C   UNL     1      -5.472   2.282 -30.232  1.00  0.00     0.299 C 
HETATM    8  N   UNL     1      -4.512   2.772 -31.233  1.00  0.00     0.097 N 
HETATM    9  C   UNL     1      -4.262   1.771 -32.270  1.00  0.00     0.314 C 
HETATM   10  C   UNL     1      -6.309   1.889 -33.847  1.00  0.00     0.209 C 
HETATM   11  O   UNL     1      -7.671   1.490 -33.937  1.00  0.00    -0.386 OA
HETATM   12  C   UNL     1      -8.036   0.345 -34.688  1.00  0.00     0.195 C 
HETATM   13  C   UNL     1      -6.950  -0.656 -35.086  1.00  0.00     0.261 C 
ENDROOT
BRANCH   1  14
HETATM   14  C   UNL     1      -5.857  -2.650 -33.966  1.00  0.00     0.180 C 
HETATM   15  C   UNL     1      -4.405  -2.856 -34.391  1.00  0.00     0.039 C 
HETATM   16  C   UNL     1      -6.837  -3.373 -34.885  1.00  0.00     0.039 C 
ENDBRANCH   1  14
BRANCH   8  17
HETATM   17  C   UNL     1      -4.783   4.129 -31.705  1.00  0.00     0.311 C 
BRANCH  17  18
HETATM   18  C   UNL     1      -3.699   4.586 -32.656  1.00  0.00    -0.030 A 
HETATM   19  C   UNL     1      -2.368   4.676 -32.209  1.00  0.00     0.012 A 
HETATM   20  C   UNL     1      -1.357   5.098 -33.073  1.00  0.00     0.043 A 
HETATM   21  C   UNL     1      -1.674   5.437 -34.385  1.00  0.00     0.116 A 
HETATM   22  F   UNL     1      -0.706   5.839 -35.214  1.00  0.00    -0.206 F 
HETATM   23  C   UNL     1      -2.986   5.366 -34.841  1.00  0.00     0.043 A 
HETATM   24  C   UNL     1      -3.999   4.943 -33.978  1.00  0.00     0.012 A 
ENDBRANCH  17  18
ENDBRANCH   8  17
TORSDOF 3
ENDMDL
MODEL 3
REMARK VINA RESULT:      -7.6      4.828      6.238
REMARK  3 active torsions:
REMARK  status: ('A' for Active; 'I' for Inactive)
REMARK    1  A    between atoms: C_2  and  N_3 
REMARK    2  A    between atoms: N_10  and  C_11 
REMARK    3  A    between atoms: C_11  and  C_12 
ROOT
HETATM    1  N   UNL     1      -4.801   5.402 -32.057  1.00  0.00    -0.063 N 
HETATM    2  H   UNL     1      -4.878   5.001 -31.102  1.00  0.00     0.280 HD
HETATM    3  C   UNL     1      -5.332   4.277 -32.937  1.00  0.00     0.277 C 
HETATM    4  C   UNL     1      -4.865   2.906 -32.404  1.00  0.00     0.132 C 
HETATM    5  O   UNL     1      -5.234   2.899 -30.998  1.00  0.00    -0.373 OA
HETATM    6  C   UNL     1      -5.084   1.594 -30.408  1.00  0.00     0.199 C 
HETATM    7  C   UNL     1      -5.963   0.560 -31.128  1.00  0.00     0.299 C 
HETATM    8  N   UNL     1      -5.698   0.483 -32.573  1.00  0.00     0.097 N 
HETATM    9  C   UNL     1      -5.657   1.813 -33.182  1.00  0.00     0.314 C 
HETATM   10  C   UNL     1      -3.333   2.775 -32.579  1.00  0.00     0.209 C 
HETATM   11  O   UNL     1      -2.614   3.360 -31.501  1.00  0.00    -0.386 OA
HETATM   12  C   UNL     1      -2.441   4.766 -31.434  1.00  0.00     0.195 C 
HETATM   13  C   UNL     1      -3.324   5.663 -32.301  1.00  0.00     0.261 C 
ENDROOT
BRANCH   1  14
HETATM   14  C   UNL     1      -5.632   6.680 -32.052  1.00  0.00     0.180 C 
HETATM   15  C   UNL     1      -5.606   7.333 -30.672  1.00  0.00     0.039 C 
HETATM   16  C   UNL     1      -7.052   6.414 -32.540  1.00  0.00     0.039 C 
ENDBRANCH   1  14
BRANCH   8  17
HETATM   17  C   UNL     1      -4.604  -0.418 -32.932  1.00  0.00     0.311 C 
BRANCH  17  18
HETATM   18  C   UNL     1      -5.138  -1.646 -33.637  1.00  0.00    -0.030 A 
HETATM   19  C   UNL     1      -6.490  -1.702 -34.018  1.00  0.00     0.012 A 
HETATM   20  C   UNL     1      -6.998  -2.828 -34.667  1.00  0.00     0.043 A 
HETATM   21  C   UNL     1      -6.155  -3.903 -34.933  1.00  0.00     0.116 A 
HETATM   22  F   UNL     1      -6.641  -4.981 -35.556  1.00  0.00    -0.206 F 
HETATM   23  C   UNL     1      -4.818  -3.871 -34.553  1.00  0.00     0.043 A 
HETATM   24  C   UNL     1      -4.308  -2.745 -33.903  1.00  0.00     0.012 A 
ENDBRANCH  17  18
ENDBRANCH   8  17
TORSDOF 3
ENDMDL
MODEL 4
REMARK VINA RESULT:      -7.5      3.707      4.508
REMARK  3 active torsions:
REMARK  status: ('A' for Active; 'I' for Inactive)
REMARK    1  A    between atoms: C_2  and  N_3 
REMARK    2  A    between atoms: N_10  and  C_11 
REMARK    3  A    between atoms: C_11  and  C_12 
ROOT
HETATM    1  N   UNL     1      -7.739   4.502 -30.659  1.00  0.00    -0.063 N 
HETATM    2  H   UNL     1      -7.060   4.019 -30.039  1.00  0.00     0.280 HD
HETATM    3  C   UNL     1      -8.245   3.373 -31.548  1.00  0.00     0.277 C 
HETATM    4  C   UNL     1      -7.092   2.412 -31.910  1.00  0.00     0.132 C 
HETATM    5  O   UNL     1      -6.482   2.054 -30.640  1.00  0.00    -0.373 OA
HETATM    6  C   UNL     1      -5.541   0.973 -30.780  1.00  0.00     0.199 C 
HETATM    7  C   UNL     1      -6.224  -0.283 -31.342  1.00  0.00     0.299 C 
HETATM    8  N   UNL     1      -6.900  -0.046 -32.626  1.00  0.00     0.097 N 
HETATM    9  C   UNL     1      -7.729   1.159 -32.582  1.00  0.00     0.314 C 
HETATM   10  C   UNL     1      -6.080   3.137 -32.830  1.00  0.00     0.209 C 
HETATM   11  O   UNL     1      -5.126   3.892 -32.094  1.00  0.00    -0.386 OA
HETATM   12  C   UNL     1      -5.473   5.156 -31.555  1.00  0.00     0.195 C 
HETATM   13  C   UNL     1      -6.951   5.535 -31.447  1.00  0.00     0.261 C 
ENDROOT
BRANCH   1  14
HETATM   14  C   UNL     1      -8.781   5.132 -29.741  1.00  0.00     0.180 C 
HETATM   15  C   UNL     1      -9.832   5.882 -30.558  1.00  0.00     0.039 C 
HETATM   16  C   UNL     1      -8.124   6.020 -28.690  1.00  0.00     0.039 C 
ENDBRANCH   1  14
BRANCH   8  17
HETATM   17  C   UNL     1      -6.029  -0.181 -33.792  1.00  0.00     0.311 C 
BRANCH  17  18
HETATM   18  C   UNL     1      -5.790  -1.640 -34.111  1.00  0.00    -0.030 A 
HETATM   19  C   UNL     1      -4.501  -2.185 -33.977  1.00  0.00     0.012 A 
HETATM   20  C   UNL     1      -4.265  -3.529 -34.269  1.00  0.00     0.043 A 
HETATM   21  C   UNL     1      -5.316  -4.330 -34.701  1.00  0.00     0.116 A 
HETATM   22  F   UNL     1      -5.091  -5.619 -34.979  1.00  0.00    -0.206 F 
HETATM   23  C   UNL     1      -6.595  -3.807 -34.851  1.00  0.00     0.043 A 
HETATM   24  C   UNL     1      -6.834  -2.463 -34.560  1.00  0.00     0.012 A 
ENDBRANCH  17  18
ENDBRANCH   8  17
TORSDOF 3
ENDMDL
MODEL 5
REMARK VINA RESULT:      -7.2      4.811      7.374
REMARK  3 active torsions:
REMARK  status: ('A' for Active; 'I' for Inactive)
REMARK    1  A    between atoms: C_2  and  N_3 
REMARK    2  A    between atoms: N_10  and  C_11 
REMARK    3  A    between atoms: C_11  and  C_12 
ROOT
HETATM    1  N   UNL     1      -3.220   5.977 -33.043  1.00  0.00    -0.063 N 
HETATM    2  H   UNL     1      -3.999   6.637 -32.850  1.00  0.00     0.280 HD
HETATM    3  C   UNL     1      -3.916   4.847 -33.793  1.00  0.00     0.277 C 
HETATM    4  C   UNL     1      -5.310   4.576 -33.190  1.00  0.00     0.132 C 
HETATM    5  O   UNL     1      -5.968   5.872 -33.154  1.00  0.00    -0.373 OA
HETATM    6  C   UNL     1      -7.369   5.756 -32.841  1.00  0.00     0.199 C 
HETATM    7  C   UNL     1      -8.097   4.891 -33.881  1.00  0.00     0.299 C 
HETATM    8  N   UNL     1      -7.511   3.550 -34.027  1.00  0.00     0.097 N 
HETATM    9  C   UNL     1      -6.055   3.613 -34.163  1.00  0.00     0.314 C 
HETATM   10  C   UNL     1      -5.157   3.989 -31.766  1.00  0.00     0.209 C 
HETATM   11  O   UNL     1      -5.004   5.001 -30.779  1.00  0.00    -0.386 OA
HETATM   12  C   UNL     1      -3.754   5.646 -30.600  1.00  0.00     0.195 C 
HETATM   13  C   UNL     1      -2.693   5.520 -31.693  1.00  0.00     0.261 C 
ENDROOT
BRANCH   1  14
HETATM   14  C   UNL     1      -2.186   6.759 -33.846  1.00  0.00     0.180 C 
HETATM   15  C   UNL     1      -1.241   5.806 -34.575  1.00  0.00     0.039 C 
HETATM   16  C   UNL     1      -1.438   7.750 -32.961  1.00  0.00     0.039 C 
ENDBRANCH   1  14
BRANCH   8  17
HETATM   17  C   UNL     1      -8.022   2.568 -33.072  1.00  0.00     0.311 C 
BRANCH  17  18
HETATM   18  C   UNL     1      -7.538   1.179 -33.428  1.00  0.00    -0.030 A 
HETATM   19  C   UNL     1      -7.871   0.620 -34.675  1.00  0.00     0.012 A 
HETATM   20  C   UNL     1      -7.434  -0.660 -35.017  1.00  0.00     0.043 A 
HETATM   21  C   UNL     1      -6.668  -1.386 -34.112  1.00  0.00     0.116 A 
HETATM   22  F   UNL     1      -6.247  -2.613 -34.440  1.00  0.00    -0.206 F 
HETATM   23  C   UNL     1      -6.338  -0.855 -32.870  1.00  0.00     0.043 A 
HETATM   24  C   UNL     1      -6.774   0.426 -32.526  1.00  0.00     0.012 A 
ENDBRANCH  17  18
ENDBRANCH   8  17
TORSDOF 3
ENDMDL
MODEL 6
REMARK VINA RESULT:      -7.1      4.144      6.346
REMARK  3 active torsions:
REMARK  status: ('A' for Active; 'I' for Inactive)
REMARK    1  A    between atoms: C_2  and  N_3 
REMARK    2  A    between atoms: N_10  and  C_11 
REMARK    3  A    between atoms: C_11  and  C_12 
ROOT
HETATM    1  N   UNL     1      -4.836   5.545 -31.115  1.00  0.00    -0.063 N 
HETATM    2  H   UNL     1      -5.694   5.614 -31.696  1.00  0.00     0.280 HD
HETATM    3  C   UNL     1      -4.200   4.250 -31.607  1.00  0.00     0.277 C 
HETATM    4  C   UNL     1      -5.285   3.189 -31.892  1.00  0.00     0.132 C 
HETATM    5  O   UNL     1      -6.243   3.849 -32.764  1.00  0.00    -0.373 OA
HETATM    6  C   UNL     1      -7.195   2.921 -33.318  1.00  0.00     0.199 C 
HETATM    7  C   UNL     1      -6.488   1.831 -34.139  1.00  0.00     0.299 C 
HETATM    8  N   UNL     1      -5.472   1.097 -33.369  1.00  0.00     0.097 N 
HETATM    9  C   UNL     1      -4.593   2.008 -32.636  1.00  0.00     0.314 C 
HETATM   10  C   UNL     1      -5.948   2.754 -30.563  1.00  0.00     0.209 C 
HETATM   11  O   UNL     1      -7.002   3.626 -30.175  1.00  0.00    -0.386 OA
HETATM   12  C   UNL     1      -6.714   4.875 -29.570  1.00  0.00     0.195 C 
HETATM   13  C   UNL     1      -5.296   5.437 -29.671  1.00  0.00     0.261 C 
ENDROOT
BRANCH   1  14
HETATM   14  C   UNL     1      -4.034   6.813 -31.385  1.00  0.00     0.180 C 
HETATM   15  C   UNL     1      -3.128   6.627 -32.600  1.00  0.00     0.039 C 
HETATM   16  C   UNL     1      -3.258   7.247 -30.146  1.00  0.00     0.039 C 
ENDBRANCH   1  14
BRANCH   8  17
HETATM   17  C   UNL     1      -6.003  -0.031 -32.606  1.00  0.00     0.311 C 
BRANCH  17  18
HETATM   18  C   UNL     1      -5.912  -1.308 -33.413  1.00  0.00    -0.030 A 
HETATM   19  C   UNL     1      -4.655  -1.874 -33.688  1.00  0.00     0.012 A 
HETATM   20  C   UNL     1      -4.554  -3.050 -34.433  1.00  0.00     0.043 A 
HETATM   21  C   UNL     1      -5.711  -3.659 -34.909  1.00  0.00     0.116 A 
HETATM   22  F   UNL     1      -5.615  -4.787 -35.621  1.00  0.00    -0.206 F 
HETATM   23  C   UNL     1      -6.962  -3.108 -34.658  1.00  0.00     0.043 A 
HETATM   24  C   UNL     1      -7.064  -1.931 -33.913  1.00  0.00     0.012 A 
ENDBRANCH  17  18
ENDBRANCH   8  17
TORSDOF 3
ENDMDL
MODEL 7
REMARK VINA RESULT:      -7.1     14.913     17.717
REMARK  3 active torsions:
REMARK  status: ('A' for Active; 'I' for Inactive)
REMARK    1  A    between atoms: C_2  and  N_3 
REMARK    2  A    between atoms: N_10  and  C_11 
REMARK    3  A    between atoms: C_11  and  C_12 
ROOT
HETATM    1  N   UNL     1      -1.448 -14.402 -38.830  1.00  0.00    -0.063 N 
HETATM    2  H   UNL     1      -1.643 -13.920 -39.729  1.00  0.00     0.280 HD
HETATM    3  C   UNL     1      -2.781 -15.070 -38.512  1.00  0.00     0.277 C 
HETATM    4  C   UNL     1      -3.955 -14.145 -38.899  1.00  0.00     0.132 C 
HETATM    5  O   UNL     1      -3.700 -13.764 -40.278  1.00  0.00    -0.373 OA
HETATM    6  C   UNL     1      -4.829 -13.093 -40.869  1.00  0.00     0.199 C 
HETATM    7  C   UNL     1      -6.073 -13.994 -40.855  1.00  0.00     0.299 C 
HETATM    8  N   UNL     1      -6.428 -14.466 -39.508  1.00  0.00     0.097 N 
HETATM    9  C   UNL     1      -5.260 -14.989 -38.798  1.00  0.00     0.314 C 
HETATM   10  C   UNL     1      -3.969 -12.906 -37.971  1.00  0.00     0.209 C 
HETATM   11  O   UNL     1      -3.100 -11.878 -38.430  1.00  0.00    -0.386 OA
HETATM   12  C   UNL     1      -1.702 -11.970 -38.212  1.00  0.00     0.195 C 
HETATM   13  C   UNL     1      -1.100 -13.320 -37.822  1.00  0.00     0.261 C 
ENDROOT
BRANCH   1  14
HETATM   14  C   UNL     1      -0.286 -15.353 -39.099  1.00  0.00     0.180 C 
HETATM   15  C   UNL     1       1.048 -14.631 -38.924  1.00  0.00     0.039 C 
HETATM   16  C   UNL     1      -0.416 -16.006 -40.470  1.00  0.00     0.039 C 
ENDBRANCH   1  14
BRANCH   8  17
HETATM   17  C   UNL     1      -7.273 -13.541 -38.755  1.00  0.00     0.311 C 
BRANCH  17  18
HETATM   18  C   UNL     1      -8.658 -13.475 -39.359  1.00  0.00    -0.030 A 
HETATM   19  C   UNL     1      -9.353 -14.663 -39.650  1.00  0.00     0.012 A 
HETATM   20  C   UNL     1     -10.630 -14.619 -40.209  1.00  0.00     0.043 A 
HETATM   21  C   UNL     1     -11.215 -13.387 -40.484  1.00  0.00     0.116 A 
HETATM   22  F   UNL     1     -12.440 -13.344 -41.018  1.00  0.00    -0.206 F 
HETATM   23  C   UNL     1     -10.540 -12.202 -40.215  1.00  0.00     0.043 A 
HETATM   24  C   UNL     1      -9.261 -12.244 -39.655  1.00  0.00     0.012 A 
ENDBRANCH  17  18
ENDBRANCH   8  17
TORSDOF 3
ENDMDL
MODEL 8
REMARK VINA RESULT:      -6.9      5.933      8.786
REMARK  3 active torsions:
REMARK  status: ('A' for Active; 'I' for Inactive)
REMARK    1  A    between atoms: C_2  and  N_3 
REMARK    2  A    between atoms: N_10  and  C_11 
REMARK    3  A    between atoms: C_11  and  C_12 
ROOT
HETATM    1  N   UNL     1      -1.180   5.806 -31.982  1.00  0.00    -0.063 N 
HETATM    2  H   UNL     1      -0.942   4.812 -32.164  1.00  0.00     0.280 HD
HETATM    3  C   UNL     1      -2.620   5.721 -31.489  1.00  0.00     0.277 C 
HETATM    4  C   UNL     1      -3.400   4.651 -32.282  1.00  0.00     0.132 C 
HETATM    5  O   UNL     1      -2.585   3.450 -32.204  1.00  0.00    -0.373 OA
HETATM    6  C   UNL     1      -3.286   2.290 -32.691  1.00  0.00     0.199 C 
HETATM    7  C   UNL     1      -4.566   2.040 -31.879  1.00  0.00     0.299 C 
HETATM    8  N   UNL     1      -5.475   3.197 -31.863  1.00  0.00     0.097 N 
HETATM    9  C   UNL     1      -4.760   4.435 -31.553  1.00  0.00     0.314 C 
HETATM   10  C   UNL     1      -3.573   5.113 -33.749  1.00  0.00     0.209 C 
HETATM   11  O   UNL     1      -2.447   4.788 -34.554  1.00  0.00    -0.386 OA
HETATM   12  C   UNL     1      -1.270   5.574 -34.492  1.00  0.00     0.195 C 
HETATM   13  C   UNL     1      -1.078   6.530 -33.314  1.00  0.00     0.261 C 
ENDROOT
BRANCH   1  14
HETATM   14  C   UNL     1      -0.166   6.308 -30.959  1.00  0.00     0.180 C 
HETATM   15  C   UNL     1       0.370   5.149 -30.121  1.00  0.00     0.039 C 
HETATM   16  C   UNL     1      -0.757   7.419 -30.099  1.00  0.00     0.039 C 
ENDBRANCH   1  14
BRANCH   8  17
HETATM   17  C   UNL     1      -6.388   3.254 -33.003  1.00  0.00     0.311 C 
BRANCH  17  18
HETATM   18  C   UNL     1      -7.455   2.188 -32.883  1.00  0.00    -0.030 A 
HETATM   19  C   UNL     1      -7.827   1.439 -34.013  1.00  0.00     0.012 A 
HETATM   20  C   UNL     1      -8.811   0.454 -33.918  1.00  0.00     0.043 A 
HETATM   21  C   UNL     1      -9.429   0.220 -32.694  1.00  0.00     0.116 A 
HETATM   22  F   UNL     1     -10.371  -0.725 -32.602  1.00  0.00    -0.206 F 
HETATM   23  C   UNL     1      -9.084   0.959 -31.568  1.00  0.00     0.043 A 
HETATM   24  C   UNL     1      -8.099   1.945 -31.661  1.00  0.00     0.012 A 
ENDBRANCH  17  18
ENDBRANCH   8  17
TORSDOF 3
ENDMDL
MODEL 9
REMARK VINA RESULT:      -6.7     11.704     13.893
REMARK  3 active torsions:
REMARK  status: ('A' for Active; 'I' for Inactive)
REMARK    1  A    between atoms: C_2  and  N_3 
REMARK    2  A    between atoms: N_10  and  C_11 
REMARK    3  A    between atoms: C_11  and  C_12 
ROOT
HETATM    1  N   UNL     1       0.337  10.020 -24.846  1.00  0.00    -0.063 N 
HETATM    2  H   UNL     1       0.070   9.047 -24.601  1.00  0.00     0.280 HD
HETATM    3  C   UNL     1      -0.183  10.163 -26.271  1.00  0.00     0.277 C 
HETATM    4  C   UNL     1       0.035   8.855 -27.060  1.00  0.00     0.132 C 
HETATM    5  O   UNL     1      -0.541   7.809 -26.230  1.00  0.00    -0.373 OA
HETATM    6  C   UNL     1      -0.635   6.555 -26.931  1.00  0.00     0.199 C 
HETATM    7  C   UNL     1      -1.510   6.691 -28.187  1.00  0.00     0.299 C 
HETATM    8  N   UNL     1      -1.040   7.738 -29.107  1.00  0.00     0.097 N 
HETATM    9  C   UNL     1      -0.753   8.985 -28.398  1.00  0.00     0.314 C 
HETATM   10  C   UNL     1       1.550   8.624 -27.277  1.00  0.00     0.209 C 
HETATM   11  O   UNL     1       2.161   7.975 -26.169  1.00  0.00    -0.386 OA
HETATM   12  C   UNL     1       2.485   8.707 -24.999  1.00  0.00     0.195 C 
HETATM   13  C   UNL     1       1.854  10.083 -24.787  1.00  0.00     0.261 C 
ENDROOT
BRANCH   1  14
HETATM   14  C   UNL     1      -0.330  10.919 -23.810  1.00  0.00     0.180 C 
HETATM   15  C   UNL     1       0.079  10.507 -22.398  1.00  0.00     0.039 C 
HETATM   16  C   UNL     1      -1.844  10.937 -23.992  1.00  0.00     0.039 C 
ENDBRANCH   1  14
BRANCH   8  17
HETATM   17  C   UNL     1      -0.018   7.288 -30.050  1.00  0.00     0.311 C 
BRANCH  17  18
HETATM   18  C   UNL     1      -0.647   6.898 -31.370  1.00  0.00    -0.030 A 
HETATM   19  C   UNL     1      -0.562   5.569 -31.821  1.00  0.00     0.012 A 
HETATM   20  C   UNL     1      -1.136   5.194 -33.036  1.00  0.00     0.043 A 
HETATM   21  C   UNL     1      -1.792   6.149 -33.806  1.00  0.00     0.116 A 
HETATM   22  F   UNL     1      -2.344   5.789 -34.970  1.00  0.00    -0.206 F 
HETATM   23  C   UNL     1      -1.877   7.470 -33.383  1.00  0.00     0.043 A 
HETATM   24  C   UNL     1      -1.303   7.847 -32.167  1.00  0.00     0.012 A 
ENDBRANCH  17  18
ENDBRANCH   8  17
TORSDOF 3
ENDMDL
MODEL 10
REMARK VINA RESULT:      -6.6     14.828     17.000
REMARK  3 active torsions:
REMARK  status: ('A' for Active; 'I' for Inactive)
REMARK    1  A    between atoms: C_2  and  N_3 
REMARK    2  A    between atoms: N_10  and  C_11 
REMARK    3  A    between atoms: C_11  and  C_12 
ROOT
HETATM    1  N   UNL     1      -1.950 -14.343 -38.912  1.00  0.00    -0.063 N 
HETATM    2  H   UNL     1      -2.586 -13.980 -39.648  1.00  0.00     0.280 HD
HETATM    3  C   UNL     1      -2.915 -14.985 -37.921  1.00  0.00     0.277 C 
HETATM    4  C   UNL     1      -4.196 -14.135 -37.785  1.00  0.00     0.132 C 
HETATM    5  O   UNL     1      -4.661 -13.927 -39.147  1.00  0.00    -0.373 OA
HETATM    6  C   UNL     1      -5.981 -13.354 -39.183  1.00  0.00     0.199 C 
HETATM    7  C   UNL     1      -6.996 -14.264 -38.477  1.00  0.00     0.299 C 
HETATM    8  N   UNL     1      -6.628 -14.569 -37.086  1.00  0.00     0.097 N 
HETATM    9  C   UNL     1      -5.228 -14.980 -36.980  1.00  0.00     0.314 C 
HETATM   10  C   UNL     1      -3.857 -12.790 -37.100  1.00  0.00     0.209 C 
HETATM   11  O   UNL     1      -3.392 -11.815 -38.024  1.00  0.00    -0.386 OA
HETATM   12  C   UNL     1      -2.058 -11.856 -38.501  1.00  0.00     0.195 C 
HETATM   13  C   UNL     1      -1.244 -13.137 -38.314  1.00  0.00     0.261 C 
ENDROOT
BRANCH   1  14
HETATM   14  C   UNL     1      -0.991 -15.301 -39.609  1.00  0.00     0.180 C 
HETATM   15  C   UNL     1       0.418 -14.714 -39.651  1.00  0.00     0.039 C 
HETATM   16  C   UNL     1      -1.502 -15.679 -40.995  1.00  0.00     0.039 C 
ENDBRANCH   1  14
BRANCH   8  17
HETATM   17  C   UNL     1      -7.076 -13.569 -36.118  1.00  0.00     0.311 C 
BRANCH  17  18
HETATM   18  C   UNL     1      -6.674 -13.971 -34.715  1.00  0.00    -0.030 A 
HETATM   19  C   UNL     1      -5.885 -13.105 -33.937  1.00  0.00     0.012 A 
HETATM   20  C   UNL     1      -5.505 -13.461 -32.643  1.00  0.00     0.043 A 
HETATM   21  C   UNL     1      -5.907 -14.688 -32.126  1.00  0.00     0.116 A 
HETATM   22  F   UNL     1      -5.545 -15.030 -30.885  1.00  0.00    -0.206 F 
HETATM   23  C   UNL     1      -6.677 -15.564 -32.883  1.00  0.00     0.043 A 
HETATM   24  C   UNL     1      -7.059 -15.208 -34.179  1.00  0.00     0.012 A 
ENDBRANCH  17  18
ENDBRANCH   8  17
TORSDOF 3
ENDMDL
