MODEL 1
REMARK VINA RESULT:      -8.2      0.000      0.000
REMARK  5 active torsions:
REMARK  status: ('A' for Active; 'I' for Inactive)
REMARK    1  A    between atoms: C_6  and  C_7 
REMARK    2  A    between atoms: C_7  and  C_8 
REMARK       I    between atoms: C_8  and  N_9 
REMARK    3  A    between atoms: N_9  and  N_10 
REMARK    4  A    between atoms: C_11  and  C_12 
REMARK    5  A    between atoms: C_13  and  O_14 
ROOT
HETATM    1  C   UNL     1      -6.542   2.594 -32.039  1.00  0.00     0.244 C 
HETATM    2  N   UNL     1      -5.681   2.767 -33.106  1.00  0.00    -0.247 N 
HETATM    3  O   UNL     1      -6.692   3.422 -31.137  1.00  0.00    -0.271 OA
HETATM    4  H   UNL     1      -5.528   1.981 -33.747  1.00  0.00     0.192 HD
ENDROOT
BRANCH   1   5
HETATM    5  C   UNL     1      -7.412   1.350 -32.081  1.00  0.00     0.183 C 
BRANCH   5   6
HETATM    6  C   UNL     1      -6.766   0.155 -32.702  1.00  0.00     0.114 A 
HETATM    7  N   UNL     1      -5.479  -0.137 -32.746  1.00  0.00    -0.233 NA
HETATM    8  C   UNL     1      -5.387  -1.309 -33.462  1.00  0.00     0.085 A 
HETATM    9  C   UNL     1      -6.641  -1.728 -33.885  1.00  0.00     0.062 A 
HETATM   10  C   UNL     1      -4.259  -2.071 -33.798  1.00  0.00     0.034 A 
HETATM   11  C   UNL     1      -6.850  -2.878 -34.650  1.00  0.00     0.032 A 
HETATM   12  N   UNL     1      -7.501  -0.786 -33.385  1.00  0.00    -0.342 N 
HETATM   13  C   UNL     1      -5.713  -3.624 -34.982  1.00  0.00     0.002 A 
HETATM   14  C   UNL     1      -4.439  -3.232 -34.562  1.00  0.00     0.002 A 
HETATM   15  H   UNL     1      -8.504  -0.779 -33.509  1.00  0.00     0.167 HD
ENDBRANCH   5   6
ENDBRANCH   1   5
BRANCH   2  16
HETATM   16  N   UNL     1      -4.928   3.895 -33.201  1.00  0.00    -0.184 NA
HETATM   17  C   UNL     1      -3.660   3.734 -32.997  1.00  0.00     0.153 C 
BRANCH  17  18
HETATM   18  C   UNL     1      -2.735   4.882 -33.081  1.00  0.00     0.017 A 
HETATM   19  C   UNL     1      -2.779   5.794 -34.143  1.00  0.00     0.077 A 
HETATM   20  C   UNL     1      -1.886   6.863 -34.188  1.00  0.00     0.039 A 
HETATM   21  C   UNL     1      -0.943   7.027 -33.172  1.00  0.00     0.022 A 
HETATM   22  C   UNL     1      -0.901   6.116 -32.116  1.00  0.00     0.012 A 
HETATM   23 BR   UNL     1       0.379   6.338 -30.742  1.00  0.00    -0.051 Br
HETATM   24  C   UNL     1      -1.791   5.043 -32.061  1.00  0.00     0.034 A 
BRANCH  19  25
HETATM   25  O   UNL     1      -3.669   5.704 -35.178  1.00  0.00    -0.360 OA
HETATM   26  H   UNL     1      -3.175   5.456 -35.994  1.00  0.00     0.217 HD
ENDBRANCH  19  25
ENDBRANCH  17  18
ENDBRANCH   2  16
TORSDOF 5
ENDMDL
MODEL 2
REMARK VINA RESULT:      -8.2      4.572      9.476
REMARK  5 active torsions:
REMARK  status: ('A' for Active; 'I' for Inactive)
REMARK    1  A    between atoms: C_6  and  C_7 
REMARK    2  A    between atoms: C_7  and  C_8 
REMARK       I    between atoms: C_8  and  N_9 
REMARK    3  A    between atoms: N_9  and  N_10 
REMARK    4  A    between atoms: C_11  and  C_12 
REMARK    5  A    between atoms: C_13  and  O_14 
ROOT
HETATM    1  C   UNL     1      -2.199   4.839 -31.383  1.00  0.00     0.244 C 
HETATM    2  N   UNL     1      -3.085   3.872 -30.948  1.00  0.00    -0.247 N 
HETATM    3  O   UNL     1      -1.294   4.625 -32.194  1.00  0.00    -0.271 OA
HETATM    4  H   UNL     1      -3.731   4.104 -30.186  1.00  0.00     0.192 HD
ENDROOT
BRANCH   1   5
HETATM    5  C   UNL     1      -2.461   6.252 -30.891  1.00  0.00     0.183 C 
BRANCH   5   6
HETATM    6  C   UNL     1      -1.506   6.740 -29.852  1.00  0.00     0.114 A 
HETATM    7  N   UNL     1      -0.420   7.471 -30.030  1.00  0.00    -0.233 NA
HETATM    8  C   UNL     1       0.140   7.617 -28.782  1.00  0.00     0.085 A 
HETATM    9  C   UNL     1      -0.604   6.940 -27.825  1.00  0.00     0.062 A 
HETATM   10  C   UNL     1       1.294   8.310 -28.389  1.00  0.00     0.034 A 
HETATM   11  C   UNL     1      -0.260   6.896 -26.472  1.00  0.00     0.032 A 
HETATM   12  N   UNL     1      -1.647   6.395 -28.527  1.00  0.00    -0.342 N 
HETATM   13  C   UNL     1       0.898   7.588 -26.098  1.00  0.00     0.002 A 
HETATM   14  C   UNL     1       1.662   8.287 -27.037  1.00  0.00     0.002 A 
HETATM   15  H   UNL     1      -2.387   5.828 -28.138  1.00  0.00     0.167 HD
ENDBRANCH   5   6
ENDBRANCH   1   5
BRANCH   2  16
HETATM   16  N   UNL     1      -2.984   2.596 -31.406  1.00  0.00    -0.184 NA
HETATM   17  C   UNL     1      -4.108   1.977 -31.579  1.00  0.00     0.153 C 
BRANCH  17  18
HETATM   18  C   UNL     1      -4.132   0.590 -32.081  1.00  0.00     0.017 A 
HETATM   19  C   UNL     1      -3.171  -0.355 -31.698  1.00  0.00     0.077 A 
HETATM   20  C   UNL     1      -3.226  -1.655 -32.197  1.00  0.00     0.039 A 
HETATM   21  C   UNL     1      -4.240  -2.018 -33.084  1.00  0.00     0.022 A 
HETATM   22  C   UNL     1      -5.195  -1.075 -33.465  1.00  0.00     0.012 A 
HETATM   23 BR   UNL     1      -6.567  -1.570 -34.669  1.00  0.00    -0.051 Br
HETATM   24  C   UNL     1      -5.150   0.229 -32.970  1.00  0.00     0.034 A 
BRANCH  19  25
HETATM   25  O   UNL     1      -2.145  -0.080 -30.837  1.00  0.00    -0.360 OA
HETATM   26  H   UNL     1      -1.398  -0.692 -31.034  1.00  0.00     0.217 HD
ENDBRANCH  19  25
ENDBRANCH  17  18
ENDBRANCH   2  16
TORSDOF 5
ENDMDL
MODEL 3
REMARK VINA RESULT:      -7.9      5.183      7.935
REMARK  5 active torsions:
REMARK  status: ('A' for Active; 'I' for Inactive)
REMARK    1  A    between atoms: C_6  and  C_7 
REMARK    2  A    between atoms: C_7  and  C_8 
REMARK       I    between atoms: C_8  and  N_9 
REMARK    3  A    between atoms: N_9  and  N_10 
REMARK    4  A    between atoms: C_11  and  C_12 
REMARK    5  A    between atoms: C_13  and  O_14 
ROOT
HETATM    1  C   UNL     1      -8.742   3.039 -32.474  1.00  0.00     0.244 C 
HETATM    2  N   UNL     1      -8.835   1.696 -32.163  1.00  0.00    -0.247 N 
HETATM    3  O   UNL     1      -7.719   3.574 -32.910  1.00  0.00    -0.271 OA
HETATM    4  H   UNL     1      -9.682   1.356 -31.696  1.00  0.00     0.192 HD
ENDROOT
BRANCH   1   5
HETATM    5  C   UNL     1     -10.028   3.839 -32.360  1.00  0.00     0.183 C 
BRANCH   5   6
HETATM    6  C   UNL     1     -11.265   3.093 -32.741  1.00  0.00     0.114 A 
HETATM    7  N   UNL     1     -11.414   2.222 -33.723  1.00  0.00    -0.233 NA
HETATM    8  C   UNL     1     -12.740   1.852 -33.694  1.00  0.00     0.085 A 
HETATM    9  C   UNL     1     -13.419   2.529 -32.690  1.00  0.00     0.062 A 
HETATM   10  C   UNL     1     -13.438   0.945 -34.503  1.00  0.00     0.034 A 
HETATM   11  C   UNL     1     -14.784   2.368 -32.442  1.00  0.00     0.032 A 
HETATM   12  N   UNL     1     -12.461   3.307 -32.095  1.00  0.00    -0.342 N 
HETATM   13  C   UNL     1     -15.467   1.463 -33.263  1.00  0.00     0.002 A 
HETATM   14  C   UNL     1     -14.808   0.759 -34.274  1.00  0.00     0.002 A 
HETATM   15  H   UNL     1     -12.612   3.939 -31.321  1.00  0.00     0.167 HD
ENDBRANCH   5   6
ENDBRANCH   1   5
BRANCH   2  16
HETATM   16  N   UNL     1      -7.758   0.881 -32.322  1.00  0.00    -0.184 NA
HETATM   17  C   UNL     1      -7.777   0.136 -33.380  1.00  0.00     0.153 C 
BRANCH  17  18
HETATM   18  C   UNL     1      -6.660  -0.785 -33.669  1.00  0.00     0.017 A 
HETATM   19  C   UNL     1      -5.332  -0.458 -33.369  1.00  0.00     0.077 A 
HETATM   20  C   UNL     1      -4.304  -1.354 -33.662  1.00  0.00     0.039 A 
HETATM   21  C   UNL     1      -4.599  -2.582 -34.255  1.00  0.00     0.022 A 
HETATM   22  C   UNL     1      -5.923  -2.905 -34.553  1.00  0.00     0.012 A 
HETATM   23 BR   UNL     1      -6.319  -4.569 -35.361  1.00  0.00    -0.051 Br
HETATM   24  C   UNL     1      -6.959  -2.016 -34.264  1.00  0.00     0.034 A 
BRANCH  19  25
HETATM   25  O   UNL     1      -4.958   0.723 -32.791  1.00  0.00    -0.360 OA
HETATM   26  H   UNL     1      -4.049   0.949 -33.099  1.00  0.00     0.217 HD
ENDBRANCH  19  25
ENDBRANCH  17  18
ENDBRANCH   2  16
TORSDOF 5
ENDMDL
MODEL 4
REMARK VINA RESULT:      -7.8      5.442      8.185
REMARK  5 active torsions:
REMARK  status: ('A' for Active; 'I' for Inactive)
REMARK    1  A    between atoms: C_6  and  C_7 
REMARK    2  A    between atoms: C_7  and  C_8 
REMARK       I    between atoms: C_8  and  N_9 
REMARK    3  A    between atoms: N_9  and  N_10 
REMARK    4  A    between atoms: C_11  and  C_12 
REMARK    5  A    between atoms: C_13  and  O_14 
ROOT
HETATM    1  C   UNL     1      -8.160   1.171 -33.590  1.00  0.00     0.244 C 
HETATM    2  N   UNL     1      -9.330   0.845 -34.249  1.00  0.00    -0.247 N 
HETATM    3  O   UNL     1      -8.115   1.541 -32.414  1.00  0.00    -0.271 OA
HETATM    4  H   UNL     1      -9.292   0.662 -35.257  1.00  0.00     0.192 HD
ENDROOT
BRANCH   1   5
HETATM    5  C   UNL     1      -6.874   0.941 -34.363  1.00  0.00     0.183 C 
BRANCH   5   6
HETATM    6  C   UNL     1      -6.435  -0.485 -34.438  1.00  0.00     0.114 A 
HETATM    7  N   UNL     1      -7.129  -1.523 -34.867  1.00  0.00    -0.233 NA
HETATM    8  C   UNL     1      -6.310  -2.616 -34.693  1.00  0.00     0.085 A 
HETATM    9  C   UNL     1      -5.101  -2.240 -34.122  1.00  0.00     0.062 A 
HETATM   10  C   UNL     1      -6.536  -3.966 -34.994  1.00  0.00     0.034 A 
HETATM   11  C   UNL     1      -4.084  -3.145 -33.812  1.00  0.00     0.032 A 
HETATM   12  N   UNL     1      -5.202  -0.882 -33.974  1.00  0.00    -0.342 N 
HETATM   13  C   UNL     1      -4.329  -4.491 -34.113  1.00  0.00     0.002 A 
HETATM   14  C   UNL     1      -5.531  -4.896 -34.697  1.00  0.00     0.002 A 
HETATM   15  H   UNL     1      -4.493  -0.278 -33.581  1.00  0.00     0.167 HD
ENDBRANCH   5   6
ENDBRANCH   1   5
BRANCH   2  16
HETATM   16  N   UNL     1     -10.525   0.932 -33.606  1.00  0.00    -0.184 NA
HETATM   17  C   UNL     1     -11.355   1.798 -34.092  1.00  0.00     0.153 C 
BRANCH  17  18
HETATM   18  C   UNL     1     -12.689   1.980 -33.487  1.00  0.00     0.017 A 
HETATM   19  C   UNL     1     -13.704   1.026 -33.627  1.00  0.00     0.077 A 
HETATM   20  C   UNL     1     -14.953   1.237 -33.044  1.00  0.00     0.039 A 
HETATM   21  C   UNL     1     -15.193   2.403 -32.316  1.00  0.00     0.022 A 
HETATM   22  C   UNL     1     -14.180   3.352 -32.178  1.00  0.00     0.012 A 
HETATM   23 BR   UNL     1     -14.509   4.932 -31.193  1.00  0.00    -0.051 Br
HETATM   24  C   UNL     1     -12.926   3.150 -32.757  1.00  0.00     0.034 A 
BRANCH  19  25
HETATM   25  O   UNL     1     -13.552  -0.140 -34.326  1.00  0.00    -0.360 OA
HETATM   26  H   UNL     1     -14.419  -0.378 -34.730  1.00  0.00     0.217 HD
ENDBRANCH  19  25
ENDBRANCH  17  18
ENDBRANCH   2  16
TORSDOF 5
ENDMDL
MODEL 5
REMARK VINA RESULT:      -7.6      4.797      7.456
REMARK  5 active torsions:
REMARK  status: ('A' for Active; 'I' for Inactive)
REMARK    1  A    between atoms: C_6  and  C_7 
REMARK    2  A    between atoms: C_7  and  C_8 
REMARK       I    between atoms: C_8  and  N_9 
REMARK    3  A    between atoms: N_9  and  N_10 
REMARK    4  A    between atoms: C_11  and  C_12 
REMARK    5  A    between atoms: C_13  and  O_14 
ROOT
HETATM    1  C   UNL     1      -6.598   1.431 -33.496  1.00  0.00     0.244 C 
HETATM    2  N   UNL     1      -7.700   0.818 -32.929  1.00  0.00    -0.247 N 
HETATM    3  O   UNL     1      -6.645   2.509 -34.094  1.00  0.00    -0.271 OA
HETATM    4  H   UNL     1      -7.596  -0.131 -32.555  1.00  0.00     0.192 HD
ENDROOT
BRANCH   1   5
HETATM    5  C   UNL     1      -5.260   0.756 -33.248  1.00  0.00     0.183 C 
BRANCH   5   6
HETATM    6  C   UNL     1      -5.209  -0.688 -33.626  1.00  0.00     0.114 A 
HETATM    7  N   UNL     1      -6.099  -1.376 -34.317  1.00  0.00    -0.233 NA
HETATM    8  C   UNL     1      -5.623  -2.667 -34.358  1.00  0.00     0.085 A 
HETATM    9  C   UNL     1      -4.429  -2.775 -33.656  1.00  0.00     0.062 A 
HETATM   10  C   UNL     1      -6.163  -3.806 -34.972  1.00  0.00     0.034 A 
HETATM   11  C   UNL     1      -3.729  -3.974 -33.512  1.00  0.00     0.032 A 
HETATM   12  N   UNL     1      -4.184  -1.504 -33.205  1.00  0.00    -0.342 N 
HETATM   13  C   UNL     1      -4.285  -5.102 -34.126  1.00  0.00     0.002 A 
HETATM   14  C   UNL     1      -5.479  -5.022 -34.847  1.00  0.00     0.002 A 
HETATM   15  H   UNL     1      -3.390  -1.220 -32.649  1.00  0.00     0.167 HD
ENDBRANCH   5   6
ENDBRANCH   1   5
BRANCH   2  16
HETATM   16  N   UNL     1      -8.927   1.396 -33.021  1.00  0.00    -0.184 NA
HETATM   17  C   UNL     1      -9.761   0.806 -33.815  1.00  0.00     0.153 C 
BRANCH  17  18
HETATM   18  C   UNL     1     -11.128   1.332 -33.993  1.00  0.00     0.017 A 
HETATM   19  C   UNL     1     -12.261   0.600 -33.617  1.00  0.00     0.077 A 
HETATM   20  C   UNL     1     -13.536   1.130 -33.805  1.00  0.00     0.039 A 
HETATM   21  C   UNL     1     -13.686   2.396 -34.371  1.00  0.00     0.022 A 
HETATM   22  C   UNL     1     -12.557   3.124 -34.746  1.00  0.00     0.012 A 
HETATM   23 BR   UNL     1     -12.764   4.839 -35.516  1.00  0.00    -0.051 Br
HETATM   24  C   UNL     1     -11.276   2.602 -34.561  1.00  0.00     0.034 A 
BRANCH  19  25
HETATM   25  O   UNL     1     -12.200  -0.647 -33.059  1.00  0.00    -0.360 OA
HETATM   26  H   UNL     1     -12.820  -1.239 -33.547  1.00  0.00     0.217 HD
ENDBRANCH  19  25
ENDBRANCH  17  18
ENDBRANCH   2  16
TORSDOF 5
ENDMDL
MODEL 6
REMARK VINA RESULT:      -7.4      3.262      8.234
REMARK  5 active torsions:
REMARK  status: ('A' for Active; 'I' for Inactive)
REMARK    1  A    between atoms: C_6  and  C_7 
REMARK    2  A    between atoms: C_7  and  C_8 
REMARK       I    between atoms: C_8  and  N_9 
REMARK    3  A    between atoms: N_9  and  N_10 
REMARK    4  A    between atoms: C_11  and  C_12 
REMARK    5  A    between atoms: C_13  and  O_14 
ROOT
HETATM    1  C   UNL     1      -5.527   3.788 -32.095  1.00  0.00     0.244 C 
HETATM    2  N   UNL     1      -4.850   2.587 -32.010  1.00  0.00    -0.247 N 
HETATM    3  O   UNL     1      -6.403   4.026 -32.931  1.00  0.00    -0.271 OA
HETATM    4  H   UNL     1      -4.057   2.513 -31.365  1.00  0.00     0.192 HD
ENDROOT
BRANCH   1   5
HETATM    5  C   UNL     1      -5.219   4.804 -31.009  1.00  0.00     0.183 C 
BRANCH   5   6
HETATM    6  C   UNL     1      -3.800   5.271 -30.973  1.00  0.00     0.114 A 
HETATM    7  N   UNL     1      -2.803   4.888 -31.749  1.00  0.00    -0.233 NA
HETATM    8  C   UNL     1      -1.695   5.565 -31.294  1.00  0.00     0.085 A 
HETATM    9  C   UNL     1      -2.017   6.359 -30.201  1.00  0.00     0.062 A 
HETATM   10  C   UNL     1      -0.374   5.546 -31.762  1.00  0.00     0.034 A 
HETATM   11  C   UNL     1      -1.084   7.143 -29.519  1.00  0.00     0.032 A 
HETATM   12  N   UNL     1      -3.360   6.160 -30.019  1.00  0.00    -0.342 N 
HETATM   13  C   UNL     1       0.232   7.108 -29.996  1.00  0.00     0.002 A 
HETATM   14  C   UNL     1       0.583   6.327 -31.100  1.00  0.00     0.002 A 
HETATM   15  H   UNL     1      -3.927   6.585 -29.299  1.00  0.00     0.167 HD
ENDBRANCH   5   6
ENDBRANCH   1   5
BRANCH   2  16
HETATM   16  N   UNL     1      -5.126   1.583 -32.885  1.00  0.00    -0.184 NA
HETATM   17  C   UNL     1      -4.897   0.387 -32.448  1.00  0.00     0.153 C 
BRANCH  17  18
HETATM   18  C   UNL     1      -5.165  -0.788 -33.301  1.00  0.00     0.017 A 
HETATM   19  C   UNL     1      -6.186  -0.792 -34.260  1.00  0.00     0.077 A 
HETATM   20  C   UNL     1      -6.410  -1.923 -35.043  1.00  0.00     0.039 A 
HETATM   21  C   UNL     1      -5.616  -3.056 -34.872  1.00  0.00     0.022 A 
HETATM   22  C   UNL     1      -4.600  -3.051 -33.916  1.00  0.00     0.012 A 
HETATM   23 BR   UNL     1      -3.526  -4.590 -33.685  1.00  0.00    -0.051 Br
HETATM   24  C   UNL     1      -4.367  -1.923 -33.127  1.00  0.00     0.034 A 
BRANCH  19  25
HETATM   25  O   UNL     1      -7.010   0.276 -34.488  1.00  0.00    -0.360 OA
HETATM   26  H   UNL     1      -7.710   0.000 -35.125  1.00  0.00     0.217 HD
ENDBRANCH  19  25
ENDBRANCH  17  18
ENDBRANCH   2  16
TORSDOF 5
ENDMDL
MODEL 7
REMARK VINA RESULT:      -7.3      3.437      8.111
REMARK  5 active torsions:
REMARK  status: ('A' for Active; 'I' for Inactive)
REMARK    1  A    between atoms: C_6  and  C_7 
REMARK    2  A    between atoms: C_7  and  C_8 
REMARK       I    between atoms: C_8  and  N_9 
REMARK    3  A    between atoms: N_9  and  N_10 
REMARK    4  A    between atoms: C_11  and  C_12 
REMARK    5  A    between atoms: C_13  and  O_14 
ROOT
HETATM    1  C   UNL     1      -6.085   2.599 -31.698  1.00  0.00     0.244 C 
HETATM    2  N   UNL     1      -5.062   1.919 -32.332  1.00  0.00    -0.247 N 
HETATM    3  O   UNL     1      -6.956   2.049 -31.017  1.00  0.00    -0.271 OA
HETATM    4  H   UNL     1      -4.451   2.436 -32.972  1.00  0.00     0.192 HD
ENDROOT
BRANCH   1   5
HETATM    5  C   UNL     1      -6.029   4.114 -31.781  1.00  0.00     0.183 C 
BRANCH   5   6
HETATM    6  C   UNL     1      -4.655   4.683 -31.920  1.00  0.00     0.114 A 
HETATM    7  N   UNL     1      -3.559   4.315 -31.281  1.00  0.00    -0.233 NA
HETATM    8  C   UNL     1      -2.570   5.167 -31.718  1.00  0.00     0.085 A 
HETATM    9  C   UNL     1      -3.077   6.090 -32.623  1.00  0.00     0.062 A 
HETATM   10  C   UNL     1      -1.211   5.217 -31.377  1.00  0.00     0.034 A 
HETATM   11  C   UNL     1      -2.305   7.091 -33.215  1.00  0.00     0.032 A 
HETATM   12  N   UNL     1      -4.402   5.759 -32.739  1.00  0.00    -0.342 N 
HETATM   13  C   UNL     1      -0.951   7.129 -32.859  1.00  0.00     0.002 A 
HETATM   14  C   UNL     1      -0.410   6.208 -31.960  1.00  0.00     0.002 A 
HETATM   15  H   UNL     1      -5.079   6.233 -33.320  1.00  0.00     0.167 HD
ENDBRANCH   5   6
ENDBRANCH   1   5
BRANCH   2  16
HETATM   16  N   UNL     1      -4.978   0.566 -32.236  1.00  0.00    -0.184 NA
HETATM   17  C   UNL     1      -4.466  -0.033 -33.263  1.00  0.00     0.153 C 
BRANCH  17  18
HETATM   18  C   UNL     1      -4.313  -1.501 -33.277  1.00  0.00     0.017 A 
HETATM   19  C   UNL     1      -3.417  -2.162 -32.427  1.00  0.00     0.077 A 
HETATM   20  C   UNL     1      -3.298  -3.550 -32.473  1.00  0.00     0.039 A 
HETATM   21  C   UNL     1      -4.074  -4.285 -33.369  1.00  0.00     0.022 A 
HETATM   22  C   UNL     1      -4.965  -3.625 -34.215  1.00  0.00     0.012 A 
HETATM   23 BR   UNL     1      -6.014  -4.625 -35.430  1.00  0.00    -0.051 Br
HETATM   24  C   UNL     1      -5.092  -2.236 -34.176  1.00  0.00     0.034 A 
BRANCH  19  25
HETATM   25  O   UNL     1      -2.619  -1.516 -31.523  1.00  0.00    -0.360 OA
HETATM   26  H   UNL     1      -1.947  -2.154 -31.187  1.00  0.00     0.217 HD
ENDBRANCH  19  25
ENDBRANCH  17  18
ENDBRANCH   2  16
TORSDOF 5
ENDMDL
MODEL 8
REMARK VINA RESULT:      -7.2      6.308      7.737
REMARK  5 active torsions:
REMARK  status: ('A' for Active; 'I' for Inactive)
REMARK    1  A    between atoms: C_6  and  C_7 
REMARK    2  A    between atoms: C_7  and  C_8 
REMARK       I    between atoms: C_8  and  N_9 
REMARK    3  A    between atoms: N_9  and  N_10 
REMARK    4  A    between atoms: C_11  and  C_12 
REMARK    5  A    between atoms: C_13  and  O_14 
ROOT
HETATM    1  C   UNL     1      -8.312   0.576 -34.047  1.00  0.00     0.244 C 
HETATM    2  N   UNL     1      -9.158   1.618 -34.379  1.00  0.00    -0.247 N 
HETATM    3  O   UNL     1      -8.283   0.044 -32.934  1.00  0.00    -0.271 OA
HETATM    4  H   UNL     1      -9.035   2.080 -35.286  1.00  0.00     0.192 HD
ENDROOT
BRANCH   1   5
HETATM    5  C   UNL     1      -7.468   0.017 -35.179  1.00  0.00     0.183 C 
BRANCH   5   6
HETATM    6  C   UNL     1      -6.606  -1.143 -34.802  1.00  0.00     0.114 A 
HETATM    7  N   UNL     1      -5.449  -1.119 -34.167  1.00  0.00    -0.233 NA
HETATM    8  C   UNL     1      -5.032  -2.429 -34.101  1.00  0.00     0.085 A 
HETATM    9  C   UNL     1      -5.942  -3.268 -34.730  1.00  0.00     0.062 A 
HETATM   10  C   UNL     1      -3.879  -2.977 -33.523  1.00  0.00     0.034 A 
HETATM   11  C   UNL     1      -5.767  -4.650 -34.835  1.00  0.00     0.032 A 
HETATM   12  N   UNL     1      -6.936  -2.430 -35.163  1.00  0.00    -0.342 N 
HETATM   13  C   UNL     1      -4.607  -5.180 -34.258  1.00  0.00     0.002 A 
HETATM   14  C   UNL     1      -3.679  -4.362 -33.609  1.00  0.00     0.002 A 
HETATM   15  H   UNL     1      -7.763  -2.710 -35.670  1.00  0.00     0.167 HD
ENDBRANCH   5   6
ENDBRANCH   1   5
BRANCH   2  16
HETATM   16  N   UNL     1     -10.016   2.124 -33.454  1.00  0.00    -0.184 NA
HETATM   17  C   UNL     1     -11.176   2.477 -33.907  1.00  0.00     0.153 C 
BRANCH  17  18
HETATM   18  C   UNL     1     -12.199   3.032 -33.000  1.00  0.00     0.017 A 
HETATM   19  C   UNL     1     -11.901   4.038 -32.072  1.00  0.00     0.077 A 
HETATM   20  C   UNL     1     -12.895   4.533 -31.229  1.00  0.00     0.039 A 
HETATM   21  C   UNL     1     -14.192   4.025 -31.309  1.00  0.00     0.022 A 
HETATM   22  C   UNL     1     -14.486   3.022 -32.232  1.00  0.00     0.012 A 
HETATM   23 BR   UNL     1     -16.244   2.334 -32.335  1.00  0.00    -0.051 Br
HETATM   24  C   UNL     1     -13.499   2.520 -33.081  1.00  0.00     0.034 A 
BRANCH  19  25
HETATM   25  O   UNL     1     -10.657   4.587 -31.929  1.00  0.00    -0.360 OA
HETATM   26  H   UNL     1     -10.758   5.557 -31.780  1.00  0.00     0.217 HD
ENDBRANCH  19  25
ENDBRANCH  17  18
ENDBRANCH   2  16
TORSDOF 5
ENDMDL
MODEL 9
REMARK VINA RESULT:      -7.1      4.292      9.289
REMARK  5 active torsions:
REMARK  status: ('A' for Active; 'I' for Inactive)
REMARK    1  A    between atoms: C_6  and  C_7 
REMARK    2  A    between atoms: C_7  and  C_8 
REMARK       I    between atoms: C_8  and  N_9 
REMARK    3  A    between atoms: N_9  and  N_10 
REMARK    4  A    between atoms: C_11  and  C_12 
REMARK    5  A    between atoms: C_13  and  O_14 
ROOT
HETATM    1  C   UNL     1      -2.018   4.972 -31.869  1.00  0.00     0.244 C 
HETATM    2  N   UNL     1      -2.263   3.989 -32.809  1.00  0.00    -0.247 N 
HETATM    3  O   UNL     1      -2.844   5.340 -31.029  1.00  0.00    -0.271 OA
HETATM    4  H   UNL     1      -1.567   3.827 -33.544  1.00  0.00     0.192 HD
ENDROOT
BRANCH   1   5
HETATM    5  C   UNL     1      -0.604   5.525 -31.837  1.00  0.00     0.183 C 
BRANCH   5   6
HETATM    6  C   UNL     1      -0.207   6.152 -30.540  1.00  0.00     0.114 A 
HETATM    7  N   UNL     1       0.517   7.242 -30.357  1.00  0.00    -0.233 NA
HETATM    8  C   UNL     1       0.643   7.380 -28.993  1.00  0.00     0.085 A 
HETATM    9  C   UNL     1       0.004   6.340 -28.331  1.00  0.00     0.062 A 
HETATM   10  C   UNL     1       1.298   8.369 -28.247  1.00  0.00     0.034 A 
HETATM   11  C   UNL     1      -0.014   6.210 -26.940  1.00  0.00     0.032 A 
HETATM   12  N   UNL     1      -0.533   5.576 -29.334  1.00  0.00    -0.342 N 
HETATM   13  C   UNL     1       0.651   7.203 -26.210  1.00  0.00     0.002 A 
HETATM   14  C   UNL     1       1.293   8.267 -26.849  1.00  0.00     0.002 A 
HETATM   15  H   UNL     1      -1.067   4.728 -29.207  1.00  0.00     0.167 HD
ENDBRANCH   5   6
ENDBRANCH   1   5
BRANCH   2  16
HETATM   16  N   UNL     1      -3.473   3.372 -32.854  1.00  0.00    -0.184 NA
HETATM   17  C   UNL     1      -3.522   2.205 -32.296  1.00  0.00     0.153 C 
BRANCH  17  18
HETATM   18  C   UNL     1      -4.783   1.438 -32.271  1.00  0.00     0.017 A 
HETATM   19  C   UNL     1      -4.916   0.252 -31.538  1.00  0.00     0.077 A 
HETATM   20  C   UNL     1      -6.123  -0.446 -31.543  1.00  0.00     0.039 A 
HETATM   21  C   UNL     1      -7.203   0.037 -32.281  1.00  0.00     0.022 A 
HETATM   22  C   UNL     1      -7.068   1.218 -33.012  1.00  0.00     0.012 A 
HETATM   23 BR   UNL     1      -8.534   1.869 -34.014  1.00  0.00    -0.051 Br
HETATM   24  C   UNL     1      -5.865   1.925 -33.013  1.00  0.00     0.034 A 
BRANCH  19  25
HETATM   25  O   UNL     1      -3.906  -0.290 -30.791  1.00  0.00    -0.360 OA
HETATM   26  H   UNL     1      -3.246   0.417 -30.598  1.00  0.00     0.217 HD
ENDBRANCH  19  25
ENDBRANCH  17  18
ENDBRANCH   2  16
TORSDOF 5
ENDMDL
MODEL 10
REMARK VINA RESULT:      -7.1      3.663      8.557
REMARK  5 active torsions:
REMARK  status: ('A' for Active; 'I' for Inactive)
REMARK    1  A    between atoms: C_6  and  C_7 
REMARK    2  A    between atoms: C_7  and  C_8 
REMARK       I    between atoms: C_8  and  N_9 
REMARK    3  A    between atoms: N_9  and  N_10 
REMARK    4  A    between atoms: C_11  and  C_12 
REMARK    5  A    between atoms: C_13  and  O_14 
ROOT
HETATM    1  C   UNL     1      -4.992   2.991 -32.407  1.00  0.00     0.244 C 
HETATM    2  N   UNL     1      -4.176   1.953 -31.999  1.00  0.00    -0.247 N 
HETATM    3  O   UNL     1      -5.750   2.928 -33.379  1.00  0.00    -0.271 OA
HETATM    4  H   UNL     1      -3.492   2.128 -31.256  1.00  0.00     0.192 HD
ENDROOT
BRANCH   1   5
HETATM    5  C   UNL     1      -5.003   4.219 -31.513  1.00  0.00     0.183 C 
BRANCH   5   6
HETATM    6  C   UNL     1      -3.669   4.859 -31.312  1.00  0.00     0.114 A 
HETATM    7  N   UNL     1      -2.537   4.582 -31.934  1.00  0.00    -0.233 NA
HETATM    8  C   UNL     1      -1.590   5.404 -31.367  1.00  0.00     0.085 A 
HETATM    9  C   UNL     1      -2.149   6.182 -30.362  1.00  0.00     0.062 A 
HETATM   10  C   UNL     1      -0.225   5.537 -31.657  1.00  0.00     0.034 A 
HETATM   11  C   UNL     1      -1.418   7.095 -29.599  1.00  0.00     0.032 A 
HETATM   12  N   UNL     1      -3.471   5.822 -30.349  1.00  0.00    -0.342 N 
HETATM   13  C   UNL     1      -0.055   7.210 -29.897  1.00  0.00     0.002 A 
HETATM   14  C   UNL     1       0.534   6.448 -30.910  1.00  0.00     0.002 A 
HETATM   15  H   UNL     1      -4.177   6.194 -29.729  1.00  0.00     0.167 HD
ENDBRANCH   5   6
ENDBRANCH   1   5
BRANCH   2  16
HETATM   16  N   UNL     1      -4.168   0.779 -32.686  1.00  0.00    -0.184 NA
HETATM   17  C   UNL     1      -4.215  -0.290 -31.958  1.00  0.00     0.153 C 
BRANCH  17  18
HETATM   18  C   UNL     1      -4.222  -1.626 -32.587  1.00  0.00     0.017 A 
HETATM   19  C   UNL     1      -3.256  -2.594 -32.282  1.00  0.00     0.077 A 
HETATM   20  C   UNL     1      -3.294  -3.843 -32.901  1.00  0.00     0.039 A 
HETATM   21  C   UNL     1      -4.297  -4.131 -33.827  1.00  0.00     0.022 A 
HETATM   22  C   UNL     1      -5.256  -3.164 -34.129  1.00  0.00     0.012 A 
HETATM   23 BR   UNL     1      -6.613  -3.557 -35.387  1.00  0.00    -0.051 Br
HETATM   24  C   UNL     1      -5.228  -1.911 -33.515  1.00  0.00     0.034 A 
BRANCH  19  25
HETATM   25  O   UNL     1      -2.241  -2.391 -31.390  1.00  0.00    -0.360 OA
HETATM   26  H   UNL     1      -1.383  -2.453 -31.872  1.00  0.00     0.217 HD
ENDBRANCH  19  25
ENDBRANCH  17  18
ENDBRANCH   2  16
TORSDOF 5
ENDMDL
