MODEL 1
REMARK VINA RESULT:     -10.2      0.000      0.000
REMARK  2 active torsions:
REMARK  status: ('A' for Active; 'I' for Inactive)
REMARK    1  A    between atoms: C_4  and  C_18 
REMARK    2  A    between atoms: C_9  and  C_12 
ROOT
HETATM    1  O   UNL     1      -6.686   1.852 -33.938  1.00  0.00    -0.267 OA
HETATM    2  C   UNL     1      -5.669   1.677 -33.280  1.00  0.00     0.259 A 
HETATM    3  N   UNL     1      -5.038   2.697 -32.618  1.00  0.00    -0.309 N 
HETATM    4  C   UNL     1      -3.883   2.532 -31.894  1.00  0.00     0.137 A 
HETATM    5  N   UNL     1      -3.301   1.385 -31.744  1.00  0.00    -0.232 NA
HETATM    6  C   UNL     1      -3.869   0.272 -32.387  1.00  0.00     0.074 A 
HETATM    7  C   UNL     1      -3.242  -0.967 -32.266  1.00  0.00     0.033 A 
HETATM    8  C   UNL     1      -3.774  -2.100 -32.894  1.00  0.00     0.014 A 
HETATM    9  C   UNL     1      -4.951  -2.015 -33.652  1.00  0.00    -0.022 A 
HETATM   10  C   UNL     1      -5.582  -0.772 -33.779  1.00  0.00     0.031 A 
HETATM   11  C   UNL     1      -5.036   0.354 -33.149  1.00  0.00     0.061 A 
HETATM   12  H   UNL     1      -5.418   3.627 -32.744  1.00  0.00     0.170 HD
ENDROOT
BRANCH   4  13
HETATM   13  C   UNL     1      -3.335   3.779 -31.210  1.00  0.00     0.198 C 
HETATM   14  C   UNL     1      -4.175   4.992 -31.598  1.00  0.00     0.045 C 
HETATM   15  C   UNL     1      -3.653   6.205 -30.841  1.00  0.00     0.044 C 
HETATM   16  C   UNL     1      -2.152   6.249 -30.882  1.00  0.00    -0.025 A 
HETATM   17  C   UNL     1      -1.476   7.418 -30.506  1.00  0.00     0.010 A 
HETATM   18  C   UNL     1      -1.407   5.126 -31.260  1.00  0.00     0.076 A 
HETATM   19  C   UNL     1      -0.082   7.468 -30.535  1.00  0.00     0.001 A 
HETATM   20  C   UNL     1       0.649   6.350 -30.937  1.00  0.00     0.003 A 
HETATM   21  C   UNL     1      -0.015   5.181 -31.303  1.00  0.00     0.037 A 
HETATM   22  O   UNL     1      -1.976   3.938 -31.639  1.00  0.00    -0.338 OA
ENDBRANCH   4  13
BRANCH   9  23
HETATM   23  C   UNL     1      -5.488  -3.199 -34.299  1.00  0.00     0.010 A 
HETATM   24  C   UNL     1      -4.901  -4.462 -34.555  1.00  0.00     0.152 A 
HETATM   25  N   UNL     1      -5.737  -5.308 -35.164  1.00  0.00    -0.187 NA
HETATM   26  N   UNL     1      -6.863  -4.591 -35.301  1.00  0.00    -0.289 N 
HETATM   27  H   UNL     1      -7.663  -5.031 -35.744  1.00  0.00     0.188 HD
HETATM   28  C   UNL     1      -6.768  -3.325 -34.797  1.00  0.00     0.123 A 
ENDBRANCH   9  23
TORSDOF 2
ENDMDL
MODEL 2
REMARK VINA RESULT:      -9.5      1.304      1.914
REMARK  2 active torsions:
REMARK  status: ('A' for Active; 'I' for Inactive)
REMARK    1  A    between atoms: C_4  and  C_18 
REMARK    2  A    between atoms: C_9  and  C_12 
ROOT
HETATM    1  O   UNL     1      -2.557  -0.533 -31.311  1.00  0.00    -0.267 OA
HETATM    2  C   UNL     1      -3.336   0.296 -31.763  1.00  0.00     0.259 A 
HETATM    3  N   UNL     1      -3.280   1.621 -31.419  1.00  0.00    -0.309 N 
HETATM    4  C   UNL     1      -4.155   2.566 -31.892  1.00  0.00     0.137 A 
HETATM    5  N   UNL     1      -5.098   2.294 -32.739  1.00  0.00    -0.232 NA
HETATM    6  C   UNL     1      -5.243   0.960 -33.154  1.00  0.00     0.074 A 
HETATM    7  C   UNL     1      -6.270   0.639 -34.038  1.00  0.00     0.033 A 
HETATM    8  C   UNL     1      -6.450  -0.680 -34.475  1.00  0.00     0.014 A 
HETATM    9  C   UNL     1      -5.598  -1.704 -34.036  1.00  0.00    -0.022 A 
HETATM   10  C   UNL     1      -4.566  -1.386 -33.145  1.00  0.00     0.031 A 
HETATM   11  C   UNL     1      -4.401  -0.063 -32.714  1.00  0.00     0.061 A 
HETATM   12  H   UNL     1      -2.596   1.882 -30.719  1.00  0.00     0.170 HD
ENDROOT
BRANCH   4  13
HETATM   13  C   UNL     1      -3.927   3.995 -31.413  1.00  0.00     0.198 C 
HETATM   14  C   UNL     1      -4.652   4.970 -32.333  1.00  0.00     0.045 C 
HETATM   15  C   UNL     1      -4.471   6.379 -31.786  1.00  0.00     0.044 C 
HETATM   16  C   UNL     1      -3.045   6.608 -31.375  1.00  0.00    -0.025 A 
HETATM   17  C   UNL     1      -2.590   7.909 -31.120  1.00  0.00     0.010 A 
HETATM   18  C   UNL     1      -2.161   5.535 -31.209  1.00  0.00     0.076 A 
HETATM   19  C   UNL     1      -1.268   8.131 -30.731  1.00  0.00     0.001 A 
HETATM   20  C   UNL     1      -0.390   7.057 -30.593  1.00  0.00     0.003 A 
HETATM   21  C   UNL     1      -0.837   5.759 -30.836  1.00  0.00     0.037 A 
HETATM   22  O   UNL     1      -2.512   4.229 -31.430  1.00  0.00    -0.338 OA
ENDBRANCH   4  13
BRANCH   9  23
HETATM   23  C   UNL     1      -5.800  -3.067 -34.496  1.00  0.00     0.010 A 
HETATM   24  C   UNL     1      -4.912  -4.168 -34.547  1.00  0.00     0.152 A 
HETATM   25  N   UNL     1      -5.486  -5.275 -35.024  1.00  0.00    -0.187 NA
HETATM   26  N   UNL     1      -6.745  -4.888 -35.283  1.00  0.00    -0.289 N 
HETATM   27  H   UNL     1      -7.391  -5.574 -35.660  1.00  0.00     0.188 HD
HETATM   28  C   UNL     1      -6.985  -3.579 -34.982  1.00  0.00     0.123 A 
ENDBRANCH   9  23
TORSDOF 2
ENDMDL
MODEL 3
REMARK VINA RESULT:      -9.1      3.306      9.042
REMARK  2 active torsions:
REMARK  status: ('A' for Active; 'I' for Inactive)
REMARK    1  A    between atoms: C_4  and  C_18 
REMARK    2  A    between atoms: C_9  and  C_12 
ROOT
HETATM    1  O   UNL     1      -2.671   3.062 -31.505  1.00  0.00    -0.267 OA
HETATM    2  C   UNL     1      -3.781   2.561 -31.621  1.00  0.00     0.259 A 
HETATM    3  N   UNL     1      -4.021   1.484 -32.433  1.00  0.00    -0.309 N 
HETATM    4  C   UNL     1      -5.260   0.919 -32.599  1.00  0.00     0.137 A 
HETATM    5  N   UNL     1      -6.316   1.335 -31.973  1.00  0.00    -0.232 NA
HETATM    6  C   UNL     1      -6.178   2.439 -31.116  1.00  0.00     0.074 A 
HETATM    7  C   UNL     1      -7.306   2.924 -30.457  1.00  0.00     0.033 A 
HETATM    8  C   UNL     1      -7.211   4.025 -29.596  1.00  0.00     0.014 A 
HETATM    9  C   UNL     1      -5.981   4.659 -29.373  1.00  0.00    -0.022 A 
HETATM   10  C   UNL     1      -4.845   4.176 -30.035  1.00  0.00     0.031 A 
HETATM   11  C   UNL     1      -4.956   3.078 -30.897  1.00  0.00     0.061 A 
HETATM   12  H   UNL     1      -3.243   1.150 -32.988  1.00  0.00     0.170 HD
ENDROOT
BRANCH   4  13
HETATM   13  C   UNL     1      -5.331  -0.286 -33.530  1.00  0.00     0.198 C 
HETATM   14  C   UNL     1      -6.785  -0.702 -33.727  1.00  0.00     0.045 C 
HETATM   15  C   UNL     1      -6.829  -1.854 -34.719  1.00  0.00     0.044 C 
HETATM   16  C   UNL     1      -5.764  -2.865 -34.405  1.00  0.00    -0.025 A 
HETATM   17  C   UNL     1      -5.805  -4.134 -35.000  1.00  0.00     0.010 A 
HETATM   18  C   UNL     1      -4.703  -2.552 -33.546  1.00  0.00     0.076 A 
HETATM   19  C   UNL     1      -4.817  -5.078 -34.719  1.00  0.00     0.001 A 
HETATM   20  C   UNL     1      -3.778  -4.763 -33.843  1.00  0.00     0.003 A 
HETATM   21  C   UNL     1      -3.725  -3.501 -33.254  1.00  0.00     0.037 A 
HETATM   22  O   UNL     1      -4.574  -1.340 -32.921  1.00  0.00    -0.338 OA
ENDBRANCH   4  13
BRANCH   9  23
HETATM   23  C   UNL     1      -5.900   5.800 -28.479  1.00  0.00     0.010 A 
HETATM   24  C   UNL     1      -5.277   5.945 -27.216  1.00  0.00     0.152 A 
HETATM   25  N   UNL     1      -5.410   7.174 -26.711  1.00  0.00    -0.187 NA
HETATM   26  N   UNL     1      -6.120   7.823 -27.648  1.00  0.00    -0.289 N 
HETATM   27  H   UNL     1      -6.351   8.798 -27.488  1.00  0.00     0.188 HD
HETATM   28  C   UNL     1      -6.435   7.047 -28.726  1.00  0.00     0.123 A 
ENDBRANCH   9  23
TORSDOF 2
ENDMDL
MODEL 4
REMARK VINA RESULT:      -8.9      4.468      5.677
REMARK  2 active torsions:
REMARK  status: ('A' for Active; 'I' for Inactive)
REMARK    1  A    between atoms: C_4  and  C_18 
REMARK    2  A    between atoms: C_9  and  C_12 
ROOT
HETATM    1  O   UNL     1      -7.801  -0.964 -33.115  1.00  0.00    -0.267 OA
HETATM    2  C   UNL     1      -7.652   0.246 -33.233  1.00  0.00     0.259 A 
HETATM    3  N   UNL     1      -6.429   0.851 -33.116  1.00  0.00    -0.309 N 
HETATM    4  C   UNL     1      -6.240   2.206 -33.219  1.00  0.00     0.137 A 
HETATM    5  N   UNL     1      -7.202   3.037 -33.472  1.00  0.00    -0.232 NA
HETATM    6  C   UNL     1      -8.500   2.516 -33.607  1.00  0.00     0.074 A 
HETATM    7  C   UNL     1      -9.555   3.394 -33.846  1.00  0.00     0.033 A 
HETATM    8  C   UNL     1     -10.864   2.915 -33.985  1.00  0.00     0.014 A 
HETATM    9  C   UNL     1     -11.141   1.544 -33.891  1.00  0.00    -0.022 A 
HETATM   10  C   UNL     1     -10.084   0.658 -33.648  1.00  0.00     0.031 A 
HETATM   11  C   UNL     1      -8.781   1.152 -33.508  1.00  0.00     0.061 A 
HETATM   12  H   UNL     1      -5.649   0.257 -32.866  1.00  0.00     0.170 HD
ENDROOT
BRANCH   4  13
HETATM   13  C   UNL     1      -4.804   2.697 -33.079  1.00  0.00     0.198 C 
HETATM   14  C   UNL     1      -4.431   2.787 -31.604  1.00  0.00     0.045 C 
HETATM   15  C   UNL     1      -2.971   3.203 -31.497  1.00  0.00     0.044 C 
HETATM   16  C   UNL     1      -2.670   4.327 -32.448  1.00  0.00    -0.025 A 
HETATM   17  C   UNL     1      -1.480   5.056 -32.315  1.00  0.00     0.010 A 
HETATM   18  C   UNL     1      -3.547   4.642 -33.493  1.00  0.00     0.076 A 
HETATM   19  C   UNL     1      -1.189   6.098 -33.197  1.00  0.00     0.001 A 
HETATM   20  C   UNL     1      -2.082   6.418 -34.219  1.00  0.00     0.003 A 
HETATM   21  C   UNL     1      -3.262   5.692 -34.363  1.00  0.00     0.037 A 
HETATM   22  O   UNL     1      -4.731   3.985 -33.706  1.00  0.00    -0.338 OA
ENDBRANCH   4  13
BRANCH   9  23
HETATM   23  C   UNL     1     -12.504   1.064 -34.035  1.00  0.00     0.010 A 
HETATM   24  C   UNL     1     -13.647   1.677 -34.603  1.00  0.00     0.152 A 
HETATM   25  N   UNL     1     -14.729   0.895 -34.562  1.00  0.00    -0.187 NA
HETATM   26  N   UNL     1     -14.285  -0.223 -33.966  1.00  0.00    -0.289 N 
HETATM   27  H   UNL     1     -14.940  -0.984 -33.821  1.00  0.00     0.188 HD
HETATM   28  C   UNL     1     -12.961  -0.174 -33.634  1.00  0.00     0.123 A 
ENDBRANCH   9  23
TORSDOF 2
ENDMDL
MODEL 5
REMARK VINA RESULT:      -8.8      5.035      9.298
REMARK  2 active torsions:
REMARK  status: ('A' for Active; 'I' for Inactive)
REMARK    1  A    between atoms: C_4  and  C_18 
REMARK    2  A    between atoms: C_9  and  C_12 
ROOT
HETATM    1  O   UNL     1      -7.312   4.153 -33.807  1.00  0.00    -0.267 OA
HETATM    2  C   UNL     1      -7.849   3.053 -33.825  1.00  0.00     0.259 A 
HETATM    3  N   UNL     1      -7.147   1.890 -33.645  1.00  0.00    -0.309 N 
HETATM    4  C   UNL     1      -7.721   0.644 -33.685  1.00  0.00     0.137 A 
HETATM    5  N   UNL     1      -8.990   0.456 -33.864  1.00  0.00    -0.232 NA
HETATM    6  C   UNL     1      -9.800   1.587 -34.061  1.00  0.00     0.074 A 
HETATM    7  C   UNL     1     -11.162   1.406 -34.289  1.00  0.00     0.033 A 
HETATM    8  C   UNL     1     -12.004   2.508 -34.493  1.00  0.00     0.014 A 
HETATM    9  C   UNL     1     -11.495   3.815 -34.469  1.00  0.00    -0.022 A 
HETATM   10  C   UNL     1     -10.125   4.000 -34.244  1.00  0.00     0.031 A 
HETATM   11  C   UNL     1      -9.296   2.889 -34.045  1.00  0.00     0.061 A 
HETATM   12  H   UNL     1      -6.142   1.974 -33.554  1.00  0.00     0.170 HD
ENDROOT
BRANCH   4  13
HETATM   13  C   UNL     1      -6.784  -0.535 -33.444  1.00  0.00     0.198 C 
HETATM   14  C   UNL     1      -5.340  -0.101 -33.670  1.00  0.00     0.045 C 
HETATM   15  C   UNL     1      -4.426  -1.273 -33.347  1.00  0.00     0.044 C 
HETATM   16  C   UNL     1      -4.962  -2.543 -33.945  1.00  0.00    -0.025 A 
HETATM   17  C   UNL     1      -4.145  -3.680 -34.024  1.00  0.00     0.010 A 
HETATM   18  C   UNL     1      -6.284  -2.624 -34.401  1.00  0.00     0.076 A 
HETATM   19  C   UNL     1      -4.636  -4.865 -34.572  1.00  0.00     0.001 A 
HETATM   20  C   UNL     1      -5.946  -4.927 -35.045  1.00  0.00     0.003 A 
HETATM   21  C   UNL     1      -6.768  -3.804 -34.962  1.00  0.00     0.037 A 
HETATM   22  O   UNL     1      -7.158  -1.570 -34.363  1.00  0.00    -0.338 OA
ENDBRANCH   4  13
BRANCH   9  23
HETATM   23  C   UNL     1     -12.380   4.946 -34.685  1.00  0.00     0.010 A 
HETATM   24  C   UNL     1     -12.721   6.029 -33.841  1.00  0.00     0.152 A 
HETATM   25  N   UNL     1     -13.566   6.889 -34.417  1.00  0.00    -0.187 NA
HETATM   26  N   UNL     1     -13.770   6.359 -35.633  1.00  0.00    -0.289 N 
HETATM   27  H   UNL     1     -14.390   6.847 -36.272  1.00  0.00     0.188 HD
HETATM   28  C   UNL     1     -13.081   5.200 -35.845  1.00  0.00     0.123 A 
ENDBRANCH   9  23
TORSDOF 2
ENDMDL
MODEL 6
REMARK VINA RESULT:      -8.8      5.455      9.500
REMARK  2 active torsions:
REMARK  status: ('A' for Active; 'I' for Inactive)
REMARK    1  A    between atoms: C_4  and  C_18 
REMARK    2  A    between atoms: C_9  and  C_12 
ROOT
HETATM    1  O   UNL     1     -12.070   0.350 -33.406  1.00  0.00    -0.267 OA
HETATM    2  C   UNL     1     -10.965   0.851 -33.564  1.00  0.00     0.259 A 
HETATM    3  N   UNL     1      -9.805   0.140 -33.400  1.00  0.00    -0.309 N 
HETATM    4  C   UNL     1      -8.554   0.684 -33.548  1.00  0.00     0.137 A 
HETATM    5  N   UNL     1      -8.356   1.919 -33.889  1.00  0.00    -0.232 NA
HETATM    6  C   UNL     1      -9.483   2.736 -34.078  1.00  0.00     0.074 A 
HETATM    7  C   UNL     1      -9.294   4.075 -34.414  1.00  0.00     0.033 A 
HETATM    8  C   UNL     1     -10.391   4.924 -34.609  1.00  0.00     0.014 A 
HETATM    9  C   UNL     1     -11.702   4.445 -34.476  1.00  0.00    -0.022 A 
HETATM   10  C   UNL     1     -11.897   3.100 -34.136  1.00  0.00     0.031 A 
HETATM   11  C   UNL     1     -10.790   2.264 -33.940  1.00  0.00     0.061 A 
HETATM   12  H   UNL     1      -9.898  -0.816 -33.081  1.00  0.00     0.170 HD
ENDROOT
BRANCH   4  13
HETATM   13  C   UNL     1      -7.379  -0.266 -33.344  1.00  0.00     0.198 C 
HETATM   14  C   UNL     1      -6.083   0.421 -33.762  1.00  0.00     0.045 C 
HETATM   15  C   UNL     1      -4.922  -0.521 -33.476  1.00  0.00     0.044 C 
HETATM   16  C   UNL     1      -5.248  -1.916 -33.928  1.00  0.00    -0.025 A 
HETATM   17  C   UNL     1      -4.230  -2.875 -34.030  1.00  0.00     0.010 A 
HETATM   18  C   UNL     1      -6.565  -2.290 -34.222  1.00  0.00     0.076 A 
HETATM   19  C   UNL     1      -4.524  -4.175 -34.443  1.00  0.00     0.001 A 
HETATM   20  C   UNL     1      -5.836  -4.529 -34.757  1.00  0.00     0.003 A 
HETATM   21  C   UNL     1      -6.855  -3.584 -34.649  1.00  0.00     0.037 A 
HETATM   22  O   UNL     1      -7.627  -1.427 -34.148  1.00  0.00    -0.338 OA
ENDBRANCH   4  13
BRANCH   9  23
HETATM   23  C   UNL     1     -12.829   5.338 -34.678  1.00  0.00     0.010 A 
HETATM   24  C   UNL     1     -13.237   6.070 -35.819  1.00  0.00     0.152 A 
HETATM   25  N   UNL     1     -14.353   6.773 -35.612  1.00  0.00    -0.187 NA
HETATM   26  N   UNL     1     -14.666   6.496 -34.336  1.00  0.00    -0.289 N 
HETATM   27  H   UNL     1     -15.497   6.923 -33.940  1.00  0.00     0.188 HD
HETATM   28  C   UNL     1     -13.788   5.640 -33.735  1.00  0.00     0.123 A 
ENDBRANCH   9  23
TORSDOF 2
ENDMDL
MODEL 7
REMARK VINA RESULT:      -8.6      3.789      5.548
REMARK  2 active torsions:
REMARK  status: ('A' for Active; 'I' for Inactive)
REMARK    1  A    between atoms: C_4  and  C_18 
REMARK    2  A    between atoms: C_9  and  C_12 
ROOT
HETATM    1  O   UNL     1      -4.088   1.121 -31.883  1.00  0.00    -0.267 OA
HETATM    2  C   UNL     1      -5.057   1.353 -32.594  1.00  0.00     0.259 A 
HETATM    3  N   UNL     1      -5.651   2.586 -32.647  1.00  0.00    -0.309 N 
HETATM    4  C   UNL     1      -6.753   2.866 -33.416  1.00  0.00     0.137 A 
HETATM    5  N   UNL     1      -7.313   1.991 -34.191  1.00  0.00    -0.232 NA
HETATM    6  C   UNL     1      -6.781   0.692 -34.208  1.00  0.00     0.074 A 
HETATM    7  C   UNL     1      -7.388  -0.274 -35.009  1.00  0.00     0.033 A 
HETATM    8  C   UNL     1      -6.889  -1.582 -35.051  1.00  0.00     0.014 A 
HETATM    9  C   UNL     1      -5.767  -1.948 -34.293  1.00  0.00    -0.022 A 
HETATM   10  C   UNL     1      -5.156  -0.982 -33.485  1.00  0.00     0.031 A 
HETATM   11  C   UNL     1      -5.669   0.322 -33.449  1.00  0.00     0.061 A 
HETATM   12  H   UNL     1      -5.288   3.295 -32.022  1.00  0.00     0.170 HD
ENDROOT
BRANCH   4  13
HETATM   13  C   UNL     1      -7.265   4.300 -33.362  1.00  0.00     0.198 C 
HETATM   14  C   UNL     1      -7.568   4.686 -31.919  1.00  0.00     0.045 C 
HETATM   15  C   UNL     1      -8.001   6.144 -31.887  1.00  0.00     0.044 C 
HETATM   16  C   UNL     1      -8.977   6.431 -32.993  1.00  0.00    -0.025 A 
HETATM   17  C   UNL     1      -9.722   7.618 -32.979  1.00  0.00     0.010 A 
HETATM   18  C   UNL     1      -9.134   5.543 -34.064  1.00  0.00     0.076 A 
HETATM   19  C   UNL     1     -10.626   7.896 -34.004  1.00  0.00     0.001 A 
HETATM   20  C   UNL     1     -10.792   6.993 -35.054  1.00  0.00     0.003 A 
HETATM   21  C   UNL     1     -10.048   5.815 -35.080  1.00  0.00     0.037 A 
HETATM   22  O   UNL     1      -8.449   4.361 -34.169  1.00  0.00    -0.338 OA
ENDBRANCH   4  13
BRANCH   9  23
HETATM   23  C   UNL     1      -5.264  -3.310 -34.346  1.00  0.00     0.010 A 
HETATM   24  C   UNL     1      -5.795  -4.470 -34.959  1.00  0.00     0.152 A 
HETATM   25  N   UNL     1      -5.017  -5.543 -34.798  1.00  0.00    -0.187 NA
HETATM   26  N   UNL     1      -3.983  -5.076 -34.081  1.00  0.00    -0.289 N 
HETATM   27  H   UNL     1      -3.241  -5.720 -33.829  1.00  0.00     0.188 HD
HETATM   28  C   UNL     1      -4.081  -3.746 -33.788  1.00  0.00     0.123 A 
ENDBRANCH   9  23
TORSDOF 2
ENDMDL
MODEL 8
REMARK VINA RESULT:      -8.5      2.723      9.135
REMARK  2 active torsions:
REMARK  status: ('A' for Active; 'I' for Inactive)
REMARK    1  A    between atoms: C_4  and  C_18 
REMARK    2  A    between atoms: C_9  and  C_12 
ROOT
HETATM    1  O   UNL     1      -6.950   4.190 -31.774  1.00  0.00    -0.267 OA
HETATM    2  C   UNL     1      -5.863   3.629 -31.817  1.00  0.00     0.259 A 
HETATM    3  N   UNL     1      -5.741   2.275 -31.988  1.00  0.00    -0.309 N 
HETATM    4  C   UNL     1      -4.535   1.619 -32.015  1.00  0.00     0.137 A 
HETATM    5  N   UNL     1      -3.397   2.229 -31.914  1.00  0.00    -0.232 NA
HETATM    6  C   UNL     1      -3.412   3.622 -31.732  1.00  0.00     0.074 A 
HETATM    7  C   UNL     1      -2.201   4.295 -31.588  1.00  0.00     0.033 A 
HETATM    8  C   UNL     1      -2.173   5.683 -31.403  1.00  0.00     0.014 A 
HETATM    9  C   UNL     1      -3.362   6.426 -31.362  1.00  0.00    -0.022 A 
HETATM   10  C   UNL     1      -4.582   5.754 -31.504  1.00  0.00     0.031 A 
HETATM   11  C   UNL     1      -4.594   4.364 -31.684  1.00  0.00     0.061 A 
HETATM   12  H   UNL     1      -6.600   1.740 -32.019  1.00  0.00     0.170 HD
ENDROOT
BRANCH   4  13
HETATM   13  C   UNL     1      -4.595   0.112 -32.234  1.00  0.00     0.198 C 
HETATM   14  C   UNL     1      -3.198  -0.421 -32.534  1.00  0.00     0.045 C 
HETATM   15  C   UNL     1      -3.276  -1.935 -32.670  1.00  0.00     0.044 C 
HETATM   16  C   UNL     1      -4.459  -2.331 -33.506  1.00  0.00    -0.025 A 
HETATM   17  C   UNL     1      -4.561  -3.639 -34.001  1.00  0.00     0.010 A 
HETATM   18  C   UNL     1      -5.488  -1.421 -33.777  1.00  0.00     0.076 A 
HETATM   19  C   UNL     1      -5.659  -4.019 -34.774  1.00  0.00     0.001 A 
HETATM   20  C   UNL     1      -6.666  -3.096 -35.058  1.00  0.00     0.003 A 
HETATM   21  C   UNL     1      -6.577  -1.797 -34.562  1.00  0.00     0.037 A 
HETATM   22  O   UNL     1      -5.482  -0.124 -33.336  1.00  0.00    -0.338 OA
ENDBRANCH   4  13
BRANCH   9  23
HETATM   23  C   UNL     1      -3.316   7.865 -31.166  1.00  0.00     0.010 A 
HETATM   24  C   UNL     1      -4.353   8.828 -31.134  1.00  0.00     0.152 A 
HETATM   25  N   UNL     1      -3.903  10.065 -30.907  1.00  0.00    -0.187 NA
HETATM   26  N   UNL     1      -2.576   9.900 -30.793  1.00  0.00    -0.289 N 
HETATM   27  H   UNL     1      -2.003  10.718 -30.612  1.00  0.00     0.188 HD
HETATM   28  C   UNL     1      -2.174   8.603 -30.937  1.00  0.00     0.123 A 
ENDBRANCH   9  23
TORSDOF 2
ENDMDL
MODEL 9
REMARK VINA RESULT:      -8.4      5.838      7.394
REMARK  2 active torsions:
REMARK  status: ('A' for Active; 'I' for Inactive)
REMARK    1  A    between atoms: C_4  and  C_18 
REMARK    2  A    between atoms: C_9  and  C_12 
ROOT
HETATM    1  O   UNL     1     -10.684  -0.911 -32.490  1.00  0.00    -0.267 OA
HETATM    2  C   UNL     1     -10.129   0.031 -33.041  1.00  0.00     0.259 A 
HETATM    3  N   UNL     1     -10.672   1.288 -33.072  1.00  0.00    -0.309 N 
HETATM    4  C   UNL     1     -10.082   2.355 -33.703  1.00  0.00     0.137 A 
HETATM    5  N   UNL     1      -8.936   2.275 -34.302  1.00  0.00    -0.232 NA
HETATM    6  C   UNL     1      -8.295   1.025 -34.330  1.00  0.00     0.074 A 
HETATM    7  C   UNL     1      -7.077   0.909 -34.996  1.00  0.00     0.033 A 
HETATM    8  C   UNL     1      -6.407  -0.320 -35.049  1.00  0.00     0.014 A 
HETATM    9  C   UNL     1      -6.944  -1.458 -34.430  1.00  0.00    -0.022 A 
HETATM   10  C   UNL     1      -8.170  -1.346 -33.762  1.00  0.00     0.031 A 
HETATM   11  C   UNL     1      -8.830  -0.111 -33.721  1.00  0.00     0.061 A 
HETATM   12  H   UNL     1     -11.593   1.397 -32.666  1.00  0.00     0.170 HD
ENDROOT
BRANCH   4  13
HETATM   13  C   UNL     1     -10.826   3.683 -33.616  1.00  0.00     0.198 C 
HETATM   14  C   UNL     1     -12.326   3.443 -33.741  1.00  0.00     0.045 C 
HETATM   15  C   UNL     1     -13.046   4.773 -33.573  1.00  0.00     0.044 C 
HETATM   16  C   UNL     1     -12.358   5.850 -34.363  1.00  0.00    -0.025 A 
HETATM   17  C   UNL     1     -13.004   7.074 -34.588  1.00  0.00     0.010 A 
HETATM   18  C   UNL     1     -11.061   5.667 -34.857  1.00  0.00     0.076 A 
HETATM   19  C   UNL     1     -12.372   8.083 -35.316  1.00  0.00     0.001 A 
HETATM   20  C   UNL     1     -11.089   7.879 -35.823  1.00  0.00     0.003 A 
HETATM   21  C   UNL     1     -10.436   6.669 -35.596  1.00  0.00     0.037 A 
HETATM   22  O   UNL     1     -10.347   4.509 -34.686  1.00  0.00    -0.338 OA
ENDBRANCH   4  13
BRANCH   9  23
HETATM   23  C   UNL     1      -6.239  -2.726 -34.497  1.00  0.00     0.010 A 
HETATM   24  C   UNL     1      -6.696  -4.023 -34.830  1.00  0.00     0.152 A 
HETATM   25  N   UNL     1      -5.725  -4.940 -34.795  1.00  0.00    -0.187 NA
HETATM   26  N   UNL     1      -4.641  -4.233 -34.438  1.00  0.00    -0.289 N 
HETATM   27  H   UNL     1      -3.756  -4.723 -34.346  1.00  0.00     0.188 HD
HETATM   28  C   UNL     1      -4.894  -2.905 -34.251  1.00  0.00     0.123 A 
ENDBRANCH   9  23
TORSDOF 2
ENDMDL
MODEL 10
REMARK VINA RESULT:      -8.4      6.544      9.278
REMARK  2 active torsions:
REMARK  status: ('A' for Active; 'I' for Inactive)
REMARK    1  A    between atoms: C_4  and  C_18 
REMARK    2  A    between atoms: C_9  and  C_12 
ROOT
HETATM    1  O   UNL     1     -10.452   4.522 -31.800  1.00  0.00    -0.267 OA
HETATM    2  C   UNL     1     -10.470   3.440 -32.373  1.00  0.00     0.259 A 
HETATM    3  N   UNL     1      -9.326   2.797 -32.766  1.00  0.00    -0.309 N 
HETATM    4  C   UNL     1      -9.320   1.597 -33.431  1.00  0.00     0.137 A 
HETATM    5  N   UNL     1     -10.401   0.944 -33.720  1.00  0.00    -0.232 NA
HETATM    6  C   UNL     1     -11.631   1.520 -33.362  1.00  0.00     0.074 A 
HETATM    7  C   UNL     1     -12.808   0.851 -33.692  1.00  0.00     0.033 A 
HETATM    8  C   UNL     1     -14.055   1.393 -33.355  1.00  0.00     0.014 A 
HETATM    9  C   UNL     1     -14.147   2.616 -32.676  1.00  0.00    -0.022 A 
HETATM   10  C   UNL     1     -12.967   3.293 -32.345  1.00  0.00     0.031 A 
HETATM   11  C   UNL     1     -11.727   2.741 -32.692  1.00  0.00     0.061 A 
HETATM   12  H   UNL     1      -8.453   3.287 -32.614  1.00  0.00     0.170 HD
ENDROOT
BRANCH   4  13
HETATM   13  C   UNL     1      -7.949   1.024 -33.771  1.00  0.00     0.198 C 
HETATM   14  C   UNL     1      -8.107  -0.180 -34.693  1.00  0.00     0.045 C 
HETATM   15  C   UNL     1      -6.723  -0.682 -35.078  1.00  0.00     0.044 C 
HETATM   16  C   UNL     1      -5.825  -0.733 -33.874  1.00  0.00    -0.025 A 
HETATM   17  C   UNL     1      -4.611  -1.431 -33.935  1.00  0.00     0.010 A 
HETATM   18  C   UNL     1      -6.165  -0.065 -32.692  1.00  0.00     0.076 A 
HETATM   19  C   UNL     1      -3.767  -1.479 -32.825  1.00  0.00     0.001 A 
HETATM   20  C   UNL     1      -4.128  -0.830 -31.644  1.00  0.00     0.003 A 
HETATM   21  C   UNL     1      -5.330  -0.127 -31.578  1.00  0.00     0.037 A 
HETATM   22  O   UNL     1      -7.327   0.645 -32.536  1.00  0.00    -0.338 OA
ENDBRANCH   4  13
BRANCH   9  23
HETATM   23  C   UNL     1     -15.448   3.165 -32.337  1.00  0.00     0.010 A 
HETATM   24  C   UNL     1     -15.835   4.483 -31.994  1.00  0.00     0.152 A 
HETATM   25  N   UNL     1     -17.147   4.594 -31.765  1.00  0.00    -0.187 NA
HETATM   26  N   UNL     1     -17.605   3.348 -31.959  1.00  0.00    -0.289 N 
HETATM   27  H   UNL     1     -18.599   3.177 -31.843  1.00  0.00     0.188 HD
HETATM   28  C   UNL     1     -16.630   2.457 -32.306  1.00  0.00     0.123 A 
ENDBRANCH   9  23
TORSDOF 2
ENDMDL
