MODEL 1
REMARK VINA RESULT:      -9.4      0.000      0.000
REMARK  3 active torsions:
REMARK  status: ('A' for Active; 'I' for Inactive)
REMARK    1  A    between atoms: C_5  and  C_6 
REMARK       I    between atoms: C_6  and  N_7 
REMARK    2  A    between atoms: N_7  and  C_8 
REMARK    3  A    between atoms: C_15  and  C_16 
REMARK       I    between atoms: C_16  and  N_17 
ROOT
HETATM    1  C   UNL     1      -3.649   3.962 -32.892  1.00  0.00     0.035 A 
HETATM    2  C   UNL     1      -2.616   4.130 -31.957  1.00  0.00     0.046 A 
HETATM    3  C   UNL     1      -1.698   5.191 -32.117  1.00  0.00     0.030 A 
HETATM    4  C   UNL     1      -1.814   6.013 -33.228  1.00  0.00     0.063 A 
HETATM    5  N   UNL     1      -0.795   6.918 -33.119  1.00  0.00    -0.277 N 
HETATM    6  H   UNL     1      -0.568   7.666 -33.763  1.00  0.00     0.189 HD
HETATM    7  N   UNL     1      -0.046   6.779 -32.012  1.00  0.00    -0.168 NA
HETATM    8  C   UNL     1      -0.594   5.716 -31.382  1.00  0.00     0.156 A 
HETATM    9  C   UNL     1      -2.810   5.852 -34.193  1.00  0.00     0.034 A 
HETATM   10  C   UNL     1      -3.732   4.816 -33.994  1.00  0.00     0.032 A 
ENDROOT
BRANCH   1  11
HETATM   11  N   UNL     1      -4.555   2.904 -32.665  1.00  0.00    -0.326 N 
HETATM   12  C   UNL     1      -4.242   1.611 -32.263  1.00  0.00     0.240 C 
HETATM   13  O   UNL     1      -3.100   1.182 -32.091  1.00  0.00    -0.272 OA
HETATM   14  H   UNL     1      -5.518   3.078 -32.933  1.00  0.00     0.169 HD
BRANCH  12  15
HETATM   15  C   UNL     1      -5.462   0.690 -32.025  1.00  0.00     0.172 C 
HETATM   16  C   UNL     1      -5.589  -0.479 -33.005  1.00  0.00    -0.029 A 
HETATM   17  C   UNL     1      -6.817  -0.911 -33.552  1.00  0.00    -0.050 A 
HETATM   18  C   UNL     1      -4.424  -1.212 -33.327  1.00  0.00     0.009 A 
HETATM   19  C   UNL     1      -6.832  -1.980 -34.467  1.00  0.00     0.007 A 
HETATM   20  C   UNL     1      -8.142  -0.252 -33.238  1.00  0.00     0.049 C 
HETATM   21  C   UNL     1      -5.663  -2.655 -34.805  1.00  0.00     0.001 A 
HETATM   22  C   UNL     1      -4.459  -2.278 -34.226  1.00  0.00     0.001 A 
HETATM   23  C   UNL     1      -8.182   0.495 -31.915  1.00  0.00     0.080 C 
HETATM   24  S   UNL     1      -6.926   1.788 -31.930  1.00  0.00    -0.149 SA
ENDBRANCH  12  15
ENDBRANCH   1  11
BRANCH   8  25
HETATM   25  C   UNL     1      -0.076   5.240 -30.092  1.00  0.00     0.270 C 
HETATM   26  N   UNL     1      -0.585   5.901 -29.008  1.00  0.00    -0.365 N 
HETATM   27  H   UNL     1      -1.272   6.630 -29.164  1.00  0.00     0.159 HD
HETATM   28  H   UNL     1      -0.320   5.620 -28.078  1.00  0.00     0.159 HD
HETATM   29  O   UNL     1       0.730   4.325 -29.962  1.00  0.00    -0.266 OA
ENDBRANCH   8  25
TORSDOF 3
ENDMDL
MODEL 2
REMARK VINA RESULT:      -9.1      4.946      7.968
REMARK  3 active torsions:
REMARK  status: ('A' for Active; 'I' for Inactive)
REMARK    1  A    between atoms: C_5  and  C_6 
REMARK       I    between atoms: C_6  and  N_7 
REMARK    2  A    between atoms: N_7  and  C_8 
REMARK    3  A    between atoms: C_15  and  C_16 
REMARK       I    between atoms: C_16  and  N_17 
ROOT
HETATM    1  C   UNL     1      -8.767   2.642 -32.147  1.00  0.00     0.035 A 
HETATM    2  C   UNL     1      -9.717   2.435 -33.160  1.00  0.00     0.046 A 
HETATM    3  C   UNL     1     -11.012   2.979 -33.022  1.00  0.00     0.030 A 
HETATM    4  C   UNL     1     -11.328   3.668 -31.859  1.00  0.00     0.063 A 
HETATM    5  N   UNL     1     -12.631   4.054 -32.007  1.00  0.00    -0.277 N 
HETATM    6  H   UNL     1     -13.196   4.570 -31.343  1.00  0.00     0.189 HD
HETATM    7  N   UNL     1     -13.182   3.708 -33.182  1.00  0.00    -0.168 NA
HETATM    8  C   UNL     1     -12.192   3.044 -33.821  1.00  0.00     0.156 A 
HETATM    9  C   UNL     1     -10.416   3.862 -30.820  1.00  0.00     0.034 A 
HETATM   10  C   UNL     1      -9.126   3.345 -30.994  1.00  0.00     0.032 A 
ENDROOT
BRANCH   1  11
HETATM   11  N   UNL     1      -7.481   2.101 -32.353  1.00  0.00    -0.326 N 
HETATM   12  C   UNL     1      -6.991   0.903 -31.848  1.00  0.00     0.240 C 
HETATM   13  O   UNL     1      -7.607   0.149 -31.093  1.00  0.00    -0.272 OA
HETATM   14  H   UNL     1      -6.814   2.705 -32.822  1.00  0.00     0.169 HD
BRANCH  12  15
HETATM   15  C   UNL     1      -5.559   0.540 -32.309  1.00  0.00     0.172 C 
HETATM   16  C   UNL     1      -5.462  -0.703 -33.197  1.00  0.00    -0.029 A 
HETATM   17  C   UNL     1      -4.435  -1.666 -33.084  1.00  0.00    -0.050 A 
HETATM   18  C   UNL     1      -6.410  -0.861 -34.233  1.00  0.00     0.009 A 
HETATM   19  C   UNL     1      -4.443  -2.792 -33.928  1.00  0.00     0.007 A 
HETATM   20  C   UNL     1      -3.326  -1.580 -32.059  1.00  0.00     0.049 C 
HETATM   21  C   UNL     1      -5.417  -2.950 -34.910  1.00  0.00     0.001 A 
HETATM   22  C   UNL     1      -6.395  -1.977 -35.070  1.00  0.00     0.001 A 
HETATM   23  C   UNL     1      -3.035  -0.177 -31.554  1.00  0.00     0.080 C 
HETATM   24  S   UNL     1      -4.526   0.499 -30.796  1.00  0.00    -0.149 SA
ENDBRANCH  12  15
ENDBRANCH   1  11
BRANCH   8  25
HETATM   25  C   UNL     1     -12.378   2.512 -35.178  1.00  0.00     0.270 C 
HETATM   26  N   UNL     1     -11.685   3.189 -36.144  1.00  0.00    -0.365 N 
HETATM   27  H   UNL     1     -11.099   3.967 -35.864  1.00  0.00     0.159 HD
HETATM   28  H   UNL     1     -11.718   2.874 -37.100  1.00  0.00     0.159 HD
HETATM   29  O   UNL     1     -13.075   1.540 -35.453  1.00  0.00    -0.266 OA
ENDBRANCH   8  25
TORSDOF 3
ENDMDL
MODEL 3
REMARK VINA RESULT:      -9.0      5.284      8.684
REMARK  3 active torsions:
REMARK  status: ('A' for Active; 'I' for Inactive)
REMARK    1  A    between atoms: C_5  and  C_6 
REMARK       I    between atoms: C_6  and  N_7 
REMARK    2  A    between atoms: N_7  and  C_8 
REMARK    3  A    between atoms: C_15  and  C_16 
REMARK       I    between atoms: C_16  and  N_17 
ROOT
HETATM    1  C   UNL     1     -10.671   2.039 -33.853  1.00  0.00     0.035 A 
HETATM    2  C   UNL     1     -11.241   2.845 -32.854  1.00  0.00     0.046 A 
HETATM    3  C   UNL     1     -12.645   2.945 -32.756  1.00  0.00     0.030 A 
HETATM    4  C   UNL     1     -13.429   2.278 -33.687  1.00  0.00     0.063 A 
HETATM    5  N   UNL     1     -14.722   2.572 -33.351  1.00  0.00    -0.277 N 
HETATM    6  H   UNL     1     -15.563   2.262 -33.822  1.00  0.00     0.189 HD
HETATM    7  N   UNL     1     -14.849   3.345 -32.259  1.00  0.00    -0.168 NA
HETATM    8  C   UNL     1     -13.573   3.582 -31.880  1.00  0.00     0.156 A 
HETATM    9  C   UNL     1     -12.894   1.495 -34.711  1.00  0.00     0.034 A 
HETATM   10  C   UNL     1     -11.499   1.380 -34.766  1.00  0.00     0.032 A 
ENDROOT
BRANCH   1  11
HETATM   11  N   UNL     1      -9.264   1.952 -33.884  1.00  0.00    -0.326 N 
HETATM   12  C   UNL     1      -8.458   1.187 -33.049  1.00  0.00     0.240 C 
HETATM   13  O   UNL     1      -8.864   0.498 -32.112  1.00  0.00    -0.272 OA
HETATM   14  H   UNL     1      -8.792   2.603 -34.503  1.00  0.00     0.169 HD
BRANCH  12  15
HETATM   15  C   UNL     1      -6.946   1.243 -33.374  1.00  0.00     0.172 C 
HETATM   16  C   UNL     1      -6.315  -0.101 -33.744  1.00  0.00    -0.029 A 
HETATM   17  C   UNL     1      -5.037  -0.511 -33.306  1.00  0.00    -0.050 A 
HETATM   18  C   UNL     1      -7.018  -0.950 -34.628  1.00  0.00     0.009 A 
HETATM   19  C   UNL     1      -4.549  -1.779 -33.676  1.00  0.00     0.007 A 
HETATM   20  C   UNL     1      -4.157   0.332 -32.409  1.00  0.00     0.049 C 
HETATM   21  C   UNL     1      -5.283  -2.617 -34.509  1.00  0.00     0.001 A 
HETATM   22  C   UNL     1      -6.514  -2.198 -34.995  1.00  0.00     0.001 A 
HETATM   23  C   UNL     1      -4.439   1.824 -32.463  1.00  0.00     0.080 C 
HETATM   24  S   UNL     1      -6.151   2.119 -31.975  1.00  0.00    -0.149 SA
ENDBRANCH  12  15
ENDBRANCH   1  11
BRANCH   8  25
HETATM   25  C   UNL     1     -13.265   4.382 -30.687  1.00  0.00     0.270 C 
HETATM   26  N   UNL     1     -12.455   3.750 -29.783  1.00  0.00    -0.365 N 
HETATM   27  H   UNL     1     -12.121   2.818 -30.002  1.00  0.00     0.159 HD
HETATM   28  H   UNL     1     -12.156   4.233 -28.952  1.00  0.00     0.159 HD
HETATM   29  O   UNL     1     -13.670   5.524 -30.493  1.00  0.00    -0.266 OA
ENDBRANCH   8  25
TORSDOF 3
ENDMDL
MODEL 4
REMARK VINA RESULT:      -9.0      1.508      1.540
REMARK  3 active torsions:
REMARK  status: ('A' for Active; 'I' for Inactive)
REMARK    1  A    between atoms: C_5  and  C_6 
REMARK       I    between atoms: C_6  and  N_7 
REMARK    2  A    between atoms: N_7  and  C_8 
REMARK    3  A    between atoms: C_15  and  C_16 
REMARK       I    between atoms: C_16  and  N_17 
ROOT
HETATM    1  C   UNL     1      -3.352   3.779 -32.357  1.00  0.00     0.035 A 
HETATM    2  C   UNL     1      -3.185   4.647 -31.267  1.00  0.00     0.046 A 
HETATM    3  C   UNL     1      -2.251   5.702 -31.352  1.00  0.00     0.030 A 
HETATM    4  C   UNL     1      -1.484   5.824 -32.503  1.00  0.00     0.063 A 
HETATM    5  N   UNL     1      -0.676   6.906 -32.288  1.00  0.00    -0.277 N 
HETATM    6  H   UNL     1       0.024   7.282 -32.917  1.00  0.00     0.189 HD
HETATM    7  N   UNL     1      -0.876   7.523 -31.112  1.00  0.00    -0.168 NA
HETATM    8  C   UNL     1      -1.849   6.790 -30.523  1.00  0.00     0.156 A 
HETATM    9  C   UNL     1      -1.603   4.958 -33.591  1.00  0.00     0.034 A 
HETATM   10  C   UNL     1      -2.562   3.941 -33.499  1.00  0.00     0.032 A 
ENDROOT
BRANCH   1  11
HETATM   11  N   UNL     1      -4.320   2.762 -32.226  1.00  0.00    -0.326 N 
HETATM   12  C   UNL     1      -4.134   1.501 -31.673  1.00  0.00     0.240 C 
HETATM   13  O   UNL     1      -3.062   1.065 -31.252  1.00  0.00    -0.272 OA
HETATM   14  H   UNL     1      -5.208   2.931 -32.687  1.00  0.00     0.169 HD
BRANCH  12  15
HETATM   15  C   UNL     1      -5.409   0.627 -31.602  1.00  0.00     0.172 C 
HETATM   16  C   UNL     1      -5.528  -0.430 -32.703  1.00  0.00    -0.029 A 
HETATM   17  C   UNL     1      -6.739  -0.739 -33.361  1.00  0.00    -0.050 A 
HETATM   18  C   UNL     1      -4.382  -1.188 -33.031  1.00  0.00     0.009 A 
HETATM   19  C   UNL     1      -6.747  -1.709 -34.381  1.00  0.00     0.007 A 
HETATM   20  C   UNL     1      -8.049  -0.046 -33.059  1.00  0.00     0.049 C 
HETATM   21  C   UNL     1      -5.592  -2.408 -34.719  1.00  0.00     0.001 A 
HETATM   22  C   UNL     1      -4.410  -2.155 -34.036  1.00  0.00     0.001 A 
HETATM   23  C   UNL     1      -8.137   0.566 -31.671  1.00  0.00     0.080 C 
HETATM   24  S   UNL     1      -6.823   1.786 -31.479  1.00  0.00    -0.149 SA
ENDBRANCH  12  15
ENDBRANCH   1  11
BRANCH   8  25
HETATM   25  C   UNL     1      -2.388   7.152 -29.205  1.00  0.00     0.270 C 
HETATM   26  N   UNL     1      -1.623   6.730 -28.153  1.00  0.00    -0.365 N 
HETATM   27  H   UNL     1      -0.761   6.233 -28.350  1.00  0.00     0.159 HD
HETATM   28  H   UNL     1      -1.890   6.965 -27.211  1.00  0.00     0.159 HD
HETATM   29  O   UNL     1      -3.422   7.789 -29.030  1.00  0.00    -0.266 OA
ENDBRANCH   8  25
TORSDOF 3
ENDMDL
MODEL 5
REMARK VINA RESULT:      -8.8      5.233      7.954
REMARK  3 active torsions:
REMARK  status: ('A' for Active; 'I' for Inactive)
REMARK    1  A    between atoms: C_5  and  C_6 
REMARK       I    between atoms: C_6  and  N_7 
REMARK    2  A    between atoms: N_7  and  C_8 
REMARK    3  A    between atoms: C_15  and  C_16 
REMARK       I    between atoms: C_16  and  N_17 
ROOT
HETATM    1  C   UNL     1      -6.302   0.175 -33.568  1.00  0.00     0.035 A 
HETATM    2  C   UNL     1      -6.564  -1.104 -34.086  1.00  0.00     0.046 A 
HETATM    3  C   UNL     1      -5.560  -2.095 -34.035  1.00  0.00     0.030 A 
HETATM    4  C   UNL     1      -4.317  -1.761 -33.515  1.00  0.00     0.063 A 
HETATM    5  N   UNL     1      -3.565  -2.898 -33.613  1.00  0.00    -0.277 N 
HETATM    6  H   UNL     1      -2.598  -3.019 -33.337  1.00  0.00     0.189 HD
HETATM    7  N   UNL     1      -4.221  -3.956 -34.118  1.00  0.00    -0.168 NA
HETATM    8  C   UNL     1      -5.457  -3.474 -34.382  1.00  0.00     0.156 A 
HETATM    9  C   UNL     1      -4.015  -0.490 -33.023  1.00  0.00     0.034 A 
HETATM   10  C   UNL     1      -5.038   0.467 -33.049  1.00  0.00     0.032 A 
ENDROOT
BRANCH   1  11
HETATM   11  N   UNL     1      -7.352   1.115 -33.618  1.00  0.00    -0.326 N 
HETATM   12  C   UNL     1      -8.235   1.433 -32.593  1.00  0.00     0.240 C 
HETATM   13  O   UNL     1      -8.256   0.893 -31.486  1.00  0.00    -0.272 OA
HETATM   14  H   UNL     1      -7.551   1.512 -34.530  1.00  0.00     0.169 HD
BRANCH  12  15
HETATM   15  C   UNL     1      -9.240   2.562 -32.926  1.00  0.00     0.172 C 
HETATM   16  C   UNL     1     -10.513   2.103 -33.641  1.00  0.00    -0.029 A 
HETATM   17  C   UNL     1     -11.117   2.819 -34.698  1.00  0.00    -0.050 A 
HETATM   18  C   UNL     1     -11.159   0.936 -33.174  1.00  0.00     0.009 A 
HETATM   19  C   UNL     1     -12.273   2.304 -35.313  1.00  0.00     0.007 A 
HETATM   20  C   UNL     1     -10.560   4.114 -35.248  1.00  0.00     0.049 C 
HETATM   21  C   UNL     1     -12.864   1.126 -34.866  1.00  0.00     0.001 A 
HETATM   22  C   UNL     1     -12.312   0.447 -33.788  1.00  0.00     0.001 A 
HETATM   23  C   UNL     1      -9.684   4.890 -34.279  1.00  0.00     0.080 C 
HETATM   24  S   UNL     1      -8.284   3.862 -33.794  1.00  0.00    -0.149 SA
ENDBRANCH  12  15
ENDBRANCH   1  11
BRANCH   8  25
HETATM   25  C   UNL     1      -6.514  -4.335 -34.930  1.00  0.00     0.270 C 
HETATM   26  N   UNL     1      -7.644  -4.392 -34.161  1.00  0.00    -0.365 N 
HETATM   27  H   UNL     1      -7.679  -3.841 -33.311  1.00  0.00     0.159 HD
HETATM   28  H   UNL     1      -8.439  -4.925 -34.475  1.00  0.00     0.159 HD
HETATM   29  O   UNL     1      -6.428  -4.951 -35.988  1.00  0.00    -0.266 OA
ENDBRANCH   8  25
TORSDOF 3
ENDMDL
MODEL 6
REMARK VINA RESULT:      -8.8      3.960      5.064
REMARK  3 active torsions:
REMARK  status: ('A' for Active; 'I' for Inactive)
REMARK    1  A    between atoms: C_5  and  C_6 
REMARK       I    between atoms: C_6  and  N_7 
REMARK    2  A    between atoms: N_7  and  C_8 
REMARK    3  A    between atoms: C_15  and  C_16 
REMARK       I    between atoms: C_16  and  N_17 
ROOT
HETATM    1  C   UNL     1      -6.829   3.171 -30.636  1.00  0.00     0.035 A 
HETATM    2  C   UNL     1      -6.179   4.063 -29.768  1.00  0.00     0.046 A 
HETATM    3  C   UNL     1      -6.932   5.040 -29.082  1.00  0.00     0.030 A 
HETATM    4  C   UNL     1      -8.296   5.123 -29.322  1.00  0.00     0.063 A 
HETATM    5  N   UNL     1      -8.741   6.154 -28.541  1.00  0.00    -0.277 N 
HETATM    6  H   UNL     1      -9.689   6.505 -28.471  1.00  0.00     0.189 HD
HETATM    7  N   UNL     1      -7.790   6.727 -27.784  1.00  0.00    -0.168 NA
HETATM    8  C   UNL     1      -6.666   6.047 -28.107  1.00  0.00     0.156 A 
HETATM    9  C   UNL     1      -8.967   4.273 -30.203  1.00  0.00     0.034 A 
HETATM   10  C   UNL     1      -8.206   3.287 -30.845  1.00  0.00     0.032 A 
ENDROOT
BRANCH   1  11
HETATM   11  N   UNL     1      -6.031   2.197 -31.271  1.00  0.00    -0.326 N 
HETATM   12  C   UNL     1      -5.263   2.367 -32.416  1.00  0.00     0.240 C 
HETATM   13  O   UNL     1      -5.206   3.403 -33.082  1.00  0.00    -0.272 OA
HETATM   14  H   UNL     1      -6.121   1.250 -30.919  1.00  0.00     0.169 HD
BRANCH  12  15
HETATM   15  C   UNL     1      -4.435   1.129 -32.835  1.00  0.00     0.172 C 
HETATM   16  C   UNL     1      -5.245  -0.007 -33.465  1.00  0.00    -0.029 A 
HETATM   17  C   UNL     1      -5.018  -1.373 -33.193  1.00  0.00    -0.050 A 
HETATM   18  C   UNL     1      -6.228   0.325 -34.425  1.00  0.00     0.009 A 
HETATM   19  C   UNL     1      -5.832  -2.347 -33.801  1.00  0.00     0.007 A 
HETATM   20  C   UNL     1      -3.955  -1.863 -32.234  1.00  0.00     0.049 C 
HETATM   21  C   UNL     1      -6.826  -1.991 -34.707  1.00  0.00     0.001 A 
HETATM   22  C   UNL     1      -7.017  -0.654 -35.028  1.00  0.00     0.001 A 
HETATM   23  C   UNL     1      -2.800  -0.900 -32.021  1.00  0.00     0.080 C 
HETATM   24  S   UNL     1      -3.440   0.656 -31.370  1.00  0.00    -0.149 SA
ENDBRANCH  12  15
ENDBRANCH   1  11
BRANCH   8  25
HETATM   25  C   UNL     1      -5.378   6.349 -27.468  1.00  0.00     0.270 C 
HETATM   26  N   UNL     1      -4.873   5.325 -26.715  1.00  0.00    -0.365 N 
HETATM   27  H   UNL     1      -5.393   4.456 -26.670  1.00  0.00     0.159 HD
HETATM   28  H   UNL     1      -3.975   5.423 -26.271  1.00  0.00     0.159 HD
HETATM   29  O   UNL     1      -4.776   7.411 -27.590  1.00  0.00    -0.266 OA
ENDBRANCH   8  25
TORSDOF 3
ENDMDL
MODEL 7
REMARK VINA RESULT:      -8.5      3.062      8.239
REMARK  3 active torsions:
REMARK  status: ('A' for Active; 'I' for Inactive)
REMARK    1  A    between atoms: C_5  and  C_6 
REMARK       I    between atoms: C_6  and  N_7 
REMARK    2  A    between atoms: N_7  and  C_8 
REMARK    3  A    between atoms: C_15  and  C_16 
REMARK       I    between atoms: C_16  and  N_17 
ROOT
HETATM    1  C   UNL     1      -3.956   2.939 -31.283  1.00  0.00     0.035 A 
HETATM    2  C   UNL     1      -5.350   3.031 -31.421  1.00  0.00     0.046 A 
HETATM    3  C   UNL     1      -6.129   1.853 -31.429  1.00  0.00     0.030 A 
HETATM    4  C   UNL     1      -5.486   0.626 -31.348  1.00  0.00     0.063 A 
HETATM    5  N   UNL     1      -6.481  -0.310 -31.395  1.00  0.00    -0.277 N 
HETATM    6  H   UNL     1      -6.376  -1.317 -31.370  1.00  0.00     0.189 HD
HETATM    7  N   UNL     1      -7.721   0.202 -31.463  1.00  0.00    -0.168 NA
HETATM    8  C   UNL     1      -7.519   1.540 -31.483  1.00  0.00     0.156 A 
HETATM    9  C   UNL     1      -4.100   0.500 -31.242  1.00  0.00     0.034 A 
HETATM   10  C   UNL     1      -3.350   1.683 -31.199  1.00  0.00     0.032 A 
ENDROOT
BRANCH   1  11
HETATM   11  N   UNL     1      -3.233   4.149 -31.251  1.00  0.00    -0.326 N 
HETATM   12  C   UNL     1      -2.411   4.655 -32.250  1.00  0.00     0.240 C 
HETATM   13  O   UNL     1      -2.154   4.083 -33.311  1.00  0.00    -0.272 OA
HETATM   14  H   UNL     1      -3.224   4.639 -30.362  1.00  0.00     0.169 HD
BRANCH  12  15
HETATM   15  C   UNL     1      -1.806   6.048 -31.953  1.00  0.00     0.172 C 
HETATM   16  C   UNL     1      -0.937   6.119 -30.695  1.00  0.00    -0.029 A 
HETATM   17  C   UNL     1      -0.958   7.204 -29.791  1.00  0.00    -0.050 A 
HETATM   18  C   UNL     1      -0.012   5.077 -30.461  1.00  0.00     0.009 A 
HETATM   19  C   UNL     1      -0.141   7.169 -28.645  1.00  0.00     0.007 A 
HETATM   20  C   UNL     1      -1.856   8.410 -29.962  1.00  0.00     0.049 C 
HETATM   21  C   UNL     1       0.727   6.107 -28.412  1.00  0.00     0.001 A 
HETATM   22  C   UNL     1       0.800   5.065 -29.326  1.00  0.00     0.001 A 
HETATM   23  C   UNL     1      -2.300   8.674 -31.391  1.00  0.00     0.080 C 
HETATM   24  S   UNL     1      -3.200   7.237 -32.005  1.00  0.00    -0.149 SA
ENDBRANCH  12  15
ENDBRANCH   1  11
BRANCH   8  25
HETATM   25  C   UNL     1      -8.644   2.483 -31.527  1.00  0.00     0.270 C 
HETATM   26  N   UNL     1      -9.446   2.449 -30.420  1.00  0.00    -0.365 N 
HETATM   27  H   UNL     1      -9.206   1.813 -29.667  1.00  0.00     0.159 HD
HETATM   28  H   UNL     1     -10.221   3.088 -30.340  1.00  0.00     0.159 HD
HETATM   29  O   UNL     1      -8.864   3.258 -32.453  1.00  0.00    -0.266 OA
ENDBRANCH   8  25
TORSDOF 3
ENDMDL
MODEL 8
REMARK VINA RESULT:      -8.5      5.143      7.929
REMARK  3 active torsions:
REMARK  status: ('A' for Active; 'I' for Inactive)
REMARK    1  A    between atoms: C_5  and  C_6 
REMARK       I    between atoms: C_6  and  N_7 
REMARK    2  A    between atoms: N_7  and  C_8 
REMARK    3  A    between atoms: C_15  and  C_16 
REMARK       I    between atoms: C_16  and  N_17 
ROOT
HETATM    1  C   UNL     1      -9.555   1.765 -34.027  1.00  0.00     0.035 A 
HETATM    2  C   UNL     1      -9.880   3.107 -34.279  1.00  0.00     0.046 A 
HETATM    3  C   UNL     1     -11.229   3.520 -34.224  1.00  0.00     0.030 A 
HETATM    4  C   UNL     1     -12.208   2.570 -33.967  1.00  0.00     0.063 A 
HETATM    5  N   UNL     1     -13.392   3.253 -33.992  1.00  0.00    -0.277 N 
HETATM    6  H   UNL     1     -14.321   2.874 -33.855  1.00  0.00     0.189 HD
HETATM    7  N   UNL     1     -13.266   4.574 -34.207  1.00  0.00    -0.168 NA
HETATM    8  C   UNL     1     -11.933   4.753 -34.350  1.00  0.00     0.156 A 
HETATM    9  C   UNL     1     -11.921   1.222 -33.745  1.00  0.00     0.034 A 
HETATM   10  C   UNL     1     -10.573   0.843 -33.768  1.00  0.00     0.032 A 
ENDROOT
BRANCH   1  11
HETATM   11  N   UNL     1      -8.189   1.417 -34.066  1.00  0.00    -0.326 N 
HETATM   12  C   UNL     1      -7.468   0.759 -33.076  1.00  0.00     0.240 C 
HETATM   13  O   UNL     1      -7.919   0.422 -31.980  1.00  0.00    -0.272 OA
HETATM   14  H   UNL     1      -7.657   1.787 -34.847  1.00  0.00     0.169 HD
BRANCH  12  15
HETATM   15  C   UNL     1      -5.996   0.451 -33.439  1.00  0.00     0.172 C 
HETATM   16  C   UNL     1      -5.717  -1.004 -33.825  1.00  0.00    -0.029 A 
HETATM   17  C   UNL     1      -4.566  -1.713 -33.419  1.00  0.00    -0.050 A 
HETATM   18  C   UNL     1      -6.625  -1.652 -34.692  1.00  0.00     0.009 A 
HETATM   19  C   UNL     1      -4.407  -3.058 -33.802  1.00  0.00     0.007 A 
HETATM   20  C   UNL     1      -3.487  -1.114 -32.544  1.00  0.00     0.049 C 
HETATM   21  C   UNL     1      -5.342  -3.689 -34.618  1.00  0.00     0.001 A 
HETATM   22  C   UNL     1      -6.446  -2.982 -35.072  1.00  0.00     0.001 A 
HETATM   23  C   UNL     1      -3.402   0.403 -32.590  1.00  0.00     0.080 C 
HETATM   24  S   UNL     1      -4.979   1.099 -32.059  1.00  0.00    -0.149 SA
ENDBRANCH  12  15
ENDBRANCH   1  11
BRANCH   8  25
HETATM   25  C   UNL     1     -11.361   6.087 -34.576  1.00  0.00     0.270 C 
HETATM   26  N   UNL     1     -10.774   6.638 -33.470  1.00  0.00    -0.365 N 
HETATM   27  H   UNL     1     -10.759   6.100 -32.611  1.00  0.00     0.159 HD
HETATM   28  H   UNL     1     -10.318   7.534 -33.537  1.00  0.00     0.159 HD
HETATM   29  O   UNL     1     -11.377   6.675 -35.653  1.00  0.00    -0.266 OA
ENDBRANCH   8  25
TORSDOF 3
ENDMDL
MODEL 9
REMARK VINA RESULT:      -8.4      4.287      5.153
REMARK  3 active torsions:
REMARK  status: ('A' for Active; 'I' for Inactive)
REMARK    1  A    between atoms: C_5  and  C_6 
REMARK       I    between atoms: C_6  and  N_7 
REMARK    2  A    between atoms: N_7  and  C_8 
REMARK    3  A    between atoms: C_15  and  C_16 
REMARK       I    between atoms: C_16  and  N_17 
ROOT
HETATM    1  C   UNL     1      -7.990   3.667 -30.103  1.00  0.00     0.035 A 
HETATM    2  C   UNL     1      -6.926   4.272 -29.415  1.00  0.00     0.046 A 
HETATM    3  C   UNL     1      -7.107   5.547 -28.836  1.00  0.00     0.030 A 
HETATM    4  C   UNL     1      -8.324   6.192 -29.005  1.00  0.00     0.063 A 
HETATM    5  N   UNL     1      -8.194   7.389 -28.359  1.00  0.00    -0.277 N 
HETATM    6  H   UNL     1      -8.887   8.124 -28.285  1.00  0.00     0.189 HD
HETATM    7  N   UNL     1      -7.009   7.566 -27.751  1.00  0.00    -0.168 NA
HETATM    8  C   UNL     1      -6.327   6.434 -28.036  1.00  0.00     0.156 A 
HETATM    9  C   UNL     1      -9.390   5.631 -29.710  1.00  0.00     0.034 A 
HETATM   10  C   UNL     1      -9.201   4.350 -30.245  1.00  0.00     0.032 A 
ENDROOT
BRANCH   1  11
HETATM   11  N   UNL     1      -7.762   2.381 -30.634  1.00  0.00    -0.326 N 
HETATM   12  C   UNL     1      -7.087   2.073 -31.809  1.00  0.00     0.240 C 
HETATM   13  O   UNL     1      -6.623   2.900 -32.595  1.00  0.00    -0.272 OA
HETATM   14  H   UNL     1      -8.239   1.616 -30.169  1.00  0.00     0.169 HD
BRANCH  12  15
HETATM   15  C   UNL     1      -6.934   0.560 -32.094  1.00  0.00     0.172 C 
HETATM   16  C   UNL     1      -5.492   0.045 -32.095  1.00  0.00    -0.029 A 
HETATM   17  C   UNL     1      -4.999  -0.898 -33.024  1.00  0.00    -0.050 A 
HETATM   18  C   UNL     1      -4.624   0.483 -31.070  1.00  0.00     0.009 A 
HETATM   19  C   UNL     1      -3.650  -1.292 -32.963  1.00  0.00     0.007 A 
HETATM   20  C   UNL     1      -5.843  -1.492 -34.130  1.00  0.00     0.049 C 
HETATM   21  C   UNL     1      -2.802  -0.808 -31.972  1.00  0.00     0.001 A 
HETATM   22  C   UNL     1      -3.292   0.072 -31.017  1.00  0.00     0.001 A 
HETATM   23  C   UNL     1      -7.339  -1.478 -33.865  1.00  0.00     0.080 C 
HETATM   24  S   UNL     1      -7.881   0.226 -33.627  1.00  0.00    -0.149 SA
ENDBRANCH  12  15
ENDBRANCH   1  11
BRANCH   8  25
HETATM   25  C   UNL     1      -4.968   6.210 -27.525  1.00  0.00     0.270 C 
HETATM   26  N   UNL     1      -4.874   5.194 -26.614  1.00  0.00    -0.365 N 
HETATM   27  H   UNL     1      -5.712   4.675 -26.380  1.00  0.00     0.159 HD
HETATM   28  H   UNL     1      -3.975   4.939 -26.237  1.00  0.00     0.159 HD
HETATM   29  O   UNL     1      -3.980   6.849 -27.875  1.00  0.00    -0.266 OA
ENDBRANCH   8  25
TORSDOF 3
ENDMDL
MODEL 10
REMARK VINA RESULT:      -8.4      2.166      2.706
REMARK  3 active torsions:
REMARK  status: ('A' for Active; 'I' for Inactive)
REMARK    1  A    between atoms: C_5  and  C_6 
REMARK       I    between atoms: C_6  and  N_7 
REMARK    2  A    between atoms: N_7  and  C_8 
REMARK    3  A    between atoms: C_15  and  C_16 
REMARK       I    between atoms: C_16  and  N_17 
ROOT
HETATM    1  C   UNL     1      -5.624   4.228 -31.136  1.00  0.00     0.035 A 
HETATM    2  C   UNL     1      -4.280   4.361 -31.520  1.00  0.00     0.046 A 
HETATM    3  C   UNL     1      -3.503   5.411 -30.984  1.00  0.00     0.030 A 
HETATM    4  C   UNL     1      -4.107   6.317 -30.124  1.00  0.00     0.063 A 
HETATM    5  N   UNL     1      -3.126   7.210 -29.790  1.00  0.00    -0.277 N 
HETATM    6  H   UNL     1      -3.213   8.017 -29.185  1.00  0.00     0.189 HD
HETATM    7  N   UNL     1      -1.925   6.943 -30.331  1.00  0.00    -0.168 NA
HETATM    8  C   UNL     1      -2.143   5.831 -31.070  1.00  0.00     0.156 A 
HETATM    9  C   UNL     1      -5.448   6.231 -29.748  1.00  0.00     0.034 A 
HETATM   10  C   UNL     1      -6.190   5.160 -30.263  1.00  0.00     0.032 A 
ENDROOT
BRANCH   1  11
HETATM   11  N   UNL     1      -6.342   3.143 -31.680  1.00  0.00    -0.326 N 
HETATM   12  C   UNL     1      -6.737   1.988 -31.015  1.00  0.00     0.240 C 
HETATM   13  O   UNL     1      -6.468   1.721 -29.842  1.00  0.00    -0.272 OA
HETATM   14  H   UNL     1      -6.482   3.160 -32.685  1.00  0.00     0.169 HD
BRANCH  12  15
HETATM   15  C   UNL     1      -7.579   1.005 -31.862  1.00  0.00     0.172 C 
HETATM   16  C   UNL     1      -6.767   0.024 -32.711  1.00  0.00    -0.029 A 
HETATM   17  C   UNL     1      -7.112  -0.340 -34.031  1.00  0.00    -0.050 A 
HETATM   18  C   UNL     1      -5.649  -0.606 -32.120  1.00  0.00     0.009 A 
HETATM   19  C   UNL     1      -6.288  -1.230 -34.744  1.00  0.00     0.007 A 
HETATM   20  C   UNL     1      -8.319   0.215 -34.755  1.00  0.00     0.049 C 
HETATM   21  C   UNL     1      -5.164  -1.801 -34.155  1.00  0.00     0.001 A 
HETATM   22  C   UNL     1      -4.850  -1.497 -32.837  1.00  0.00     0.001 A 
HETATM   23  C   UNL     1      -9.430   0.715 -33.848  1.00  0.00     0.080 C 
HETATM   24  S   UNL     1      -8.784   2.026 -32.791  1.00  0.00    -0.149 SA
ENDBRANCH  12  15
ENDBRANCH   1  11
BRANCH   8  25
HETATM   25  C   UNL     1      -1.056   5.184 -31.816  1.00  0.00     0.270 C 
HETATM   26  N   UNL     1      -1.199   5.242 -33.175  1.00  0.00    -0.365 N 
HETATM   27  H   UNL     1      -2.004   5.725 -33.557  1.00  0.00     0.159 HD
HETATM   28  H   UNL     1      -0.483   4.860 -33.773  1.00  0.00     0.159 HD
HETATM   29  O   UNL     1      -0.083   4.644 -31.298  1.00  0.00    -0.266 OA
ENDBRANCH   8  25
TORSDOF 3
ENDMDL
