MODEL 1
REMARK VINA RESULT:      -8.5      0.000      0.000
REMARK  4 active torsions:
REMARK  status: ('A' for Active; 'I' for Inactive)
REMARK    1  A    between atoms: C_6  and  N_7 
REMARK       I    between atoms: N_7  and  C_8 
REMARK    2  A    between atoms: C_8  and  C_9 
REMARK    3  A    between atoms: C_10  and  C_11 
REMARK    4  A    between atoms: C_14  and  O_15 
ROOT
HETATM    1  C   UNL     1      -7.640   2.435 -32.867  1.00  0.00     0.131 C 
HETATM    2  C   UNL     1      -6.678   3.391 -32.113  1.00  0.00     0.177 C 
HETATM    3  N   UNL     1      -7.411   4.557 -31.630  1.00  0.00    -0.088 N 
HETATM    4  C   UNL     1      -8.630   4.962 -32.096  1.00  0.00     0.721 A 
HETATM    5  N   UNL     1      -9.294   4.262 -33.032  1.00  0.00    -0.218 N 
HETATM    6  C   UNL     1      -8.639   3.191 -33.779  1.00  0.00     0.111 C 
HETATM    7  C   UNL     1      -9.749   2.263 -34.296  1.00  0.00     0.034 C 
HETATM    8  N   UNL     1      -7.008   5.309 -30.585  1.00  0.00    -0.149 NA
HETATM    9  C   UNL     1      -7.987   6.220 -30.549  1.00  0.00     0.275 A 
HETATM   10  N   UNL     1      -8.999   6.038 -31.453  1.00  0.00    -0.055 NA
HETATM   11  H   UNL     1     -10.074   4.736 -33.483  1.00  0.00     0.178 HD
ENDROOT
BRANCH   1  12
HETATM   12  C   UNL     1      -6.866   1.358 -33.613  1.00  0.00     0.230 C 
HETATM   13  N   UNL     1      -6.607   0.243 -32.831  1.00  0.00    -0.326 N 
HETATM   14  H   UNL     1      -7.017   0.224 -31.908  1.00  0.00     0.169 HD
HETATM   15  O   UNL     1      -6.537   1.517 -34.784  1.00  0.00    -0.273 OA
BRANCH  13  16
HETATM   16  C   UNL     1      -5.878  -0.919 -33.190  1.00  0.00     0.040 A 
HETATM   17  C   UNL     1      -4.653  -1.182 -32.537  1.00  0.00    -0.035 A 
HETATM   18  C   UNL     1      -3.921  -2.337 -32.874  1.00  0.00     0.015 A 
HETATM   19  C   UNL     1      -4.088  -0.273 -31.477  1.00  0.00     0.050 C 
HETATM   20  C   UNL     1      -4.374  -3.224 -33.856  1.00  0.00    -0.061 A 
HETATM   21  C   UNL     1      -3.607  -4.470 -34.181  1.00  0.00     0.048 C 
HETATM   22  C   UNL     1      -5.585  -2.957 -34.492  1.00  0.00     0.009 A 
HETATM   23  C   UNL     1      -6.324  -1.815 -34.167  1.00  0.00     0.030 A 
ENDBRANCH  13  16
ENDBRANCH   1  12
BRANCH   2  24
HETATM   24  C   UNL     1      -5.377   3.838 -32.778  1.00  0.00    -0.032 A 
HETATM   25  C   UNL     1      -5.311   4.752 -33.836  1.00  0.00     0.012 A 
HETATM   26  C   UNL     1      -4.079   5.118 -34.390  1.00  0.00     0.037 A 
HETATM   27  C   UNL     1      -2.884   4.599 -33.897  1.00  0.00     0.068 A 
HETATM   28  C   UNL     1      -2.929   3.705 -32.832  1.00  0.00     0.037 A 
HETATM   29  C   UNL     1      -4.161   3.332 -32.281  1.00  0.00     0.012 A 
BRANCH  27  30
HETATM   30  O   UNL     1      -1.757   5.044 -34.530  1.00  0.00    -0.356 OA
HETATM   31  C   UNL     1      -1.315   6.356 -34.207  1.00  0.00     0.210 C 
ENDBRANCH  27  30
ENDBRANCH   2  24
TORSDOF 4
ENDMDL
MODEL 2
REMARK VINA RESULT:      -8.4      2.603      6.224
REMARK  4 active torsions:
REMARK  status: ('A' for Active; 'I' for Inactive)
REMARK    1  A    between atoms: C_6  and  N_7 
REMARK       I    between atoms: N_7  and  C_8 
REMARK    2  A    between atoms: C_8  and  C_9 
REMARK    3  A    between atoms: C_10  and  C_11 
REMARK    4  A    between atoms: C_14  and  O_15 
ROOT
HETATM    1  C   UNL     1      -7.415   3.659 -32.351  1.00  0.00     0.131 C 
HETATM    2  C   UNL     1      -6.254   2.630 -32.319  1.00  0.00     0.177 C 
HETATM    3  N   UNL     1      -5.007   3.275 -32.716  1.00  0.00    -0.088 N 
HETATM    4  C   UNL     1      -4.919   4.458 -33.394  1.00  0.00     0.721 A 
HETATM    5  N   UNL     1      -6.014   5.169 -33.713  1.00  0.00    -0.218 N 
HETATM    6  C   UNL     1      -7.352   4.594 -33.585  1.00  0.00     0.111 C 
HETATM    7  C   UNL     1      -8.333   5.769 -33.457  1.00  0.00     0.034 C 
HETATM    8  N   UNL     1      -3.788   2.820 -32.359  1.00  0.00    -0.149 NA
HETATM    9  C   UNL     1      -3.006   3.728 -32.954  1.00  0.00     0.275 A 
HETATM   10  N   UNL     1      -3.660   4.747 -33.592  1.00  0.00    -0.055 NA
HETATM   11  H   UNL     1      -5.889   5.910 -34.400  1.00  0.00     0.178 HD
ENDROOT
BRANCH   1  12
HETATM   12  C   UNL     1      -8.763   2.965 -32.212  1.00  0.00     0.230 C 
HETATM   13  N   UNL     1      -9.451   2.882 -33.413  1.00  0.00    -0.326 N 
HETATM   14  H   UNL     1      -8.969   3.199 -34.241  1.00  0.00     0.169 HD
HETATM   15  O   UNL     1      -9.144   2.543 -31.125  1.00  0.00    -0.273 OA
BRANCH  13  16
HETATM   16  C   UNL     1     -10.743   2.342 -33.638  1.00  0.00     0.040 A 
HETATM   17  C   UNL     1     -10.944   0.957 -33.446  1.00  0.00    -0.035 A 
HETATM   18  C   UNL     1     -12.223   0.405 -33.655  1.00  0.00     0.015 A 
HETATM   19  C   UNL     1      -9.838   0.030 -33.015  1.00  0.00     0.050 C 
HETATM   20  C   UNL     1     -13.298   1.199 -34.066  1.00  0.00    -0.061 A 
HETATM   21  C   UNL     1     -14.664   0.610 -34.250  1.00  0.00     0.048 C 
HETATM   22  C   UNL     1     -13.090   2.565 -34.250  1.00  0.00     0.009 A 
HETATM   23  C   UNL     1     -11.826   3.127 -34.045  1.00  0.00     0.030 A 
ENDBRANCH  13  16
ENDBRANCH   1  12
BRANCH   2  24
HETATM   24  C   UNL     1      -6.401   1.297 -33.050  1.00  0.00    -0.032 A 
HETATM   25  C   UNL     1      -6.639   1.178 -34.424  1.00  0.00     0.012 A 
HETATM   26  C   UNL     1      -6.757  -0.081 -35.025  1.00  0.00     0.037 A 
HETATM   27  C   UNL     1      -6.624  -1.251 -34.278  1.00  0.00     0.068 A 
HETATM   28  C   UNL     1      -6.367  -1.152 -32.915  1.00  0.00     0.037 A 
HETATM   29  C   UNL     1      -6.256   0.106 -32.311  1.00  0.00     0.012 A 
BRANCH  27  30
HETATM   30  O   UNL     1      -6.759  -2.409 -34.993  1.00  0.00    -0.356 OA
HETATM   31  C   UNL     1      -5.643  -3.289 -35.007  1.00  0.00     0.210 C 
ENDBRANCH  27  30
ENDBRANCH   2  24
TORSDOF 4
ENDMDL
MODEL 3
REMARK VINA RESULT:      -8.4      1.685      2.096
REMARK  4 active torsions:
REMARK  status: ('A' for Active; 'I' for Inactive)
REMARK    1  A    between atoms: C_6  and  N_7 
REMARK       I    between atoms: N_7  and  C_8 
REMARK    2  A    between atoms: C_8  and  C_9 
REMARK    3  A    between atoms: C_10  and  C_11 
REMARK    4  A    between atoms: C_14  and  O_15 
ROOT
HETATM    1  C   UNL     1      -7.320   2.998 -30.774  1.00  0.00     0.131 C 
HETATM    2  C   UNL     1      -6.017   3.743 -30.382  1.00  0.00     0.177 C 
HETATM    3  N   UNL     1      -6.307   4.757 -29.374  1.00  0.00    -0.088 N 
HETATM    4  C   UNL     1      -7.548   5.262 -29.108  1.00  0.00     0.721 A 
HETATM    5  N   UNL     1      -8.644   4.810 -29.742  1.00  0.00    -0.218 N 
HETATM    6  C   UNL     1      -8.533   3.951 -30.919  1.00  0.00     0.111 C 
HETATM    7  C   UNL     1      -9.854   3.175 -31.032  1.00  0.00     0.034 C 
HETATM    8  N   UNL     1      -5.385   5.234 -28.512  1.00  0.00    -0.149 NA
HETATM    9  C   UNL     1      -6.127   6.109 -27.823  1.00  0.00     0.275 A 
HETATM   10  N   UNL     1      -7.455   6.151 -28.154  1.00  0.00    -0.055 NA
HETATM   11  H   UNL     1      -9.484   5.378 -29.656  1.00  0.00     0.178 HD
ENDROOT
BRANCH   1  12
HETATM   12  C   UNL     1      -7.105   2.133 -32.008  1.00  0.00     0.230 C 
HETATM   13  N   UNL     1      -6.749   0.830 -31.696  1.00  0.00    -0.326 N 
HETATM   14  H   UNL     1      -6.753   0.574 -30.719  1.00  0.00     0.169 HD
HETATM   15  O   UNL     1      -7.250   2.597 -33.134  1.00  0.00    -0.273 OA
BRANCH  13  16
HETATM   16  C   UNL     1      -6.434  -0.223 -32.592  1.00  0.00     0.040 A 
HETATM   17  C   UNL     1      -5.095  -0.664 -32.679  1.00  0.00    -0.035 A 
HETATM   18  C   UNL     1      -4.767  -1.716 -33.557  1.00  0.00     0.015 A 
HETATM   19  C   UNL     1      -3.987  -0.058 -31.858  1.00  0.00     0.050 C 
HETATM   20  C   UNL     1      -5.737  -2.323 -34.359  1.00  0.00    -0.061 A 
HETATM   21  C   UNL     1      -5.384  -3.466 -35.263  1.00  0.00     0.048 C 
HETATM   22  C   UNL     1      -7.056  -1.881 -34.265  1.00  0.00     0.009 A 
HETATM   23  C   UNL     1      -7.398  -0.840 -33.397  1.00  0.00     0.030 A 
ENDBRANCH  13  16
ENDBRANCH   1  12
BRANCH   2  24
HETATM   24  C   UNL     1      -5.126   4.338 -31.471  1.00  0.00    -0.032 A 
HETATM   25  C   UNL     1      -5.448   5.484 -32.208  1.00  0.00     0.012 A 
HETATM   26  C   UNL     1      -4.577   5.974 -33.188  1.00  0.00     0.037 A 
HETATM   27  C   UNL     1      -3.359   5.347 -33.448  1.00  0.00     0.068 A 
HETATM   28  C   UNL     1      -3.014   4.219 -32.711  1.00  0.00     0.037 A 
HETATM   29  C   UNL     1      -3.887   3.723 -31.736  1.00  0.00     0.012 A 
BRANCH  27  30
HETATM   30  O   UNL     1      -2.607   5.933 -34.428  1.00  0.00    -0.356 OA
HETATM   31  C   UNL     1      -1.430   5.247 -34.831  1.00  0.00     0.210 C 
ENDBRANCH  27  30
ENDBRANCH   2  24
TORSDOF 4
ENDMDL
MODEL 4
REMARK VINA RESULT:      -8.1      2.464      4.841
REMARK  4 active torsions:
REMARK  status: ('A' for Active; 'I' for Inactive)
REMARK    1  A    between atoms: C_6  and  N_7 
REMARK       I    between atoms: N_7  and  C_8 
REMARK    2  A    between atoms: C_8  and  C_9 
REMARK    3  A    between atoms: C_10  and  C_11 
REMARK    4  A    between atoms: C_14  and  O_15 
ROOT
HETATM    1  C   UNL     1      -6.586   2.805 -31.879  1.00  0.00     0.131 C 
HETATM    2  C   UNL     1      -7.754   3.744 -32.282  1.00  0.00     0.177 C 
HETATM    3  N   UNL     1      -8.156   4.557 -31.139  1.00  0.00    -0.088 N 
HETATM    4  C   UNL     1      -7.860   4.275 -29.836  1.00  0.00     0.721 A 
HETATM    5  N   UNL     1      -7.104   3.216 -29.499  1.00  0.00    -0.218 N 
HETATM    6  C   UNL     1      -6.782   2.177 -30.476  1.00  0.00     0.111 C 
HETATM    7  C   UNL     1      -5.505   1.481 -29.983  1.00  0.00     0.034 C 
HETATM    8  N   UNL     1      -8.781   5.747 -31.257  1.00  0.00    -0.149 NA
HETATM    9  C   UNL     1      -8.926   6.073 -29.967  1.00  0.00     0.275 A 
HETATM   10  N   UNL     1      -8.372   5.201 -29.069  1.00  0.00    -0.055 NA
HETATM   11  H   UNL     1      -7.113   2.946 -28.518  1.00  0.00     0.178 HD
ENDROOT
BRANCH   1  12
HETATM   12  C   UNL     1      -6.329   1.760 -32.957  1.00  0.00     0.230 C 
HETATM   13  N   UNL     1      -6.503   0.463 -32.500  1.00  0.00    -0.326 N 
HETATM   14  H   UNL     1      -6.855   0.350 -31.560  1.00  0.00     0.169 HD
HETATM   15  O   UNL     1      -6.006   2.095 -34.092  1.00  0.00    -0.273 OA
BRANCH  13  16
HETATM   16  C   UNL     1      -6.307  -0.744 -33.218  1.00  0.00     0.040 A 
HETATM   17  C   UNL     1      -5.017  -1.317 -33.243  1.00  0.00    -0.035 A 
HETATM   18  C   UNL     1      -4.806  -2.521 -33.943  1.00  0.00     0.015 A 
HETATM   19  C   UNL     1      -3.839  -0.694 -32.541  1.00  0.00     0.050 C 
HETATM   20  C   UNL     1      -5.846  -3.155 -34.629  1.00  0.00    -0.061 A 
HETATM   21  C   UNL     1      -5.621  -4.455 -35.340  1.00  0.00     0.048 C 
HETATM   22  C   UNL     1      -7.116  -2.582 -34.596  1.00  0.00     0.009 A 
HETATM   23  C   UNL     1      -7.342  -1.388 -33.904  1.00  0.00     0.030 A 
ENDBRANCH  13  16
ENDBRANCH   1  12
BRANCH   2  24
HETATM   24  C   UNL     1      -8.991   3.166 -32.966  1.00  0.00    -0.032 A 
HETATM   25  C   UNL     1      -9.781   2.145 -32.426  1.00  0.00     0.012 A 
HETATM   26  C   UNL     1     -10.906   1.670 -33.111  1.00  0.00     0.037 A 
HETATM   27  C   UNL     1     -11.283   2.210 -34.339  1.00  0.00     0.068 A 
HETATM   28  C   UNL     1     -10.521   3.240 -34.882  1.00  0.00     0.037 A 
HETATM   29  C   UNL     1      -9.391   3.711 -34.202  1.00  0.00     0.012 A 
BRANCH  27  30
HETATM   30  O   UNL     1     -12.401   1.654 -34.894  1.00  0.00    -0.356 OA
HETATM   31  C   UNL     1     -13.104   0.703 -34.104  1.00  0.00     0.210 C 
ENDBRANCH  27  30
ENDBRANCH   2  24
TORSDOF 4
ENDMDL
MODEL 5
REMARK VINA RESULT:      -7.8     16.051     18.123
REMARK  4 active torsions:
REMARK  status: ('A' for Active; 'I' for Inactive)
REMARK    1  A    between atoms: C_6  and  N_7 
REMARK       I    between atoms: N_7  and  C_8 
REMARK    2  A    between atoms: C_8  and  C_9 
REMARK    3  A    between atoms: C_10  and  C_11 
REMARK    4  A    between atoms: C_14  and  O_15 
ROOT
HETATM    1  C   UNL     1      -4.263 -13.186 -36.802  1.00  0.00     0.131 C 
HETATM    2  C   UNL     1      -5.734 -13.114 -36.315  1.00  0.00     0.177 C 
HETATM    3  N   UNL     1      -5.827 -13.592 -34.939  1.00  0.00    -0.088 N 
HETATM    4  C   UNL     1      -4.884 -14.356 -34.312  1.00  0.00     0.721 A 
HETATM    5  N   UNL     1      -3.734 -14.694 -34.919  1.00  0.00    -0.218 N 
HETATM    6  C   UNL     1      -3.548 -14.486 -36.354  1.00  0.00     0.111 C 
HETATM    7  C   UNL     1      -2.035 -14.416 -36.603  1.00  0.00     0.034 C 
HETATM    8  N   UNL     1      -6.817 -13.238 -34.094  1.00  0.00    -0.149 NA
HETATM    9  C   UNL     1      -6.458 -13.919 -33.000  1.00  0.00     0.275 A 
HETATM   10  N   UNL     1      -5.280 -14.610 -33.092  1.00  0.00    -0.055 NA
HETATM   11  H   UNL     1      -3.192 -15.437 -34.482  1.00  0.00     0.178 HD
ENDROOT
BRANCH   1  12
HETATM   12  C   UNL     1      -4.174 -12.959 -38.305  1.00  0.00     0.230 C 
HETATM   13  N   UNL     1      -4.352 -14.123 -39.037  1.00  0.00    -0.326 N 
HETATM   14  H   UNL     1      -4.600 -14.956 -38.522  1.00  0.00     0.169 HD
HETATM   15  O   UNL     1      -3.967 -11.838 -38.760  1.00  0.00    -0.273 OA
BRANCH  13  16
HETATM   16  C   UNL     1      -4.290 -14.282 -40.444  1.00  0.00     0.040 A 
HETATM   17  C   UNL     1      -3.079 -14.715 -41.027  1.00  0.00    -0.035 A 
HETATM   18  C   UNL     1      -3.003 -14.888 -42.422  1.00  0.00     0.015 A 
HETATM   19  C   UNL     1      -1.848 -15.011 -40.211  1.00  0.00     0.050 C 
HETATM   20  C   UNL     1      -4.099 -14.624 -43.249  1.00  0.00    -0.061 A 
HETATM   21  C   UNL     1      -4.020 -14.846 -44.729  1.00  0.00     0.048 C 
HETATM   22  C   UNL     1      -5.291 -14.199 -42.664  1.00  0.00     0.009 A 
HETATM   23  C   UNL     1      -5.382 -14.024 -41.279  1.00  0.00     0.030 A 
ENDBRANCH  13  16
ENDBRANCH   1  12
BRANCH   2  24
HETATM   24  C   UNL     1      -6.845 -13.742 -37.156  1.00  0.00    -0.032 A 
HETATM   25  C   UNL     1      -7.137 -15.110 -37.172  1.00  0.00     0.012 A 
HETATM   26  C   UNL     1      -8.176 -15.611 -37.965  1.00  0.00     0.037 A 
HETATM   27  C   UNL     1      -8.959 -14.764 -38.748  1.00  0.00     0.068 A 
HETATM   28  C   UNL     1      -8.695 -13.398 -38.728  1.00  0.00     0.037 A 
HETATM   29  C   UNL     1      -7.652 -12.896 -37.941  1.00  0.00     0.012 A 
BRANCH  27  30
HETATM   30  O   UNL     1      -9.938 -15.388 -39.469  1.00  0.00    -0.356 OA
HETATM   31  C   UNL     1     -10.490 -14.664 -40.562  1.00  0.00     0.210 C 
ENDBRANCH  27  30
ENDBRANCH   2  24
TORSDOF 4
ENDMDL
MODEL 6
REMARK VINA RESULT:      -7.8     16.360     18.467
REMARK  4 active torsions:
REMARK  status: ('A' for Active; 'I' for Inactive)
REMARK    1  A    between atoms: C_6  and  N_7 
REMARK       I    between atoms: N_7  and  C_8 
REMARK    2  A    between atoms: C_8  and  C_9 
REMARK    3  A    between atoms: C_10  and  C_11 
REMARK    4  A    between atoms: C_14  and  O_15 
ROOT
HETATM    1  C   UNL     1      -2.007 -13.520 -37.978  1.00  0.00     0.131 C 
HETATM    2  C   UNL     1      -2.050 -14.043 -36.518  1.00  0.00     0.177 C 
HETATM    3  N   UNL     1      -0.974 -15.004 -36.301  1.00  0.00    -0.088 N 
HETATM    4  C   UNL     1      -0.295 -15.654 -37.292  1.00  0.00     0.721 A 
HETATM    5  N   UNL     1      -0.541 -15.411 -38.590  1.00  0.00    -0.218 N 
HETATM    6  C   UNL     1      -1.713 -14.642 -39.005  1.00  0.00     0.111 C 
HETATM    7  C   UNL     1      -1.402 -14.070 -40.396  1.00  0.00     0.034 C 
HETATM    8  N   UNL     1      -0.454 -15.277 -35.086  1.00  0.00    -0.149 NA
HETATM    9  C   UNL     1       0.468 -16.189 -35.416  1.00  0.00     0.275 A 
HETATM   10  N   UNL     1       0.599 -16.442 -36.754  1.00  0.00    -0.055 NA
HETATM   11  H   UNL     1      -0.165 -16.082 -39.257  1.00  0.00     0.178 HD
ENDROOT
BRANCH   1  12
HETATM   12  C   UNL     1      -3.268 -12.735 -38.314  1.00  0.00     0.230 C 
HETATM   13  N   UNL     1      -4.342 -13.552 -38.629  1.00  0.00    -0.326 N 
HETATM   14  H   UNL     1      -4.209 -14.548 -38.523  1.00  0.00     0.169 HD
HETATM   15  O   UNL     1      -3.269 -11.509 -38.289  1.00  0.00    -0.273 OA
BRANCH  13  16
HETATM   16  C   UNL     1      -5.644 -13.159 -39.029  1.00  0.00     0.040 A 
HETATM   17  C   UNL     1      -5.934 -13.071 -40.408  1.00  0.00    -0.035 A 
HETATM   18  C   UNL     1      -7.226 -12.692 -40.823  1.00  0.00     0.015 A 
HETATM   19  C   UNL     1      -4.913 -13.374 -41.473  1.00  0.00     0.050 C 
HETATM   20  C   UNL     1      -8.226 -12.384 -39.896  1.00  0.00    -0.061 A 
HETATM   21  C   UNL     1      -9.608 -12.017 -40.346  1.00  0.00     0.048 C 
HETATM   22  C   UNL     1      -7.930 -12.476 -38.537  1.00  0.00     0.009 A 
HETATM   23  C   UNL     1      -6.653 -12.853 -38.110  1.00  0.00     0.030 A 
ENDBRANCH  13  16
ENDBRANCH   1  12
BRANCH   2  24
HETATM   24  C   UNL     1      -3.356 -14.593 -35.946  1.00  0.00    -0.032 A 
HETATM   25  C   UNL     1      -3.790 -15.913 -36.113  1.00  0.00     0.012 A 
HETATM   26  C   UNL     1      -4.998 -16.346 -35.553  1.00  0.00     0.037 A 
HETATM   27  C   UNL     1      -5.795 -15.483 -34.802  1.00  0.00     0.068 A 
HETATM   28  C   UNL     1      -5.369 -14.173 -34.609  1.00  0.00     0.037 A 
HETATM   29  C   UNL     1      -4.164 -13.736 -35.174  1.00  0.00     0.012 A 
BRANCH  27  30
HETATM   30  O   UNL     1      -6.944 -16.039 -34.314  1.00  0.00    -0.356 OA
HETATM   31  C   UNL     1      -7.453 -15.501 -33.101  1.00  0.00     0.210 C 
ENDBRANCH  27  30
ENDBRANCH   2  24
TORSDOF 4
ENDMDL
MODEL 7
REMARK VINA RESULT:      -7.7      1.449      2.183
REMARK  4 active torsions:
REMARK  status: ('A' for Active; 'I' for Inactive)
REMARK    1  A    between atoms: C_6  and  N_7 
REMARK       I    between atoms: N_7  and  C_8 
REMARK    2  A    between atoms: C_8  and  C_9 
REMARK    3  A    between atoms: C_10  and  C_11 
REMARK    4  A    between atoms: C_14  and  O_15 
ROOT
HETATM    1  C   UNL     1      -8.065   3.381 -31.712  1.00  0.00     0.131 C 
HETATM    2  C   UNL     1      -7.083   4.550 -31.434  1.00  0.00     0.177 C 
HETATM    3  N   UNL     1      -7.729   5.824 -31.732  1.00  0.00    -0.088 N 
HETATM    4  C   UNL     1      -8.844   5.972 -32.506  1.00  0.00     0.721 A 
HETATM    5  N   UNL     1      -9.486   4.913 -33.028  1.00  0.00    -0.218 N 
HETATM    6  C   UNL     1      -8.881   3.582 -33.013  1.00  0.00     0.111 C 
HETATM    7  C   UNL     1     -10.029   2.568 -33.126  1.00  0.00     0.034 C 
HETATM    8  N   UNL     1      -7.351   6.996 -31.182  1.00  0.00    -0.149 NA
HETATM    9  C   UNL     1      -8.224   7.829 -31.760  1.00  0.00     0.275 A 
HETATM   10  N   UNL     1      -9.156   7.240 -32.572  1.00  0.00    -0.055 NA
HETATM   11  H   UNL     1     -10.162   5.109 -33.764  1.00  0.00     0.178 HD
ENDROOT
BRANCH   1  12
HETATM   12  C   UNL     1      -7.343   2.041 -31.675  1.00  0.00     0.230 C 
HETATM   13  N   UNL     1      -6.960   1.602 -32.934  1.00  0.00    -0.326 N 
HETATM   14  H   UNL     1      -7.116   2.233 -33.707  1.00  0.00     0.169 HD
HETATM   15  O   UNL     1      -7.148   1.460 -30.612  1.00  0.00    -0.273 OA
BRANCH  13  16
HETATM   16  C   UNL     1      -6.311   0.387 -33.269  1.00  0.00     0.040 A 
HETATM   17  C   UNL     1      -6.800  -0.365 -34.359  1.00  0.00    -0.035 A 
HETATM   18  C   UNL     1      -6.161  -1.570 -34.713  1.00  0.00     0.015 A 
HETATM   19  C   UNL     1      -7.987   0.070 -35.178  1.00  0.00     0.050 C 
HETATM   20  C   UNL     1      -5.060  -2.047 -33.996  1.00  0.00    -0.061 A 
HETATM   21  C   UNL     1      -4.364  -3.311 -34.403  1.00  0.00     0.048 C 
HETATM   22  C   UNL     1      -4.584  -1.295 -32.923  1.00  0.00     0.009 A 
HETATM   23  C   UNL     1      -5.206  -0.097 -32.561  1.00  0.00     0.030 A 
ENDBRANCH  13  16
ENDBRANCH   1  12
BRANCH   2  24
HETATM   24  C   UNL     1      -5.682   4.526 -32.043  1.00  0.00    -0.032 A 
HETATM   25  C   UNL     1      -4.531   4.138 -31.348  1.00  0.00     0.012 A 
HETATM   26  C   UNL     1      -3.281   4.136 -31.976  1.00  0.00     0.037 A 
HETATM   27  C   UNL     1      -3.146   4.503 -33.314  1.00  0.00     0.068 A 
HETATM   28  C   UNL     1      -4.282   4.872 -34.027  1.00  0.00     0.037 A 
HETATM   29  C   UNL     1      -5.533   4.882 -33.397  1.00  0.00     0.012 A 
BRANCH  27  30
HETATM   30  O   UNL     1      -1.869   4.453 -33.799  1.00  0.00    -0.356 OA
HETATM   31  C   UNL     1      -1.500   5.452 -34.741  1.00  0.00     0.210 C 
ENDBRANCH  27  30
ENDBRANCH   2  24
TORSDOF 4
ENDMDL
MODEL 8
REMARK VINA RESULT:      -7.6      2.555      6.372
REMARK  4 active torsions:
REMARK  status: ('A' for Active; 'I' for Inactive)
REMARK    1  A    between atoms: C_6  and  N_7 
REMARK       I    between atoms: N_7  and  C_8 
REMARK    2  A    between atoms: C_8  and  C_9 
REMARK    3  A    between atoms: C_10  and  C_11 
REMARK    4  A    between atoms: C_14  and  O_15 
ROOT
HETATM    1  C   UNL     1      -6.839   3.860 -31.584  1.00  0.00     0.131 C 
HETATM    2  C   UNL     1      -6.822   2.744 -32.662  1.00  0.00     0.177 C 
HETATM    3  N   UNL     1      -8.189   2.363 -33.005  1.00  0.00    -0.088 N 
HETATM    4  C   UNL     1      -9.289   2.627 -32.241  1.00  0.00     0.721 A 
HETATM    5  N   UNL     1      -9.201   3.328 -31.098  1.00  0.00    -0.218 N 
HETATM    6  C   UNL     1      -7.905   3.615 -30.487  1.00  0.00     0.111 C 
HETATM    7  C   UNL     1      -8.095   4.851 -29.595  1.00  0.00     0.034 C 
HETATM    8  N   UNL     1      -8.529   1.796 -34.181  1.00  0.00    -0.149 NA
HETATM    9  C   UNL     1      -9.847   1.648 -34.006  1.00  0.00     0.275 A 
HETATM   10  N   UNL     1     -10.350   2.148 -32.836  1.00  0.00    -0.055 NA
HETATM   11  H   UNL     1     -10.010   3.292 -30.480  1.00  0.00     0.178 HD
ENDROOT
BRANCH   1  12
HETATM   12  C   UNL     1      -5.447   4.084 -31.009  1.00  0.00     0.230 C 
HETATM   13  N   UNL     1      -4.742   5.072 -31.678  1.00  0.00    -0.326 N 
HETATM   14  H   UNL     1      -5.236   5.584 -32.396  1.00  0.00     0.169 HD
HETATM   15  O   UNL     1      -5.051   3.429 -30.051  1.00  0.00    -0.273 OA
BRANCH  13  16
HETATM   16  C   UNL     1      -3.413   5.505 -31.436  1.00  0.00     0.040 A 
HETATM   17  C   UNL     1      -2.373   4.986 -32.238  1.00  0.00    -0.035 A 
HETATM   18  C   UNL     1      -1.049   5.413 -32.019  1.00  0.00     0.015 A 
HETATM   19  C   UNL     1      -2.619   3.986 -33.337  1.00  0.00     0.050 C 
HETATM   20  C   UNL     1      -0.738   6.331 -31.010  1.00  0.00    -0.061 A 
HETATM   21  C   UNL     1       0.669   6.807 -30.809  1.00  0.00     0.048 C 
HETATM   22  C   UNL     1      -1.773   6.839 -30.226  1.00  0.00     0.009 A 
HETATM   23  C   UNL     1      -3.093   6.426 -30.433  1.00  0.00     0.030 A 
ENDBRANCH  13  16
ENDBRANCH   1  12
BRANCH   2  24
HETATM   24  C   UNL     1      -5.977   1.490 -32.444  1.00  0.00    -0.032 A 
HETATM   25  C   UNL     1      -4.743   1.259 -33.063  1.00  0.00     0.012 A 
HETATM   26  C   UNL     1      -4.022   0.087 -32.808  1.00  0.00     0.037 A 
HETATM   27  C   UNL     1      -4.500  -0.875 -31.920  1.00  0.00     0.068 A 
HETATM   28  C   UNL     1      -5.715  -0.653 -31.281  1.00  0.00     0.037 A 
HETATM   29  C   UNL     1      -6.442   0.516 -31.540  1.00  0.00     0.012 A 
BRANCH  27  30
HETATM   30  O   UNL     1      -3.693  -1.968 -31.765  1.00  0.00    -0.356 OA
HETATM   31  C   UNL     1      -3.625  -2.875 -32.857  1.00  0.00     0.210 C 
ENDBRANCH  27  30
ENDBRANCH   2  24
TORSDOF 4
ENDMDL
MODEL 9
REMARK VINA RESULT:      -7.6      1.848      2.684
REMARK  4 active torsions:
REMARK  status: ('A' for Active; 'I' for Inactive)
REMARK    1  A    between atoms: C_6  and  N_7 
REMARK       I    between atoms: N_7  and  C_8 
REMARK    2  A    between atoms: C_8  and  C_9 
REMARK    3  A    between atoms: C_10  and  C_11 
REMARK    4  A    between atoms: C_14  and  O_15 
ROOT
HETATM    1  C   UNL     1      -9.019   2.808 -32.772  1.00  0.00     0.131 C 
HETATM    2  C   UNL     1      -8.521   4.274 -32.686  1.00  0.00     0.177 C 
HETATM    3  N   UNL     1      -9.326   5.126 -33.556  1.00  0.00    -0.088 N 
HETATM    4  C   UNL     1     -10.109   4.677 -34.581  1.00  0.00     0.721 A 
HETATM    5  N   UNL     1     -10.243   3.366 -34.844  1.00  0.00    -0.218 N 
HETATM    6  C   UNL     1      -9.364   2.378 -34.221  1.00  0.00     0.111 C 
HETATM    7  C   UNL     1     -10.108   1.035 -34.252  1.00  0.00     0.034 C 
HETATM    8  N   UNL     1      -9.468   6.455 -33.371  1.00  0.00    -0.149 NA
HETATM    9  C   UNL     1     -10.272   6.757 -34.397  1.00  0.00     0.275 A 
HETATM   10  N   UNL     1     -10.689   5.698 -35.156  1.00  0.00    -0.055 NA
HETATM   11  H   UNL     1     -10.653   3.123 -35.743  1.00  0.00     0.178 HD
ENDROOT
BRANCH   1  12
HETATM   12  C   UNL     1      -8.038   1.857 -32.099  1.00  0.00     0.230 C 
HETATM   13  N   UNL     1      -7.120   1.316 -32.984  1.00  0.00    -0.326 N 
HETATM   14  H   UNL     1      -7.138   1.660 -33.934  1.00  0.00     0.169 HD
HETATM   15  O   UNL     1      -8.104   1.637 -30.894  1.00  0.00    -0.273 OA
BRANCH  13  16
HETATM   16  C   UNL     1      -6.100   0.370 -32.708  1.00  0.00     0.040 A 
HETATM   17  C   UNL     1      -6.021  -0.795 -33.502  1.00  0.00    -0.035 A 
HETATM   18  C   UNL     1      -5.008  -1.741 -33.247  1.00  0.00     0.015 A 
HETATM   19  C   UNL     1      -6.979  -1.075 -34.630  1.00  0.00     0.050 C 
HETATM   20  C   UNL     1      -4.087  -1.558 -32.211  1.00  0.00    -0.061 A 
HETATM   21  C   UNL     1      -2.990  -2.552 -31.972  1.00  0.00     0.048 C 
HETATM   22  C   UNL     1      -4.173  -0.404 -31.435  1.00  0.00     0.009 A 
HETATM   23  C   UNL     1      -5.172   0.545 -31.676  1.00  0.00     0.030 A 
ENDBRANCH  13  16
ENDBRANCH   1  12
BRANCH   2  24
HETATM   24  C   UNL     1      -7.039   4.586 -32.886  1.00  0.00    -0.032 A 
HETATM   25  C   UNL     1      -6.385   4.525 -34.122  1.00  0.00     0.012 A 
HETATM   26  C   UNL     1      -5.023   4.831 -34.228  1.00  0.00     0.037 A 
HETATM   27  C   UNL     1      -4.283   5.221 -33.113  1.00  0.00     0.068 A 
HETATM   28  C   UNL     1      -4.921   5.307 -31.880  1.00  0.00     0.037 A 
HETATM   29  C   UNL     1      -6.281   4.994 -31.771  1.00  0.00     0.012 A 
BRANCH  27  30
HETATM   30  O   UNL     1      -2.966   5.492 -33.362  1.00  0.00    -0.356 OA
HETATM   31  C   UNL     1      -2.011   4.601 -32.802  1.00  0.00     0.210 C 
ENDBRANCH  27  30
ENDBRANCH   2  24
TORSDOF 4
ENDMDL
MODEL 10
REMARK VINA RESULT:      -7.6      2.767      5.866
REMARK  4 active torsions:
REMARK  status: ('A' for Active; 'I' for Inactive)
REMARK    1  A    between atoms: C_6  and  N_7 
REMARK       I    between atoms: N_7  and  C_8 
REMARK    2  A    between atoms: C_8  and  C_9 
REMARK    3  A    between atoms: C_10  and  C_11 
REMARK    4  A    between atoms: C_14  and  O_15 
ROOT
HETATM    1  C   UNL     1      -8.302   3.901 -33.329  1.00  0.00     0.131 C 
HETATM    2  C   UNL     1      -9.568   4.087 -34.206  1.00  0.00     0.177 C 
HETATM    3  N   UNL     1      -9.995   5.482 -34.175  1.00  0.00    -0.088 N 
HETATM    4  C   UNL     1      -9.617   6.394 -33.231  1.00  0.00     0.721 A 
HETATM    5  N   UNL     1      -8.752   6.078 -32.253  1.00  0.00    -0.218 N 
HETATM    6  C   UNL     1      -8.377   4.689 -31.997  1.00  0.00     0.111 C 
HETATM    7  C   UNL     1      -7.020   4.717 -31.277  1.00  0.00     0.034 C 
HETATM    8  N   UNL     1     -10.733   6.056 -35.148  1.00  0.00    -0.149 NA
HETATM    9  C   UNL     1     -10.851   7.297 -34.663  1.00  0.00     0.275 A 
HETATM   10  N   UNL     1     -10.179   7.544 -33.496  1.00  0.00    -0.055 NA
HETATM   11  H   UNL     1      -8.693   6.728 -31.471  1.00  0.00     0.178 HD
ENDROOT
BRANCH   1  12
HETATM   12  C   UNL     1      -7.995   2.424 -33.119  1.00  0.00     0.230 C 
HETATM   13  N   UNL     1      -7.079   1.930 -34.035  1.00  0.00    -0.326 N 
HETATM   14  H   UNL     1      -6.659   2.595 -34.669  1.00  0.00     0.169 HD
HETATM   15  O   UNL     1      -8.532   1.794 -32.215  1.00  0.00    -0.273 OA
BRANCH  13  16
HETATM   16  C   UNL     1      -6.604   0.600 -34.156  1.00  0.00     0.040 A 
HETATM   17  C   UNL     1      -5.444   0.226 -33.443  1.00  0.00    -0.035 A 
HETATM   18  C   UNL     1      -4.963  -1.095 -33.544  1.00  0.00     0.015 A 
HETATM   19  C   UNL     1      -4.689   1.185 -32.561  1.00  0.00     0.050 C 
HETATM   20  C   UNL     1      -5.602  -2.041 -34.351  1.00  0.00    -0.061 A 
HETATM   21  C   UNL     1      -5.105  -3.454 -34.423  1.00  0.00     0.048 C 
HETATM   22  C   UNL     1      -6.747  -1.662 -35.049  1.00  0.00     0.009 A 
HETATM   23  C   UNL     1      -7.238  -0.355 -34.957  1.00  0.00     0.030 A 
ENDBRANCH  13  16
ENDBRANCH   1  12
BRANCH   2  24
HETATM   24  C   UNL     1     -10.775   3.173 -34.000  1.00  0.00    -0.032 A 
HETATM   25  C   UNL     1     -10.993   1.989 -34.714  1.00  0.00     0.012 A 
HETATM   26  C   UNL     1     -12.121   1.200 -34.465  1.00  0.00     0.037 A 
HETATM   27  C   UNL     1     -13.052   1.559 -33.491  1.00  0.00     0.068 A 
HETATM   28  C   UNL     1     -12.841   2.723 -32.758  1.00  0.00     0.037 A 
HETATM   29  C   UNL     1     -11.716   3.517 -33.011  1.00  0.00     0.012 A 
BRANCH  27  30
HETATM   30  O   UNL     1     -14.103   0.696 -33.352  1.00  0.00    -0.356 OA
HETATM   31  C   UNL     1     -15.184   0.850 -34.263  1.00  0.00     0.210 C 
ENDBRANCH  27  30
ENDBRANCH   2  24
TORSDOF 4
ENDMDL
