MODEL 1
REMARK VINA RESULT:      -8.7      0.000      0.000
REMARK  8 active torsions:
REMARK  status: ('A' for Active; 'I' for Inactive)
REMARK    1  A    between atoms: C_10  and  C_11 
REMARK    2  A    between atoms: C_11  and  C_12 
REMARK       I    between atoms: C_12  and  N_13 
REMARK    3  A    between atoms: N_13  and  N_14 
REMARK       I    between atoms: N_14  and  C_15 
REMARK    4  A    between atoms: C_15  and  C_16 
REMARK    5  A    between atoms: C_16  and  C_17 
REMARK    6  A    between atoms: C_17  and  C_18 
REMARK       I    between atoms: C_18  and  N_19 
REMARK    7  A    between atoms: N_19  and  C_20 
REMARK    8  A    between atoms: C_20  and  C_21 
ROOT
HETATM    1  C   UNL     1      -9.494   0.749 -33.694  1.00  0.00     0.240 C 
HETATM    2  N   UNL     1     -10.646   1.256 -34.269  1.00  0.00    -0.267 N 
HETATM    3  O   UNL     1      -9.524   0.079 -32.662  1.00  0.00    -0.272 OA
HETATM    4  H   UNL     1     -10.663   1.661 -35.205  1.00  0.00     0.190 HD
ENDROOT
BRANCH   2   5
HETATM    5  N   UNL     1     -11.873   0.793 -33.769  1.00  0.00    -0.268 N 
HETATM    6  C   UNL     1     -12.992   0.946 -34.563  1.00  0.00     0.236 C 
HETATM    7  O   UNL     1     -12.992   1.611 -35.598  1.00  0.00    -0.272 OA
HETATM    8  H   UNL     1     -11.807   0.057 -33.064  1.00  0.00     0.190 HD
BRANCH   6   9
HETATM    9  C   UNL     1     -14.196   0.183 -34.055  1.00  0.00     0.114 C 
BRANCH   9  10
HETATM   10  C   UNL     1     -15.407   1.086 -33.866  1.00  0.00     0.112 C 
BRANCH  10  11
HETATM   11  C   UNL     1     -15.173   2.106 -32.773  1.00  0.00     0.218 C 
HETATM   12  N   UNL     1     -14.474   3.215 -33.177  1.00  0.00    -0.355 N 
HETATM   13  H   UNL     1     -14.447   3.420 -34.177  1.00  0.00     0.162 HD
HETATM   14  O   UNL     1     -15.591   1.942 -31.632  1.00  0.00    -0.274 OA
BRANCH  12  15
HETATM   15  C   UNL     1     -14.248   4.315 -32.271  1.00  0.00     0.187 C 
BRANCH  15  16
HETATM   16  C   UNL     1     -12.887   4.186 -31.700  1.00  0.00     0.070 A 
HETATM   17  O   UNL     1     -11.921   3.677 -32.519  1.00  0.00    -0.325 OA
HETATM   18  C   UNL     1     -10.770   3.640 -31.800  1.00  0.00     0.142 A 
HETATM   19  C   UNL     1     -10.981   4.117 -30.527  1.00  0.00     0.027 A 
HETATM   20  C   UNL     1     -12.350   4.470 -30.461  1.00  0.00     0.036 A 
ENDBRANCH  15  16
ENDBRANCH  12  15
ENDBRANCH  10  11
ENDBRANCH   9  10
ENDBRANCH   6   9
ENDBRANCH   2   5
BRANCH   1  21
HETATM   21  C   UNL     1      -8.228   1.056 -34.458  1.00  0.00     0.146 C 
BRANCH  21  22
HETATM   22  C   UNL     1      -6.946   0.516 -33.893  1.00  0.00    -0.015 A 
HETATM   23  C   UNL     1      -6.336  -0.784 -34.024  1.00  0.00     0.000 A 
HETATM   24  C   UNL     1      -6.665  -1.975 -34.708  1.00  0.00     0.021 A 
HETATM   25  C   UNL     1      -5.153  -0.772 -33.277  1.00  0.00     0.049 A 
HETATM   26  C   UNL     1      -5.835  -3.104 -34.619  1.00  0.00    -0.061 A 
HETATM   27  C   UNL     1      -6.170  -4.356 -35.376  1.00  0.00     0.048 C 
HETATM   28  C   UNL     1      -4.663  -3.039 -33.865  1.00  0.00     0.015 A 
HETATM   29  C   UNL     1      -4.288  -1.878 -33.167  1.00  0.00    -0.034 A 
HETATM   30  C   UNL     1      -3.007  -1.880 -32.384  1.00  0.00     0.050 C 
HETATM   31  N   UNL     1      -5.042   0.483 -32.727  1.00  0.00    -0.358 N 
HETATM   32  H   UNL     1      -4.274   0.777 -32.143  1.00  0.00     0.166 HD
HETATM   33  C   UNL     1      -6.107   1.266 -33.077  1.00  0.00     0.013 A 
HETATM   34  C   UNL     1      -6.220   2.671 -32.601  1.00  0.00     0.068 C 
ENDBRANCH  21  22
ENDBRANCH   1  21
TORSDOF 8
ENDMDL
MODEL 2
REMARK VINA RESULT:      -8.6      6.084      9.470
REMARK  8 active torsions:
REMARK  status: ('A' for Active; 'I' for Inactive)
REMARK    1  A    between atoms: C_10  and  C_11 
REMARK    2  A    between atoms: C_11  and  C_12 
REMARK       I    between atoms: C_12  and  N_13 
REMARK    3  A    between atoms: N_13  and  N_14 
REMARK       I    between atoms: N_14  and  C_15 
REMARK    4  A    between atoms: C_15  and  C_16 
REMARK    5  A    between atoms: C_16  and  C_17 
REMARK    6  A    between atoms: C_17  and  C_18 
REMARK       I    between atoms: C_18  and  N_19 
REMARK    7  A    between atoms: N_19  and  C_20 
REMARK    8  A    between atoms: C_20  and  C_21 
ROOT
HETATM    1  C   UNL     1      -3.990   2.654 -32.349  1.00  0.00     0.240 C 
HETATM    2  N   UNL     1      -4.169   3.741 -33.186  1.00  0.00    -0.267 N 
HETATM    3  O   UNL     1      -2.895   2.394 -31.848  1.00  0.00    -0.272 OA
HETATM    4  H   UNL     1      -5.092   4.072 -33.468  1.00  0.00     0.190 HD
ENDROOT
BRANCH   2   5
HETATM    5  N   UNL     1      -3.121   4.671 -33.268  1.00  0.00    -0.268 N 
HETATM    6  C   UNL     1      -3.111   5.537 -34.343  1.00  0.00     0.236 C 
HETATM    7  O   UNL     1      -3.869   5.420 -35.304  1.00  0.00    -0.272 OA
HETATM    8  H   UNL     1      -2.677   4.907 -32.379  1.00  0.00     0.190 HD
BRANCH   6   9
HETATM    9  C   UNL     1      -2.106   6.660 -34.198  1.00  0.00     0.114 C 
BRANCH   9  10
HETATM   10  C   UNL     1      -1.236   6.492 -32.960  1.00  0.00     0.112 C 
BRANCH  10  11
HETATM   11  C   UNL     1      -1.460   7.612 -31.968  1.00  0.00     0.218 C 
HETATM   12  N   UNL     1      -1.105   7.304 -30.679  1.00  0.00    -0.355 N 
HETATM   13  H   UNL     1      -0.458   6.526 -30.539  1.00  0.00     0.162 HD
HETATM   14  O   UNL     1      -1.912   8.701 -32.308  1.00  0.00    -0.274 OA
BRANCH  12  15
HETATM   15  C   UNL     1      -1.179   8.298 -29.635  1.00  0.00     0.187 C 
BRANCH  15  16
HETATM   16  C   UNL     1      -0.292   7.883 -28.524  1.00  0.00     0.070 A 
HETATM   17  O   UNL     1      -0.848   7.106 -27.549  1.00  0.00    -0.325 OA
HETATM   18  C   UNL     1       0.127   6.852 -26.639  1.00  0.00     0.142 A 
HETATM   19  C   UNL     1       1.305   7.456 -27.013  1.00  0.00     0.027 A 
HETATM   20  C   UNL     1       1.035   8.124 -28.232  1.00  0.00     0.036 A 
ENDBRANCH  15  16
ENDBRANCH  12  15
ENDBRANCH  10  11
ENDBRANCH   9  10
ENDBRANCH   6   9
ENDBRANCH   2   5
BRANCH   1  21
HETATM   21  C   UNL     1      -5.244   1.857 -32.081  1.00  0.00     0.146 C 
BRANCH  21  22
HETATM   22  C   UNL     1      -5.495   0.668 -32.962  1.00  0.00    -0.015 A 
HETATM   23  C   UNL     1      -4.897  -0.644 -32.961  1.00  0.00     0.000 A 
HETATM   24  C   UNL     1      -3.924  -1.295 -32.172  1.00  0.00     0.021 A 
HETATM   25  C   UNL     1      -5.473  -1.371 -34.009  1.00  0.00     0.049 A 
HETATM   26  C   UNL     1      -3.546  -2.619 -32.450  1.00  0.00    -0.061 A 
HETATM   27  C   UNL     1      -2.538  -3.320 -31.586  1.00  0.00     0.048 C 
HETATM   28  C   UNL     1      -4.155  -3.302 -33.503  1.00  0.00     0.015 A 
HETATM   29  C   UNL     1      -5.130  -2.701 -34.318  1.00  0.00    -0.034 A 
HETATM   30  C   UNL     1      -5.748  -3.502 -35.427  1.00  0.00     0.050 C 
HETATM   31  N   UNL     1      -6.389  -0.542 -34.612  1.00  0.00    -0.358 N 
HETATM   32  H   UNL     1      -6.964  -0.811 -35.397  1.00  0.00     0.166 HD
HETATM   33  C   UNL     1      -6.414   0.684 -34.006  1.00  0.00     0.013 A 
HETATM   34  C   UNL     1      -7.324   1.760 -34.480  1.00  0.00     0.068 C 
ENDBRANCH  21  22
ENDBRANCH   1  21
TORSDOF 8
ENDMDL
MODEL 3
REMARK VINA RESULT:      -8.6      6.155      9.754
REMARK  8 active torsions:
REMARK  status: ('A' for Active; 'I' for Inactive)
REMARK    1  A    between atoms: C_10  and  C_11 
REMARK    2  A    between atoms: C_11  and  C_12 
REMARK       I    between atoms: C_12  and  N_13 
REMARK    3  A    between atoms: N_13  and  N_14 
REMARK       I    between atoms: N_14  and  C_15 
REMARK    4  A    between atoms: C_15  and  C_16 
REMARK    5  A    between atoms: C_16  and  C_17 
REMARK    6  A    between atoms: C_17  and  C_18 
REMARK       I    between atoms: C_18  and  N_19 
REMARK    7  A    between atoms: N_19  and  C_20 
REMARK    8  A    between atoms: C_20  and  C_21 
ROOT
HETATM    1  C   UNL     1      -6.709   3.001 -31.358  1.00  0.00     0.240 C 
HETATM    2  N   UNL     1      -5.395   2.899 -30.937  1.00  0.00    -0.267 N 
HETATM    3  O   UNL     1      -7.133   4.007 -31.928  1.00  0.00    -0.272 OA
HETATM    4  H   UNL     1      -4.984   2.020 -30.624  1.00  0.00     0.190 HD
ENDROOT
BRANCH   2   5
HETATM    5  N   UNL     1      -4.498   3.884 -31.381  1.00  0.00    -0.268 N 
HETATM    6  C   UNL     1      -3.176   3.524 -31.544  1.00  0.00     0.236 C 
HETATM    7  O   UNL     1      -2.723   2.446 -31.163  1.00  0.00    -0.272 OA
HETATM    8  H   UNL     1      -4.919   4.652 -31.906  1.00  0.00     0.190 HD
BRANCH   6   9
HETATM    9  C   UNL     1      -2.357   4.568 -32.272  1.00  0.00     0.114 C 
BRANCH   9  10
HETATM   10  C   UNL     1      -1.970   5.727 -31.364  1.00  0.00     0.112 C 
BRANCH  10  11
HETATM   11  C   UNL     1      -0.694   5.435 -30.604  1.00  0.00     0.218 C 
HETATM   12  N   UNL     1      -0.671   5.933 -29.327  1.00  0.00    -0.355 N 
HETATM   13  H   UNL     1      -1.567   6.160 -28.891  1.00  0.00     0.162 HD
HETATM   14  O   UNL     1       0.226   4.795 -31.103  1.00  0.00    -0.274 OA
BRANCH  12  15
HETATM   15  C   UNL     1       0.441   5.662 -28.448  1.00  0.00     0.187 C 
BRANCH  15  16
HETATM   16  C   UNL     1       0.915   6.944 -27.877  1.00  0.00     0.070 A 
HETATM   17  O   UNL     1       1.173   6.964 -26.537  1.00  0.00    -0.325 OA
HETATM   18  C   UNL     1       1.584   8.221 -26.230  1.00  0.00     0.142 A 
HETATM   19  C   UNL     1       1.592   9.013 -27.354  1.00  0.00     0.027 A 
HETATM   20  C   UNL     1       1.160   8.189 -28.421  1.00  0.00     0.036 A 
ENDBRANCH  15  16
ENDBRANCH  12  15
ENDBRANCH  10  11
ENDBRANCH   9  10
ENDBRANCH   6   9
ENDBRANCH   2   5
BRANCH   1  21
HETATM   21  C   UNL     1      -7.547   1.772 -31.094  1.00  0.00     0.146 C 
BRANCH  21  22
HETATM   22  C   UNL     1      -7.415   0.638 -32.068  1.00  0.00    -0.015 A 
HETATM   23  C   UNL     1      -6.285  -0.198 -32.390  1.00  0.00     0.000 A 
HETATM   24  C   UNL     1      -4.952  -0.291 -31.932  1.00  0.00     0.021 A 
HETATM   25  C   UNL     1      -6.691  -1.091 -33.387  1.00  0.00     0.049 A 
HETATM   26  C   UNL     1      -4.072  -1.240 -32.478  1.00  0.00    -0.061 A 
HETATM   27  C   UNL     1      -2.667  -1.360 -31.964  1.00  0.00     0.048 C 
HETATM   28  C   UNL     1      -4.529  -2.113 -33.467  1.00  0.00     0.015 A 
HETATM   29  C   UNL     1      -5.845  -2.063 -33.956  1.00  0.00    -0.034 A 
HETATM   30  C   UNL     1      -6.267  -3.041 -35.015  1.00  0.00     0.050 C 
HETATM   31  N   UNL     1      -8.012  -0.820 -33.650  1.00  0.00    -0.358 N 
HETATM   32  H   UNL     1      -8.568  -1.323 -34.326  1.00  0.00     0.166 HD
HETATM   33  C   UNL     1      -8.463   0.214 -32.878  1.00  0.00     0.013 A 
HETATM   34  C   UNL     1      -9.865   0.700 -32.981  1.00  0.00     0.068 C 
ENDBRANCH  21  22
ENDBRANCH   1  21
TORSDOF 8
ENDMDL
MODEL 4
REMARK VINA RESULT:      -8.5      6.233      9.703
REMARK  8 active torsions:
REMARK  status: ('A' for Active; 'I' for Inactive)
REMARK    1  A    between atoms: C_10  and  C_11 
REMARK    2  A    between atoms: C_11  and  C_12 
REMARK       I    between atoms: C_12  and  N_13 
REMARK    3  A    between atoms: N_13  and  N_14 
REMARK       I    between atoms: N_14  and  C_15 
REMARK    4  A    between atoms: C_15  and  C_16 
REMARK    5  A    between atoms: C_16  and  C_17 
REMARK    6  A    between atoms: C_17  and  C_18 
REMARK       I    between atoms: C_18  and  N_19 
REMARK    7  A    between atoms: N_19  and  C_20 
REMARK    8  A    between atoms: C_20  and  C_21 
ROOT
HETATM    1  C   UNL     1      -2.915   3.319 -31.775  1.00  0.00     0.240 C 
HETATM    2  N   UNL     1      -3.099   3.630 -33.111  1.00  0.00    -0.267 N 
HETATM    3  O   UNL     1      -1.981   3.784 -31.122  1.00  0.00    -0.272 OA
HETATM    4  H   UNL     1      -3.952   3.398 -33.618  1.00  0.00     0.190 HD
ENDROOT
BRANCH   2   5
HETATM    5  N   UNL     1      -2.321   4.671 -33.643  1.00  0.00    -0.268 N 
HETATM    6  C   UNL     1      -2.942   5.880 -33.884  1.00  0.00     0.236 C 
HETATM    7  O   UNL     1      -4.160   6.033 -33.815  1.00  0.00    -0.272 OA
HETATM    8  H   UNL     1      -1.319   4.604 -33.458  1.00  0.00     0.190 HD
BRANCH   6   9
HETATM    9  C   UNL     1      -1.972   6.999 -34.198  1.00  0.00     0.114 C 
BRANCH   9  10
HETATM   10  C   UNL     1      -0.894   7.136 -33.132  1.00  0.00     0.112 C 
BRANCH  10  11
HETATM   11  C   UNL     1      -1.365   7.983 -31.970  1.00  0.00     0.218 C 
HETATM   12  N   UNL     1      -1.050   7.474 -30.736  1.00  0.00    -0.355 N 
HETATM   13  H   UNL     1      -0.294   6.790 -30.685  1.00  0.00     0.162 HD
HETATM   14  O   UNL     1      -1.968   9.038 -32.139  1.00  0.00    -0.274 OA
BRANCH  12  15
HETATM   15  C   UNL     1      -1.357   8.211 -29.533  1.00  0.00     0.187 C 
BRANCH  15  16
HETATM   16  C   UNL     1      -0.402   7.807 -28.475  1.00  0.00     0.070 A 
HETATM   17  O   UNL     1      -0.858   6.929 -27.535  1.00  0.00    -0.325 OA
HETATM   18  C   UNL     1       0.165   6.706 -26.671  1.00  0.00     0.142 A 
HETATM   19  C   UNL     1       1.275   7.429 -27.040  1.00  0.00     0.027 A 
HETATM   20  C   UNL     1       0.910   8.143 -28.207  1.00  0.00     0.036 A 
ENDBRANCH  15  16
ENDBRANCH  12  15
ENDBRANCH  10  11
ENDBRANCH   9  10
ENDBRANCH   6   9
ENDBRANCH   2   5
BRANCH   1  21
HETATM   21  C   UNL     1      -3.969   2.406 -31.196  1.00  0.00     0.146 C 
BRANCH  21  22
HETATM   22  C   UNL     1      -5.092   2.000 -32.106  1.00  0.00    -0.015 A 
HETATM   23  C   UNL     1      -5.293   0.795 -32.872  1.00  0.00     0.000 A 
HETATM   24  C   UNL     1      -4.575  -0.410 -33.039  1.00  0.00     0.021 A 
HETATM   25  C   UNL     1      -6.495   0.936 -33.573  1.00  0.00     0.049 A 
HETATM   26  C   UNL     1      -5.055  -1.415 -33.894  1.00  0.00    -0.061 A 
HETATM   27  C   UNL     1      -4.309  -2.710 -34.041  1.00  0.00     0.048 C 
HETATM   28  C   UNL     1      -6.263  -1.229 -34.567  1.00  0.00     0.015 A 
HETATM   29  C   UNL     1      -7.016  -0.049 -34.434  1.00  0.00    -0.034 A 
HETATM   30  C   UNL     1      -8.312   0.076 -35.182  1.00  0.00     0.050 C 
HETATM   31  N   UNL     1      -7.009   2.166 -33.239  1.00  0.00    -0.358 N 
HETATM   32  H   UNL     1      -7.881   2.529 -33.595  1.00  0.00     0.166 HD
HETATM   33  C   UNL     1      -6.183   2.822 -32.369  1.00  0.00     0.013 A 
HETATM   34  C   UNL     1      -6.519   4.179 -31.861  1.00  0.00     0.068 C 
ENDBRANCH  21  22
ENDBRANCH   1  21
TORSDOF 8
ENDMDL
MODEL 5
REMARK VINA RESULT:      -8.3      5.306      8.023
REMARK  8 active torsions:
REMARK  status: ('A' for Active; 'I' for Inactive)
REMARK    1  A    between atoms: C_10  and  C_11 
REMARK    2  A    between atoms: C_11  and  C_12 
REMARK       I    between atoms: C_12  and  N_13 
REMARK    3  A    between atoms: N_13  and  N_14 
REMARK       I    between atoms: N_14  and  C_15 
REMARK    4  A    between atoms: C_15  and  C_16 
REMARK    5  A    between atoms: C_16  and  C_17 
REMARK    6  A    between atoms: C_17  and  C_18 
REMARK       I    between atoms: C_18  and  N_19 
REMARK    7  A    between atoms: N_19  and  C_20 
REMARK    8  A    between atoms: C_20  and  C_21 
ROOT
HETATM    1  C   UNL     1      -3.500   1.026 -31.641  1.00  0.00     0.240 C 
HETATM    2  N   UNL     1      -4.488   1.599 -30.860  1.00  0.00    -0.267 N 
HETATM    3  O   UNL     1      -2.905   1.667 -32.508  1.00  0.00    -0.272 OA
HETATM    4  H   UNL     1      -4.868   1.143 -30.030  1.00  0.00     0.190 HD
ENDROOT
BRANCH   2   5
HETATM    5  N   UNL     1      -4.634   2.994 -30.926  1.00  0.00    -0.268 N 
HETATM    6  C   UNL     1      -5.722   3.496 -31.611  1.00  0.00     0.236 C 
HETATM    7  O   UNL     1      -6.462   2.794 -32.298  1.00  0.00    -0.272 OA
HETATM    8  H   UNL     1      -4.179   3.516 -30.175  1.00  0.00     0.190 HD
BRANCH   6   9
HETATM    9  C   UNL     1      -5.931   4.980 -31.397  1.00  0.00     0.114 C 
BRANCH   9  10
HETATM   10  C   UNL     1      -6.140   5.723 -32.709  1.00  0.00     0.112 C 
BRANCH  10  11
HETATM   11  C   UNL     1      -4.893   5.699 -33.565  1.00  0.00     0.218 C 
HETATM   12  N   UNL     1      -3.767   6.164 -32.935  1.00  0.00    -0.355 N 
HETATM   13  H   UNL     1      -3.769   6.183 -31.914  1.00  0.00     0.162 HD
HETATM   14  O   UNL     1      -4.905   5.284 -34.720  1.00  0.00    -0.274 OA
BRANCH  12  15
HETATM   15  C   UNL     1      -2.482   6.124 -33.592  1.00  0.00     0.187 C 
BRANCH  15  16
HETATM   16  C   UNL     1      -1.422   6.119 -32.558  1.00  0.00     0.070 A 
HETATM   17  O   UNL     1      -1.347   5.017 -31.757  1.00  0.00    -0.325 OA
HETATM   18  C   UNL     1      -0.324   5.226 -30.889  1.00  0.00     0.142 A 
HETATM   19  C   UNL     1       0.261   6.450 -31.119  1.00  0.00     0.027 A 
HETATM   20  C   UNL     1      -0.448   7.029 -32.198  1.00  0.00     0.036 A 
ENDBRANCH  15  16
ENDBRANCH  12  15
ENDBRANCH  10  11
ENDBRANCH   9  10
ENDBRANCH   6   9
ENDBRANCH   2   5
BRANCH   1  21
HETATM   21  C   UNL     1      -3.202  -0.417 -31.312  1.00  0.00     0.146 C 
BRANCH  21  22
HETATM   22  C   UNL     1      -3.769  -1.457 -32.235  1.00  0.00    -0.015 A 
HETATM   23  C   UNL     1      -4.824  -1.369 -33.213  1.00  0.00     0.000 A 
HETATM   24  C   UNL     1      -5.670  -0.337 -33.677  1.00  0.00     0.021 A 
HETATM   25  C   UNL     1      -4.975  -2.636 -33.785  1.00  0.00     0.049 A 
HETATM   26  C   UNL     1      -6.632  -0.592 -34.667  1.00  0.00    -0.061 A 
HETATM   27  C   UNL     1      -7.504   0.516 -35.184  1.00  0.00     0.048 C 
HETATM   28  C   UNL     1      -6.739  -1.873 -35.210  1.00  0.00     0.015 A 
HETATM   29  C   UNL     1      -5.922  -2.934 -34.784  1.00  0.00    -0.034 A 
HETATM   30  C   UNL     1      -6.088  -4.283 -35.422  1.00  0.00     0.050 C 
HETATM   31  N   UNL     1      -4.045  -3.455 -33.191  1.00  0.00    -0.358 N 
HETATM   32  H   UNL     1      -3.922  -4.430 -33.420  1.00  0.00     0.166 HD
HETATM   33  C   UNL     1      -3.317  -2.772 -32.256  1.00  0.00     0.013 A 
HETATM   34  C   UNL     1      -2.247  -3.442 -31.471  1.00  0.00     0.068 C 
ENDBRANCH  21  22
ENDBRANCH   1  21
TORSDOF 8
ENDMDL
MODEL 6
REMARK VINA RESULT:      -8.3      3.373      6.399
REMARK  8 active torsions:
REMARK  status: ('A' for Active; 'I' for Inactive)
REMARK    1  A    between atoms: C_10  and  C_11 
REMARK    2  A    between atoms: C_11  and  C_12 
REMARK       I    between atoms: C_12  and  N_13 
REMARK    3  A    between atoms: N_13  and  N_14 
REMARK       I    between atoms: N_14  and  C_15 
REMARK    4  A    between atoms: C_15  and  C_16 
REMARK    5  A    between atoms: C_16  and  C_17 
REMARK    6  A    between atoms: C_17  and  C_18 
REMARK       I    between atoms: C_18  and  N_19 
REMARK    7  A    between atoms: N_19  and  C_20 
REMARK    8  A    between atoms: C_20  and  C_21 
ROOT
HETATM    1  C   UNL     1      -3.885   0.926 -31.460  1.00  0.00     0.240 C 
HETATM    2  N   UNL     1      -3.348   1.810 -32.380  1.00  0.00    -0.267 N 
HETATM    3  O   UNL     1      -4.852   1.226 -30.760  1.00  0.00    -0.272 OA
HETATM    4  H   UNL     1      -2.667   1.525 -33.084  1.00  0.00     0.190 HD
ENDROOT
BRANCH   2   5
HETATM    5  N   UNL     1      -4.079   2.976 -32.656  1.00  0.00    -0.268 N 
HETATM    6  C   UNL     1      -3.396   4.175 -32.670  1.00  0.00     0.236 C 
HETATM    7  O   UNL     1      -2.232   4.288 -32.291  1.00  0.00    -0.272 OA
HETATM    8  H   UNL     1      -4.938   2.836 -33.190  1.00  0.00     0.190 HD
BRANCH   6   9
HETATM    9  C   UNL     1      -4.210   5.321 -33.235  1.00  0.00     0.114 C 
BRANCH   9  10
HETATM   10  C   UNL     1      -5.364   4.830 -34.098  1.00  0.00     0.112 C 
BRANCH  10  11
HETATM   11  C   UNL     1      -6.678   4.881 -33.349  1.00  0.00     0.218 C 
HETATM   12  N   UNL     1      -7.649   4.058 -33.859  1.00  0.00    -0.355 N 
HETATM   13  H   UNL     1      -7.350   3.283 -34.453  1.00  0.00     0.162 HD
HETATM   14  O   UNL     1      -6.837   5.596 -32.366  1.00  0.00    -0.274 OA
BRANCH  12  15
HETATM   15  C   UNL     1      -8.928   3.931 -33.203  1.00  0.00     0.187 C 
BRANCH  15  16
HETATM   16  C   UNL     1      -9.117   2.517 -32.803  1.00  0.00     0.070 A 
HETATM   17  O   UNL     1     -10.148   1.843 -33.390  1.00  0.00    -0.325 OA
HETATM   18  C   UNL     1     -10.140   0.584 -32.879  1.00  0.00     0.142 A 
HETATM   19  C   UNL     1      -9.119   0.439 -31.969  1.00  0.00     0.027 A 
HETATM   20  C   UNL     1      -8.456   1.689 -31.918  1.00  0.00     0.036 A 
ENDBRANCH  15  16
ENDBRANCH  12  15
ENDBRANCH  10  11
ENDBRANCH   9  10
ENDBRANCH   6   9
ENDBRANCH   2   5
BRANCH   1  21
HETATM   21  C   UNL     1      -3.211  -0.425 -31.424  1.00  0.00     0.146 C 
BRANCH  21  22
HETATM   22  C   UNL     1      -3.787  -1.495 -32.306  1.00  0.00    -0.015 A 
HETATM   23  C   UNL     1      -4.838  -1.435 -33.291  1.00  0.00     0.000 A 
HETATM   24  C   UNL     1      -5.670  -0.413 -33.801  1.00  0.00     0.021 A 
HETATM   25  C   UNL     1      -5.002  -2.723 -33.812  1.00  0.00     0.049 A 
HETATM   26  C   UNL     1      -6.632  -0.697 -34.783  1.00  0.00    -0.061 A 
HETATM   27  C   UNL     1      -7.490   0.398 -35.348  1.00  0.00     0.048 C 
HETATM   28  C   UNL     1      -6.752  -1.998 -35.274  1.00  0.00     0.015 A 
HETATM   29  C   UNL     1      -5.949  -3.051 -34.802  1.00  0.00    -0.034 A 
HETATM   30  C   UNL     1      -6.128  -4.423 -35.385  1.00  0.00     0.050 C 
HETATM   31  N   UNL     1      -4.083  -3.527 -33.181  1.00  0.00    -0.358 N 
HETATM   32  H   UNL     1      -3.970  -4.512 -33.370  1.00  0.00     0.166 HD
HETATM   33  C   UNL     1      -3.351  -2.815 -32.273  1.00  0.00     0.013 A 
HETATM   34  C   UNL     1      -2.291  -3.465 -31.456  1.00  0.00     0.068 C 
ENDBRANCH  21  22
ENDBRANCH   1  21
TORSDOF 8
ENDMDL
MODEL 7
REMARK VINA RESULT:      -8.3      2.674      4.345
REMARK  8 active torsions:
REMARK  status: ('A' for Active; 'I' for Inactive)
REMARK    1  A    between atoms: C_10  and  C_11 
REMARK    2  A    between atoms: C_11  and  C_12 
REMARK       I    between atoms: C_12  and  N_13 
REMARK    3  A    between atoms: N_13  and  N_14 
REMARK       I    between atoms: N_14  and  C_15 
REMARK    4  A    between atoms: C_15  and  C_16 
REMARK    5  A    between atoms: C_16  and  C_17 
REMARK    6  A    between atoms: C_17  and  C_18 
REMARK       I    between atoms: C_18  and  N_19 
REMARK    7  A    between atoms: N_19  and  C_20 
REMARK    8  A    between atoms: C_20  and  C_21 
ROOT
HETATM    1  C   UNL     1      -9.342   1.557 -34.035  1.00  0.00     0.240 C 
HETATM    2  N   UNL     1     -10.595   1.578 -34.622  1.00  0.00    -0.267 N 
HETATM    3  O   UNL     1      -8.514   2.445 -34.241  1.00  0.00    -0.272 OA
HETATM    4  H   UNL     1     -11.349   0.954 -34.332  1.00  0.00     0.190 HD
ENDROOT
BRANCH   2   5
HETATM    5  N   UNL     1     -10.980   2.757 -35.279  1.00  0.00    -0.268 N 
HETATM    6  C   UNL     1     -11.728   3.674 -34.570  1.00  0.00     0.236 C 
HETATM    7  O   UNL     1     -12.209   3.435 -33.463  1.00  0.00    -0.272 OA
HETATM    8  H   UNL     1     -10.386   3.033 -36.063  1.00  0.00     0.190 HD
BRANCH   6   9
HETATM    9  C   UNL     1     -11.859   5.010 -35.271  1.00  0.00     0.114 C 
BRANCH   9  10
HETATM   10  C   UNL     1     -10.508   5.677 -35.486  1.00  0.00     0.112 C 
BRANCH  10  11
HETATM   11  C   UNL     1      -9.825   5.985 -34.171  1.00  0.00     0.218 C 
HETATM   12  N   UNL     1      -8.543   5.506 -34.075  1.00  0.00    -0.355 N 
HETATM   13  H   UNL     1      -8.055   5.283 -34.944  1.00  0.00     0.162 HD
HETATM   14  O   UNL     1     -10.383   6.620 -33.283  1.00  0.00    -0.274 OA
BRANCH  12  15
HETATM   15  C   UNL     1      -7.732   5.794 -32.917  1.00  0.00     0.187 C 
BRANCH  15  16
HETATM   16  C   UNL     1      -6.306   5.646 -33.289  1.00  0.00     0.070 A 
HETATM   17  O   UNL     1      -6.031   4.875 -34.381  1.00  0.00    -0.325 OA
HETATM   18  C   UNL     1      -4.682   4.871 -34.534  1.00  0.00     0.142 A 
HETATM   19  C   UNL     1      -4.083   5.629 -33.554  1.00  0.00     0.027 A 
HETATM   20  C   UNL     1      -5.132   6.130 -32.747  1.00  0.00     0.036 A 
ENDBRANCH  15  16
ENDBRANCH  12  15
ENDBRANCH  10  11
ENDBRANCH   9  10
ENDBRANCH   6   9
ENDBRANCH   2   5
BRANCH   1  21
HETATM   21  C   UNL     1      -9.105   0.389 -33.108  1.00  0.00     0.146 C 
BRANCH  21  22
HETATM   22  C   UNL     1      -7.680   0.086 -32.747  1.00  0.00    -0.015 A 
HETATM   23  C   UNL     1      -6.774  -0.914 -33.255  1.00  0.00     0.000 A 
HETATM   24  C   UNL     1      -6.854  -1.920 -34.243  1.00  0.00     0.021 A 
HETATM   25  C   UNL     1      -5.568  -0.783 -32.560  1.00  0.00     0.049 A 
HETATM   26  C   UNL     1      -5.759  -2.762 -34.497  1.00  0.00    -0.061 A 
HETATM   27  C   UNL     1      -5.834  -3.806 -35.573  1.00  0.00     0.048 C 
HETATM   28  C   UNL     1      -4.575  -2.586 -33.780  1.00  0.00     0.015 A 
HETATM   29  C   UNL     1      -4.443  -1.600 -32.787  1.00  0.00    -0.034 A 
HETATM   30  C   UNL     1      -3.135  -1.464 -32.063  1.00  0.00     0.050 C 
HETATM   31  N   UNL     1      -5.728   0.258 -31.677  1.00  0.00    -0.358 N 
HETATM   32  H   UNL     1      -5.007   0.582 -31.049  1.00  0.00     0.166 HD
HETATM   33  C   UNL     1      -6.985   0.787 -31.767  1.00  0.00     0.013 A 
HETATM   34  C   UNL     1      -7.406   1.926 -30.908  1.00  0.00     0.068 C 
ENDBRANCH  21  22
ENDBRANCH   1  21
TORSDOF 8
ENDMDL
MODEL 8
REMARK VINA RESULT:      -8.3      4.903      7.160
REMARK  8 active torsions:
REMARK  status: ('A' for Active; 'I' for Inactive)
REMARK    1  A    between atoms: C_10  and  C_11 
REMARK    2  A    between atoms: C_11  and  C_12 
REMARK       I    between atoms: C_12  and  N_13 
REMARK    3  A    between atoms: N_13  and  N_14 
REMARK       I    between atoms: N_14  and  C_15 
REMARK    4  A    between atoms: C_15  and  C_16 
REMARK    5  A    between atoms: C_16  and  C_17 
REMARK    6  A    between atoms: C_17  and  C_18 
REMARK       I    between atoms: C_18  and  N_19 
REMARK    7  A    between atoms: N_19  and  C_20 
REMARK    8  A    between atoms: C_20  and  C_21 
ROOT
HETATM    1  C   UNL     1      -3.893   0.861 -31.239  1.00  0.00     0.240 C 
HETATM    2  N   UNL     1      -4.979   0.749 -30.388  1.00  0.00    -0.267 N 
HETATM    3  O   UNL     1      -3.588   1.933 -31.764  1.00  0.00    -0.272 OA
HETATM    4  H   UNL     1      -5.145  -0.077 -29.813  1.00  0.00     0.190 HD
ENDROOT
BRANCH   2   5
HETATM    5  N   UNL     1      -5.589   1.939 -29.960  1.00  0.00    -0.268 N 
HETATM    6  C   UNL     1      -6.841   2.236 -30.458  1.00  0.00     0.236 C 
HETATM    7  O   UNL     1      -7.366   1.603 -31.373  1.00  0.00    -0.272 OA
HETATM    8  H   UNL     1      -5.266   2.294 -29.059  1.00  0.00     0.190 HD
BRANCH   6   9
HETATM    9  C   UNL     1      -7.514   3.385 -29.738  1.00  0.00     0.114 C 
BRANCH   9  10
HETATM   10  C   UNL     1      -7.338   4.704 -30.478  1.00  0.00     0.112 C 
BRANCH  10  11
HETATM   11  C   UNL     1      -5.907   5.191 -30.412  1.00  0.00     0.218 C 
HETATM   12  N   UNL     1      -5.384   5.573 -31.621  1.00  0.00    -0.355 N 
HETATM   13  H   UNL     1      -6.041   5.801 -32.370  1.00  0.00     0.162 HD
HETATM   14  O   UNL     1      -5.287   5.243 -29.355  1.00  0.00    -0.274 OA
BRANCH  12  15
HETATM   15  C   UNL     1      -4.061   6.141 -31.707  1.00  0.00     0.187 C 
BRANCH  15  16
HETATM   16  C   UNL     1      -3.443   5.710 -32.982  1.00  0.00     0.070 A 
HETATM   17  O   UNL     1      -4.207   5.824 -34.108  1.00  0.00    -0.325 OA
HETATM   18  C   UNL     1      -3.456   5.371 -35.145  1.00  0.00     0.142 A 
HETATM   19  C   UNL     1      -2.219   4.965 -34.703  1.00  0.00     0.027 A 
HETATM   20  C   UNL     1      -2.208   5.183 -33.304  1.00  0.00     0.036 A 
ENDBRANCH  15  16
ENDBRANCH  12  15
ENDBRANCH  10  11
ENDBRANCH   9  10
ENDBRANCH   6   9
ENDBRANCH   2   5
BRANCH   1  21
HETATM   21  C   UNL     1      -3.112  -0.417 -31.426  1.00  0.00     0.146 C 
BRANCH  21  22
HETATM   22  C   UNL     1      -3.725  -1.465 -32.308  1.00  0.00    -0.015 A 
HETATM   23  C   UNL     1      -4.787  -1.372 -33.279  1.00  0.00     0.000 A 
HETATM   24  C   UNL     1      -5.601  -0.327 -33.769  1.00  0.00     0.021 A 
HETATM   25  C   UNL     1      -4.990  -2.652 -33.807  1.00  0.00     0.049 A 
HETATM   26  C   UNL     1      -6.583  -0.580 -34.741  1.00  0.00    -0.061 A 
HETATM   27  C   UNL     1      -7.420   0.540 -35.286  1.00  0.00     0.048 C 
HETATM   28  C   UNL     1      -6.740  -1.873 -35.240  1.00  0.00     0.015 A 
HETATM   29  C   UNL     1      -5.957  -2.948 -34.787  1.00  0.00    -0.034 A 
HETATM   30  C   UNL     1      -6.178  -4.311 -35.377  1.00  0.00     0.050 C 
HETATM   31  N   UNL     1      -4.082  -3.483 -33.195  1.00  0.00    -0.358 N 
HETATM   32  H   UNL     1      -3.996  -4.469 -33.393  1.00  0.00     0.166 HD
HETATM   33  C   UNL     1      -3.321  -2.796 -32.291  1.00  0.00     0.013 A 
HETATM   34  C   UNL     1      -2.267  -3.478 -31.493  1.00  0.00     0.068 C 
ENDBRANCH  21  22
ENDBRANCH   1  21
TORSDOF 8
ENDMDL
MODEL 9
REMARK VINA RESULT:      -8.1      4.113      6.642
REMARK  8 active torsions:
REMARK  status: ('A' for Active; 'I' for Inactive)
REMARK    1  A    between atoms: C_10  and  C_11 
REMARK    2  A    between atoms: C_11  and  C_12 
REMARK       I    between atoms: C_12  and  N_13 
REMARK    3  A    between atoms: N_13  and  N_14 
REMARK       I    between atoms: N_14  and  C_15 
REMARK    4  A    between atoms: C_15  and  C_16 
REMARK    5  A    between atoms: C_16  and  C_17 
REMARK    6  A    between atoms: C_17  and  C_18 
REMARK       I    between atoms: C_18  and  N_19 
REMARK    7  A    between atoms: N_19  and  C_20 
REMARK    8  A    between atoms: C_20  and  C_21 
ROOT
HETATM    1  C   UNL     1      -7.637   0.237 -34.648  1.00  0.00     0.240 C 
HETATM    2  N   UNL     1      -8.439   0.040 -33.537  1.00  0.00    -0.267 N 
HETATM    3  O   UNL     1      -7.372   1.365 -35.065  1.00  0.00    -0.272 OA
HETATM    4  H   UNL     1      -8.528  -0.866 -33.077  1.00  0.00     0.190 HD
ENDROOT
BRANCH   2   5
HETATM    5  N   UNL     1      -8.756   1.167 -32.763  1.00  0.00    -0.268 N 
HETATM    6  C   UNL     1      -8.112   1.317 -31.551  1.00  0.00     0.236 C 
HETATM    7  O   UNL     1      -7.412   0.438 -31.051  1.00  0.00    -0.272 OA
HETATM    8  H   UNL     1      -9.123   1.965 -33.284  1.00  0.00     0.190 HD
BRANCH   6   9
HETATM    9  C   UNL     1      -8.321   2.681 -30.928  1.00  0.00     0.114 C 
BRANCH   9  10
HETATM   10  C   UNL     1      -7.565   3.772 -31.674  1.00  0.00     0.112 C 
BRANCH  10  11
HETATM   11  C   UNL     1      -6.182   3.983 -31.096  1.00  0.00     0.218 C 
HETATM   12  N   UNL     1      -5.315   4.638 -31.933  1.00  0.00    -0.355 N 
HETATM   13  H   UNL     1      -5.716   5.189 -32.694  1.00  0.00     0.162 HD
HETATM   14  O   UNL     1      -5.884   3.603 -29.969  1.00  0.00    -0.274 OA
BRANCH  12  15
HETATM   15  C   UNL     1      -3.987   4.990 -31.492  1.00  0.00     0.187 C 
BRANCH  15  16
HETATM   16  C   UNL     1      -3.134   5.204 -32.684  1.00  0.00     0.070 A 
HETATM   17  O   UNL     1      -3.006   6.488 -33.129  1.00  0.00    -0.325 OA
HETATM   18  C   UNL     1      -2.198   6.452 -34.219  1.00  0.00     0.142 A 
HETATM   19  C   UNL     1      -1.804   5.161 -34.485  1.00  0.00     0.027 A 
HETATM   20  C   UNL     1      -2.409   4.352 -33.493  1.00  0.00     0.036 A 
ENDBRANCH  15  16
ENDBRANCH  12  15
ENDBRANCH  10  11
ENDBRANCH   9  10
ENDBRANCH   6   9
ENDBRANCH   2   5
BRANCH   1  21
HETATM   21  C   UNL     1      -7.098  -1.032 -35.263  1.00  0.00     0.146 C 
BRANCH  21  22
HETATM   22  C   UNL     1      -6.061  -1.781 -34.477  1.00  0.00    -0.015 A 
HETATM   23  C   UNL     1      -5.084  -1.313 -33.526  1.00  0.00     0.000 A 
HETATM   24  C   UNL     1      -4.752  -0.055 -32.975  1.00  0.00     0.021 A 
HETATM   25  C   UNL     1      -4.343  -2.421 -33.101  1.00  0.00     0.049 A 
HETATM   26  C   UNL     1      -3.705   0.066 -32.047  1.00  0.00    -0.061 A 
HETATM   27  C   UNL     1      -3.379   1.398 -31.437  1.00  0.00     0.048 C 
HETATM   28  C   UNL     1      -3.001  -1.072 -31.652  1.00  0.00     0.015 A 
HETATM   29  C   UNL     1      -3.291  -2.346 -32.169  1.00  0.00    -0.034 A 
HETATM   30  C   UNL     1      -2.496  -3.526 -31.689  1.00  0.00     0.050 C 
HETATM   31  N   UNL     1      -4.856  -3.516 -33.756  1.00  0.00    -0.358 N 
HETATM   32  H   UNL     1      -4.516  -4.458 -33.632  1.00  0.00     0.166 HD
HETATM   33  C   UNL     1      -5.879  -3.155 -34.588  1.00  0.00     0.013 A 
HETATM   34  C   UNL     1      -6.596  -4.165 -35.412  1.00  0.00     0.068 C 
ENDBRANCH  21  22
ENDBRANCH   1  21
TORSDOF 8
ENDMDL
MODEL 10
REMARK VINA RESULT:      -8.1      1.843      2.968
REMARK  8 active torsions:
REMARK  status: ('A' for Active; 'I' for Inactive)
REMARK    1  A    between atoms: C_10  and  C_11 
REMARK    2  A    between atoms: C_11  and  C_12 
REMARK       I    between atoms: C_12  and  N_13 
REMARK    3  A    between atoms: N_13  and  N_14 
REMARK       I    between atoms: N_14  and  C_15 
REMARK    4  A    between atoms: C_15  and  C_16 
REMARK    5  A    between atoms: C_16  and  C_17 
REMARK    6  A    between atoms: C_17  and  C_18 
REMARK       I    between atoms: C_18  and  N_19 
REMARK    7  A    between atoms: N_19  and  C_20 
REMARK    8  A    between atoms: C_20  and  C_21 
ROOT
HETATM    1  C   UNL     1      -8.206   1.249 -34.184  1.00  0.00     0.240 C 
HETATM    2  N   UNL     1      -8.975   2.243 -34.764  1.00  0.00    -0.267 N 
HETATM    3  O   UNL     1      -8.661   0.496 -33.323  1.00  0.00    -0.272 OA
HETATM    4  H   UNL     1      -8.675   2.758 -35.592  1.00  0.00     0.190 HD
ENDROOT
BRANCH   2   5
HETATM    5  N   UNL     1     -10.355   2.223 -34.508  1.00  0.00    -0.268 N 
HETATM    6  C   UNL     1     -11.050   3.408 -34.632  1.00  0.00     0.236 C 
HETATM    7  O   UNL     1     -10.498   4.496 -34.788  1.00  0.00    -0.272 OA
HETATM    8  H   UNL     1     -10.807   1.315 -34.628  1.00  0.00     0.190 HD
BRANCH   6   9
HETATM    9  C   UNL     1     -12.553   3.227 -34.600  1.00  0.00     0.114 C 
BRANCH   9  10
HETATM   10  C   UNL     1     -12.966   1.812 -34.982  1.00  0.00     0.112 C 
BRANCH  10  11
HETATM   11  C   UNL     1     -14.197   1.369 -34.222  1.00  0.00     0.218 C 
HETATM   12  N   UNL     1     -14.263   1.834 -32.933  1.00  0.00    -0.355 N 
HETATM   13  H   UNL     1     -13.697   2.650 -32.695  1.00  0.00     0.162 HD
HETATM   14  O   UNL     1     -15.057   0.662 -34.736  1.00  0.00    -0.274 OA
BRANCH  12  15
HETATM   15  C   UNL     1     -15.418   1.568 -32.110  1.00  0.00     0.187 C 
BRANCH  15  16
HETATM   16  C   UNL     1     -16.329   2.733 -32.183  1.00  0.00     0.070 A 
HETATM   17  O   UNL     1     -17.644   2.471 -32.439  1.00  0.00    -0.325 OA
HETATM   18  C   UNL     1     -18.288   3.666 -32.469  1.00  0.00     0.142 A 
HETATM   19  C   UNL     1     -17.406   4.695 -32.237  1.00  0.00     0.027 A 
HETATM   20  C   UNL     1     -16.138   4.093 -32.053  1.00  0.00     0.036 A 
ENDBRANCH  15  16
ENDBRANCH  12  15
ENDBRANCH  10  11
ENDBRANCH   9  10
ENDBRANCH   6   9
ENDBRANCH   2   5
BRANCH   1  21
HETATM   21  C   UNL     1      -6.799   1.152 -34.724  1.00  0.00     0.146 C 
BRANCH  21  22
HETATM   22  C   UNL     1      -5.842   0.274 -33.971  1.00  0.00    -0.015 A 
HETATM   23  C   UNL     1      -5.588  -1.142 -34.072  1.00  0.00     0.000 A 
HETATM   24  C   UNL     1      -6.086  -2.189 -34.878  1.00  0.00     0.021 A 
HETATM   25  C   UNL     1      -4.612  -1.464 -33.123  1.00  0.00     0.049 A 
HETATM   26  C   UNL     1      -5.621  -3.503 -34.713  1.00  0.00    -0.061 A 
HETATM   27  C   UNL     1      -6.126  -4.607 -35.596  1.00  0.00     0.048 C 
HETATM   28  C   UNL     1      -4.641  -3.771 -33.755  1.00  0.00     0.015 A 
HETATM   29  C   UNL     1      -4.112  -2.766 -32.928  1.00  0.00    -0.034 A 
HETATM   30  C   UNL     1      -3.053  -3.128 -31.927  1.00  0.00     0.050 C 
HETATM   31  N   UNL     1      -4.278  -0.294 -32.483  1.00  0.00    -0.358 N 
HETATM   32  H   UNL     1      -3.585  -0.228 -31.751  1.00  0.00     0.166 HD
HETATM   33  C   UNL     1      -5.006   0.756 -32.970  1.00  0.00     0.013 A 
HETATM   34  C   UNL     1      -4.829   2.132 -32.434  1.00  0.00     0.068 C 
ENDBRANCH  21  22
ENDBRANCH   1  21
TORSDOF 8
ENDMDL
