MODEL 1
REMARK VINA RESULT:      -9.1      0.000      0.000
REMARK  7 active torsions:
REMARK  status: ('A' for Active; 'I' for Inactive)
REMARK    1  A    between atoms: O_2  and  C_3 
REMARK    2  A    between atoms: C_4  and  O_5 
REMARK    3  A    between atoms: C_7  and  C_8 
REMARK       I    between atoms: C_8  and  N_9 
REMARK    4  A    between atoms: N_9  and  C_10 
REMARK    5  A    between atoms: C_10  and  C_11 
REMARK    6  A    between atoms: C_11  and  N_12 
REMARK    7  A    between atoms: C_11  and  C_18 
ROOT
HETATM    1  C   UNL     1      -6.862   1.696 -33.018  1.00  0.00     0.239 C 
ENDROOT
BRANCH   1   2
HETATM    2  C   UNL     1      -6.450   2.903 -33.929  1.00  0.00     0.161 C 
BRANCH   2   3
HETATM    3  N   UNL     1      -6.688   4.246 -33.420  1.00  0.00    -0.354 N 
HETATM    4  C   UNL     1      -5.824   5.314 -33.331  1.00  0.00     0.254 C 
HETATM    5  O   UNL     1      -6.275   6.425 -33.085  1.00  0.00    -0.268 OA
HETATM    6  H   UNL     1      -7.649   4.578 -33.393  1.00  0.00     0.162 HD
BRANCH   4   7
HETATM    7  C   UNL     1      -4.369   5.119 -33.499  1.00  0.00     0.068 A 
HETATM    8  C   UNL     1      -3.575   4.794 -32.378  1.00  0.00     0.117 A 
HETATM    9  C   UNL     1      -2.182   4.723 -32.554  1.00  0.00     0.102 A 
HETATM   10  C   UNL     1      -1.633   4.863 -33.839  1.00  0.00     0.040 A 
HETATM   11  C   UNL     1      -2.438   5.154 -34.939  1.00  0.00     0.004 A 
HETATM   12  C   UNL     1      -3.808   5.313 -34.767  1.00  0.00     0.020 A 
BRANCH   8  13
HETATM   13  O   UNL     1      -4.281   4.539 -31.231  1.00  0.00    -0.352 OA
HETATM   14  C   UNL     1      -4.411   3.206 -30.760  1.00  0.00     0.210 C 
ENDBRANCH   8  13
BRANCH   9  15
HETATM   15  O   UNL     1      -1.366   4.451 -31.487  1.00  0.00    -0.353 OA
HETATM   16  C   UNL     1      -0.986   5.607 -30.733  1.00  0.00     0.210 C 
ENDBRANCH   9  15
ENDBRANCH   4   7
ENDBRANCH   2   3
ENDBRANCH   1   2
BRANCH   1  17
HETATM   17  N   UNL     1      -8.342   1.677 -32.633  1.00  0.00    -0.061 N 
HETATM   18  H   UNL     1      -8.450   2.509 -32.036  1.00  0.00     0.280 HD
HETATM   19  C   UNL     1      -8.845   0.524 -31.795  1.00  0.00     0.236 C 
HETATM   20  C   UNL     1      -9.923  -0.118 -32.645  1.00  0.00     0.029 C 
HETATM   21  C   UNL     1     -10.535   1.061 -33.372  1.00  0.00     0.029 C 
HETATM   22  C   UNL     1      -9.321   1.878 -33.773  1.00  0.00     0.236 C 
ENDBRANCH   1  17
BRANCH   1  23
HETATM   23  C   UNL     1      -6.452   0.338 -33.598  1.00  0.00    -0.015 A 
HETATM   24  C   UNL     1      -5.373  -0.416 -33.031  1.00  0.00    -0.018 A 
HETATM   25  C   UNL     1      -5.053  -1.677 -33.605  1.00  0.00    -0.025 A 
HETATM   26  C   UNL     1      -4.582  -0.000 -31.929  1.00  0.00     0.013 A 
HETATM   27  C   UNL     1      -4.003  -2.451 -33.090  1.00  0.00     0.012 A 
HETATM   28  C   UNL     1      -5.780  -2.165 -34.697  1.00  0.00     0.012 A 
HETATM   29  C   UNL     1      -3.252  -2.010 -32.005  1.00  0.00     0.001 A 
HETATM   30  C   UNL     1      -3.541  -0.785 -31.424  1.00  0.00     0.001 A 
HETATM   31  C   UNL     1      -6.831  -1.437 -35.233  1.00  0.00     0.002 A 
HETATM   32  C   UNL     1      -7.170  -0.205 -34.686  1.00  0.00     0.010 A 
ENDBRANCH   1  23
TORSDOF 7
ENDMDL
MODEL 2
REMARK VINA RESULT:      -9.1      2.299      6.450
REMARK  7 active torsions:
REMARK  status: ('A' for Active; 'I' for Inactive)
REMARK    1  A    between atoms: O_2  and  C_3 
REMARK    2  A    between atoms: C_4  and  O_5 
REMARK    3  A    between atoms: C_7  and  C_8 
REMARK       I    between atoms: C_8  and  N_9 
REMARK    4  A    between atoms: N_9  and  C_10 
REMARK    5  A    between atoms: C_10  and  C_11 
REMARK    6  A    between atoms: C_11  and  N_12 
REMARK    7  A    between atoms: C_11  and  C_18 
ROOT
HETATM    1  C   UNL     1      -5.282   3.364 -33.100  1.00  0.00     0.239 C 
ENDROOT
BRANCH   1   2
HETATM    2  C   UNL     1      -6.676   4.053 -32.903  1.00  0.00     0.161 C 
BRANCH   2   3
HETATM    3  N   UNL     1      -7.236   4.074 -31.561  1.00  0.00    -0.354 N 
HETATM    4  C   UNL     1      -8.193   3.260 -30.998  1.00  0.00     0.254 C 
HETATM    5  O   UNL     1      -8.366   3.292 -29.787  1.00  0.00    -0.268 OA
HETATM    6  H   UNL     1      -6.690   4.518 -30.827  1.00  0.00     0.162 HD
BRANCH   4   7
HETATM    7  C   UNL     1      -9.023   2.380 -31.847  1.00  0.00     0.068 A 
HETATM    8  C   UNL     1     -10.007   2.947 -32.687  1.00  0.00     0.117 A 
HETATM    9  C   UNL     1     -10.850   2.077 -33.398  1.00  0.00     0.102 A 
HETATM   10  C   UNL     1     -10.627   0.691 -33.345  1.00  0.00     0.040 A 
HETATM   11  C   UNL     1      -9.631   0.152 -32.532  1.00  0.00     0.004 A 
HETATM   12  C   UNL     1      -8.845   0.995 -31.756  1.00  0.00     0.020 A 
BRANCH   8  13
HETATM   13  O   UNL     1      -9.991   4.318 -32.742  1.00  0.00    -0.352 OA
HETATM   14  C   UNL     1     -10.993   5.065 -32.071  1.00  0.00     0.210 C 
ENDBRANCH   8  13
BRANCH   9  15
HETATM   15  O   UNL     1     -11.845   2.579 -34.194  1.00  0.00    -0.353 OA
HETATM   16  C   UNL     1     -12.337   1.655 -35.170  1.00  0.00     0.210 C 
ENDBRANCH   9  15
ENDBRANCH   4   7
ENDBRANCH   2   3
ENDBRANCH   1   2
BRANCH   1  17
HETATM   17  N   UNL     1      -4.113   4.123 -32.471  1.00  0.00    -0.061 N 
HETATM   18  H   UNL     1      -4.077   3.764 -31.507  1.00  0.00     0.280 HD
HETATM   19  C   UNL     1      -4.232   5.624 -32.327  1.00  0.00     0.236 C 
HETATM   20  C   UNL     1      -3.066   6.173 -33.123  1.00  0.00     0.029 C 
HETATM   21  C   UNL     1      -1.986   5.132 -32.915  1.00  0.00     0.029 C 
HETATM   22  C   UNL     1      -2.746   3.826 -33.055  1.00  0.00     0.236 C 
ENDBRANCH   1  17
BRANCH   1  23
HETATM   23  C   UNL     1      -5.265   1.901 -32.645  1.00  0.00    -0.015 A 
HETATM   24  C   UNL     1      -5.885   0.873 -33.427  1.00  0.00    -0.018 A 
HETATM   25  C   UNL     1      -5.820  -0.468 -32.958  1.00  0.00    -0.025 A 
HETATM   26  C   UNL     1      -6.575   1.086 -34.649  1.00  0.00     0.013 A 
HETATM   27  C   UNL     1      -6.416  -1.509 -33.685  1.00  0.00     0.012 A 
HETATM   28  C   UNL     1      -5.160  -0.769 -31.761  1.00  0.00     0.012 A 
HETATM   29  C   UNL     1      -7.081  -1.261 -34.881  1.00  0.00     0.001 A 
HETATM   30  C   UNL     1      -7.160   0.037 -35.363  1.00  0.00     0.001 A 
HETATM   31  C   UNL     1      -4.551   0.227 -31.015  1.00  0.00     0.002 A 
HETATM   32  C   UNL     1      -4.593   1.545 -31.455  1.00  0.00     0.010 A 
ENDBRANCH   1  23
TORSDOF 7
ENDMDL
MODEL 3
REMARK VINA RESULT:      -8.3     15.901     18.323
REMARK  7 active torsions:
REMARK  status: ('A' for Active; 'I' for Inactive)
REMARK    1  A    between atoms: O_2  and  C_3 
REMARK    2  A    between atoms: C_4  and  O_5 
REMARK    3  A    between atoms: C_7  and  C_8 
REMARK       I    between atoms: C_8  and  N_9 
REMARK    4  A    between atoms: N_9  and  C_10 
REMARK    5  A    between atoms: C_10  and  C_11 
REMARK    6  A    between atoms: C_11  and  N_12 
REMARK    7  A    between atoms: C_11  and  C_18 
ROOT
HETATM    1  C   UNL     1      -3.438 -13.566 -37.066  1.00  0.00     0.239 C 
ENDROOT
BRANCH   1   2
HETATM    2  C   UNL     1      -3.727 -14.115 -35.627  1.00  0.00     0.161 C 
BRANCH   2   3
HETATM    3  N   UNL     1      -4.648 -13.362 -34.789  1.00  0.00    -0.354 N 
HETATM    4  C   UNL     1      -6.021 -13.431 -34.715  1.00  0.00     0.254 C 
HETATM    5  O   UNL     1      -6.596 -12.878 -33.786  1.00  0.00    -0.268 OA
HETATM    6  H   UNL     1      -4.279 -12.944 -33.938  1.00  0.00     0.162 HD
BRANCH   4   7
HETATM    7  C   UNL     1      -6.794 -14.135 -35.759  1.00  0.00     0.068 A 
HETATM    8  C   UNL     1      -6.820 -15.547 -35.774  1.00  0.00     0.117 A 
HETATM    9  C   UNL     1      -7.475 -16.184 -36.843  1.00  0.00     0.102 A 
HETATM   10  C   UNL     1      -8.170 -15.417 -37.792  1.00  0.00     0.040 A 
HETATM   11  C   UNL     1      -8.156 -14.023 -37.743  1.00  0.00     0.004 A 
HETATM   12  C   UNL     1      -7.441 -13.377 -36.742  1.00  0.00     0.020 A 
BRANCH   8  13
HETATM   13  O   UNL     1      -6.225 -16.142 -34.692  1.00  0.00    -0.352 OA
HETATM   14  C   UNL     1      -7.024 -16.681 -33.650  1.00  0.00     0.210 C 
ENDBRANCH   8  13
BRANCH   9  15
HETATM   15  O   UNL     1      -7.492 -17.551 -36.923  1.00  0.00    -0.353 OA
HETATM   16  C   UNL     1      -8.556 -18.077 -37.723  1.00  0.00     0.210 C 
ENDBRANCH   9  15
ENDBRANCH   4   7
ENDBRANCH   2   3
ENDBRANCH   1   2
BRANCH   1  17
HETATM   17  N   UNL     1      -1.953 -13.375 -37.379  1.00  0.00    -0.061 N 
HETATM   18  H   UNL     1      -1.647 -12.671 -36.693  1.00  0.00     0.280 HD
HETATM   19  C   UNL     1      -1.577 -12.803 -38.726  1.00  0.00     0.236 C 
HETATM   20  C   UNL     1      -0.711 -13.872 -39.362  1.00  0.00     0.029 C 
HETATM   21  C   UNL     1       0.020 -14.470 -38.179  1.00  0.00     0.029 C 
HETATM   22  C   UNL     1      -1.069 -14.581 -37.129  1.00  0.00     0.236 C 
ENDBRANCH   1  17
BRANCH   1  23
HETATM   23  C   UNL     1      -4.107 -14.391 -38.171  1.00  0.00    -0.015 A 
HETATM   24  C   UNL     1      -4.874 -13.764 -39.206  1.00  0.00    -0.018 A 
HETATM   25  C   UNL     1      -5.455 -14.585 -40.211  1.00  0.00    -0.025 A 
HETATM   26  C   UNL     1      -5.109 -12.368 -39.310  1.00  0.00     0.013 A 
HETATM   27  C   UNL     1      -6.218 -14.019 -41.243  1.00  0.00     0.012 A 
HETATM   28  C   UNL     1      -5.275 -15.972 -40.185  1.00  0.00     0.012 A 
HETATM   29  C   UNL     1      -6.424 -12.645 -41.313  1.00  0.00     0.001 A 
HETATM   30  C   UNL     1      -5.869 -11.819 -40.347  1.00  0.00     0.001 A 
HETATM   31  C   UNL     1      -4.522 -16.573 -39.189  1.00  0.00     0.002 A 
HETATM   32  C   UNL     1      -3.936 -15.793 -38.198  1.00  0.00     0.010 A 
ENDBRANCH   1  23
TORSDOF 7
ENDMDL
MODEL 4
REMARK VINA RESULT:      -8.3      2.414      3.407
REMARK  7 active torsions:
REMARK  status: ('A' for Active; 'I' for Inactive)
REMARK    1  A    between atoms: O_2  and  C_3 
REMARK    2  A    between atoms: C_4  and  O_5 
REMARK    3  A    between atoms: C_7  and  C_8 
REMARK       I    between atoms: C_8  and  N_9 
REMARK    4  A    between atoms: N_9  and  C_10 
REMARK    5  A    between atoms: C_10  and  C_11 
REMARK    6  A    between atoms: C_11  and  N_12 
REMARK    7  A    between atoms: C_11  and  C_18 
ROOT
HETATM    1  C   UNL     1      -9.962   1.399 -32.703  1.00  0.00     0.239 C 
ENDROOT
BRANCH   1   2
HETATM    2  C   UNL     1      -9.753   2.862 -32.183  1.00  0.00     0.161 C 
BRANCH   2   3
HETATM    3  N   UNL     1      -9.484   3.898 -33.169  1.00  0.00    -0.354 N 
HETATM    4  C   UNL     1      -8.295   4.511 -33.493  1.00  0.00     0.254 C 
HETATM    5  O   UNL     1      -8.233   5.195 -34.506  1.00  0.00    -0.268 OA
HETATM    6  H   UNL     1     -10.145   4.006 -33.934  1.00  0.00     0.162 HD
BRANCH   4   7
HETATM    7  C   UNL     1      -7.115   4.371 -32.614  1.00  0.00     0.068 A 
HETATM    8  C   UNL     1      -6.978   5.213 -31.490  1.00  0.00     0.117 A 
HETATM    9  C   UNL     1      -5.793   5.127 -30.739  1.00  0.00     0.102 A 
HETATM   10  C   UNL     1      -4.839   4.145 -31.052  1.00  0.00     0.040 A 
HETATM   11  C   UNL     1      -5.006   3.302 -32.150  1.00  0.00     0.004 A 
HETATM   12  C   UNL     1      -6.132   3.434 -32.954  1.00  0.00     0.020 A 
BRANCH   8  13
HETATM   13  O   UNL     1      -8.068   6.006 -31.233  1.00  0.00    -0.352 OA
HETATM   14  C   UNL     1      -8.893   5.736 -30.111  1.00  0.00     0.210 C 
ENDBRANCH   8  13
BRANCH   9  15
HETATM   15  O   UNL     1      -5.598   5.953 -29.663  1.00  0.00    -0.353 OA
HETATM   16  C   UNL     1      -5.752   5.307 -28.395  1.00  0.00     0.210 C 
ENDBRANCH   9  15
ENDBRANCH   4   7
ENDBRANCH   2   3
ENDBRANCH   1   2
BRANCH   1  17
HETATM   17  N   UNL     1     -11.175   1.224 -33.618  1.00  0.00    -0.061 N 
HETATM   18  H   UNL     1     -10.763   1.141 -34.558  1.00  0.00     0.280 HD
HETATM   19  C   UNL     1     -12.161   2.366 -33.719  1.00  0.00     0.236 C 
HETATM   20  C   UNL     1     -13.476   1.771 -33.260  1.00  0.00     0.029 C 
HETATM   21  C   UNL     1     -13.397   0.341 -33.751  1.00  0.00     0.029 C 
HETATM   22  C   UNL     1     -11.969  -0.052 -33.420  1.00  0.00     0.236 C 
ENDBRANCH   1  17
BRANCH   1  23
HETATM   23  C   UNL     1      -8.711   0.814 -33.370  1.00  0.00    -0.015 A 
HETATM   24  C   UNL     1      -7.584   0.393 -32.593  1.00  0.00    -0.018 A 
HETATM   25  C   UNL     1      -6.461  -0.157 -33.271  1.00  0.00    -0.025 A 
HETATM   26  C   UNL     1      -7.492   0.483 -31.179  1.00  0.00     0.013 A 
HETATM   27  C   UNL     1      -5.331  -0.580 -32.555  1.00  0.00     0.012 A 
HETATM   28  C   UNL     1      -6.466  -0.283 -34.664  1.00  0.00     0.012 A 
HETATM   29  C   UNL     1      -5.280  -0.478 -31.169  1.00  0.00     0.001 A 
HETATM   30  C   UNL     1      -6.360   0.053 -30.481  1.00  0.00     0.001 A 
HETATM   31  C   UNL     1      -7.564   0.115 -35.410  1.00  0.00     0.002 A 
HETATM   32  C   UNL     1      -8.678   0.649 -34.772  1.00  0.00     0.010 A 
ENDBRANCH   1  23
TORSDOF 7
ENDMDL
MODEL 5
REMARK VINA RESULT:      -8.1      1.963      2.496
REMARK  7 active torsions:
REMARK  status: ('A' for Active; 'I' for Inactive)
REMARK    1  A    between atoms: O_2  and  C_3 
REMARK    2  A    between atoms: C_4  and  O_5 
REMARK    3  A    between atoms: C_7  and  C_8 
REMARK       I    between atoms: C_8  and  N_9 
REMARK    4  A    between atoms: N_9  and  C_10 
REMARK    5  A    between atoms: C_10  and  C_11 
REMARK    6  A    between atoms: C_11  and  N_12 
REMARK    7  A    between atoms: C_11  and  C_18 
ROOT
HETATM    1  C   UNL     1      -6.516   2.460 -32.075  1.00  0.00     0.239 C 
ENDROOT
BRANCH   1   2
HETATM    2  C   UNL     1      -5.374   3.510 -32.301  1.00  0.00     0.161 C 
BRANCH   2   3
HETATM    3  N   UNL     1      -5.315   4.177 -33.593  1.00  0.00    -0.354 N 
HETATM    4  C   UNL     1      -4.307   4.938 -34.140  1.00  0.00     0.254 C 
HETATM    5  O   UNL     1      -4.355   5.224 -35.329  1.00  0.00    -0.268 OA
HETATM    6  H   UNL     1      -5.926   3.834 -34.331  1.00  0.00     0.162 HD
BRANCH   4   7
HETATM    7  C   UNL     1      -3.197   5.430 -33.298  1.00  0.00     0.068 A 
HETATM    8  C   UNL     1      -3.379   6.588 -32.510  1.00  0.00     0.117 A 
HETATM    9  C   UNL     1      -2.270   7.089 -31.807  1.00  0.00     0.102 A 
HETATM   10  C   UNL     1      -1.060   6.378 -31.813  1.00  0.00     0.040 A 
HETATM   11  C   UNL     1      -0.908   5.219 -32.574  1.00  0.00     0.004 A 
HETATM   12  C   UNL     1      -1.970   4.758 -33.344  1.00  0.00     0.020 A 
BRANCH   8  13
HETATM   13  O   UNL     1      -4.662   7.072 -32.493  1.00  0.00    -0.352 OA
HETATM   14  C   UNL     1      -5.406   7.065 -31.285  1.00  0.00     0.210 C 
ENDBRANCH   8  13
BRANCH   9  15
HETATM   15  O   UNL     1      -2.387   8.234 -31.062  1.00  0.00    -0.353 OA
HETATM   16  C   UNL     1      -2.007   8.080 -29.691  1.00  0.00     0.210 C 
ENDBRANCH   9  15
ENDBRANCH   4   7
ENDBRANCH   2   3
ENDBRANCH   1   2
BRANCH   1  17
HETATM   17  N   UNL     1      -7.911   3.071 -31.934  1.00  0.00    -0.061 N 
HETATM   18  H   UNL     1      -8.290   3.040 -32.891  1.00  0.00     0.280 HD
HETATM   19  C   UNL     1      -8.015   4.520 -31.516  1.00  0.00     0.236 C 
HETATM   20  C   UNL     1      -8.818   4.487 -30.232  1.00  0.00     0.029 C 
HETATM   21  C   UNL     1      -9.776   3.336 -30.455  1.00  0.00     0.029 C 
HETATM   22  C   UNL     1      -8.893   2.280 -31.093  1.00  0.00     0.236 C 
ENDBRANCH   1  17
BRANCH   1  23
HETATM   23  C   UNL     1      -6.532   1.352 -33.134  1.00  0.00    -0.015 A 
HETATM   24  C   UNL     1      -5.679   0.206 -33.021  1.00  0.00    -0.018 A 
HETATM   25  C   UNL     1      -5.753  -0.796 -34.028  1.00  0.00    -0.025 A 
HETATM   26  C   UNL     1      -4.747  -0.014 -31.973  1.00  0.00     0.013 A 
HETATM   27  C   UNL     1      -4.936  -1.934 -33.966  1.00  0.00     0.012 A 
HETATM   28  C   UNL     1      -6.643  -0.660 -35.099  1.00  0.00     0.012 A 
HETATM   29  C   UNL     1      -4.036  -2.115 -32.920  1.00  0.00     0.001 A 
HETATM   30  C   UNL     1      -3.942  -1.156 -31.924  1.00  0.00     0.001 A 
HETATM   31  C   UNL     1      -7.475   0.445 -35.196  1.00  0.00     0.002 A 
HETATM   32  C   UNL     1      -7.429   1.435 -34.221  1.00  0.00     0.010 A 
ENDBRANCH   1  23
TORSDOF 7
ENDMDL
MODEL 6
REMARK VINA RESULT:      -8.1     16.225     18.472
REMARK  7 active torsions:
REMARK  status: ('A' for Active; 'I' for Inactive)
REMARK    1  A    between atoms: O_2  and  C_3 
REMARK    2  A    between atoms: C_4  and  O_5 
REMARK    3  A    between atoms: C_7  and  C_8 
REMARK       I    between atoms: C_8  and  N_9 
REMARK    4  A    between atoms: N_9  and  C_10 
REMARK    5  A    between atoms: C_10  and  C_11 
REMARK    6  A    between atoms: C_11  and  N_12 
REMARK    7  A    between atoms: C_11  and  C_18 
ROOT
HETATM    1  C   UNL     1      -5.655 -14.079 -37.251  1.00  0.00     0.239 C 
ENDROOT
BRANCH   1   2
HETATM    2  C   UNL     1      -4.236 -14.727 -37.403  1.00  0.00     0.161 C 
BRANCH   2   3
HETATM    3  N   UNL     1      -4.168 -16.171 -37.569  1.00  0.00    -0.354 N 
HETATM    4  C   UNL     1      -4.359 -16.932 -38.700  1.00  0.00     0.254 C 
HETATM    5  O   UNL     1      -4.035 -18.113 -38.685  1.00  0.00    -0.268 OA
HETATM    6  H   UNL     1      -3.633 -16.702 -36.885  1.00  0.00     0.162 HD
BRANCH   4   7
HETATM    7  C   UNL     1      -4.977 -16.342 -39.906  1.00  0.00     0.068 A 
HETATM    8  C   UNL     1      -4.170 -15.649 -40.834  1.00  0.00     0.117 A 
HETATM    9  C   UNL     1      -4.806 -15.008 -41.912  1.00  0.00     0.102 A 
HETATM   10  C   UNL     1      -6.189 -15.163 -42.099  1.00  0.00     0.040 A 
HETATM   11  C   UNL     1      -6.964 -15.877 -41.186  1.00  0.00     0.004 A 
HETATM   12  C   UNL     1      -6.363 -16.444 -40.068  1.00  0.00     0.020 A 
BRANCH   8  13
HETATM   13  O   UNL     1      -2.823 -15.722 -40.589  1.00  0.00    -0.352 OA
HETATM   14  C   UNL     1      -2.083 -14.539 -40.334  1.00  0.00     0.210 C 
ENDBRANCH   8  13
BRANCH   9  15
HETATM   15  O   UNL     1      -4.069 -14.289 -42.816  1.00  0.00    -0.353 OA
HETATM   16  C   UNL     1      -4.112 -14.808 -44.150  1.00  0.00     0.210 C 
ENDBRANCH   9  15
ENDBRANCH   4   7
ENDBRANCH   2   3
ENDBRANCH   1   2
BRANCH   1  17
HETATM   17  N   UNL     1      -5.835 -13.253 -35.977  1.00  0.00    -0.061 N 
HETATM   18  H   UNL     1      -5.903 -12.284 -36.320  1.00  0.00     0.280 HD
HETATM   19  C   UNL     1      -4.705 -13.237 -34.973  1.00  0.00     0.236 C 
HETATM   20  C   UNL     1      -5.322 -13.784 -33.701  1.00  0.00     0.029 C 
HETATM   21  C   UNL     1      -6.745 -13.271 -33.762  1.00  0.00     0.029 C 
HETATM   22  C   UNL     1      -7.123 -13.493 -35.215  1.00  0.00     0.236 C 
ENDBRANCH   1  17
BRANCH   1  23
HETATM   23  C   UNL     1      -6.073 -13.256 -38.475  1.00  0.00    -0.015 A 
HETATM   24  C   UNL     1      -7.443 -13.185 -38.888  1.00  0.00    -0.018 A 
HETATM   25  C   UNL     1      -7.768 -12.390 -40.022  1.00  0.00    -0.025 A 
HETATM   26  C   UNL     1      -8.520 -13.855 -38.252  1.00  0.00     0.013 A 
HETATM   27  C   UNL     1      -9.094 -12.292 -40.470  1.00  0.00     0.012 A 
HETATM   28  C   UNL     1      -6.768 -11.696 -40.712  1.00  0.00     0.012 A 
HETATM   29  C   UNL     1     -10.124 -12.962 -39.816  1.00  0.00     0.001 A 
HETATM   30  C   UNL     1      -9.837 -13.743 -38.708  1.00  0.00     0.001 A 
HETATM   31  C   UNL     1      -5.447 -11.758 -40.300  1.00  0.00     0.002 A 
HETATM   32  C   UNL     1      -5.102 -12.521 -39.190  1.00  0.00     0.010 A 
ENDBRANCH   1  23
TORSDOF 7
ENDMDL
MODEL 7
REMARK VINA RESULT:      -8.1      2.297      3.734
REMARK  7 active torsions:
REMARK  status: ('A' for Active; 'I' for Inactive)
REMARK    1  A    between atoms: O_2  and  C_3 
REMARK    2  A    between atoms: C_4  and  O_5 
REMARK    3  A    between atoms: C_7  and  C_8 
REMARK       I    between atoms: C_8  and  N_9 
REMARK    4  A    between atoms: N_9  and  C_10 
REMARK    5  A    between atoms: C_10  and  C_11 
REMARK    6  A    between atoms: C_11  and  N_12 
REMARK    7  A    between atoms: C_11  and  C_18 
ROOT
HETATM    1  C   UNL     1      -4.392   2.180 -31.267  1.00  0.00     0.239 C 
ENDROOT
BRANCH   1   2
HETATM    2  C   UNL     1      -3.289   3.247 -31.584  1.00  0.00     0.161 C 
BRANCH   2   3
HETATM    3  N   UNL     1      -3.012   3.538 -32.982  1.00  0.00    -0.354 N 
HETATM    4  C   UNL     1      -2.206   4.509 -33.531  1.00  0.00     0.254 C 
HETATM    5  O   UNL     1      -1.925   4.448 -34.721  1.00  0.00    -0.268 OA
HETATM    6  H   UNL     1      -3.161   2.794 -33.659  1.00  0.00     0.162 HD
BRANCH   4   7
HETATM    7  C   UNL     1      -1.711   5.630 -32.704  1.00  0.00     0.068 A 
HETATM    8  C   UNL     1      -2.467   6.819 -32.617  1.00  0.00     0.117 A 
HETATM    9  C   UNL     1      -1.915   7.902 -31.911  1.00  0.00     0.102 A 
HETATM   10  C   UNL     1      -0.699   7.742 -31.227  1.00  0.00     0.040 A 
HETATM   11  C   UNL     1       0.019   6.549 -31.302  1.00  0.00     0.004 A 
HETATM   12  C   UNL     1      -0.472   5.498 -32.067  1.00  0.00     0.020 A 
BRANCH   8  13
HETATM   13  O   UNL     1      -3.701   6.758 -33.211  1.00  0.00    -0.352 OA
HETATM   14  C   UNL     1      -4.863   6.585 -32.416  1.00  0.00     0.210 C 
ENDBRANCH   8  13
BRANCH   9  15
HETATM   15  O   UNL     1      -2.592   9.090 -31.833  1.00  0.00    -0.353 OA
HETATM   16  C   UNL     1      -3.128   9.374 -30.536  1.00  0.00     0.210 C 
ENDBRANCH   9  15
ENDBRANCH   4   7
ENDBRANCH   2   3
ENDBRANCH   1   2
BRANCH   1  17
HETATM   17  N   UNL     1      -5.310   2.552 -30.102  1.00  0.00    -0.061 N 
HETATM   18  H   UNL     1      -4.800   2.220 -29.272  1.00  0.00     0.280 HD
HETATM   19  C   UNL     1      -6.666   1.888 -30.023  1.00  0.00     0.236 C 
HETATM   20  C   UNL     1      -7.653   3.037 -30.069  1.00  0.00     0.029 C 
HETATM   21  C   UNL     1      -6.927   4.143 -29.334  1.00  0.00     0.029 C 
HETATM   22  C   UNL     1      -5.513   4.037 -29.874  1.00  0.00     0.236 C 
ENDBRANCH   1  17
BRANCH   1  23
HETATM   23  C   UNL     1      -5.227   1.796 -32.494  1.00  0.00    -0.015 A 
HETATM   24  C   UNL     1      -5.228   0.457 -33.002  1.00  0.00    -0.018 A 
HETATM   25  C   UNL     1      -6.037   0.162 -34.134  1.00  0.00    -0.025 A 
HETATM   26  C   UNL     1      -4.472  -0.617 -32.464  1.00  0.00     0.013 A 
HETATM   27  C   UNL     1      -6.068  -1.133 -34.672  1.00  0.00     0.012 A 
HETATM   28  C   UNL     1      -6.815   1.161 -34.729  1.00  0.00     0.012 A 
HETATM   29  C   UNL     1      -5.315  -2.161 -34.114  1.00  0.00     0.001 A 
HETATM   30  C   UNL     1      -4.517  -1.903 -33.010  1.00  0.00     0.001 A 
HETATM   31  C   UNL     1      -6.820   2.452 -34.226  1.00  0.00     0.002 A 
HETATM   32  C   UNL     1      -6.044   2.766 -33.116  1.00  0.00     0.010 A 
ENDBRANCH   1  23
TORSDOF 7
ENDMDL
MODEL 8
REMARK VINA RESULT:      -8.0     15.737     17.650
REMARK  7 active torsions:
REMARK  status: ('A' for Active; 'I' for Inactive)
REMARK    1  A    between atoms: O_2  and  C_3 
REMARK    2  A    between atoms: C_4  and  O_5 
REMARK    3  A    between atoms: C_7  and  C_8 
REMARK       I    between atoms: C_8  and  N_9 
REMARK    4  A    between atoms: N_9  and  C_10 
REMARK    5  A    between atoms: C_10  and  C_11 
REMARK    6  A    between atoms: C_11  and  N_12 
REMARK    7  A    between atoms: C_11  and  C_18 
ROOT
HETATM    1  C   UNL     1      -6.582 -13.526 -38.676  1.00  0.00     0.239 C 
ENDROOT
BRANCH   1   2
HETATM    2  C   UNL     1      -5.345 -13.211 -39.585  1.00  0.00     0.161 C 
BRANCH   2   3
HETATM    3  N   UNL     1      -4.415 -12.188 -39.130  1.00  0.00    -0.354 N 
HETATM    4  C   UNL     1      -3.229 -12.325 -38.446  1.00  0.00     0.254 C 
HETATM    5  O   UNL     1      -2.480 -11.361 -38.354  1.00  0.00    -0.268 OA
HETATM    6  H   UNL     1      -4.439 -11.285 -39.598  1.00  0.00     0.162 HD
BRANCH   4   7
HETATM    7  C   UNL     1      -2.877 -13.608 -37.803  1.00  0.00     0.068 A 
HETATM    8  C   UNL     1      -2.356 -14.661 -38.587  1.00  0.00     0.117 A 
HETATM    9  C   UNL     1      -2.135 -15.901 -37.964  1.00  0.00     0.102 A 
HETATM   10  C   UNL     1      -2.327 -16.030 -36.579  1.00  0.00     0.040 A 
HETATM   11  C   UNL     1      -2.814 -14.969 -35.816  1.00  0.00     0.004 A 
HETATM   12  C   UNL     1      -3.120 -13.762 -36.434  1.00  0.00     0.020 A 
BRANCH   8  13
HETATM   13  O   UNL     1      -2.081 -14.324 -39.888  1.00  0.00    -0.352 OA
HETATM   14  C   UNL     1      -0.744 -14.067 -40.286  1.00  0.00     0.210 C 
ENDBRANCH   8  13
BRANCH   9  15
HETATM   15  O   UNL     1      -1.669 -16.964 -38.692  1.00  0.00    -0.353 OA
HETATM   16  C   UNL     1      -0.328 -17.349 -38.373  1.00  0.00     0.210 C 
ENDBRANCH   9  15
ENDBRANCH   4   7
ENDBRANCH   2   3
ENDBRANCH   1   2
BRANCH   1  17
HETATM   17  N   UNL     1      -7.899 -13.674 -39.439  1.00  0.00    -0.061 N 
HETATM   18  H   UNL     1      -7.820 -14.597 -39.888  1.00  0.00     0.280 HD
HETATM   19  C   UNL     1      -8.182 -12.709 -40.567  1.00  0.00     0.236 C 
HETATM   20  C   UNL     1      -9.467 -12.017 -40.160  1.00  0.00     0.029 C 
HETATM   21  C   UNL     1     -10.225 -13.104 -39.428  1.00  0.00     0.029 C 
HETATM   22  C   UNL     1      -9.148 -13.758 -38.583  1.00  0.00     0.236 C 
ENDBRANCH   1  17
BRANCH   1  23
HETATM   23  C   UNL     1      -6.364 -14.737 -37.762  1.00  0.00    -0.015 A 
HETATM   24  C   UNL     1      -6.565 -14.644 -36.346  1.00  0.00    -0.018 A 
HETATM   25  C   UNL     1      -6.362 -15.809 -35.556  1.00  0.00    -0.025 A 
HETATM   26  C   UNL     1      -6.952 -13.466 -35.656  1.00  0.00     0.013 A 
HETATM   27  C   UNL     1      -6.541 -15.768 -34.165  1.00  0.00     0.012 A 
HETATM   28  C   UNL     1      -5.978 -17.014 -36.154  1.00  0.00     0.012 A 
HETATM   29  C   UNL     1      -6.924 -14.594 -33.525  1.00  0.00     0.001 A 
HETATM   30  C   UNL     1      -7.129 -13.443 -34.270  1.00  0.00     0.001 A 
HETATM   31  C   UNL     1      -5.797 -17.101 -37.525  1.00  0.00     0.002 A 
HETATM   32  C   UNL     1      -5.997 -15.980 -38.323  1.00  0.00     0.010 A 
ENDBRANCH   1  23
TORSDOF 7
ENDMDL
MODEL 9
REMARK VINA RESULT:      -7.9      2.949      7.003
REMARK  7 active torsions:
REMARK  status: ('A' for Active; 'I' for Inactive)
REMARK    1  A    between atoms: O_2  and  C_3 
REMARK    2  A    between atoms: C_4  and  O_5 
REMARK    3  A    between atoms: C_7  and  C_8 
REMARK       I    between atoms: C_8  and  N_9 
REMARK    4  A    between atoms: N_9  and  C_10 
REMARK    5  A    between atoms: C_10  and  C_11 
REMARK    6  A    between atoms: C_11  and  N_12 
REMARK    7  A    between atoms: C_11  and  C_18 
ROOT
HETATM    1  C   UNL     1      -4.626   3.922 -32.096  1.00  0.00     0.239 C 
ENDROOT
BRANCH   1   2
HETATM    2  C   UNL     1      -4.202   2.468 -31.695  1.00  0.00     0.161 C 
BRANCH   2   3
HETATM    3  N   UNL     1      -4.754   1.917 -30.467  1.00  0.00    -0.354 N 
HETATM    4  C   UNL     1      -5.610   0.853 -30.292  1.00  0.00     0.254 C 
HETATM    5  O   UNL     1      -5.780   0.404 -29.166  1.00  0.00    -0.268 OA
HETATM    6  H   UNL     1      -4.258   2.104 -29.599  1.00  0.00     0.162 HD
BRANCH   4   7
HETATM    7  C   UNL     1      -6.340   0.280 -31.442  1.00  0.00     0.068 A 
HETATM    8  C   UNL     1      -5.714  -0.692 -32.252  1.00  0.00     0.117 A 
HETATM    9  C   UNL     1      -6.395  -1.135 -33.399  1.00  0.00     0.102 A 
HETATM   10  C   UNL     1      -7.704  -0.692 -33.648  1.00  0.00     0.040 A 
HETATM   11  C   UNL     1      -8.317   0.248 -32.819  1.00  0.00     0.004 A 
HETATM   12  C   UNL     1      -7.624   0.760 -31.730  1.00  0.00     0.020 A 
BRANCH   8  13
HETATM   13  O   UNL     1      -4.502  -1.131 -31.784  1.00  0.00    -0.352 OA
HETATM   14  C   UNL     1      -3.322  -0.884 -32.533  1.00  0.00     0.210 C 
ENDBRANCH   8  13
BRANCH   9  15
HETATM   15  O   UNL     1      -5.811  -2.048 -34.237  1.00  0.00    -0.353 OA
HETATM   16  C   UNL     1      -6.704  -3.060 -34.713  1.00  0.00     0.210 C 
ENDBRANCH   9  15
ENDBRANCH   4   7
ENDBRANCH   2   3
ENDBRANCH   1   2
BRANCH   1  17
HETATM   17  N   UNL     1      -3.808   4.522 -33.240  1.00  0.00    -0.061 N 
HETATM   18  H   UNL     1      -4.273   4.164 -34.087  1.00  0.00     0.280 HD
HETATM   19  C   UNL     1      -2.362   4.104 -33.378  1.00  0.00     0.236 C 
HETATM   20  C   UNL     1      -1.582   5.398 -33.262  1.00  0.00     0.029 C 
HETATM   21  C   UNL     1      -2.500   6.412 -33.912  1.00  0.00     0.029 C 
HETATM   22  C   UNL     1      -3.864   6.032 -33.367  1.00  0.00     0.236 C 
ENDBRANCH   1  17
BRANCH   1  23
HETATM   23  C   UNL     1      -6.124   4.051 -32.395  1.00  0.00    -0.015 A 
HETATM   24  C   UNL     1      -7.034   4.573 -31.419  1.00  0.00    -0.018 A 
HETATM   25  C   UNL     1      -8.409   4.682 -31.764  1.00  0.00    -0.025 A 
HETATM   26  C   UNL     1      -6.671   4.993 -30.112  1.00  0.00     0.013 A 
HETATM   27  C   UNL     1      -9.340   5.182 -30.842  1.00  0.00     0.012 A 
HETATM   28  C   UNL     1      -8.855   4.290 -33.031  1.00  0.00     0.012 A 
HETATM   29  C   UNL     1      -8.945   5.587 -29.571  1.00  0.00     0.001 A 
HETATM   30  C   UNL     1      -7.611   5.493 -29.206  1.00  0.00     0.001 A 
HETATM   31  C   UNL     1      -7.968   3.797 -33.976  1.00  0.00     0.002 A 
HETATM   32  C   UNL     1      -6.617   3.688 -33.667  1.00  0.00     0.010 A 
ENDBRANCH   1  23
TORSDOF 7
ENDMDL
MODEL 10
REMARK VINA RESULT:      -7.9      2.281      4.064
REMARK  7 active torsions:
REMARK  status: ('A' for Active; 'I' for Inactive)
REMARK    1  A    between atoms: O_2  and  C_3 
REMARK    2  A    between atoms: C_4  and  O_5 
REMARK    3  A    between atoms: C_7  and  C_8 
REMARK       I    between atoms: C_8  and  N_9 
REMARK    4  A    between atoms: N_9  and  C_10 
REMARK    5  A    between atoms: C_10  and  C_11 
REMARK    6  A    between atoms: C_11  and  N_12 
REMARK    7  A    between atoms: C_11  and  C_18 
ROOT
HETATM    1  C   UNL     1      -7.513   0.361 -32.179  1.00  0.00     0.239 C 
ENDROOT
BRANCH   1   2
HETATM    2  C   UNL     1      -7.436   1.642 -31.280  1.00  0.00     0.161 C 
BRANCH   2   3
HETATM    3  N   UNL     1      -8.686   2.187 -30.771  1.00  0.00    -0.354 N 
HETATM    4  C   UNL     1      -9.003   3.482 -30.430  1.00  0.00     0.254 C 
HETATM    5  O   UNL     1     -10.175   3.778 -30.237  1.00  0.00    -0.268 OA
HETATM    6  H   UNL     1      -9.539   1.661 -30.949  1.00  0.00     0.162 HD
BRANCH   4   7
HETATM    7  C   UNL     1      -7.940   4.496 -30.268  1.00  0.00     0.068 A 
HETATM    8  C   UNL     1      -7.447   5.177 -31.402  1.00  0.00     0.117 A 
HETATM    9  C   UNL     1      -6.363   6.055 -31.226  1.00  0.00     0.102 A 
HETATM   10  C   UNL     1      -5.878   6.314 -29.934  1.00  0.00     0.040 A 
HETATM   11  C   UNL     1      -6.398   5.653 -28.822  1.00  0.00     0.004 A 
HETATM   12  C   UNL     1      -7.412   4.718 -28.991  1.00  0.00     0.020 A 
BRANCH   8  13
HETATM   13  O   UNL     1      -8.131   4.925 -32.564  1.00  0.00    -0.352 OA
HETATM   14  C   UNL     1      -9.027   5.896 -33.083  1.00  0.00     0.210 C 
ENDBRANCH   8  13
BRANCH   9  15
HETATM   15  O   UNL     1      -5.823   6.707 -32.304  1.00  0.00    -0.353 OA
HETATM   16  C   UNL     1      -4.532   6.226 -32.692  1.00  0.00     0.210 C 
ENDBRANCH   9  15
ENDBRANCH   4   7
ENDBRANCH   2   3
ENDBRANCH   1   2
BRANCH   1  17
HETATM   17  N   UNL     1      -8.433   0.499 -33.392  1.00  0.00    -0.061 N 
HETATM   18  H   UNL     1      -8.140  -0.270 -34.011  1.00  0.00     0.280 HD
HETATM   19  C   UNL     1      -8.318   1.749 -34.235  1.00  0.00     0.236 C 
HETATM   20  C   UNL     1      -9.696   2.375 -34.173  1.00  0.00     0.029 C 
HETATM   21  C   UNL     1     -10.617   1.174 -34.108  1.00  0.00     0.029 C 
HETATM   22  C   UNL     1      -9.907   0.257 -33.131  1.00  0.00     0.236 C 
ENDBRANCH   1  17
BRANCH   1  23
HETATM   23  C   UNL     1      -6.136  -0.149 -32.618  1.00  0.00    -0.015 A 
HETATM   24  C   UNL     1      -6.004  -1.312 -33.444  1.00  0.00    -0.018 A 
HETATM   25  C   UNL     1      -4.698  -1.723 -33.831  1.00  0.00    -0.025 A 
HETATM   26  C   UNL     1      -7.085  -2.103 -33.913  1.00  0.00     0.013 A 
HETATM   27  C   UNL     1      -4.516  -2.858 -34.635  1.00  0.00     0.012 A 
HETATM   28  C   UNL     1      -3.574  -1.002 -33.413  1.00  0.00     0.012 A 
HETATM   29  C   UNL     1      -5.602  -3.606 -35.078  1.00  0.00     0.001 A 
HETATM   30  C   UNL     1      -6.886  -3.229 -34.717  1.00  0.00     0.001 A 
HETATM   31  C   UNL     1      -3.709   0.129 -32.624  1.00  0.00     0.002 A 
HETATM   32  C   UNL     1      -4.974   0.558 -32.238  1.00  0.00     0.010 A 
ENDBRANCH   1  23
TORSDOF 7
ENDMDL
