MODEL 1
REMARK VINA RESULT:      -7.7      0.000      0.000
REMARK  2 active torsions:
REMARK  status: ('A' for Active; 'I' for Inactive)
REMARK    1  A    between atoms: C_8  and  S_9 
REMARK    2  A    between atoms: S_9  and  C_10 
ROOT
HETATM    1  C   UNL     1      -6.155  -4.671 -35.011  1.00  0.00     0.002 A 
HETATM    2  C   UNL     1      -6.771  -3.442 -34.769  1.00  0.00     0.034 A 
HETATM    3  C   UNL     1      -6.068  -2.380 -34.213  1.00  0.00     0.087 A 
HETATM    4  C   UNL     1      -4.694  -2.556 -33.892  1.00  0.00     0.087 A 
HETATM    5  N   UNL     1      -3.965  -1.559 -33.351  1.00  0.00    -0.231 NA
HETATM    6  C   UNL     1      -4.587  -0.379 -33.142  1.00  0.00     0.167 A 
HETATM    7 CL   UNL     1      -3.587   0.806 -32.419  1.00  0.00    -0.059 Cl
HETATM    8  C   UNL     1      -5.915  -0.222 -33.459  1.00  0.00     0.193 A 
HETATM    9  N   UNL     1      -6.698  -1.206 -33.986  1.00  0.00    -0.232 NA
HETATM   10  C   UNL     1      -4.095  -3.784 -34.138  1.00  0.00     0.034 A 
HETATM   11  C   UNL     1      -4.814  -4.842 -34.694  1.00  0.00     0.002 A 
ENDROOT
BRANCH   8  12
HETATM   12  S   UNL     1      -6.752   1.295 -33.173  1.00  0.00     0.201 S 
HETATM   13  O   UNL     1      -6.613   1.619 -31.759  1.00  0.00    -0.221 OA
HETATM   14  O   UNL     1      -6.357   2.228 -34.206  1.00  0.00    -0.221 OA
BRANCH  12  15
HETATM   15  C   UNL     1      -8.496   0.958 -33.402  1.00  0.00     0.141 C 
HETATM   16  C   UNL     1      -9.133   0.601 -32.061  1.00  0.00     0.252 C 
HETATM   17  N   UNL     1      -9.285   1.817 -31.188  1.00  0.00    -0.074 N 
HETATM   18  H   UNL     1      -8.333   2.177 -30.960  1.00  0.00     0.277 HD
HETATM   19  H   UNL     1      -9.695   1.556 -30.280  1.00  0.00     0.277 HD
HETATM   20  C   UNL     1     -10.078   2.923 -31.796  1.00  0.00     0.232 C 
HETATM   21  C   UNL     1      -9.432   3.334 -33.109  1.00  0.00     0.029 C 
HETATM   22  C   UNL     1      -9.236   2.142 -34.050  1.00  0.00     0.024 C 
ENDBRANCH  12  15
ENDBRANCH   8  12
TORSDOF 2
ENDMDL
MODEL 2
REMARK VINA RESULT:      -7.3      1.654      2.050
REMARK  2 active torsions:
REMARK  status: ('A' for Active; 'I' for Inactive)
REMARK    1  A    between atoms: C_8  and  S_9 
REMARK    2  A    between atoms: S_9  and  C_10 
ROOT
HETATM    1  C   UNL     1      -5.906  -4.345 -35.206  1.00  0.00     0.002 A 
HETATM    2  C   UNL     1      -6.155  -2.992 -34.965  1.00  0.00     0.034 A 
HETATM    3  C   UNL     1      -5.366  -2.260 -34.087  1.00  0.00     0.087 A 
HETATM    4  C   UNL     1      -4.284  -2.906 -33.429  1.00  0.00     0.087 A 
HETATM    5  N   UNL     1      -3.487  -2.242 -32.567  1.00  0.00    -0.231 NA
HETATM    6  C   UNL     1      -3.746  -0.933 -32.365  1.00  0.00     0.167 A 
HETATM    7 CL   UNL     1      -2.703  -0.194 -31.229  1.00  0.00    -0.059 Cl
HETATM    8  C   UNL     1      -4.793  -0.320 -33.009  1.00  0.00     0.193 A 
HETATM    9  N   UNL     1      -5.640  -0.954 -33.871  1.00  0.00    -0.232 NA
HETATM   10  C   UNL     1      -4.049  -4.252 -33.679  1.00  0.00     0.034 A 
HETATM   11  C   UNL     1      -4.851  -4.975 -34.561  1.00  0.00     0.002 A 
ENDROOT
BRANCH   8  12
HETATM   12  S   UNL     1      -5.166   1.376 -32.745  1.00  0.00     0.201 S 
HETATM   13  O   UNL     1      -3.903   2.092 -32.616  1.00  0.00    -0.221 OA
HETATM   14  O   UNL     1      -6.167   1.772 -33.711  1.00  0.00    -0.221 OA
BRANCH  12  15
HETATM   15  C   UNL     1      -5.924   1.478 -31.125  1.00  0.00     0.141 C 
HETATM   16  C   UNL     1      -6.627   2.825 -30.968  1.00  0.00     0.252 C 
HETATM   17  N   UNL     1      -7.895   2.875 -31.778  1.00  0.00    -0.074 N 
HETATM   18  H   UNL     1      -7.641   2.807 -32.788  1.00  0.00     0.277 HD
HETATM   19  H   UNL     1      -8.344   3.796 -31.679  1.00  0.00     0.277 HD
HETATM   20  C   UNL     1      -8.879   1.801 -31.461  1.00  0.00     0.232 C 
HETATM   21  C   UNL     1      -8.216   0.447 -31.660  1.00  0.00     0.029 C 
HETATM   22  C   UNL     1      -6.910   0.324 -30.872  1.00  0.00     0.024 C 
ENDBRANCH  12  15
ENDBRANCH   8  12
TORSDOF 2
ENDMDL
MODEL 3
REMARK VINA RESULT:      -7.2      2.852      3.690
REMARK  2 active torsions:
REMARK  status: ('A' for Active; 'I' for Inactive)
REMARK    1  A    between atoms: C_8  and  S_9 
REMARK    2  A    between atoms: S_9  and  C_10 
ROOT
HETATM    1  C   UNL     1      -3.329  -4.118 -32.925  1.00  0.00     0.002 A 
HETATM    2  C   UNL     1      -3.578  -2.821 -32.469  1.00  0.00     0.034 A 
HETATM    3  C   UNL     1      -4.504  -2.001 -33.102  1.00  0.00     0.087 A 
HETATM    4  C   UNL     1      -5.209  -2.500 -34.231  1.00  0.00     0.087 A 
HETATM    5  N   UNL     1      -6.118  -1.745 -34.882  1.00  0.00    -0.231 NA
HETATM    6  C   UNL     1      -6.345  -0.502 -34.410  1.00  0.00     0.167 A 
HETATM    7 CL   UNL     1      -7.485   0.384 -35.326  1.00  0.00    -0.059 Cl
HETATM    8  C   UNL     1      -5.658  -0.033 -33.315  1.00  0.00     0.193 A 
HETATM    9  N   UNL     1      -4.715  -0.749 -32.638  1.00  0.00    -0.232 NA
HETATM   10  C   UNL     1      -4.950  -3.790 -34.673  1.00  0.00     0.034 A 
HETATM   11  C   UNL     1      -4.017  -4.602 -34.029  1.00  0.00     0.002 A 
ENDROOT
BRANCH   8  12
HETATM   12  S   UNL     1      -5.918   1.590 -32.696  1.00  0.00     0.201 S 
HETATM   13  O   UNL     1      -5.572   2.529 -33.755  1.00  0.00    -0.221 OA
HETATM   14  O   UNL     1      -7.211   1.622 -32.048  1.00  0.00    -0.221 OA
BRANCH  12  15
HETATM   15  C   UNL     1      -4.683   1.848 -31.426  1.00  0.00     0.141 C 
HETATM   16  C   UNL     1      -3.478   2.578 -32.018  1.00  0.00     0.252 C 
HETATM   17  N   UNL     1      -3.792   4.026 -32.278  1.00  0.00    -0.074 N 
HETATM   18  H   UNL     1      -4.536   4.073 -33.008  1.00  0.00     0.277 HD
HETATM   19  H   UNL     1      -2.979   4.498 -32.697  1.00  0.00     0.277 HD
HETATM   20  C   UNL     1      -4.251   4.788 -31.081  1.00  0.00     0.232 C 
HETATM   21  C   UNL     1      -5.483   4.109 -30.504  1.00  0.00     0.029 C 
HETATM   22  C   UNL     1      -5.242   2.624 -30.221  1.00  0.00     0.024 C 
ENDBRANCH  12  15
ENDBRANCH   8  12
TORSDOF 2
ENDMDL
MODEL 4
REMARK VINA RESULT:      -7.2      3.459      4.403
REMARK  2 active torsions:
REMARK  status: ('A' for Active; 'I' for Inactive)
REMARK    1  A    between atoms: C_8  and  S_9 
REMARK    2  A    between atoms: S_9  and  C_10 
ROOT
HETATM    1  C   UNL     1      -5.006  -3.273 -34.613  1.00  0.00     0.002 A 
HETATM    2  C   UNL     1      -4.345  -2.265 -33.908  1.00  0.00     0.034 A 
HETATM    3  C   UNL     1      -5.037  -1.179 -33.386  1.00  0.00     0.087 A 
HETATM    4  C   UNL     1      -6.444  -1.103 -33.573  1.00  0.00     0.087 A 
HETATM    5  N   UNL     1      -7.163  -0.071 -33.088  1.00  0.00    -0.231 NA
HETATM    6  C   UNL     1      -6.497   0.881 -32.400  1.00  0.00     0.167 A 
HETATM    7 CL   UNL     1      -7.493   2.162 -31.860  1.00  0.00    -0.059 Cl
HETATM    8  C   UNL     1      -5.137   0.793 -32.224  1.00  0.00     0.193 A 
HETATM    9  N   UNL     1      -4.364  -0.218 -32.715  1.00  0.00    -0.232 NA
HETATM   10  C   UNL     1      -7.087  -2.112 -34.277  1.00  0.00     0.034 A 
HETATM   11  C   UNL     1      -6.380  -3.196 -34.798  1.00  0.00     0.002 A 
ENDROOT
BRANCH   8  12
HETATM   12  S   UNL     1      -4.244   2.031 -31.354  1.00  0.00     0.201 S 
HETATM   13  O   UNL     1      -5.031   2.408 -30.187  1.00  0.00    -0.221 OA
HETATM   14  O   UNL     1      -2.871   1.591 -31.233  1.00  0.00    -0.221 OA
BRANCH  12  15
HETATM   15  C   UNL     1      -4.245   3.483 -32.403  1.00  0.00     0.141 C 
HETATM   16  C   UNL     1      -4.901   4.650 -31.667  1.00  0.00     0.252 C 
HETATM   17  N   UNL     1      -3.999   5.190 -30.590  1.00  0.00    -0.074 N 
HETATM   18  H   UNL     1      -3.864   4.445 -29.872  1.00  0.00     0.277 HD
HETATM   19  H   UNL     1      -4.464   5.961 -30.090  1.00  0.00     0.277 HD
HETATM   20  C   UNL     1      -2.660   5.639 -31.067  1.00  0.00     0.232 C 
HETATM   21  C   UNL     1      -1.965   4.477 -31.758  1.00  0.00     0.029 C 
HETATM   22  C   UNL     1      -2.828   3.866 -32.865  1.00  0.00     0.024 C 
ENDBRANCH  12  15
ENDBRANCH   8  12
TORSDOF 2
ENDMDL
MODEL 5
REMARK VINA RESULT:      -7.1      1.587      2.178
REMARK  2 active torsions:
REMARK  status: ('A' for Active; 'I' for Inactive)
REMARK    1  A    between atoms: C_8  and  S_9 
REMARK    2  A    between atoms: S_9  and  C_10 
ROOT
HETATM    1  C   UNL     1      -3.956  -4.127 -33.941  1.00  0.00     0.002 A 
HETATM    2  C   UNL     1      -4.685  -2.994 -34.307  1.00  0.00     0.034 A 
HETATM    3  C   UNL     1      -4.671  -1.845 -33.526  1.00  0.00     0.087 A 
HETATM    4  C   UNL     1      -3.892  -1.829 -32.336  1.00  0.00     0.087 A 
HETATM    5  N   UNL     1      -3.843  -0.740 -31.542  1.00  0.00    -0.231 NA
HETATM    6  C   UNL     1      -4.549   0.342 -31.930  1.00  0.00     0.167 A 
HETATM    7 CL   UNL     1      -4.449   1.655 -30.837  1.00  0.00    -0.059 Cl
HETATM    8  C   UNL     1      -5.295   0.315 -33.083  1.00  0.00     0.193 A 
HETATM    9  N   UNL     1      -5.395  -0.769 -33.906  1.00  0.00    -0.232 NA
HETATM   10  C   UNL     1      -3.172  -2.964 -31.986  1.00  0.00     0.034 A 
HETATM   11  C   UNL     1      -3.198  -4.111 -32.778  1.00  0.00     0.002 A 
ENDROOT
BRANCH   8  12
HETATM   12  S   UNL     1      -6.242   1.703 -33.596  1.00  0.00     0.201 S 
HETATM   13  O   UNL     1      -5.412   2.890 -33.435  1.00  0.00    -0.221 OA
HETATM   14  O   UNL     1      -6.864   1.379 -34.861  1.00  0.00    -0.221 OA
BRANCH  12  15
HETATM   15  C   UNL     1      -7.555   1.889 -32.392  1.00  0.00     0.141 C 
HETATM   16  C   UNL     1      -8.634   2.818 -32.945  1.00  0.00     0.252 C 
HETATM   17  N   UNL     1      -9.447   2.135 -34.012  1.00  0.00    -0.074 N 
HETATM   18  H   UNL     1      -8.817   1.925 -34.818  1.00  0.00     0.277 HD
HETATM   19  H   UNL     1     -10.154   2.782 -34.390  1.00  0.00     0.277 HD
HETATM   20  C   UNL     1     -10.105   0.870 -33.580  1.00  0.00     0.232 C 
HETATM   21  C   UNL     1      -9.043  -0.093 -33.073  1.00  0.00     0.029 C 
HETATM   22  C   UNL     1      -8.167   0.536 -31.987  1.00  0.00     0.024 C 
ENDBRANCH  12  15
ENDBRANCH   8  12
TORSDOF 2
ENDMDL
MODEL 6
REMARK VINA RESULT:      -7.1      2.429      2.851
REMARK  2 active torsions:
REMARK  status: ('A' for Active; 'I' for Inactive)
REMARK    1  A    between atoms: C_8  and  S_9 
REMARK    2  A    between atoms: S_9  and  C_10 
ROOT
HETATM    1  C   UNL     1      -3.787  -4.533 -33.748  1.00  0.00     0.002 A 
HETATM    2  C   UNL     1      -3.732  -3.229 -33.251  1.00  0.00     0.034 A 
HETATM    3  C   UNL     1      -4.705  -2.293 -33.578  1.00  0.00     0.087 A 
HETATM    4  C   UNL     1      -5.776  -2.679 -34.430  1.00  0.00     0.087 A 
HETATM    5  N   UNL     1      -6.746  -1.809 -34.779  1.00  0.00    -0.231 NA
HETATM    6  C   UNL     1      -6.672  -0.561 -34.273  1.00  0.00     0.167 A 
HETATM    7 CL   UNL     1      -7.927   0.472 -34.803  1.00  0.00    -0.059 Cl
HETATM    8  C   UNL     1      -5.633  -0.201 -33.447  1.00  0.00     0.193 A 
HETATM    9  N   UNL     1      -4.617  -1.037 -33.085  1.00  0.00    -0.232 NA
HETATM   10  C   UNL     1      -5.816  -3.979 -34.917  1.00  0.00     0.034 A 
HETATM   11  C   UNL     1      -4.831  -4.908 -34.582  1.00  0.00     0.002 A 
ENDROOT
BRANCH   8  12
HETATM   12  S   UNL     1      -5.501   1.424 -32.795  1.00  0.00     0.201 S 
HETATM   13  O   UNL     1      -4.205   1.533 -32.137  1.00  0.00    -0.221 OA
HETATM   14  O   UNL     1      -5.908   2.355 -33.825  1.00  0.00    -0.221 OA
BRANCH  12  15
HETATM   15  C   UNL     1      -6.704   1.536 -31.473  1.00  0.00     0.141 C 
HETATM   16  C   UNL     1      -5.998   1.428 -30.123  1.00  0.00     0.252 C 
HETATM   17  N   UNL     1      -5.241   2.687 -29.801  1.00  0.00    -0.074 N 
HETATM   18  H   UNL     1      -4.481   2.801 -30.507  1.00  0.00     0.277 HD
HETATM   19  H   UNL     1      -4.753   2.590 -28.900  1.00  0.00     0.277 HD
HETATM   20  C   UNL     1      -6.069   3.926 -29.791  1.00  0.00     0.232 C 
HETATM   21  C   UNL     1      -6.742   4.085 -31.145  1.00  0.00     0.029 C 
HETATM   22  C   UNL     1      -7.528   2.834 -31.547  1.00  0.00     0.024 C 
ENDBRANCH  12  15
ENDBRANCH   8  12
TORSDOF 2
ENDMDL
MODEL 7
REMARK VINA RESULT:      -7.0      2.418      2.937
REMARK  2 active torsions:
REMARK  status: ('A' for Active; 'I' for Inactive)
REMARK    1  A    between atoms: C_8  and  S_9 
REMARK    2  A    between atoms: S_9  and  C_10 
ROOT
HETATM    1  C   UNL     1      -6.610  -4.056 -35.139  1.00  0.00     0.002 A 
HETATM    2  C   UNL     1      -6.910  -2.833 -34.536  1.00  0.00     0.034 A 
HETATM    3  C   UNL     1      -5.971  -2.161 -33.764  1.00  0.00     0.087 A 
HETATM    4  C   UNL     1      -4.681  -2.734 -33.593  1.00  0.00     0.087 A 
HETATM    5  N   UNL     1      -3.733  -2.124 -32.853  1.00  0.00    -0.231 NA
HETATM    6  C   UNL     1      -4.050  -0.937 -32.295  1.00  0.00     0.167 A 
HETATM    7 CL   UNL     1      -2.793  -0.265 -31.349  1.00  0.00    -0.059 Cl
HETATM    8  C   UNL     1      -5.300  -0.392 -32.470  1.00  0.00     0.193 A 
HETATM    9  N   UNL     1      -6.298  -0.982 -33.189  1.00  0.00    -0.232 NA
HETATM   10  C   UNL     1      -4.398  -3.951 -34.198  1.00  0.00     0.034 A 
HETATM   11  C   UNL     1      -5.351  -4.616 -34.969  1.00  0.00     0.002 A 
ENDROOT
BRANCH   8  12
HETATM   12  S   UNL     1      -5.745   1.138 -31.733  1.00  0.00     0.201 S 
HETATM   13  O   UNL     1      -7.091   1.471 -32.180  1.00  0.00    -0.221 OA
HETATM   14  O   UNL     1      -5.407   1.075 -30.328  1.00  0.00    -0.221 OA
BRANCH  12  15
HETATM   15  C   UNL     1      -4.690   2.380 -32.476  1.00  0.00     0.141 C 
HETATM   16  C   UNL     1      -5.513   3.263 -33.413  1.00  0.00     0.252 C 
HETATM   17  N   UNL     1      -6.399   4.201 -32.638  1.00  0.00    -0.074 N 
HETATM   18  H   UNL     1      -7.093   3.631 -32.107  1.00  0.00     0.277 HD
HETATM   19  H   UNL     1      -6.963   4.773 -33.283  1.00  0.00     0.277 HD
HETATM   20  C   UNL     1      -5.679   5.089 -31.681  1.00  0.00     0.232 C 
HETATM   21  C   UNL     1      -4.893   4.230 -30.703  1.00  0.00     0.029 C 
HETATM   22  C   UNL     1      -3.972   3.239 -31.420  1.00  0.00     0.024 C 
ENDBRANCH  12  15
ENDBRANCH   8  12
TORSDOF 2
ENDMDL
MODEL 8
REMARK VINA RESULT:      -6.9     13.719     15.079
REMARK  2 active torsions:
REMARK  status: ('A' for Active; 'I' for Inactive)
REMARK    1  A    between atoms: C_8  and  S_9 
REMARK    2  A    between atoms: S_9  and  C_10 
ROOT
HETATM    1  C   UNL     1      -9.651 -12.270 -40.421  1.00  0.00     0.002 A 
HETATM    2  C   UNL     1      -8.303 -12.027 -40.154  1.00  0.00     0.034 A 
HETATM    3  C   UNL     1      -7.646 -12.674 -39.115  1.00  0.00     0.087 A 
HETATM    4  C   UNL     1      -8.366 -13.604 -38.317  1.00  0.00     0.087 A 
HETATM    5  N   UNL     1      -7.777 -14.260 -37.296  1.00  0.00    -0.231 NA
HETATM    6  C   UNL     1      -6.470 -14.012 -37.071  1.00  0.00     0.167 A 
HETATM    7 CL   UNL     1      -5.828 -14.864 -35.735  1.00  0.00    -0.059 Cl
HETATM    8  C   UNL     1      -5.784 -13.112 -37.852  1.00  0.00     0.193 A 
HETATM    9  N   UNL     1      -6.341 -12.409 -38.879  1.00  0.00    -0.232 NA
HETATM   10  C   UNL     1      -9.707 -13.836 -38.594  1.00  0.00     0.034 A 
HETATM   11  C   UNL     1     -10.354 -13.177 -39.639  1.00  0.00     0.002 A 
ENDROOT
BRANCH   8  12
HETATM   12  S   UNL     1      -4.089 -12.754 -37.564  1.00  0.00     0.201 S 
HETATM   13  O   UNL     1      -3.659 -11.802 -38.581  1.00  0.00    -0.221 OA
HETATM   14  O   UNL     1      -3.921 -12.483 -36.153  1.00  0.00    -0.221 OA
BRANCH  12  15
HETATM   15  C   UNL     1      -3.188 -14.258 -37.927  1.00  0.00     0.141 C 
HETATM   16  C   UNL     1      -3.316 -14.592 -39.412  1.00  0.00     0.252 C 
HETATM   17  N   UNL     1      -2.485 -13.662 -40.253  1.00  0.00    -0.074 N 
HETATM   18  H   UNL     1      -2.867 -12.697 -40.148  1.00  0.00     0.277 HD
HETATM   19  H   UNL     1      -2.600 -13.885 -41.252  1.00  0.00     0.277 HD
HETATM   20  C   UNL     1      -1.035 -13.640 -39.909  1.00  0.00     0.232 C 
HETATM   21  C   UNL     1      -0.878 -13.258 -38.446  1.00  0.00     0.029 C 
HETATM   22  C   UNL     1      -1.706 -14.158 -37.525  1.00  0.00     0.024 C 
ENDBRANCH  12  15
ENDBRANCH   8  12
TORSDOF 2
ENDMDL
MODEL 9
REMARK VINA RESULT:      -6.8      2.928      6.275
REMARK  2 active torsions:
REMARK  status: ('A' for Active; 'I' for Inactive)
REMARK    1  A    between atoms: C_8  and  S_9 
REMARK    2  A    between atoms: S_9  and  C_10 
ROOT
HETATM    1  C   UNL     1     -13.667  -0.030 -33.981  1.00  0.00     0.002 A 
HETATM    2  C   UNL     1     -12.386  -0.204 -33.453  1.00  0.00     0.034 A 
HETATM    3  C   UNL     1     -11.428   0.798 -33.544  1.00  0.00     0.087 A 
HETATM    4  C   UNL     1     -11.768   2.021 -34.184  1.00  0.00     0.087 A 
HETATM    5  N   UNL     1     -10.875   3.026 -34.300  1.00  0.00    -0.231 NA
HETATM    6  C   UNL     1      -9.650   2.832 -33.768  1.00  0.00     0.167 A 
HETATM    7 CL   UNL     1      -8.584   4.149 -34.000  1.00  0.00    -0.059 Cl
HETATM    8  C   UNL     1      -9.335   1.646 -33.150  1.00  0.00     0.193 A 
HETATM    9  N   UNL     1     -10.195   0.593 -33.029  1.00  0.00    -0.232 NA
HETATM   10  C   UNL     1     -13.046   2.179 -34.704  1.00  0.00     0.034 A 
HETATM   11  C   UNL     1     -13.997   1.164 -34.607  1.00  0.00     0.002 A 
ENDROOT
BRANCH   8  12
HETATM   12  S   UNL     1      -7.740   1.359 -32.474  1.00  0.00     0.201 S 
HETATM   13  O   UNL     1      -7.351   2.555 -31.736  1.00  0.00    -0.221 OA
HETATM   14  O   UNL     1      -7.744   0.053 -31.852  1.00  0.00    -0.221 OA
BRANCH  12  15
HETATM   15  C   UNL     1      -6.611   1.282 -33.861  1.00  0.00     0.141 C 
HETATM   16  C   UNL     1      -5.263   0.730 -33.400  1.00  0.00     0.252 C 
HETATM   17  N   UNL     1      -5.343  -0.749 -33.134  1.00  0.00    -0.074 N 
HETATM   18  H   UNL     1      -5.998  -0.903 -32.336  1.00  0.00     0.277 HD
HETATM   19  H   UNL     1      -4.434  -1.101 -32.803  1.00  0.00     0.277 HD
HETATM   20  C   UNL     1      -5.804  -1.566 -34.293  1.00  0.00     0.232 C 
HETATM   21  C   UNL     1      -7.170  -1.068 -34.738  1.00  0.00     0.029 C 
HETATM   22  C   UNL     1      -7.171   0.437 -35.019  1.00  0.00     0.024 C 
ENDBRANCH  12  15
ENDBRANCH   8  12
TORSDOF 2
ENDMDL
MODEL 10
REMARK VINA RESULT:      -6.8      1.842      2.108
REMARK  2 active torsions:
REMARK  status: ('A' for Active; 'I' for Inactive)
REMARK    1  A    between atoms: C_8  and  S_9 
REMARK    2  A    between atoms: S_9  and  C_10 
ROOT
HETATM    1  C   UNL     1      -5.723  -3.005 -34.955  1.00  0.00     0.002 A 
HETATM    2  C   UNL     1      -6.694  -2.015 -34.793  1.00  0.00     0.034 A 
HETATM    3  C   UNL     1      -6.517  -0.974 -33.890  1.00  0.00     0.087 A 
HETATM    4  C   UNL     1      -5.321  -0.920 -33.124  1.00  0.00     0.087 A 
HETATM    5  N   UNL     1      -5.099   0.068 -32.234  1.00  0.00    -0.231 NA
HETATM    6  C   UNL     1      -6.050   1.016 -32.109  1.00  0.00     0.167 A 
HETATM    7 CL   UNL     1      -5.690   2.201 -30.930  1.00  0.00    -0.059 Cl
HETATM    8  C   UNL     1      -7.202   0.955 -32.858  1.00  0.00     0.193 A 
HETATM    9  N   UNL     1      -7.481  -0.036 -33.753  1.00  0.00    -0.232 NA
HETATM   10  C   UNL     1      -4.364  -1.913 -33.296  1.00  0.00     0.034 A 
HETATM   11  C   UNL     1      -4.556  -2.953 -34.205  1.00  0.00     0.002 A 
ENDROOT
BRANCH   8  12
HETATM   12  S   UNL     1      -8.466   2.163 -32.696  1.00  0.00     0.201 S 
HETATM   13  O   UNL     1      -9.220   1.856 -31.488  1.00  0.00    -0.221 OA
HETATM   14  O   UNL     1      -7.872   3.465 -32.909  1.00  0.00    -0.221 OA
BRANCH  12  15
HETATM   15  C   UNL     1      -9.611   1.876 -34.043  1.00  0.00     0.141 C 
HETATM   16  C   UNL     1     -10.830   1.111 -33.530  1.00  0.00     0.252 C 
HETATM   17  N   UNL     1     -11.722   1.998 -32.704  1.00  0.00    -0.074 N 
HETATM   18  H   UNL     1     -11.194   2.289 -31.852  1.00  0.00     0.277 HD
HETATM   19  H   UNL     1     -12.525   1.462 -32.347  1.00  0.00     0.277 HD
HETATM   20  C   UNL     1     -12.206   3.220 -33.405  1.00  0.00     0.232 C 
HETATM   21  C   UNL     1     -11.009   4.027 -33.881  1.00  0.00     0.029 C 
HETATM   22  C   UNL     1     -10.046   3.186 -34.723  1.00  0.00     0.024 C 
ENDBRANCH  12  15
ENDBRANCH   8  12
TORSDOF 2
ENDMDL
