MODEL 1
REMARK VINA RESULT:      -7.3      0.000      0.000
REMARK  3 active torsions:
REMARK  status: ('A' for Active; 'I' for Inactive)
REMARK    1  A    between atoms: C_2  and  C_3 
REMARK    2  A    between atoms: C_7  and  N_8 
REMARK       I    between atoms: N_8  and  C_9 
REMARK    3  A    between atoms: C_9  and  C_10 
ROOT
HETATM    1  N   UNL     1      -3.342   2.102 -32.040  1.00  0.00    -0.311 N 
HETATM    2  C   UNL     1      -4.315   1.718 -31.130  1.00  0.00     0.234 C 
HETATM    3  O   UNL     1      -4.835   2.484 -30.318  1.00  0.00    -0.272 OA
HETATM    4  H   UNL     1      -2.954   1.422 -32.687  1.00  0.00     0.170 HD
ENDROOT
BRANCH   2   5
HETATM    5  C   UNL     1      -4.700   0.247 -31.164  1.00  0.00     0.138 C 
HETATM    6  C   UNL     1      -5.807  -0.077 -32.101  1.00  0.00    -0.008 A 
HETATM    7  C   UNL     1      -5.291  -0.731 -33.210  1.00  0.00     0.076 A 
HETATM    8  C   UNL     1      -7.157   0.220 -32.016  1.00  0.00     0.030 A 
HETATM    9  C   UNL     1      -6.083  -1.107 -34.274  1.00  0.00     0.039 A 
HETATM   10  O   UNL     1      -3.934  -0.911 -33.158  1.00  0.00    -0.349 OA
HETATM   11  C   UNL     1      -7.449  -0.822 -34.203  1.00  0.00     0.022 A 
HETATM   12  C   UNL     1      -7.978  -0.164 -33.081  1.00  0.00     0.011 A 
HETATM   13 BR   UNL     1      -9.828   0.221 -33.014  1.00  0.00    -0.051 Br
HETATM   14  C   UNL     1      -3.592  -0.613 -31.778  1.00  0.00     0.194 C 
ENDBRANCH   2   5
BRANCH   1  15
HETATM   15  C   UNL     1      -2.903   3.405 -32.134  1.00  0.00     0.126 A 
HETATM   16  N   UNL     1      -2.616   4.211 -31.062  1.00  0.00    -0.262 N 
HETATM   17  N   UNL     1      -2.211   5.446 -31.410  1.00  0.00    -0.178 NA
HETATM   18  H   UNL     1      -2.686   3.960 -30.079  1.00  0.00     0.191 HD
HETATM   19  C   UNL     1      -2.244   5.429 -32.748  1.00  0.00     0.058 A 
HETATM   20  C   UNL     1      -2.665   4.172 -33.248  1.00  0.00     0.079 A 
BRANCH  19  21
HETATM   21  C   UNL     1      -1.867   6.644 -33.527  1.00  0.00     0.056 C 
HETATM   22  C   UNL     1      -1.636   7.854 -32.633  1.00  0.00     0.011 C 
ENDBRANCH  19  21
ENDBRANCH   1  15
TORSDOF 3
ENDMDL
MODEL 2
REMARK VINA RESULT:      -7.2      3.698      5.424
REMARK  3 active torsions:
REMARK  status: ('A' for Active; 'I' for Inactive)
REMARK    1  A    between atoms: C_2  and  C_3 
REMARK    2  A    between atoms: C_7  and  N_8 
REMARK       I    between atoms: N_8  and  C_9 
REMARK    3  A    between atoms: C_9  and  C_10 
ROOT
HETATM    1  N   UNL     1      -0.350   5.333 -31.301  1.00  0.00    -0.311 N 
HETATM    2  C   UNL     1      -1.548   5.650 -31.922  1.00  0.00     0.234 C 
HETATM    3  O   UNL     1      -2.359   6.463 -31.473  1.00  0.00    -0.272 OA
HETATM    4  H   UNL     1       0.278   4.656 -31.723  1.00  0.00     0.170 HD
ENDROOT
BRANCH   2   5
HETATM    5  C   UNL     1      -1.838   4.899 -33.211  1.00  0.00     0.138 C 
HETATM    6  C   UNL     1      -3.167   4.234 -33.251  1.00  0.00    -0.008 A 
HETATM    7  C   UNL     1      -4.008   4.943 -34.096  1.00  0.00     0.076 A 
HETATM    8  C   UNL     1      -3.623   3.122 -32.562  1.00  0.00     0.030 A 
HETATM    9  C   UNL     1      -5.326   4.586 -34.286  1.00  0.00     0.039 A 
HETATM   10  O   UNL     1      -3.415   6.038 -34.666  1.00  0.00    -0.349 OA
HETATM   11  C   UNL     1      -5.803   3.463 -33.605  1.00  0.00     0.022 A 
HETATM   12  C   UNL     1      -4.954   2.740 -32.752  1.00  0.00     0.011 A 
HETATM   13 BR   UNL     1      -5.627   1.230 -31.832  1.00  0.00    -0.051 Br
HETATM   14  C   UNL     1      -2.000   5.854 -34.398  1.00  0.00     0.194 C 
ENDBRANCH   2   5
BRANCH   1  15
HETATM   15  C   UNL     1       0.053   5.944 -30.132  1.00  0.00     0.126 A 
HETATM   16  N   UNL     1       0.004   5.362 -28.892  1.00  0.00    -0.262 N 
HETATM   17  N   UNL     1       0.445   6.162 -27.904  1.00  0.00    -0.178 NA
HETATM   18  H   UNL     1      -0.327   4.425 -28.673  1.00  0.00     0.191 HD
HETATM   19  C   UNL     1       0.785   7.292 -28.535  1.00  0.00     0.058 A 
HETATM   20  C   UNL     1       0.563   7.203 -29.932  1.00  0.00     0.079 A 
BRANCH  19  21
HETATM   21  C   UNL     1       1.320   8.454 -27.767  1.00  0.00     0.056 C 
HETATM   22  C   UNL     1       1.814   8.053 -26.385  1.00  0.00     0.011 C 
ENDBRANCH  19  21
ENDBRANCH   1  15
TORSDOF 3
ENDMDL
MODEL 3
REMARK VINA RESULT:      -7.2      3.506      7.159
REMARK  3 active torsions:
REMARK  status: ('A' for Active; 'I' for Inactive)
REMARK    1  A    between atoms: C_2  and  C_3 
REMARK    2  A    between atoms: C_7  and  N_8 
REMARK       I    between atoms: N_8  and  C_9 
REMARK    3  A    between atoms: C_9  and  C_10 
ROOT
HETATM    1  N   UNL     1      -5.864   1.515 -33.753  1.00  0.00    -0.311 N 
HETATM    2  C   UNL     1      -5.551   2.134 -32.553  1.00  0.00     0.234 C 
HETATM    3  O   UNL     1      -5.259   1.525 -31.522  1.00  0.00    -0.272 OA
HETATM    4  H   UNL     1      -6.093   2.074 -34.569  1.00  0.00     0.170 HD
ENDROOT
BRANCH   2   5
HETATM    5  C   UNL     1      -5.618   3.653 -32.562  1.00  0.00     0.138 C 
HETATM    6  C   UNL     1      -4.331   4.324 -32.883  1.00  0.00    -0.008 A 
HETATM    7  C   UNL     1      -4.393   4.840 -34.169  1.00  0.00     0.076 A 
HETATM    8  C   UNL     1      -3.174   4.432 -32.129  1.00  0.00     0.030 A 
HETATM    9  C   UNL     1      -3.319   5.473 -34.758  1.00  0.00     0.039 A 
HETATM   10  O   UNL     1      -5.591   4.612 -34.794  1.00  0.00    -0.349 OA
HETATM   11  C   UNL     1      -2.146   5.599 -34.009  1.00  0.00     0.022 A 
HETATM   12  C   UNL     1      -2.079   5.081 -32.705  1.00  0.00     0.011 A 
HETATM   13 BR   UNL     1      -0.475   5.253 -31.718  1.00  0.00    -0.051 Br
HETATM   14  C   UNL     1      -6.469   4.174 -33.724  1.00  0.00     0.194 C 
ENDBRANCH   2   5
BRANCH   1  15
HETATM   15  C   UNL     1      -5.832   0.144 -33.899  1.00  0.00     0.126 A 
HETATM   16  N   UNL     1      -4.749  -0.646 -33.609  1.00  0.00    -0.262 N 
HETATM   17  N   UNL     1      -4.960  -1.954 -33.842  1.00  0.00    -0.178 NA
HETATM   18  H   UNL     1      -3.849  -0.334 -33.254  1.00  0.00     0.191 HD
HETATM   19  C   UNL     1      -6.217  -2.000 -34.299  1.00  0.00     0.058 A 
HETATM   20  C   UNL     1      -6.807  -0.712 -34.348  1.00  0.00     0.079 A 
BRANCH  19  21
HETATM   21  C   UNL     1      -6.830  -3.303 -34.688  1.00  0.00     0.056 C 
HETATM   22  C   UNL     1      -5.784  -4.365 -34.991  1.00  0.00     0.011 C 
ENDBRANCH  19  21
ENDBRANCH   1  15
TORSDOF 3
ENDMDL
MODEL 4
REMARK VINA RESULT:      -7.2      3.349      6.814
REMARK  3 active torsions:
REMARK  status: ('A' for Active; 'I' for Inactive)
REMARK    1  A    between atoms: C_2  and  C_3 
REMARK    2  A    between atoms: C_7  and  N_8 
REMARK       I    between atoms: N_8  and  C_9 
REMARK    3  A    between atoms: C_9  and  C_10 
ROOT
HETATM    1  N   UNL     1      -4.734   0.407 -32.388  1.00  0.00    -0.311 N 
HETATM    2  C   UNL     1      -3.719   0.973 -31.632  1.00  0.00     0.234 C 
HETATM    3  O   UNL     1      -2.681   0.385 -31.327  1.00  0.00    -0.272 OA
HETATM    4  H   UNL     1      -5.566   0.946 -32.609  1.00  0.00     0.170 HD
ENDROOT
BRANCH   2   5
HETATM    5  C   UNL     1      -3.972   2.395 -31.155  1.00  0.00     0.138 C 
HETATM    6  C   UNL     1      -3.817   3.433 -32.208  1.00  0.00    -0.008 A 
HETATM    7  C   UNL     1      -5.071   3.898 -32.580  1.00  0.00     0.076 A 
HETATM    8  C   UNL     1      -2.672   3.902 -32.829  1.00  0.00     0.030 A 
HETATM    9  C   UNL     1      -5.239   4.833 -33.579  1.00  0.00     0.039 A 
HETATM   10  O   UNL     1      -6.100   3.303 -31.899  1.00  0.00    -0.349 OA
HETATM   11  C   UNL     1      -4.094   5.323 -34.213  1.00  0.00     0.022 A 
HETATM   12  C   UNL     1      -2.823   4.859 -33.837  1.00  0.00     0.011 A 
HETATM   13 BR   UNL     1      -1.290   5.529 -34.719  1.00  0.00    -0.051 Br
HETATM   14  C   UNL     1      -5.446   2.617 -30.799  1.00  0.00     0.194 C 
ENDBRANCH   2   5
BRANCH   1  15
HETATM   15  C   UNL     1      -4.639  -0.870 -32.900  1.00  0.00     0.126 A 
HETATM   16  N   UNL     1      -3.814  -1.848 -32.408  1.00  0.00    -0.262 N 
HETATM   17  N   UNL     1      -3.894  -3.009 -33.083  1.00  0.00    -0.178 NA
HETATM   18  H   UNL     1      -3.179  -1.765 -31.618  1.00  0.00     0.191 HD
HETATM   19  C   UNL     1      -4.798  -2.763 -34.039  1.00  0.00     0.058 A 
HETATM   20  C   UNL     1      -5.297  -1.439 -33.963  1.00  0.00     0.079 A 
BRANCH  19  21
HETATM   21  C   UNL     1      -5.162  -3.823 -35.023  1.00  0.00     0.056 C 
HETATM   22  C   UNL     1      -6.564  -4.367 -34.792  1.00  0.00     0.011 C 
ENDBRANCH  19  21
ENDBRANCH   1  15
TORSDOF 3
ENDMDL
MODEL 5
REMARK VINA RESULT:      -6.9      2.291      2.766
REMARK  3 active torsions:
REMARK  status: ('A' for Active; 'I' for Inactive)
REMARK    1  A    between atoms: C_2  and  C_3 
REMARK    2  A    between atoms: C_7  and  N_8 
REMARK       I    between atoms: N_8  and  C_9 
REMARK    3  A    between atoms: C_9  and  C_10 
ROOT
HETATM    1  N   UNL     1      -4.382   2.682 -32.173  1.00  0.00    -0.311 N 
HETATM    2  C   UNL     1      -5.348   1.811 -32.651  1.00  0.00     0.234 C 
HETATM    3  O   UNL     1      -5.998   2.005 -33.680  1.00  0.00    -0.272 OA
HETATM    4  H   UNL     1      -3.877   2.464 -31.319  1.00  0.00     0.170 HD
ENDROOT
BRANCH   2   5
HETATM    5  C   UNL     1      -5.598   0.577 -31.799  1.00  0.00     0.138 C 
HETATM    6  C   UNL     1      -5.158  -0.699 -32.421  1.00  0.00    -0.008 A 
HETATM    7  C   UNL     1      -4.006  -1.144 -31.788  1.00  0.00     0.076 A 
HETATM    8  C   UNL     1      -5.694  -1.395 -33.491  1.00  0.00     0.030 A 
HETATM    9  C   UNL     1      -3.341  -2.282 -32.192  1.00  0.00     0.039 A 
HETATM   10  O   UNL     1      -3.584  -0.321 -30.778  1.00  0.00    -0.349 OA
HETATM   11  C   UNL     1      -3.871  -3.001 -33.266  1.00  0.00     0.022 A 
HETATM   12  C   UNL     1      -5.039  -2.558 -33.907  1.00  0.00     0.011 A 
HETATM   13 BR   UNL     1      -5.730  -3.543 -35.366  1.00  0.00    -0.051 Br
HETATM   14  C   UNL     1      -4.712   0.565 -30.549  1.00  0.00     0.194 C 
ENDBRANCH   2   5
BRANCH   1  15
HETATM   15  C   UNL     1      -4.038   3.835 -32.847  1.00  0.00     0.126 A 
HETATM   16  N   UNL     1      -4.925   4.645 -33.508  1.00  0.00    -0.262 N 
HETATM   17  N   UNL     1      -4.348   5.709 -34.096  1.00  0.00    -0.178 NA
HETATM   18  H   UNL     1      -5.930   4.508 -33.587  1.00  0.00     0.191 HD
HETATM   19  C   UNL     1      -3.049   5.572 -33.802  1.00  0.00     0.058 A 
HETATM   20  C   UNL     1      -2.806   4.417 -33.017  1.00  0.00     0.079 A 
BRANCH  19  21
HETATM   21  C   UNL     1      -2.055   6.569 -34.295  1.00  0.00     0.056 C 
HETATM   22  C   UNL     1      -1.220   7.157 -33.167  1.00  0.00     0.011 C 
ENDBRANCH  19  21
ENDBRANCH   1  15
TORSDOF 3
ENDMDL
MODEL 6
REMARK VINA RESULT:      -6.9      4.300      6.858
REMARK  3 active torsions:
REMARK  status: ('A' for Active; 'I' for Inactive)
REMARK    1  A    between atoms: C_2  and  C_3 
REMARK    2  A    between atoms: C_7  and  N_8 
REMARK       I    between atoms: N_8  and  C_9 
REMARK    3  A    between atoms: C_9  and  C_10 
ROOT
HETATM    1  N   UNL     1      -8.876   0.657 -31.851  1.00  0.00    -0.311 N 
HETATM    2  C   UNL     1      -7.791   1.452 -31.514  1.00  0.00     0.234 C 
HETATM    3  O   UNL     1      -7.696   2.644 -31.809  1.00  0.00    -0.272 OA
HETATM    4  H   UNL     1      -8.897  -0.320 -31.576  1.00  0.00     0.170 HD
ENDROOT
BRANCH   2   5
HETATM    5  C   UNL     1      -6.672   0.747 -30.763  1.00  0.00     0.138 C 
HETATM    6  C   UNL     1      -5.637   0.134 -31.637  1.00  0.00    -0.008 A 
HETATM    7  C   UNL     1      -4.480   0.897 -31.579  1.00  0.00     0.076 A 
HETATM    8  C   UNL     1      -5.715  -0.979 -32.457  1.00  0.00     0.030 A 
HETATM    9  C   UNL     1      -3.365   0.595 -32.333  1.00  0.00     0.039 A 
HETATM   10  O   UNL     1      -4.581   1.985 -30.754  1.00  0.00    -0.349 OA
HETATM   11  C   UNL     1      -3.423  -0.528 -33.162  1.00  0.00     0.022 A 
HETATM   12  C   UNL     1      -4.590  -1.306 -33.220  1.00  0.00     0.011 A 
HETATM   13 BR   UNL     1      -4.647  -2.814 -34.359  1.00  0.00    -0.051 Br
HETATM   14  C   UNL     1      -5.795   1.741 -29.994  1.00  0.00     0.194 C 
ENDBRANCH   2   5
BRANCH   1  15
HETATM   15  C   UNL     1      -9.972   1.161 -32.521  1.00  0.00     0.126 A 
HETATM   16  N   UNL     1     -10.555   2.374 -32.259  1.00  0.00    -0.262 N 
HETATM   17  N   UNL     1     -11.617   2.641 -33.041  1.00  0.00    -0.178 NA
HETATM   18  H   UNL     1     -10.264   3.048 -31.554  1.00  0.00     0.191 HD
HETATM   19  C   UNL     1     -11.716   1.561 -33.826  1.00  0.00     0.058 A 
HETATM   20  C   UNL     1     -10.705   0.609 -33.542  1.00  0.00     0.079 A 
BRANCH  19  21
HETATM   21  C   UNL     1     -12.802   1.467 -34.844  1.00  0.00     0.056 C 
HETATM   22  C   UNL     1     -14.010   0.698 -34.330  1.00  0.00     0.011 C 
ENDBRANCH  19  21
ENDBRANCH   1  15
TORSDOF 3
ENDMDL
MODEL 7
REMARK VINA RESULT:      -6.7      4.608      6.323
REMARK  3 active torsions:
REMARK  status: ('A' for Active; 'I' for Inactive)
REMARK    1  A    between atoms: C_2  and  C_3 
REMARK    2  A    between atoms: C_7  and  N_8 
REMARK       I    between atoms: N_8  and  C_9 
REMARK    3  A    between atoms: C_9  and  C_10 
ROOT
HETATM    1  N   UNL     1      -9.109   1.205 -33.019  1.00  0.00    -0.311 N 
HETATM    2  C   UNL     1      -7.748   1.056 -33.239  1.00  0.00     0.234 C 
HETATM    3  O   UNL     1      -7.120   1.677 -34.098  1.00  0.00    -0.272 OA
HETATM    4  H   UNL     1      -9.569   0.666 -32.293  1.00  0.00     0.170 HD
ENDROOT
BRANCH   2   5
HETATM    5  C   UNL     1      -7.051   0.030 -32.360  1.00  0.00     0.138 C 
HETATM    6  C   UNL     1      -6.337  -1.037 -33.109  1.00  0.00    -0.008 A 
HETATM    7  C   UNL     1      -4.969  -0.817 -33.026  1.00  0.00     0.076 A 
HETATM    8  C   UNL     1      -6.843  -2.093 -33.847  1.00  0.00     0.030 A 
HETATM    9  C   UNL     1      -4.057  -1.624 -33.673  1.00  0.00     0.039 A 
HETATM   10  O   UNL     1      -4.636   0.291 -32.293  1.00  0.00    -0.349 OA
HETATM   11  C   UNL     1      -4.549  -2.699 -34.417  1.00  0.00     0.022 A 
HETATM   12  C   UNL     1      -5.932  -2.928 -34.501  1.00  0.00     0.011 A 
HETATM   13 BR   UNL     1      -6.573  -4.382 -35.525  1.00  0.00    -0.051 Br
HETATM   14  C   UNL     1      -5.866   0.644 -31.607  1.00  0.00     0.194 C 
ENDBRANCH   2   5
BRANCH   1  15
HETATM   15  C   UNL     1      -9.870   2.108 -33.731  1.00  0.00     0.126 A 
HETATM   16  N   UNL     1      -9.503   3.402 -33.993  1.00  0.00    -0.262 N 
HETATM   17  N   UNL     1     -10.418   4.089 -34.700  1.00  0.00    -0.178 NA
HETATM   18  H   UNL     1      -8.640   3.858 -33.705  1.00  0.00     0.191 HD
HETATM   19  C   UNL     1     -11.404   3.205 -34.894  1.00  0.00     0.058 A 
HETATM   20  C   UNL     1     -11.105   1.948 -34.311  1.00  0.00     0.079 A 
BRANCH  19  21
HETATM   21  C   UNL     1     -12.632   3.597 -35.643  1.00  0.00     0.056 C 
HETATM   22  C   UNL     1     -12.784   5.107 -35.752  1.00  0.00     0.011 C 
ENDBRANCH  19  21
ENDBRANCH   1  15
TORSDOF 3
ENDMDL
MODEL 8
REMARK VINA RESULT:      -6.6      4.587      7.451
REMARK  3 active torsions:
REMARK  status: ('A' for Active; 'I' for Inactive)
REMARK    1  A    between atoms: C_2  and  C_3 
REMARK    2  A    between atoms: C_7  and  N_8 
REMARK       I    between atoms: N_8  and  C_9 
REMARK    3  A    between atoms: C_9  and  C_10 
ROOT
HETATM    1  N   UNL     1      -9.351   1.326 -34.576  1.00  0.00    -0.311 N 
HETATM    2  C   UNL     1      -8.499   0.519 -33.838  1.00  0.00     0.234 C 
HETATM    3  O   UNL     1      -8.755   0.106 -32.706  1.00  0.00    -0.272 OA
HETATM    4  H   UNL     1      -9.084   1.632 -35.507  1.00  0.00     0.170 HD
ENDROOT
BRANCH   2   5
HETATM    5  C   UNL     1      -7.175   0.181 -34.505  1.00  0.00     0.138 C 
HETATM    6  C   UNL     1      -5.991   0.296 -33.615  1.00  0.00    -0.008 A 
HETATM    7  C   UNL     1      -5.543  -0.975 -33.283  1.00  0.00     0.076 A 
HETATM    8  C   UNL     1      -5.380   1.424 -33.093  1.00  0.00     0.030 A 
HETATM    9  C   UNL     1      -4.485  -1.177 -32.422  1.00  0.00     0.039 A 
HETATM   10  O   UNL     1      -6.281  -1.981 -33.848  1.00  0.00    -0.349 OA
HETATM   11  C   UNL     1      -3.851  -0.051 -31.891  1.00  0.00     0.022 A 
HETATM   12  C   UNL     1      -4.298   1.237 -32.227  1.00  0.00     0.011 A 
HETATM   13 BR   UNL     1      -3.431   2.745 -31.486  1.00  0.00    -0.051 Br
HETATM   14  C   UNL     1      -7.082  -1.308 -34.855  1.00  0.00     0.194 C 
ENDBRANCH   2   5
BRANCH   1  15
HETATM   15  C   UNL     1     -10.591   1.704 -34.105  1.00  0.00     0.126 A 
HETATM   16  N   UNL     1     -10.877   2.925 -33.553  1.00  0.00    -0.262 N 
HETATM   17  N   UNL     1     -12.157   3.053 -33.161  1.00  0.00    -0.178 NA
HETATM   18  H   UNL     1     -10.229   3.698 -33.421  1.00  0.00     0.191 HD
HETATM   19  C   UNL     1     -12.706   1.872 -33.470  1.00  0.00     0.058 A 
HETATM   20  C   UNL     1     -11.767   0.996 -34.069  1.00  0.00     0.079 A 
BRANCH  19  21
HETATM   21  C   UNL     1     -14.145   1.608 -33.174  1.00  0.00     0.056 C 
HETATM   22  C   UNL     1     -14.818   0.792 -34.268  1.00  0.00     0.011 C 
ENDBRANCH  19  21
ENDBRANCH   1  15
TORSDOF 3
ENDMDL
MODEL 9
REMARK VINA RESULT:      -6.6     16.163     17.465
REMARK  3 active torsions:
REMARK  status: ('A' for Active; 'I' for Inactive)
REMARK    1  A    between atoms: C_2  and  C_3 
REMARK    2  A    between atoms: C_7  and  N_8 
REMARK       I    between atoms: N_8  and  C_9 
REMARK    3  A    between atoms: C_9  and  C_10 
ROOT
HETATM    1  N   UNL     1      -5.231 -12.271 -38.073  1.00  0.00    -0.311 N 
HETATM    2  C   UNL     1      -4.027 -12.774 -38.541  1.00  0.00     0.234 C 
HETATM    3  O   UNL     1      -3.909 -13.398 -39.597  1.00  0.00    -0.272 OA
HETATM    4  H   UNL     1      -5.263 -11.762 -37.195  1.00  0.00     0.170 HD
ENDROOT
BRANCH   2   5
HETATM    5  C   UNL     1      -2.824 -12.538 -37.642  1.00  0.00     0.138 C 
HETATM    6  C   UNL     1      -2.350 -13.747 -36.920  1.00  0.00    -0.008 A 
HETATM    7  C   UNL     1      -1.167 -14.189 -37.496  1.00  0.00     0.076 A 
HETATM    8  C   UNL     1      -2.931 -14.439 -35.871  1.00  0.00     0.030 A 
HETATM    9  C   UNL     1      -0.523 -15.329 -37.063  1.00  0.00     0.039 A 
HETATM   10  O   UNL     1      -0.748 -13.419 -38.547  1.00  0.00    -0.349 OA
HETATM   11  C   UNL     1      -1.091 -16.036 -36.001  1.00  0.00     0.022 A 
HETATM   12  C   UNL     1      -2.286 -15.591 -35.412  1.00  0.00     0.011 A 
HETATM   13 BR   UNL     1      -3.041 -16.573 -33.983  1.00  0.00    -0.051 Br
HETATM   14  C   UNL     1      -1.564 -12.221 -38.455  1.00  0.00     0.194 C 
ENDBRANCH   2   5
BRANCH   1  15
HETATM   15  C   UNL     1      -6.404 -12.397 -38.787  1.00  0.00     0.126 A 
HETATM   16  N   UNL     1      -6.483 -12.432 -40.155  1.00  0.00    -0.262 N 
HETATM   17  N   UNL     1      -7.741 -12.553 -40.618  1.00  0.00    -0.178 NA
HETATM   18  H   UNL     1      -5.707 -12.373 -40.810  1.00  0.00     0.191 HD
HETATM   19  C   UNL     1      -8.489 -12.593 -39.509  1.00  0.00     0.058 A 
HETATM   20  C   UNL     1      -7.697 -12.504 -38.337  1.00  0.00     0.079 A 
BRANCH  19  21
HETATM   21  C   UNL     1      -9.973 -12.713 -39.604  1.00  0.00     0.056 C 
HETATM   22  C   UNL     1     -10.593 -11.580 -40.408  1.00  0.00     0.011 C 
ENDBRANCH  19  21
ENDBRANCH   1  15
TORSDOF 3
ENDMDL
MODEL 10
REMARK VINA RESULT:      -6.6      2.682      3.454
REMARK  3 active torsions:
REMARK  status: ('A' for Active; 'I' for Inactive)
REMARK    1  A    between atoms: C_2  and  C_3 
REMARK    2  A    between atoms: C_7  and  N_8 
REMARK       I    between atoms: N_8  and  C_9 
REMARK    3  A    between atoms: C_9  and  C_10 
ROOT
HETATM    1  N   UNL     1      -4.526   3.819 -32.834  1.00  0.00    -0.311 N 
HETATM    2  C   UNL     1      -5.363   4.124 -33.896  1.00  0.00     0.234 C 
HETATM    3  O   UNL     1      -5.044   4.857 -34.833  1.00  0.00    -0.272 OA
HETATM    4  H   UNL     1      -4.847   3.205 -32.092  1.00  0.00     0.170 HD
ENDROOT
BRANCH   2   5
HETATM    5  C   UNL     1      -6.754   3.512 -33.830  1.00  0.00     0.138 C 
HETATM    6  C   UNL     1      -6.775   2.072 -33.463  1.00  0.00    -0.008 A 
HETATM    7  C   UNL     1      -7.231   1.939 -32.159  1.00  0.00     0.076 A 
HETATM    8  C   UNL     1      -6.380   0.964 -34.194  1.00  0.00     0.030 A 
HETATM    9  C   UNL     1      -7.306   0.715 -31.530  1.00  0.00     0.039 A 
HETATM   10  O   UNL     1      -7.541   3.133 -31.563  1.00  0.00    -0.349 OA
HETATM   11  C   UNL     1      -6.918  -0.416 -32.254  1.00  0.00     0.022 A 
HETATM   12  C   UNL     1      -6.460  -0.287 -33.575  1.00  0.00     0.011 A 
HETATM   13 BR   UNL     1      -5.929  -1.831 -34.530  1.00  0.00    -0.051 Br
HETATM   14  C   UNL     1      -7.567   4.080 -32.663  1.00  0.00     0.194 C 
ENDBRANCH   2   5
BRANCH   1  15
HETATM   15  C   UNL     1      -3.232   4.291 -32.764  1.00  0.00     0.126 A 
HETATM   16  N   UNL     1      -2.444   4.569 -33.851  1.00  0.00    -0.262 N 
HETATM   17  N   UNL     1      -1.216   5.011 -33.526  1.00  0.00    -0.178 NA
HETATM   18  H   UNL     1      -2.703   4.469 -34.829  1.00  0.00     0.191 HD
HETATM   19  C   UNL     1      -1.218   5.012 -32.188  1.00  0.00     0.058 A 
HETATM   20  C   UNL     1      -2.461   4.574 -31.664  1.00  0.00     0.079 A 
BRANCH  19  21
HETATM   21  C   UNL     1      -0.005   5.436 -31.431  1.00  0.00     0.056 C 
HETATM   22  C   UNL     1      -0.051   6.906 -31.043  1.00  0.00     0.011 C 
ENDBRANCH  19  21
ENDBRANCH   1  15
TORSDOF 3
ENDMDL
