MODEL 1
REMARK VINA RESULT:      -7.7      0.000      0.000
REMARK  7 active torsions:
REMARK  status: ('A' for Active; 'I' for Inactive)
REMARK    1  A    between atoms: O_2  and  C_3 
REMARK    2  A    between atoms: C_4  and  O_5 
REMARK    3  A    between atoms: C_9  and  C_10 
REMARK    4  A    between atoms: C_10  and  N_11 
REMARK    5  A    between atoms: C_14  and  C_15 
REMARK    6  A    between atoms: C_15  and  N_16 
REMARK    7  A    between atoms: N_16  and  C_17 
ROOT
HETATM    1  N   UNL     1      -8.202   0.856 -32.718  1.00  0.00    -0.067 N 
HETATM    2  H   UNL     1      -8.225   1.788 -33.158  1.00  0.00     0.280 HD
HETATM    3  C   UNL     1      -7.028   0.108 -33.322  1.00  0.00     0.241 C 
HETATM    4  C   UNL     1      -6.197  -0.346 -32.122  1.00  0.00     0.031 C 
HETATM    5  C   UNL     1      -6.420   0.788 -31.127  1.00  0.00     0.035 C 
HETATM    6  C   UNL     1      -7.911   1.059 -31.247  1.00  0.00     0.235 C 
ENDROOT
BRANCH   1   7
HETATM    7  C   UNL     1      -9.564   0.251 -32.978  1.00  0.00     0.273 C 
BRANCH   7   8
HETATM    8  C   UNL     1     -10.512   1.212 -33.645  1.00  0.00    -0.028 A 
HETATM    9  C   UNL     1     -10.080   2.505 -33.985  1.00  0.00     0.031 A 
HETATM   10  C   UNL     1     -10.940   3.388 -34.643  1.00  0.00     0.047 A 
HETATM   11  C   UNL     1     -12.236   2.986 -34.959  1.00  0.00     0.116 A 
HETATM   12 BR   UNL     1     -10.290   5.109 -35.092  1.00  0.00    -0.048 Br
HETATM   13  C   UNL     1     -12.695   1.709 -34.611  1.00  0.00     0.103 A 
HETATM   14  C   UNL     1     -11.831   0.826 -33.955  1.00  0.00     0.048 A 
BRANCH  11  15
HETATM   15  O   UNL     1     -13.080   3.841 -35.616  1.00  0.00    -0.357 OA
HETATM   16  H   UNL     1     -13.987   3.629 -35.317  1.00  0.00     0.218 HD
ENDBRANCH  11  15
BRANCH  13  17
HETATM   17  O   UNL     1     -13.986   1.441 -34.981  1.00  0.00    -0.353 OA
HETATM   18  C   UNL     1     -14.883   0.989 -33.974  1.00  0.00     0.210 C 
ENDBRANCH  13  17
ENDBRANCH   7   8
ENDBRANCH   1   7
BRANCH   4  19
HETATM   19  C   UNL     1      -4.731  -0.596 -32.494  1.00  0.00     0.127 C 
BRANCH  19  20
HETATM   20  N   UNL     1      -4.614  -1.138 -33.847  1.00  0.00    -0.376 N 
HETATM   21  H   UNL     1      -4.688  -0.481 -34.616  1.00  0.00     0.161 HD
BRANCH  20  22
HETATM   22  C   UNL     1      -4.763  -2.488 -34.106  1.00  0.00     0.100 A 
HETATM   23  N   UNL     1      -3.870  -3.339 -33.567  1.00  0.00    -0.353 N 
HETATM   24  H   UNL     1      -3.125  -2.953 -32.997  1.00  0.00     0.166 HD
HETATM   25  C   UNL     1      -3.916  -4.672 -33.724  1.00  0.00     0.089 A 
HETATM   26  C   UNL     1      -4.928  -5.250 -34.472  1.00  0.00     0.017 A 
HETATM   27  C   UNL     1      -5.884  -4.426 -35.043  1.00  0.00     0.005 A 
HETATM   28  C   UNL     1      -5.806  -3.045 -34.858  1.00  0.00     0.048 A 
ENDBRANCH  20  22
ENDBRANCH  19  20
ENDBRANCH   4  19
TORSDOF 7
ENDMDL
MODEL 2
REMARK VINA RESULT:      -7.6      4.489      8.564
REMARK  7 active torsions:
REMARK  status: ('A' for Active; 'I' for Inactive)
REMARK    1  A    between atoms: O_2  and  C_3 
REMARK    2  A    between atoms: C_4  and  O_5 
REMARK    3  A    between atoms: C_9  and  C_10 
REMARK    4  A    between atoms: C_10  and  N_11 
REMARK    5  A    between atoms: C_14  and  C_15 
REMARK    6  A    between atoms: C_15  and  N_16 
REMARK    7  A    between atoms: N_16  and  C_17 
ROOT
HETATM    1  N   UNL     1      -8.485   0.654 -34.404  1.00  0.00    -0.067 N 
HETATM    2  H   UNL     1      -9.037   0.137 -35.104  1.00  0.00     0.280 HD
HETATM    3  C   UNL     1      -9.166   1.996 -34.205  1.00  0.00     0.241 C 
HETATM    4  C   UNL     1      -9.408   2.090 -32.699  1.00  0.00     0.031 C 
HETATM    5  C   UNL     1      -9.654   0.634 -32.319  1.00  0.00     0.035 C 
HETATM    6  C   UNL     1      -8.582  -0.108 -33.101  1.00  0.00     0.235 C 
ENDROOT
BRANCH   1   7
HETATM    7  C   UNL     1      -7.079   0.713 -34.958  1.00  0.00     0.273 C 
BRANCH   7   8
HETATM    8  C   UNL     1      -6.230  -0.451 -34.520  1.00  0.00    -0.028 A 
HETATM    9  C   UNL     1      -6.520  -1.747 -34.979  1.00  0.00     0.031 A 
HETATM   10  C   UNL     1      -5.711  -2.825 -34.612  1.00  0.00     0.047 A 
HETATM   11  C   UNL     1      -4.614  -2.615 -33.779  1.00  0.00     0.116 A 
HETATM   12 BR   UNL     1      -6.144  -4.543 -35.281  1.00  0.00    -0.048 Br
HETATM   13  C   UNL     1      -4.318  -1.336 -33.293  1.00  0.00     0.103 A 
HETATM   14  C   UNL     1      -5.127  -0.258 -33.664  1.00  0.00     0.048 A 
BRANCH  11  15
HETATM   15  O   UNL     1      -3.809  -3.665 -33.425  1.00  0.00    -0.357 OA
HETATM   16  H   UNL     1      -3.470  -4.054 -34.255  1.00  0.00     0.218 HD
ENDBRANCH  11  15
BRANCH  13  17
HETATM   17  O   UNL     1      -3.213  -1.268 -32.487  1.00  0.00    -0.353 OA
HETATM   18  C   UNL     1      -3.246  -0.359 -31.393  1.00  0.00     0.210 C 
ENDBRANCH  13  17
ENDBRANCH   7   8
ENDBRANCH   1   7
BRANCH   4  19
HETATM   19  C   UNL     1     -10.556   3.046 -32.355  1.00  0.00     0.127 C 
BRANCH  19  20
HETATM   20  N   UNL     1     -11.508   3.149 -33.460  1.00  0.00    -0.376 N 
HETATM   21  H   UNL     1     -11.368   3.903 -34.121  1.00  0.00     0.161 HD
BRANCH  20  22
HETATM   22  C   UNL     1     -12.733   2.508 -33.427  1.00  0.00     0.100 A 
HETATM   23  N   UNL     1     -13.557   2.767 -32.394  1.00  0.00    -0.353 N 
HETATM   24  H   UNL     1     -13.243   3.419 -31.684  1.00  0.00     0.166 HD
HETATM   25  C   UNL     1     -14.780   2.229 -32.258  1.00  0.00     0.089 A 
HETATM   26  C   UNL     1     -15.265   1.353 -33.213  1.00  0.00     0.017 A 
HETATM   27  C   UNL     1     -14.467   1.054 -34.306  1.00  0.00     0.005 A 
HETATM   28  C   UNL     1     -13.203   1.634 -34.417  1.00  0.00     0.048 A 
ENDBRANCH  20  22
ENDBRANCH  19  20
ENDBRANCH   4  19
TORSDOF 7
ENDMDL
MODEL 3
REMARK VINA RESULT:      -7.5      1.416      2.248
REMARK  7 active torsions:
REMARK  status: ('A' for Active; 'I' for Inactive)
REMARK    1  A    between atoms: O_2  and  C_3 
REMARK    2  A    between atoms: C_4  and  O_5 
REMARK    3  A    between atoms: C_9  and  C_10 
REMARK    4  A    between atoms: C_10  and  N_11 
REMARK    5  A    between atoms: C_14  and  C_15 
REMARK    6  A    between atoms: C_15  and  N_16 
REMARK    7  A    between atoms: N_16  and  C_17 
ROOT
HETATM    1  N   UNL     1      -8.145   0.654 -32.650  1.00  0.00    -0.067 N 
HETATM    2  H   UNL     1      -8.237   1.636 -32.952  1.00  0.00     0.280 HD
HETATM    3  C   UNL     1      -6.891   0.104 -33.304  1.00  0.00     0.241 C 
HETATM    4  C   UNL     1      -6.060  -0.450 -32.147  1.00  0.00     0.031 C 
HETATM    5  C   UNL     1      -6.414   0.501 -31.009  1.00  0.00     0.035 C 
HETATM    6  C   UNL     1      -7.919   0.662 -31.155  1.00  0.00     0.235 C 
ENDROOT
BRANCH   1   7
HETATM    7  C   UNL     1      -9.439  -0.017 -33.054  1.00  0.00     0.273 C 
BRANCH   7   8
HETATM    8  C   UNL     1     -10.439   0.945 -33.638  1.00  0.00    -0.028 A 
HETATM    9  C   UNL     1     -11.812   0.650 -33.591  1.00  0.00     0.031 A 
HETATM   10  C   UNL     1     -12.748   1.557 -34.093  1.00  0.00     0.047 A 
HETATM   11  C   UNL     1     -12.317   2.760 -34.649  1.00  0.00     0.116 A 
HETATM   12 BR   UNL     1     -14.584   1.109 -33.980  1.00  0.00    -0.048 Br
HETATM   13  C   UNL     1     -10.953   3.066 -34.725  1.00  0.00     0.103 A 
HETATM   14  C   UNL     1     -10.018   2.158 -34.220  1.00  0.00     0.048 A 
BRANCH  11  15
HETATM   15  O   UNL     1     -13.230   3.660 -35.130  1.00  0.00    -0.357 OA
HETATM   16  H   UNL     1     -12.890   4.551 -34.916  1.00  0.00     0.218 HD
ENDBRANCH  11  15
BRANCH  13  17
HETATM   17  O   UNL     1     -10.667   4.279 -35.292  1.00  0.00    -0.353 OA
HETATM   18  C   UNL     1     -10.088   5.278 -34.461  1.00  0.00     0.210 C 
ENDBRANCH  13  17
ENDBRANCH   7   8
ENDBRANCH   1   7
BRANCH   4  19
HETATM   19  C   UNL     1      -4.567  -0.519 -32.487  1.00  0.00     0.127 C 
BRANCH  19  20
HETATM   20  N   UNL     1      -4.352  -1.109 -33.808  1.00  0.00    -0.376 N 
HETATM   21  H   UNL     1      -4.302  -0.472 -34.595  1.00  0.00     0.161 HD
BRANCH  20  22
HETATM   22  C   UNL     1      -4.569  -2.452 -34.049  1.00  0.00     0.100 A 
HETATM   23  N   UNL     1      -3.729  -3.342 -33.487  1.00  0.00    -0.353 N 
HETATM   24  H   UNL     1      -2.972  -2.987 -32.913  1.00  0.00     0.166 HD
HETATM   25  C   UNL     1      -3.844  -4.673 -33.625  1.00  0.00     0.089 A 
HETATM   26  C   UNL     1      -4.875  -5.208 -34.378  1.00  0.00     0.017 A 
HETATM   27  C   UNL     1      -5.779  -4.343 -34.974  1.00  0.00     0.005 A 
HETATM   28  C   UNL     1      -5.631  -2.966 -34.807  1.00  0.00     0.048 A 
ENDBRANCH  20  22
ENDBRANCH  19  20
ENDBRANCH   4  19
TORSDOF 7
ENDMDL
MODEL 4
REMARK VINA RESULT:      -7.5      5.124      7.771
REMARK  7 active torsions:
REMARK  status: ('A' for Active; 'I' for Inactive)
REMARK    1  A    between atoms: O_2  and  C_3 
REMARK    2  A    between atoms: C_4  and  O_5 
REMARK    3  A    between atoms: C_9  and  C_10 
REMARK    4  A    between atoms: C_10  and  N_11 
REMARK    5  A    between atoms: C_14  and  C_15 
REMARK    6  A    between atoms: C_15  and  N_16 
REMARK    7  A    between atoms: N_16  and  C_17 
ROOT
HETATM    1  N   UNL     1      -7.687   1.588 -33.601  1.00  0.00    -0.067 N 
HETATM    2  H   UNL     1      -8.554   2.064 -33.894  1.00  0.00     0.280 HD
HETATM    3  C   UNL     1      -6.740   2.660 -33.093  1.00  0.00     0.241 C 
HETATM    4  C   UNL     1      -6.349   2.199 -31.690  1.00  0.00     0.031 C 
HETATM    5  C   UNL     1      -7.615   1.496 -31.214  1.00  0.00     0.035 C 
HETATM    6  C   UNL     1      -8.038   0.693 -32.434  1.00  0.00     0.235 C 
ENDROOT
BRANCH   1   7
HETATM    7  C   UNL     1      -7.214   0.823 -34.818  1.00  0.00     0.273 C 
BRANCH   7   8
HETATM    8  C   UNL     1      -6.357  -0.363 -34.465  1.00  0.00    -0.028 A 
HETATM    9  C   UNL     1      -6.741  -1.654 -34.867  1.00  0.00     0.031 A 
HETATM   10  C   UNL     1      -5.929  -2.755 -34.582  1.00  0.00     0.047 A 
HETATM   11  C   UNL     1      -4.735  -2.572 -33.887  1.00  0.00     0.116 A 
HETATM   12 BR   UNL     1      -6.493  -4.464 -35.170  1.00  0.00    -0.048 Br
HETATM   13  C   UNL     1      -4.343  -1.298 -33.458  1.00  0.00     0.103 A 
HETATM   14  C   UNL     1      -5.155  -0.198 -33.748  1.00  0.00     0.048 A 
BRANCH  11  15
HETATM   15  O   UNL     1      -3.928  -3.645 -33.614  1.00  0.00    -0.357 OA
HETATM   16  H   UNL     1      -4.428  -4.446 -33.865  1.00  0.00     0.218 HD
ENDBRANCH  11  15
BRANCH  13  17
HETATM   17  O   UNL     1      -3.149  -1.259 -32.789  1.00  0.00    -0.353 OA
HETATM   18  C   UNL     1      -3.004  -0.299 -31.748  1.00  0.00     0.210 C 
ENDBRANCH  13  17
ENDBRANCH   7   8
ENDBRANCH   1   7
BRANCH   4  19
HETATM   19  C   UNL     1      -5.888   3.364 -30.805  1.00  0.00     0.127 C 
BRANCH  19  20
HETATM   20  N   UNL     1      -4.449   3.300 -30.554  1.00  0.00    -0.376 N 
HETATM   21  H   UNL     1      -4.155   2.999 -29.632  1.00  0.00     0.161 HD
BRANCH  20  22
HETATM   22  C   UNL     1      -3.539   3.948 -31.367  1.00  0.00     0.100 A 
HETATM   23  N   UNL     1      -2.909   5.033 -30.877  1.00  0.00    -0.353 N 
HETATM   24  H   UNL     1      -3.133   5.329 -29.933  1.00  0.00     0.166 HD
HETATM   25  C   UNL     1      -1.989   5.737 -31.556  1.00  0.00     0.089 A 
HETATM   26  C   UNL     1      -1.631   5.359 -32.838  1.00  0.00     0.017 A 
HETATM   27  C   UNL     1      -2.237   4.243 -33.395  1.00  0.00     0.005 A 
HETATM   28  C   UNL     1      -3.187   3.534 -32.660  1.00  0.00     0.048 A 
ENDBRANCH  20  22
ENDBRANCH  19  20
ENDBRANCH   4  19
TORSDOF 7
ENDMDL
MODEL 5
REMARK VINA RESULT:      -7.3      5.581      7.240
REMARK  7 active torsions:
REMARK  status: ('A' for Active; 'I' for Inactive)
REMARK    1  A    between atoms: O_2  and  C_3 
REMARK    2  A    between atoms: C_4  and  O_5 
REMARK    3  A    between atoms: C_9  and  C_10 
REMARK    4  A    between atoms: C_10  and  N_11 
REMARK    5  A    between atoms: C_14  and  C_15 
REMARK    6  A    between atoms: C_15  and  N_16 
REMARK    7  A    between atoms: N_16  and  C_17 
ROOT
HETATM    1  N   UNL     1      -4.259   2.457 -31.911  1.00  0.00    -0.067 N 
HETATM    2  H   UNL     1      -3.712   2.736 -32.740  1.00  0.00     0.280 HD
HETATM    3  C   UNL     1      -5.561   1.863 -32.419  1.00  0.00     0.241 C 
HETATM    4  C   UNL     1      -5.640   0.484 -31.764  1.00  0.00     0.031 C 
HETATM    5  C   UNL     1      -4.172   0.079 -31.682  1.00  0.00     0.035 C 
HETATM    6  C   UNL     1      -3.492   1.356 -31.214  1.00  0.00     0.235 C 
ENDROOT
BRANCH   1   7
HETATM    7  C   UNL     1      -4.397   3.710 -31.076  1.00  0.00     0.273 C 
BRANCH   7   8
HETATM    8  C   UNL     1      -3.667   4.888 -31.665  1.00  0.00    -0.028 A 
HETATM    9  C   UNL     1      -2.837   4.713 -32.786  1.00  0.00     0.031 A 
HETATM   10  C   UNL     1      -2.191   5.808 -33.365  1.00  0.00     0.047 A 
HETATM   11  C   UNL     1      -2.365   7.080 -32.824  1.00  0.00     0.116 A 
HETATM   12 BR   UNL     1      -1.103   5.509 -34.886  1.00  0.00    -0.048 Br
HETATM   13  C   UNL     1      -3.170   7.275 -31.695  1.00  0.00     0.103 A 
HETATM   14  C   UNL     1      -3.818   6.178 -31.119  1.00  0.00     0.048 A 
BRANCH  11  15
HETATM   15  O   UNL     1      -1.744   8.160 -33.393  1.00  0.00    -0.357 OA
HETATM   16  H   UNL     1      -2.088   8.955 -32.940  1.00  0.00     0.218 HD
ENDBRANCH  11  15
BRANCH  13  17
HETATM   17  O   UNL     1      -3.257   8.573 -31.267  1.00  0.00    -0.353 OA
HETATM   18  C   UNL     1      -4.551   9.091 -30.983  1.00  0.00     0.210 C 
ENDBRANCH  13  17
ENDBRANCH   7   8
ENDBRANCH   1   7
BRANCH   4  19
HETATM   19  C   UNL     1      -6.530  -0.482 -32.554  1.00  0.00     0.127 C 
BRANCH  19  20
HETATM   20  N   UNL     1      -5.891  -0.888 -33.805  1.00  0.00    -0.376 N 
HETATM   21  H   UNL     1      -5.796  -0.182 -34.525  1.00  0.00     0.161 HD
BRANCH  20  22
HETATM   22  C   UNL     1      -5.750  -2.218 -34.152  1.00  0.00     0.100 A 
HETATM   23  N   UNL     1      -4.554  -2.805 -33.947  1.00  0.00    -0.353 N 
HETATM   24  H   UNL     1      -3.808  -2.243 -33.550  1.00  0.00     0.166 HD
HETATM   25  C   UNL     1      -4.295  -4.094 -34.220  1.00  0.00     0.089 A 
HETATM   26  C   UNL     1      -5.287  -4.908 -34.740  1.00  0.00     0.017 A 
HETATM   27  C   UNL     1      -6.542  -4.365 -34.963  1.00  0.00     0.005 A 
HETATM   28  C   UNL     1      -6.777  -3.022 -34.665  1.00  0.00     0.048 A 
ENDBRANCH  20  22
ENDBRANCH  19  20
ENDBRANCH   4  19
TORSDOF 7
ENDMDL
MODEL 6
REMARK VINA RESULT:      -7.3      6.319      9.109
REMARK  7 active torsions:
REMARK  status: ('A' for Active; 'I' for Inactive)
REMARK    1  A    between atoms: O_2  and  C_3 
REMARK    2  A    between atoms: C_4  and  O_5 
REMARK    3  A    between atoms: C_9  and  C_10 
REMARK    4  A    between atoms: C_10  and  N_11 
REMARK    5  A    between atoms: C_14  and  C_15 
REMARK    6  A    between atoms: C_15  and  N_16 
REMARK    7  A    between atoms: N_16  and  C_17 
ROOT
HETATM    1  N   UNL     1      -3.980   2.253 -32.147  1.00  0.00    -0.067 N 
HETATM    2  H   UNL     1      -4.623   2.207 -32.952  1.00  0.00     0.280 HD
HETATM    3  C   UNL     1      -2.854   3.196 -32.531  1.00  0.00     0.241 C 
HETATM    4  C   UNL     1      -2.821   4.237 -31.412  1.00  0.00     0.031 C 
HETATM    5  C   UNL     1      -4.291   4.337 -31.019  1.00  0.00     0.035 C 
HETATM    6  C   UNL     1      -4.738   2.884 -31.001  1.00  0.00     0.235 C 
ENDROOT
BRANCH   1   7
HETATM    7  C   UNL     1      -3.569   0.823 -31.874  1.00  0.00     0.273 C 
BRANCH   7   8
HETATM    8  C   UNL     1      -4.287  -0.168 -32.751  1.00  0.00    -0.028 A 
HETATM    9  C   UNL     1      -5.485   0.194 -33.389  1.00  0.00     0.031 A 
HETATM   10  C   UNL     1      -6.135  -0.705 -34.239  1.00  0.00     0.047 A 
HETATM   11  C   UNL     1      -5.594  -1.971 -34.449  1.00  0.00     0.116 A 
HETATM   12 BR   UNL     1      -7.735  -0.148 -35.084  1.00  0.00    -0.048 Br
HETATM   13  C   UNL     1      -4.412  -2.362 -33.808  1.00  0.00     0.103 A 
HETATM   14  C   UNL     1      -3.762  -1.459 -32.961  1.00  0.00     0.048 A 
BRANCH  11  15
HETATM   15  O   UNL     1      -6.218  -2.854 -35.291  1.00  0.00    -0.357 OA
HETATM   16  H   UNL     1      -6.615  -3.548 -34.728  1.00  0.00     0.218 HD
ENDBRANCH  11  15
BRANCH  13  17
HETATM   17  O   UNL     1      -3.989  -3.630 -34.103  1.00  0.00    -0.353 OA
HETATM   18  C   UNL     1      -3.422  -4.401 -33.050  1.00  0.00     0.210 C 
ENDBRANCH  13  17
ENDBRANCH   7   8
ENDBRANCH   1   7
BRANCH   4  19
HETATM   19  C   UNL     1      -2.185   5.556 -31.867  1.00  0.00     0.127 C 
BRANCH  19  20
HETATM   20  N   UNL     1      -0.748   5.570 -31.600  1.00  0.00    -0.376 N 
HETATM   21  H   UNL     1      -0.166   4.973 -32.175  1.00  0.00     0.161 HD
BRANCH  20  22
HETATM   22  C   UNL     1      -0.232   6.067 -30.417  1.00  0.00     0.100 A 
HETATM   23  N   UNL     1       0.039   5.194 -29.428  1.00  0.00    -0.353 N 
HETATM   24  H   UNL     1      -0.149   4.211 -29.592  1.00  0.00     0.166 HD
HETATM   25  C   UNL     1       0.562   5.546 -28.242  1.00  0.00     0.089 A 
HETATM   26  C   UNL     1       0.860   6.871 -27.978  1.00  0.00     0.017 A 
HETATM   27  C   UNL     1       0.613   7.816 -28.961  1.00  0.00     0.005 A 
HETATM   28  C   UNL     1       0.071   7.415 -30.183  1.00  0.00     0.048 A 
ENDBRANCH  20  22
ENDBRANCH  19  20
ENDBRANCH   4  19
TORSDOF 7
ENDMDL
MODEL 7
REMARK VINA RESULT:      -7.2      4.190      8.313
REMARK  7 active torsions:
REMARK  status: ('A' for Active; 'I' for Inactive)
REMARK    1  A    between atoms: O_2  and  C_3 
REMARK    2  A    between atoms: C_4  and  O_5 
REMARK    3  A    between atoms: C_9  and  C_10 
REMARK    4  A    between atoms: C_10  and  N_11 
REMARK    5  A    between atoms: C_14  and  C_15 
REMARK    6  A    between atoms: C_15  and  N_16 
REMARK    7  A    between atoms: N_16  and  C_17 
ROOT
HETATM    1  N   UNL     1      -7.716   1.620 -33.696  1.00  0.00    -0.067 N 
HETATM    2  H   UNL     1      -7.490   1.056 -32.863  1.00  0.00     0.280 HD
HETATM    3  C   UNL     1      -9.228   1.722 -33.767  1.00  0.00     0.241 C 
HETATM    4  C   UNL     1      -9.514   3.222 -33.839  1.00  0.00     0.031 C 
HETATM    5  C   UNL     1      -8.382   3.807 -33.001  1.00  0.00     0.035 C 
HETATM    6  C   UNL     1      -7.171   3.011 -33.459  1.00  0.00     0.235 C 
ENDROOT
BRANCH   1   7
HETATM    7  C   UNL     1      -7.055   0.910 -34.857  1.00  0.00     0.273 C 
BRANCH   7   8
HETATM    8  C   UNL     1      -6.127  -0.191 -34.417  1.00  0.00    -0.028 A 
HETATM    9  C   UNL     1      -5.151   0.060 -33.437  1.00  0.00     0.031 A 
HETATM   10  C   UNL     1      -4.315  -0.967 -32.992  1.00  0.00     0.047 A 
HETATM   11  C   UNL     1      -4.446  -2.247 -33.527  1.00  0.00     0.116 A 
HETATM   12 BR   UNL     1      -3.034  -0.568 -31.655  1.00  0.00    -0.048 Br
HETATM   13  C   UNL     1      -5.397  -2.515 -34.519  1.00  0.00     0.103 A 
HETATM   14  C   UNL     1      -6.234  -1.486 -34.961  1.00  0.00     0.048 A 
BRANCH  11  15
HETATM   15  O   UNL     1      -3.638  -3.261 -33.087  1.00  0.00    -0.357 OA
HETATM   16  H   UNL     1      -3.312  -3.000 -32.203  1.00  0.00     0.218 HD
ENDBRANCH  11  15
BRANCH  13  17
HETATM   17  O   UNL     1      -5.421  -3.812 -34.957  1.00  0.00    -0.353 OA
HETATM   18  C   UNL     1      -6.661  -4.508 -34.897  1.00  0.00     0.210 C 
ENDBRANCH  13  17
ENDBRANCH   7   8
ENDBRANCH   1   7
BRANCH   4  19
HETATM   19  C   UNL     1     -10.924   3.567 -33.346  1.00  0.00     0.127 C 
BRANCH  19  20
HETATM   20  N   UNL     1     -11.547   2.422 -32.683  1.00  0.00    -0.376 N 
HETATM   21  H   UNL     1     -10.944   1.822 -32.134  1.00  0.00     0.161 HD
BRANCH  20  22
HETATM   22  C   UNL     1     -12.793   1.953 -33.058  1.00  0.00     0.100 A 
HETATM   23  N   UNL     1     -13.852   2.282 -32.294  1.00  0.00    -0.353 N 
HETATM   24  H   UNL     1     -13.689   2.857 -31.474  1.00  0.00     0.166 HD
HETATM   25  C   UNL     1     -15.114   1.910 -32.561  1.00  0.00     0.089 A 
HETATM   26  C   UNL     1     -15.391   1.145 -33.681  1.00  0.00     0.017 A 
HETATM   27  C   UNL     1     -14.344   0.783 -34.514  1.00  0.00     0.005 A 
HETATM   28  C   UNL     1     -13.045   1.190 -34.207  1.00  0.00     0.048 A 
ENDBRANCH  20  22
ENDBRANCH  19  20
ENDBRANCH   4  19
TORSDOF 7
ENDMDL
MODEL 8
REMARK VINA RESULT:      -7.2      7.177      9.716
REMARK  7 active torsions:
REMARK  status: ('A' for Active; 'I' for Inactive)
REMARK    1  A    between atoms: O_2  and  C_3 
REMARK    2  A    between atoms: C_4  and  O_5 
REMARK    3  A    between atoms: C_9  and  C_10 
REMARK    4  A    between atoms: C_10  and  N_11 
REMARK    5  A    between atoms: C_14  and  C_15 
REMARK    6  A    between atoms: C_15  and  N_16 
REMARK    7  A    between atoms: N_16  and  C_17 
ROOT
HETATM    1  N   UNL     1      -2.907   4.073 -32.796  1.00  0.00    -0.067 N 
HETATM    2  H   UNL     1      -2.527   3.120 -32.899  1.00  0.00     0.280 HD
HETATM    3  C   UNL     1      -2.156   4.730 -31.651  1.00  0.00     0.241 C 
HETATM    4  C   UNL     1      -1.609   6.029 -32.241  1.00  0.00     0.031 C 
HETATM    5  C   UNL     1      -1.339   5.639 -33.690  1.00  0.00     0.035 C 
HETATM    6  C   UNL     1      -2.572   4.830 -34.061  1.00  0.00     0.235 C 
ENDROOT
BRANCH   1   7
HETATM    7  C   UNL     1      -4.394   3.895 -32.583  1.00  0.00     0.273 C 
BRANCH   7   8
HETATM    8  C   UNL     1      -4.841   2.467 -32.747  1.00  0.00    -0.028 A 
HETATM    9  C   UNL     1      -5.887   2.153 -33.631  1.00  0.00     0.031 A 
HETATM   10  C   UNL     1      -6.278   0.825 -33.821  1.00  0.00     0.047 A 
HETATM   11  C   UNL     1      -5.631  -0.193 -33.124  1.00  0.00     0.116 A 
HETATM   12 BR   UNL     1      -7.680   0.467 -35.043  1.00  0.00    -0.048 Br
HETATM   13  C   UNL     1      -4.601   0.098 -32.222  1.00  0.00     0.103 A 
HETATM   14  C   UNL     1      -4.209   1.427 -32.036  1.00  0.00     0.048 A 
BRANCH  11  15
HETATM   15  O   UNL     1      -6.001  -1.498 -33.315  1.00  0.00    -0.357 OA
HETATM   16  H   UNL     1      -6.253  -1.852 -32.439  1.00  0.00     0.218 HD
ENDBRANCH  11  15
BRANCH  13  17
HETATM   17  O   UNL     1      -4.050  -0.994 -31.606  1.00  0.00    -0.353 OA
HETATM   18  C   UNL     1      -2.678  -1.274 -31.857  1.00  0.00     0.210 C 
ENDBRANCH  13  17
ENDBRANCH   7   8
ENDBRANCH   1   7
BRANCH   4  19
HETATM   19  C   UNL     1      -0.385   6.542 -31.474  1.00  0.00     0.127 C 
BRANCH  19  20
HETATM   20  N   UNL     1      -0.187   5.795 -30.233  1.00  0.00    -0.376 N 
HETATM   21  H   UNL     1      -0.539   4.845 -30.205  1.00  0.00     0.161 HD
BRANCH  20  22
HETATM   22  C   UNL     1       0.121   6.427 -29.043  1.00  0.00     0.100 A 
HETATM   23  N   UNL     1      -0.309   5.868 -27.896  1.00  0.00    -0.353 N 
HETATM   24  H   UNL     1      -0.844   5.008 -27.955  1.00  0.00     0.166 HD
HETATM   25  C   UNL     1      -0.058   6.370 -26.676  1.00  0.00     0.089 A 
HETATM   26  C   UNL     1       0.689   7.528 -26.541  1.00  0.00     0.017 A 
HETATM   27  C   UNL     1       1.169   8.145 -27.684  1.00  0.00     0.005 A 
HETATM   28  C   UNL     1       0.891   7.594 -28.936  1.00  0.00     0.048 A 
ENDBRANCH  20  22
ENDBRANCH  19  20
ENDBRANCH   4  19
TORSDOF 7
ENDMDL
MODEL 9
REMARK VINA RESULT:      -7.1      5.706      7.273
REMARK  7 active torsions:
REMARK  status: ('A' for Active; 'I' for Inactive)
REMARK    1  A    between atoms: O_2  and  C_3 
REMARK    2  A    between atoms: C_4  and  O_5 
REMARK    3  A    between atoms: C_9  and  C_10 
REMARK    4  A    between atoms: C_10  and  N_11 
REMARK    5  A    between atoms: C_14  and  C_15 
REMARK    6  A    between atoms: C_15  and  N_16 
REMARK    7  A    between atoms: N_16  and  C_17 
ROOT
HETATM    1  N   UNL     1      -4.692   3.017 -32.485  1.00  0.00    -0.067 N 
HETATM    2  H   UNL     1      -3.985   3.117 -33.229  1.00  0.00     0.280 HD
HETATM    3  C   UNL     1      -5.585   1.852 -32.873  1.00  0.00     0.241 C 
HETATM    4  C   UNL     1      -5.552   0.917 -31.665  1.00  0.00     0.031 C 
HETATM    5  C   UNL     1      -4.138   1.126 -31.133  1.00  0.00     0.035 C 
HETATM    6  C   UNL     1      -3.960   2.634 -31.218  1.00  0.00     0.235 C 
ENDROOT
BRANCH   1   7
HETATM    7  C   UNL     1      -5.378   4.362 -32.393  1.00  0.00     0.273 C 
BRANCH   7   8
HETATM    8  C   UNL     1      -4.413   5.516 -32.466  1.00  0.00    -0.028 A 
HETATM    9  C   UNL     1      -4.577   6.625 -31.618  1.00  0.00     0.031 A 
HETATM   10  C   UNL     1      -3.661   7.680 -31.649  1.00  0.00     0.047 A 
HETATM   11  C   UNL     1      -2.583   7.634 -32.530  1.00  0.00     0.116 A 
HETATM   12 BR   UNL     1      -3.926   9.135 -30.467  1.00  0.00    -0.048 Br
HETATM   13  C   UNL     1      -2.412   6.549 -33.398  1.00  0.00     0.103 A 
HETATM   14  C   UNL     1      -3.328   5.493 -33.363  1.00  0.00     0.048 A 
BRANCH  11  15
HETATM   15  O   UNL     1      -1.674   8.659 -32.557  1.00  0.00    -0.357 OA
HETATM   16  H   UNL     1      -0.797   8.263 -32.385  1.00  0.00     0.218 HD
ENDBRANCH  11  15
BRANCH  13  17
HETATM   17  O   UNL     1      -1.312   6.629 -34.210  1.00  0.00    -0.353 OA
HETATM   18  C   UNL     1      -1.001   5.500 -35.018  1.00  0.00     0.210 C 
ENDBRANCH  13  17
ENDBRANCH   7   8
ENDBRANCH   1   7
BRANCH   4  19
HETATM   19  C   UNL     1      -5.890  -0.529 -32.043  1.00  0.00     0.127 C 
BRANCH  19  20
HETATM   20  N   UNL     1      -5.524  -0.813 -33.430  1.00  0.00    -0.376 N 
HETATM   21  H   UNL     1      -5.496  -0.027 -34.070  1.00  0.00     0.161 HD
BRANCH  20  22
HETATM   22  C   UNL     1      -5.570  -2.094 -33.948  1.00  0.00     0.100 A 
HETATM   23  N   UNL     1      -4.451  -2.842 -33.890  1.00  0.00    -0.353 N 
HETATM   24  H   UNL     1      -3.623  -2.432 -33.471  1.00  0.00     0.166 HD
HETATM   25  C   UNL     1      -4.372  -4.106 -34.336  1.00  0.00     0.089 A 
HETATM   26  C   UNL     1      -5.481  -4.719 -34.893  1.00  0.00     0.017 A 
HETATM   27  C   UNL     1      -6.665  -4.003 -34.971  1.00  0.00     0.005 A 
HETATM   28  C   UNL     1      -6.713  -2.692 -34.495  1.00  0.00     0.048 A 
ENDBRANCH  20  22
ENDBRANCH  19  20
ENDBRANCH   4  19
TORSDOF 7
ENDMDL
MODEL 10
REMARK VINA RESULT:      -7.1      7.203      9.461
REMARK  7 active torsions:
REMARK  status: ('A' for Active; 'I' for Inactive)
REMARK    1  A    between atoms: O_2  and  C_3 
REMARK    2  A    between atoms: C_4  and  O_5 
REMARK    3  A    between atoms: C_9  and  C_10 
REMARK    4  A    between atoms: C_10  and  N_11 
REMARK    5  A    between atoms: C_14  and  C_15 
REMARK    6  A    between atoms: C_15  and  N_16 
REMARK    7  A    between atoms: N_16  and  C_17 
ROOT
HETATM    1  N   UNL     1      -3.033   4.478 -33.831  1.00  0.00    -0.067 N 
HETATM    2  H   UNL     1      -2.825   3.599 -34.329  1.00  0.00     0.280 HD
HETATM    3  C   UNL     1      -2.301   4.420 -32.502  1.00  0.00     0.241 C 
HETATM    4  C   UNL     1      -1.465   5.698 -32.463  1.00  0.00     0.031 C 
HETATM    5  C   UNL     1      -1.118   5.904 -33.933  1.00  0.00     0.035 C 
HETATM    6  C   UNL     1      -2.431   5.606 -34.639  1.00  0.00     0.235 C 
ENDROOT
BRANCH   1   7
HETATM    7  C   UNL     1      -4.542   4.547 -33.742  1.00  0.00     0.273 C 
BRANCH   7   8
HETATM    8  C   UNL     1      -5.091   3.803 -32.553  1.00  0.00    -0.028 A 
HETATM    9  C   UNL     1      -5.733   4.504 -31.519  1.00  0.00     0.031 A 
HETATM   10  C   UNL     1      -6.283   3.816 -30.434  1.00  0.00     0.047 A 
HETATM   11  C   UNL     1      -6.189   2.428 -30.375  1.00  0.00     0.116 A 
HETATM   12 BR   UNL     1      -7.153   4.818 -29.083  1.00  0.00    -0.048 Br
HETATM   13  C   UNL     1      -5.536   1.710 -31.384  1.00  0.00     0.103 A 
HETATM   14  C   UNL     1      -4.989   2.400 -32.470  1.00  0.00     0.048 A 
BRANCH  11  15
HETATM   15  O   UNL     1      -6.737   1.746 -29.321  1.00  0.00    -0.357 OA
HETATM   16  H   UNL     1      -5.996   1.334 -28.834  1.00  0.00     0.218 HD
ENDBRANCH  11  15
BRANCH  13  17
HETATM   17  O   UNL     1      -5.516   0.353 -31.205  1.00  0.00    -0.353 OA
HETATM   18  C   UNL     1      -6.077  -0.459 -32.230  1.00  0.00     0.210 C 
ENDBRANCH  13  17
ENDBRANCH   7   8
ENDBRANCH   1   7
BRANCH   4  19
HETATM   19  C   UNL     1      -0.257   5.571 -31.528  1.00  0.00     0.127 C 
BRANCH  19  20
HETATM   20  N   UNL     1      -0.678   5.430 -30.135  1.00  0.00    -0.376 N 
HETATM   21  H   UNL     1      -1.543   4.931 -29.963  1.00  0.00     0.161 HD
BRANCH  20  22
HETATM   22  C   UNL     1      -0.154   6.224 -29.132  1.00  0.00     0.100 A 
HETATM   23  N   UNL     1      -0.314   5.823 -27.856  1.00  0.00    -0.353 N 
HETATM   24  H   UNL     1      -0.814   4.957 -27.687  1.00  0.00     0.166 HD
HETATM   25  C   UNL     1       0.166   6.491 -26.795  1.00  0.00     0.089 A 
HETATM   26  C   UNL     1       0.876   7.665 -26.975  1.00  0.00     0.017 A 
HETATM   27  C   UNL     1       1.083   8.125 -28.266  1.00  0.00     0.005 A 
HETATM   28  C   UNL     1       0.572   7.404 -29.346  1.00  0.00     0.048 A 
ENDBRANCH  20  22
ENDBRANCH  19  20
ENDBRANCH   4  19
TORSDOF 7
ENDMDL
