MODEL 1
REMARK VINA RESULT:      -8.8      0.000      0.000
REMARK  8 active torsions:
REMARK  status: ('A' for Active; 'I' for Inactive)
REMARK    1  A    between atoms: C_3  and  S_4 
REMARK    2  A    between atoms: S_4  and  C_5 
REMARK    3  A    between atoms: C_5  and  C_6 
REMARK       I    between atoms: C_6  and  N_7 
REMARK    4  A    between atoms: N_7  and  C_8 
REMARK    5  A    between atoms: C_8  and  C_9 
REMARK    6  A    between atoms: C_9  and  C_10 
REMARK    7  A    between atoms: C_19  and  C_20 
REMARK    8  A    between atoms: C_25  and  O_26 
ROOT
HETATM    1  C   UNL     1      -5.688   3.170 -30.510  1.00  0.00     0.160 C 
HETATM    2  N   UNL     1      -5.011   2.095 -31.186  1.00  0.00    -0.310 N 
HETATM    3  C   UNL     1      -5.377   0.781 -31.285  1.00  0.00     0.191 A 
HETATM    4  N   UNL     1      -4.496   0.126 -32.007  1.00  0.00    -0.122 NA
HETATM    5  N   UNL     1      -3.510   1.006 -32.365  1.00  0.00    -0.126 NA
HETATM    6  C   UNL     1      -3.825   2.192 -31.879  1.00  0.00     0.188 A 
ENDROOT
BRANCH   3   7
HETATM    7  S   UNL     1      -6.774   0.086 -30.543  1.00  0.00    -0.081 SA
BRANCH   7   8
HETATM    8  C   UNL     1      -8.114   0.933 -31.429  1.00  0.00     0.185 C 
BRANCH   8   9
HETATM    9  C   UNL     1      -7.964   0.826 -32.938  1.00  0.00     0.227 C 
HETATM   10  N   UNL     1      -7.944  -0.458 -33.431  1.00  0.00    -0.360 N 
HETATM   11  H   UNL     1      -8.099  -1.233 -32.786  1.00  0.00     0.162 HD
HETATM   12  O   UNL     1      -7.816   1.817 -33.649  1.00  0.00    -0.273 OA
BRANCH  10  13
HETATM   13  C   UNL     1      -7.683  -0.769 -34.822  1.00  0.00     0.127 C 
BRANCH  13  14
HETATM   14  C   UNL     1      -6.187  -0.967 -35.072  1.00  0.00     0.058 C 
BRANCH  14  15
HETATM   15  C   UNL     1      -5.752  -2.389 -34.825  1.00  0.00    -0.057 A 
HETATM   16  C   UNL     1      -6.632  -3.452 -35.060  1.00  0.00     0.007 A 
HETATM   17  C   UNL     1      -6.230  -4.767 -34.823  1.00  0.00     0.001 A 
HETATM   18  C   UNL     1      -4.948  -5.030 -34.341  1.00  0.00     0.000 A 
HETATM   19  C   UNL     1      -4.067  -3.977 -34.096  1.00  0.00     0.001 A 
HETATM   20  C   UNL     1      -4.468  -2.663 -34.336  1.00  0.00     0.007 A 
ENDBRANCH  14  15
ENDBRANCH  13  14
ENDBRANCH  10  13
ENDBRANCH   8   9
ENDBRANCH   7   8
ENDBRANCH   3   7
BRANCH   6  21
HETATM   21  C   UNL     1      -3.031   3.367 -32.062  1.00  0.00     0.125 A 
HETATM   22  O   UNL     1      -1.989   3.715 -31.243  1.00  0.00    -0.303 OA
HETATM   23  C   UNL     1      -1.469   4.893 -31.695  1.00  0.00     0.119 A 
HETATM   24  C   UNL     1      -2.164   5.313 -32.821  1.00  0.00     0.003 A 
HETATM   25  C   UNL     1      -0.400   5.588 -31.115  1.00  0.00     0.102 A 
HETATM   26  C   UNL     1      -3.164   4.334 -33.045  1.00  0.00     0.055 A 
HETATM   27  C   UNL     1      -1.776   6.508 -33.448  1.00  0.00     0.014 A 
HETATM   28  C   UNL     1      -0.705   7.228 -32.906  1.00  0.00     0.004 A 
HETATM   29  C   UNL     1      -0.032   6.777 -31.763  1.00  0.00     0.040 A 
BRANCH  25  30
HETATM   30  O   UNL     1       0.188   5.063 -30.000  1.00  0.00    -0.353 OA
HETATM   31  C   UNL     1       0.248   5.901 -28.853  1.00  0.00     0.210 C 
ENDBRANCH  25  30
ENDBRANCH   6  21
TORSDOF 8
ENDMDL
MODEL 2
REMARK VINA RESULT:      -8.6      2.861      4.325
REMARK  8 active torsions:
REMARK  status: ('A' for Active; 'I' for Inactive)
REMARK    1  A    between atoms: C_3  and  S_4 
REMARK    2  A    between atoms: S_4  and  C_5 
REMARK    3  A    between atoms: C_5  and  C_6 
REMARK       I    between atoms: C_6  and  N_7 
REMARK    4  A    between atoms: N_7  and  C_8 
REMARK    5  A    between atoms: C_8  and  C_9 
REMARK    6  A    between atoms: C_9  and  C_10 
REMARK    7  A    between atoms: C_19  and  C_20 
REMARK    8  A    between atoms: C_25  and  O_26 
ROOT
HETATM    1  C   UNL     1      -3.710   6.668 -30.772  1.00  0.00     0.160 C 
HETATM    2  N   UNL     1      -2.701   5.767 -31.265  1.00  0.00    -0.310 N 
HETATM    3  C   UNL     1      -2.802   4.830 -32.256  1.00  0.00     0.191 A 
HETATM    4  N   UNL     1      -1.646   4.227 -32.418  1.00  0.00    -0.122 NA
HETATM    5  N   UNL     1      -0.772   4.743 -31.498  1.00  0.00    -0.126 NA
HETATM    6  C   UNL     1      -1.404   5.676 -30.811  1.00  0.00     0.188 A 
ENDROOT
BRANCH   3   7
HETATM    7  S   UNL     1      -4.244   4.476 -33.139  1.00  0.00    -0.081 SA
BRANCH   7   8
HETATM    8  C   UNL     1      -5.191   3.521 -31.919  1.00  0.00     0.185 C 
BRANCH   8   9
HETATM    9  C   UNL     1      -4.825   2.046 -31.933  1.00  0.00     0.227 C 
HETATM   10  N   UNL     1      -5.633   1.253 -32.713  1.00  0.00    -0.360 N 
HETATM   11  H   UNL     1      -6.360   1.696 -33.275  1.00  0.00     0.162 HD
HETATM   12  O   UNL     1      -3.908   1.597 -31.249  1.00  0.00    -0.273 OA
BRANCH  10  13
HETATM   13  C   UNL     1      -5.524  -0.192 -32.756  1.00  0.00     0.127 C 
BRANCH  13  14
HETATM   14  C   UNL     1      -6.182  -0.758 -34.015  1.00  0.00     0.058 C 
BRANCH  14  15
HETATM   15  C   UNL     1      -5.827  -2.206 -34.241  1.00  0.00    -0.057 A 
HETATM   16  C   UNL     1      -6.795  -3.112 -34.693  1.00  0.00     0.007 A 
HETATM   17  C   UNL     1      -6.466  -4.453 -34.893  1.00  0.00     0.001 A 
HETATM   18  C   UNL     1      -5.172  -4.901 -34.638  1.00  0.00     0.000 A 
HETATM   19  C   UNL     1      -4.203  -4.009 -34.180  1.00  0.00     0.001 A 
HETATM   20  C   UNL     1      -4.530  -2.667 -33.981  1.00  0.00     0.007 A 
ENDBRANCH  14  15
ENDBRANCH  13  14
ENDBRANCH  10  13
ENDBRANCH   8   9
ENDBRANCH   7   8
ENDBRANCH   3   7
BRANCH   6  21
HETATM   21  C   UNL     1      -0.804   6.445 -29.767  1.00  0.00     0.125 A 
HETATM   22  O   UNL     1      -1.372   6.624 -28.533  1.00  0.00    -0.303 OA
HETATM   23  C   UNL     1      -0.544   7.420 -27.796  1.00  0.00     0.119 A 
HETATM   24  C   UNL     1       0.578   7.752 -28.544  1.00  0.00     0.003 A 
HETATM   25  C   UNL     1      -0.781   7.849 -26.484  1.00  0.00     0.102 A 
HETATM   26  C   UNL     1       0.400   7.129 -29.804  1.00  0.00     0.055 A 
HETATM   27  C   UNL     1       1.564   8.563 -27.959  1.00  0.00     0.014 A 
HETATM   28  C   UNL     1       1.371   9.005 -26.645  1.00  0.00     0.004 A 
HETATM   29  C   UNL     1       0.222   8.655 -25.923  1.00  0.00     0.040 A 
BRANCH  25  30
HETATM   30  O   UNL     1      -1.933   7.452 -25.868  1.00  0.00    -0.353 OA
HETATM   31  C   UNL     1      -2.432   8.298 -24.840  1.00  0.00     0.210 C 
ENDBRANCH  25  30
ENDBRANCH   6  21
TORSDOF 8
ENDMDL
MODEL 3
REMARK VINA RESULT:      -8.6      2.459      8.894
REMARK  8 active torsions:
REMARK  status: ('A' for Active; 'I' for Inactive)
REMARK    1  A    between atoms: C_3  and  S_4 
REMARK    2  A    between atoms: S_4  and  C_5 
REMARK    3  A    between atoms: C_5  and  C_6 
REMARK       I    between atoms: C_6  and  N_7 
REMARK    4  A    between atoms: N_7  and  C_8 
REMARK    5  A    between atoms: C_8  and  C_9 
REMARK    6  A    between atoms: C_9  and  C_10 
REMARK    7  A    between atoms: C_19  and  C_20 
REMARK    8  A    between atoms: C_25  and  O_26 
ROOT
HETATM    1  C   UNL     1      -3.539   2.297 -31.379  1.00  0.00     0.160 C 
HETATM    2  N   UNL     1      -4.784   2.314 -32.102  1.00  0.00    -0.310 N 
HETATM    3  C   UNL     1      -5.637   3.362 -32.314  1.00  0.00     0.191 A 
HETATM    4  N   UNL     1      -6.655   2.967 -33.043  1.00  0.00    -0.122 NA
HETATM    5  N   UNL     1      -6.500   1.630 -33.292  1.00  0.00    -0.126 NA
HETATM    6  C   UNL     1      -5.369   1.239 -32.734  1.00  0.00     0.188 A 
ENDROOT
BRANCH   3   7
HETATM    7  S   UNL     1      -5.416   4.957 -31.687  1.00  0.00    -0.081 SA
BRANCH   7   8
HETATM    8  C   UNL     1      -5.202   5.920 -33.212  1.00  0.00     0.185 C 
BRANCH   8   9
HETATM    9  C   UNL     1      -3.806   5.773 -33.794  1.00  0.00     0.227 C 
HETATM   10  N   UNL     1      -2.797   5.655 -32.867  1.00  0.00    -0.360 N 
HETATM   11  H   UNL     1      -3.045   5.601 -31.879  1.00  0.00     0.162 HD
HETATM   12  O   UNL     1      -3.598   5.815 -35.005  1.00  0.00    -0.273 OA
BRANCH  10  13
HETATM   13  C   UNL     1      -1.392   5.633 -33.220  1.00  0.00     0.127 C 
BRANCH  13  14
HETATM   14  C   UNL     1      -0.640   6.792 -32.565  1.00  0.00     0.058 C 
BRANCH  14  15
HETATM   15  C   UNL     1      -0.175   6.454 -31.172  1.00  0.00    -0.057 A 
HETATM   16  C   UNL     1      -0.250   7.407 -30.148  1.00  0.00     0.007 A 
HETATM   17  C   UNL     1       0.190   7.095 -28.861  1.00  0.00     0.001 A 
HETATM   18  C   UNL     1       0.714   5.832 -28.587  1.00  0.00     0.000 A 
HETATM   19  C   UNL     1       0.800   4.880 -29.602  1.00  0.00     0.001 A 
HETATM   20  C   UNL     1       0.360   5.190 -30.889  1.00  0.00     0.007 A 
ENDBRANCH  14  15
ENDBRANCH  13  14
ENDBRANCH  10  13
ENDBRANCH   8   9
ENDBRANCH   7   8
ENDBRANCH   3   7
BRANCH   6  21
HETATM   21  C   UNL     1      -4.868  -0.098 -32.795  1.00  0.00     0.125 A 
HETATM   22  O   UNL     1      -5.220  -0.998 -33.767  1.00  0.00    -0.303 OA
HETATM   23  C   UNL     1      -4.575  -2.172 -33.513  1.00  0.00     0.119 A 
HETATM   24  C   UNL     1      -3.785  -2.039 -32.378  1.00  0.00     0.003 A 
HETATM   25  C   UNL     1      -4.687  -3.345 -34.270  1.00  0.00     0.102 A 
HETATM   26  C   UNL     1      -3.983  -0.711 -31.923  1.00  0.00     0.055 A 
HETATM   27  C   UNL     1      -3.027  -3.140 -31.949  1.00  0.00     0.014 A 
HETATM   28  C   UNL     1      -3.103  -4.329 -32.685  1.00  0.00     0.004 A 
HETATM   29  C   UNL     1      -3.916  -4.429 -33.821  1.00  0.00     0.040 A 
BRANCH  25  30
HETATM   30  O   UNL     1      -5.509  -3.338 -35.361  1.00  0.00    -0.353 OA
HETATM   31  C   UNL     1      -6.340  -4.478 -35.542  1.00  0.00     0.210 C 
ENDBRANCH  25  30
ENDBRANCH   6  21
TORSDOF 8
ENDMDL
MODEL 4
REMARK VINA RESULT:      -8.5      3.583      8.125
REMARK  8 active torsions:
REMARK  status: ('A' for Active; 'I' for Inactive)
REMARK    1  A    between atoms: C_3  and  S_4 
REMARK    2  A    between atoms: S_4  and  C_5 
REMARK    3  A    between atoms: C_5  and  C_6 
REMARK       I    between atoms: C_6  and  N_7 
REMARK    4  A    between atoms: N_7  and  C_8 
REMARK    5  A    between atoms: C_8  and  C_9 
REMARK    6  A    between atoms: C_9  and  C_10 
REMARK    7  A    between atoms: C_19  and  C_20 
REMARK    8  A    between atoms: C_25  and  O_26 
ROOT
HETATM    1  C   UNL     1      -8.802   3.048 -30.773  1.00  0.00     0.160 C 
HETATM    2  N   UNL     1      -8.157   2.725 -32.019  1.00  0.00    -0.310 N 
HETATM    3  C   UNL     1      -6.851   2.908 -32.379  1.00  0.00     0.191 A 
HETATM    4  N   UNL     1      -6.658   2.460 -33.599  1.00  0.00    -0.122 NA
HETATM    5  N   UNL     1      -7.859   2.005 -34.073  1.00  0.00    -0.126 NA
HETATM    6  C   UNL     1      -8.759   2.156 -33.119  1.00  0.00     0.188 A 
ENDROOT
BRANCH   3   7
HETATM    7  S   UNL     1      -5.646   3.646 -31.385  1.00  0.00    -0.081 SA
BRANCH   7   8
HETATM    8  C   UNL     1      -5.137   2.253 -30.337  1.00  0.00     0.185 C 
BRANCH   8   9
HETATM    9  C   UNL     1      -4.122   1.356 -31.026  1.00  0.00     0.227 C 
HETATM   10  N   UNL     1      -4.579   0.100 -31.349  1.00  0.00    -0.360 N 
HETATM   11  H   UNL     1      -5.560  -0.123 -31.179  1.00  0.00     0.162 HD
HETATM   12  O   UNL     1      -2.963   1.716 -31.224  1.00  0.00    -0.273 OA
BRANCH  10  13
HETATM   13  C   UNL     1      -3.728  -0.939 -31.893  1.00  0.00     0.127 C 
BRANCH  13  14
HETATM   14  C   UNL     1      -3.800  -0.968 -33.420  1.00  0.00     0.058 C 
BRANCH  14  15
HETATM   15  C   UNL     1      -4.787  -1.990 -33.925  1.00  0.00    -0.057 A 
HETATM   16  C   UNL     1      -6.143  -1.663 -34.057  1.00  0.00     0.007 A 
HETATM   17  C   UNL     1      -7.056  -2.613 -34.515  1.00  0.00     0.001 A 
HETATM   18  C   UNL     1      -6.625  -3.898 -34.839  1.00  0.00     0.000 A 
HETATM   19  C   UNL     1      -5.279  -4.236 -34.703  1.00  0.00     0.001 A 
HETATM   20  C   UNL     1      -4.365  -3.286 -34.246  1.00  0.00     0.007 A 
ENDBRANCH  14  15
ENDBRANCH  13  14
ENDBRANCH  10  13
ENDBRANCH   8   9
ENDBRANCH   7   8
ENDBRANCH   3   7
BRANCH   6  21
HETATM   21  C   UNL     1     -10.132   1.778 -33.248  1.00  0.00     0.125 A 
HETATM   22  O   UNL     1     -11.172   2.670 -33.205  1.00  0.00    -0.303 OA
HETATM   23  C   UNL     1     -12.336   1.972 -33.342  1.00  0.00     0.119 A 
HETATM   24  C   UNL     1     -12.058   0.619 -33.488  1.00  0.00     0.003 A 
HETATM   25  C   UNL     1     -13.623   2.522 -33.331  1.00  0.00     0.102 A 
HETATM   26  C   UNL     1     -10.647   0.504 -33.422  1.00  0.00     0.055 A 
HETATM   27  C   UNL     1     -13.127  -0.276 -33.654  1.00  0.00     0.014 A 
HETATM   28  C   UNL     1     -14.430   0.235 -33.659  1.00  0.00     0.004 A 
HETATM   29  C   UNL     1     -14.673   1.606 -33.500  1.00  0.00     0.040 A 
BRANCH  25  30
HETATM   30  O   UNL     1     -13.751   3.872 -33.169  1.00  0.00    -0.353 OA
HETATM   31  C   UNL     1     -14.581   4.312 -32.101  1.00  0.00     0.210 C 
ENDBRANCH  25  30
ENDBRANCH   6  21
TORSDOF 8
ENDMDL
MODEL 5
REMARK VINA RESULT:      -8.5      2.660      3.200
REMARK  8 active torsions:
REMARK  status: ('A' for Active; 'I' for Inactive)
REMARK    1  A    between atoms: C_3  and  S_4 
REMARK    2  A    between atoms: S_4  and  C_5 
REMARK    3  A    between atoms: C_5  and  C_6 
REMARK       I    between atoms: C_6  and  N_7 
REMARK    4  A    between atoms: N_7  and  C_8 
REMARK    5  A    between atoms: C_8  and  C_9 
REMARK    6  A    between atoms: C_9  and  C_10 
REMARK    7  A    between atoms: C_19  and  C_20 
REMARK    8  A    between atoms: C_25  and  O_26 
ROOT
HETATM    1  C   UNL     1      -6.873   3.295 -31.534  1.00  0.00     0.160 C 
HETATM    2  N   UNL     1      -7.558   4.021 -32.570  1.00  0.00    -0.310 N 
HETATM    3  C   UNL     1      -8.894   4.039 -32.863  1.00  0.00     0.191 A 
HETATM    4  N   UNL     1      -9.118   4.847 -33.873  1.00  0.00    -0.122 NA
HETATM    5  N   UNL     1      -7.913   5.348 -34.285  1.00  0.00    -0.126 NA
HETATM    6  C   UNL     1      -6.975   4.858 -33.495  1.00  0.00     0.188 A 
ENDROOT
BRANCH   3   7
HETATM    7  S   UNL     1     -10.098   3.111 -32.040  1.00  0.00    -0.081 SA
BRANCH   7   8
HETATM    8  C   UNL     1     -10.477   1.833 -33.272  1.00  0.00     0.185 C 
BRANCH   8   9
HETATM    9  C   UNL     1      -9.728   0.538 -33.007  1.00  0.00     0.227 C 
HETATM   10  N   UNL     1      -8.376   0.585 -33.254  1.00  0.00    -0.360 N 
HETATM   11  H   UNL     1      -7.958   1.477 -33.520  1.00  0.00     0.162 HD
HETATM   12  O   UNL     1     -10.307  -0.488 -32.653  1.00  0.00    -0.273 OA
BRANCH  10  13
HETATM   13  C   UNL     1      -7.515  -0.578 -33.183  1.00  0.00     0.127 C 
BRANCH  13  14
HETATM   14  C   UNL     1      -7.168  -1.095 -34.580  1.00  0.00     0.058 C 
BRANCH  14  15
HETATM   15  C   UNL     1      -6.307  -2.331 -34.533  1.00  0.00    -0.057 A 
HETATM   16  C   UNL     1      -6.840  -3.581 -34.874  1.00  0.00     0.007 A 
HETATM   17  C   UNL     1      -6.044  -4.725 -34.821  1.00  0.00     0.001 A 
HETATM   18  C   UNL     1      -4.712  -4.633 -34.420  1.00  0.00     0.000 A 
HETATM   19  C   UNL     1      -4.175  -3.395 -34.070  1.00  0.00     0.001 A 
HETATM   20  C   UNL     1      -4.969  -2.249 -34.124  1.00  0.00     0.007 A 
ENDBRANCH  14  15
ENDBRANCH  13  14
ENDBRANCH  10  13
ENDBRANCH   8   9
ENDBRANCH   7   8
ENDBRANCH   3   7
BRANCH   6  21
HETATM   21  C   UNL     1      -5.585   5.169 -33.616  1.00  0.00     0.125 A 
HETATM   22  O   UNL     1      -4.889   5.906 -32.693  1.00  0.00    -0.303 OA
HETATM   23  C   UNL     1      -3.602   6.024 -33.128  1.00  0.00     0.119 A 
HETATM   24  C   UNL     1      -3.449   5.352 -34.333  1.00  0.00     0.003 A 
HETATM   25  C   UNL     1      -2.580   6.721 -32.471  1.00  0.00     0.102 A 
HETATM   26  C   UNL     1      -4.723   4.813 -34.640  1.00  0.00     0.055 A 
HETATM   27  C   UNL     1      -2.186   5.345 -34.947  1.00  0.00     0.014 A 
HETATM   28  C   UNL     1      -1.135   6.021 -34.318  1.00  0.00     0.004 A 
HETATM   29  C   UNL     1      -1.328   6.696 -33.105  1.00  0.00     0.040 A 
BRANCH  25  30
HETATM   30  O   UNL     1      -2.873   7.346 -31.292  1.00  0.00    -0.353 OA
HETATM   31  C   UNL     1      -2.888   8.768 -31.310  1.00  0.00     0.210 C 
ENDBRANCH  25  30
ENDBRANCH   6  21
TORSDOF 8
ENDMDL
MODEL 6
REMARK VINA RESULT:      -8.5      2.536      8.787
REMARK  8 active torsions:
REMARK  status: ('A' for Active; 'I' for Inactive)
REMARK    1  A    between atoms: C_3  and  S_4 
REMARK    2  A    between atoms: S_4  and  C_5 
REMARK    3  A    between atoms: C_5  and  C_6 
REMARK       I    between atoms: C_6  and  N_7 
REMARK    4  A    between atoms: N_7  and  C_8 
REMARK    5  A    between atoms: C_8  and  C_9 
REMARK    6  A    between atoms: C_9  and  C_10 
REMARK    7  A    between atoms: C_19  and  C_20 
REMARK    8  A    between atoms: C_25  and  O_26 
ROOT
HETATM    1  C   UNL     1      -5.846   1.772 -30.362  1.00  0.00     0.160 C 
HETATM    2  N   UNL     1      -4.734   2.394 -31.033  1.00  0.00    -0.310 N 
HETATM    3  C   UNL     1      -4.382   3.715 -31.061  1.00  0.00     0.191 A 
HETATM    4  N   UNL     1      -3.288   3.870 -31.770  1.00  0.00    -0.122 NA
HETATM    5  N   UNL     1      -2.924   2.641 -32.252  1.00  0.00    -0.126 NA
HETATM    6  C   UNL     1      -3.789   1.752 -31.800  1.00  0.00     0.188 A 
ENDROOT
BRANCH   3   7
HETATM    7  S   UNL     1      -5.268   4.990 -30.299  1.00  0.00    -0.081 SA
BRANCH   7   8
HETATM    8  C   UNL     1      -5.175   6.297 -31.556  1.00  0.00     0.185 C 
BRANCH   8   9
HETATM    9  C   UNL     1      -3.952   7.182 -31.377  1.00  0.00     0.227 C 
HETATM   10  N   UNL     1      -3.114   7.246 -32.465  1.00  0.00    -0.360 N 
HETATM   11  H   UNL     1      -3.391   6.770 -33.324  1.00  0.00     0.162 HD
HETATM   12  O   UNL     1      -3.710   7.750 -30.313  1.00  0.00    -0.273 OA
BRANCH  10  13
HETATM   13  C   UNL     1      -1.838   7.932 -32.445  1.00  0.00     0.127 C 
BRANCH  13  14
HETATM   14  C   UNL     1      -0.677   6.942 -32.548  1.00  0.00     0.058 C 
BRANCH  14  15
HETATM   15  C   UNL     1      -0.174   6.512 -31.194  1.00  0.00    -0.057 A 
HETATM   16  C   UNL     1       0.334   5.220 -31.002  1.00  0.00     0.007 A 
HETATM   17  C   UNL     1       0.791   4.822 -29.745  1.00  0.00     0.001 A 
HETATM   18  C   UNL     1       0.739   5.706 -28.669  1.00  0.00     0.000 A 
HETATM   19  C   UNL     1       0.227   6.991 -28.848  1.00  0.00     0.001 A 
HETATM   20  C   UNL     1      -0.228   7.391 -30.104  1.00  0.00     0.007 A 
ENDBRANCH  14  15
ENDBRANCH  13  14
ENDBRANCH  10  13
ENDBRANCH   8   9
ENDBRANCH   7   8
ENDBRANCH   3   7
BRANCH   6  21
HETATM   21  C   UNL     1      -3.722   0.354 -32.089  1.00  0.00     0.125 A 
HETATM   22  O   UNL     1      -4.395  -0.241 -33.123  1.00  0.00    -0.303 OA
HETATM   23  C   UNL     1      -4.120  -1.578 -33.096  1.00  0.00     0.119 A 
HETATM   24  C   UNL     1      -3.253  -1.858 -32.048  1.00  0.00     0.003 A 
HETATM   25  C   UNL     1      -4.634  -2.534 -33.981  1.00  0.00     0.102 A 
HETATM   26  C   UNL     1      -3.008  -0.618 -31.407  1.00  0.00     0.055 A 
HETATM   27  C   UNL     1      -2.837  -3.185 -31.852  1.00  0.00     0.014 A 
HETATM   28  C   UNL     1      -3.319  -4.170 -32.722  1.00  0.00     0.004 A 
HETATM   29  C   UNL     1      -4.200  -3.851 -33.764  1.00  0.00     0.040 A 
BRANCH  25  30
HETATM   30  O   UNL     1      -5.487  -2.119 -34.963  1.00  0.00    -0.353 OA
HETATM   31  C   UNL     1      -6.876  -2.308 -34.725  1.00  0.00     0.210 C 
ENDBRANCH  25  30
ENDBRANCH   6  21
TORSDOF 8
ENDMDL
MODEL 7
REMARK VINA RESULT:      -8.3      2.331      8.858
REMARK  8 active torsions:
REMARK  status: ('A' for Active; 'I' for Inactive)
REMARK    1  A    between atoms: C_3  and  S_4 
REMARK    2  A    between atoms: S_4  and  C_5 
REMARK    3  A    between atoms: C_5  and  C_6 
REMARK       I    between atoms: C_6  and  N_7 
REMARK    4  A    between atoms: N_7  and  C_8 
REMARK    5  A    between atoms: C_8  and  C_9 
REMARK    6  A    between atoms: C_9  and  C_10 
REMARK    7  A    between atoms: C_19  and  C_20 
REMARK    8  A    between atoms: C_25  and  O_26 
ROOT
HETATM    1  C   UNL     1      -6.179   0.856 -31.107  1.00  0.00     0.160 C 
HETATM    2  N   UNL     1      -6.295   1.539 -32.369  1.00  0.00    -0.310 N 
HETATM    3  C   UNL     1      -6.455   2.876 -32.607  1.00  0.00     0.191 A 
HETATM    4  N   UNL     1      -6.497   3.096 -33.901  1.00  0.00    -0.122 NA
HETATM    5  N   UNL     1      -6.400   1.886 -34.535  1.00  0.00    -0.126 NA
HETATM    6  C   UNL     1      -6.269   0.951 -33.614  1.00  0.00     0.188 A 
ENDROOT
BRANCH   3   7
HETATM    7  S   UNL     1      -6.609   4.085 -31.382  1.00  0.00    -0.081 SA
BRANCH   7   8
HETATM    8  C   UNL     1      -5.470   5.362 -31.989  1.00  0.00     0.185 C 
BRANCH   8   9
HETATM    9  C   UNL     1      -4.019   4.912 -31.935  1.00  0.00     0.227 C 
HETATM   10  N   UNL     1      -3.183   5.534 -32.833  1.00  0.00    -0.360 N 
HETATM   11  H   UNL     1      -3.557   6.286 -33.410  1.00  0.00     0.162 HD
HETATM   12  O   UNL     1      -3.643   4.017 -31.181  1.00  0.00    -0.273 OA
BRANCH  10  13
HETATM   13  C   UNL     1      -1.798   5.153 -33.022  1.00  0.00     0.127 C 
BRANCH  13  14
HETATM   14  C   UNL     1      -0.856   6.313 -32.694  1.00  0.00     0.058 C 
BRANCH  14  15
HETATM   15  C   UNL     1      -0.352   6.254 -31.275  1.00  0.00    -0.057 A 
HETATM   16  C   UNL     1      -0.499   7.357 -30.423  1.00  0.00     0.007 A 
HETATM   17  C   UNL     1      -0.025   7.303 -29.112  1.00  0.00     0.001 A 
HETATM   18  C   UNL     1       0.607   6.153 -28.643  1.00  0.00     0.000 A 
HETATM   19  C   UNL     1       0.765   5.053 -29.486  1.00  0.00     0.001 A 
HETATM   20  C   UNL     1       0.289   5.104 -30.796  1.00  0.00     0.007 A 
ENDBRANCH  14  15
ENDBRANCH  13  14
ENDBRANCH  10  13
ENDBRANCH   8   9
ENDBRANCH   7   8
ENDBRANCH   3   7
BRANCH   6  21
HETATM   21  C   UNL     1      -6.128  -0.442 -33.903  1.00  0.00     0.125 A 
HETATM   22  O   UNL     1      -5.029  -1.183 -33.553  1.00  0.00    -0.303 OA
HETATM   23  C   UNL     1      -5.219  -2.459 -33.995  1.00  0.00     0.119 A 
HETATM   24  C   UNL     1      -6.453  -2.560 -34.625  1.00  0.00     0.003 A 
HETATM   25  C   UNL     1      -4.312  -3.517 -33.849  1.00  0.00     0.102 A 
HETATM   26  C   UNL     1      -7.024  -1.264 -34.565  1.00  0.00     0.055 A 
HETATM   27  C   UNL     1      -6.846  -3.803 -35.146  1.00  0.00     0.014 A 
HETATM   28  C   UNL     1      -5.972  -4.889 -35.011  1.00  0.00     0.004 A 
HETATM   29  C   UNL     1      -4.731  -4.748 -34.376  1.00  0.00     0.040 A 
BRANCH  25  30
HETATM   30  O   UNL     1      -3.128  -3.274 -33.214  1.00  0.00    -0.353 OA
HETATM   31  C   UNL     1      -3.078  -3.559 -31.822  1.00  0.00     0.210 C 
ENDBRANCH  25  30
ENDBRANCH   6  21
TORSDOF 8
ENDMDL
MODEL 8
REMARK VINA RESULT:      -8.2      2.033      2.549
REMARK  8 active torsions:
REMARK  status: ('A' for Active; 'I' for Inactive)
REMARK    1  A    between atoms: C_3  and  S_4 
REMARK    2  A    between atoms: S_4  and  C_5 
REMARK    3  A    between atoms: C_5  and  C_6 
REMARK       I    between atoms: C_6  and  N_7 
REMARK    4  A    between atoms: N_7  and  C_8 
REMARK    5  A    between atoms: C_8  and  C_9 
REMARK    6  A    between atoms: C_9  and  C_10 
REMARK    7  A    between atoms: C_19  and  C_20 
REMARK    8  A    between atoms: C_25  and  O_26 
ROOT
HETATM    1  C   UNL     1      -5.598   5.605 -33.421  1.00  0.00     0.160 C 
HETATM    2  N   UNL     1      -5.727   4.529 -32.473  1.00  0.00    -0.310 N 
HETATM    3  C   UNL     1      -6.777   3.671 -32.290  1.00  0.00     0.191 A 
HETATM    4  N   UNL     1      -6.491   2.816 -31.336  1.00  0.00    -0.122 NA
HETATM    5  N   UNL     1      -5.250   3.128 -30.850  1.00  0.00    -0.126 NA
HETATM    6  C   UNL     1      -4.787   4.153 -31.541  1.00  0.00     0.188 A 
ENDROOT
BRANCH   3   7
HETATM    7  S   UNL     1      -8.265   3.730 -33.167  1.00  0.00    -0.081 SA
BRANCH   7   8
HETATM    8  C   UNL     1      -9.290   2.569 -32.220  1.00  0.00     0.185 C 
BRANCH   8   9
HETATM    9  C   UNL     1      -9.259   1.166 -32.801  1.00  0.00     0.227 C 
HETATM   10  N   UNL     1      -8.002   0.663 -33.041  1.00  0.00    -0.360 N 
HETATM   11  H   UNL     1      -7.192   1.213 -32.756  1.00  0.00     0.162 HD
HETATM   12  O   UNL     1     -10.288   0.556 -33.086  1.00  0.00    -0.273 OA
BRANCH  10  13
HETATM   13  C   UNL     1      -7.767  -0.602 -33.708  1.00  0.00     0.127 C 
BRANCH  13  14
HETATM   14  C   UNL     1      -6.296  -0.755 -34.100  1.00  0.00     0.058 C 
BRANCH  14  15
HETATM   15  C   UNL     1      -5.900  -2.199 -34.274  1.00  0.00    -0.057 A 
HETATM   16  C   UNL     1      -4.586  -2.611 -34.018  1.00  0.00     0.007 A 
HETATM   17  C   UNL     1      -4.220  -3.947 -34.188  1.00  0.00     0.001 A 
HETATM   18  C   UNL     1      -5.160  -4.880 -34.621  1.00  0.00     0.000 A 
HETATM   19  C   UNL     1      -6.469  -4.478 -34.886  1.00  0.00     0.001 A 
HETATM   20  C   UNL     1      -6.837  -3.144 -34.715  1.00  0.00     0.007 A 
ENDBRANCH  14  15
ENDBRANCH  13  14
ENDBRANCH  10  13
ENDBRANCH   8   9
ENDBRANCH   7   8
ENDBRANCH   3   7
BRANCH   6  21
HETATM   21  C   UNL     1      -3.507   4.751 -31.323  1.00  0.00     0.125 A 
HETATM   22  O   UNL     1      -3.304   5.834 -30.509  1.00  0.00    -0.303 OA
HETATM   23  C   UNL     1      -1.977   6.150 -30.545  1.00  0.00     0.119 A 
HETATM   24  C   UNL     1      -1.305   5.262 -31.375  1.00  0.00     0.003 A 
HETATM   25  C   UNL     1      -1.372   7.211 -29.859  1.00  0.00     0.102 A 
HETATM   26  C   UNL     1      -2.292   4.374 -31.871  1.00  0.00     0.055 A 
HETATM   27  C   UNL     1       0.081   5.410 -31.541  1.00  0.00     0.014 A 
HETATM   28  C   UNL     1       0.727   6.452 -30.864  1.00  0.00     0.004 A 
HETATM   29  C   UNL     1       0.014   7.334 -30.041  1.00  0.00     0.040 A 
BRANCH  25  30
HETATM   30  O   UNL     1      -2.157   8.014 -29.082  1.00  0.00    -0.353 OA
HETATM   31  C   UNL     1      -1.520   9.124 -28.462  1.00  0.00     0.210 C 
ENDBRANCH  25  30
ENDBRANCH   6  21
TORSDOF 8
ENDMDL
MODEL 9
REMARK VINA RESULT:      -8.2      3.650      5.636
REMARK  8 active torsions:
REMARK  status: ('A' for Active; 'I' for Inactive)
REMARK    1  A    between atoms: C_3  and  S_4 
REMARK    2  A    between atoms: S_4  and  C_5 
REMARK    3  A    between atoms: C_5  and  C_6 
REMARK       I    between atoms: C_6  and  N_7 
REMARK    4  A    between atoms: N_7  and  C_8 
REMARK    5  A    between atoms: C_8  and  C_9 
REMARK    6  A    between atoms: C_9  and  C_10 
REMARK    7  A    between atoms: C_19  and  C_20 
REMARK    8  A    between atoms: C_25  and  O_26 
ROOT
HETATM    1  C   UNL     1      -1.433   4.808 -31.762  1.00  0.00     0.160 C 
HETATM    2  N   UNL     1      -1.501   6.071 -32.450  1.00  0.00    -0.310 N 
HETATM    3  C   UNL     1      -1.832   6.319 -33.753  1.00  0.00     0.191 A 
HETATM    4  N   UNL     1      -1.795   7.611 -33.984  1.00  0.00    -0.122 NA
HETATM    5  N   UNL     1      -1.399   8.232 -32.830  1.00  0.00    -0.126 NA
HETATM    6  C   UNL     1      -1.231   7.306 -31.904  1.00  0.00     0.188 A 
ENDROOT
BRANCH   3   7
HETATM    7  S   UNL     1      -2.212   5.106 -34.924  1.00  0.00    -0.081 SA
BRANCH   7   8
HETATM    8  C   UNL     1      -4.022   5.225 -34.996  1.00  0.00     0.185 C 
BRANCH   8   9
HETATM    9  C   UNL     1      -4.674   4.905 -33.661  1.00  0.00     0.227 C 
HETATM   10  N   UNL     1      -4.713   3.569 -33.337  1.00  0.00    -0.360 N 
HETATM   11  H   UNL     1      -4.253   2.902 -33.956  1.00  0.00     0.162 HD
HETATM   12  O   UNL     1      -5.177   5.778 -32.957  1.00  0.00    -0.273 OA
BRANCH  10  13
HETATM   13  C   UNL     1      -5.403   3.055 -32.171  1.00  0.00     0.127 C 
BRANCH  13  14
HETATM   14  C   UNL     1      -6.783   2.509 -32.542  1.00  0.00     0.058 C 
BRANCH  14  15
HETATM   15  C   UNL     1      -6.695   1.222 -33.322  1.00  0.00    -0.057 A 
HETATM   16  C   UNL     1      -7.227   1.136 -34.615  1.00  0.00     0.007 A 
HETATM   17  C   UNL     1      -7.153  -0.059 -35.330  1.00  0.00     0.001 A 
HETATM   18  C   UNL     1      -6.554  -1.180 -34.759  1.00  0.00     0.000 A 
HETATM   19  C   UNL     1      -6.029  -1.107 -33.469  1.00  0.00     0.001 A 
HETATM   20  C   UNL     1      -6.101   0.088 -32.753  1.00  0.00     0.007 A 
ENDBRANCH  14  15
ENDBRANCH  13  14
ENDBRANCH  10  13
ENDBRANCH   8   9
ENDBRANCH   7   8
ENDBRANCH   3   7
BRANCH   6  21
HETATM   21  C   UNL     1      -0.829   7.582 -30.561  1.00  0.00     0.125 A 
HETATM   22  O   UNL     1      -1.654   8.144 -29.622  1.00  0.00    -0.303 OA
HETATM   23  C   UNL     1      -0.947   8.281 -28.463  1.00  0.00     0.119 A 
HETATM   24  C   UNL     1       0.342   7.795 -28.638  1.00  0.00     0.003 A 
HETATM   25  C   UNL     1      -1.433   8.834 -27.271  1.00  0.00     0.102 A 
HETATM   26  C   UNL     1       0.409   7.355 -29.984  1.00  0.00     0.055 A 
HETATM   27  C   UNL     1       1.233   7.836 -27.554  1.00  0.00     0.014 A 
HETATM   28  C   UNL     1       0.783   8.371 -26.341  1.00  0.00     0.004 A 
HETATM   29  C   UNL     1      -0.523   8.860 -26.203  1.00  0.00     0.040 A 
BRANCH  25  30
HETATM   30  O   UNL     1      -2.723   9.283 -27.242  1.00  0.00    -0.353 OA
HETATM   31  C   UNL     1      -3.145   9.936 -26.052  1.00  0.00     0.210 C 
ENDBRANCH  25  30
ENDBRANCH   6  21
TORSDOF 8
ENDMDL
MODEL 10
REMARK VINA RESULT:      -7.9      2.131      3.052
REMARK  8 active torsions:
REMARK  status: ('A' for Active; 'I' for Inactive)
REMARK    1  A    between atoms: C_3  and  S_4 
REMARK    2  A    between atoms: S_4  and  C_5 
REMARK    3  A    between atoms: C_5  and  C_6 
REMARK       I    between atoms: C_6  and  N_7 
REMARK    4  A    between atoms: N_7  and  C_8 
REMARK    5  A    between atoms: C_8  and  C_9 
REMARK    6  A    between atoms: C_9  and  C_10 
REMARK    7  A    between atoms: C_19  and  C_20 
REMARK    8  A    between atoms: C_25  and  O_26 
ROOT
HETATM    1  C   UNL     1      -5.615   3.066 -29.994  1.00  0.00     0.160 C 
HETATM    2  N   UNL     1      -6.318   4.129 -30.666  1.00  0.00    -0.310 N 
HETATM    3  C   UNL     1      -7.637   4.191 -31.022  1.00  0.00     0.191 A 
HETATM    4  N   UNL     1      -7.888   5.344 -31.599  1.00  0.00    -0.122 NA
HETATM    5  N   UNL     1      -6.715   6.046 -31.663  1.00  0.00    -0.126 NA
HETATM    6  C   UNL     1      -5.772   5.319 -31.092  1.00  0.00     0.188 A 
ENDROOT
BRANCH   3   7
HETATM    7  S   UNL     1      -8.788   2.926 -30.773  1.00  0.00    -0.081 SA
BRANCH   7   8
HETATM    8  C   UNL     1      -8.987   2.280 -32.459  1.00  0.00     0.185 C 
BRANCH   8   9
HETATM    9  C   UNL     1      -8.439   0.870 -32.603  1.00  0.00     0.227 C 
HETATM   10  N   UNL     1      -7.108   0.727 -32.289  1.00  0.00    -0.360 N 
HETATM   11  H   UNL     1      -6.603   1.533 -31.920  1.00  0.00     0.162 HD
HETATM   12  O   UNL     1      -9.129  -0.056 -33.025  1.00  0.00    -0.273 OA
BRANCH  10  13
HETATM   13  C   UNL     1      -6.375  -0.507 -32.484  1.00  0.00     0.127 C 
BRANCH  13  14
HETATM   14  C   UNL     1      -6.167  -0.798 -33.971  1.00  0.00     0.058 C 
BRANCH  14  15
HETATM   15  C   UNL     1      -5.850  -2.248 -34.230  1.00  0.00    -0.057 A 
HETATM   16  C   UNL     1      -4.564  -2.748 -33.987  1.00  0.00     0.007 A 
HETATM   17  C   UNL     1      -4.269  -4.089 -34.235  1.00  0.00     0.001 A 
HETATM   18  C   UNL     1      -5.254  -4.940 -34.735  1.00  0.00     0.000 A 
HETATM   19  C   UNL     1      -6.534  -4.450 -34.987  1.00  0.00     0.001 A 
HETATM   20  C   UNL     1      -6.831  -3.110 -34.738  1.00  0.00     0.007 A 
ENDBRANCH  14  15
ENDBRANCH  13  14
ENDBRANCH  10  13
ENDBRANCH   8   9
ENDBRANCH   7   8
ENDBRANCH   3   7
BRANCH   6  21
HETATM   21  C   UNL     1      -4.411   5.735 -30.961  1.00  0.00     0.125 A 
HETATM   22  O   UNL     1      -3.432   5.427 -31.869  1.00  0.00    -0.303 OA
HETATM   23  C   UNL     1      -2.258   5.964 -31.427  1.00  0.00     0.119 A 
HETATM   24  C   UNL     1      -2.471   6.638 -30.231  1.00  0.00     0.003 A 
HETATM   25  C   UNL     1      -1.018   5.855 -32.068  1.00  0.00     0.102 A 
HETATM   26  C   UNL     1      -3.849   6.482 -29.939  1.00  0.00     0.055 A 
HETATM   27  C   UNL     1      -1.383   7.275 -29.612  1.00  0.00     0.014 A 
HETATM   28  C   UNL     1      -0.127   7.198 -30.226  1.00  0.00     0.004 A 
HETATM   29  C   UNL     1       0.051   6.502 -31.429  1.00  0.00     0.040 A 
BRANCH  25  30
HETATM   30  O   UNL     1      -0.951   5.153 -33.238  1.00  0.00    -0.353 OA
HETATM   31  C   UNL     1      -1.278   5.860 -34.427  1.00  0.00     0.210 C 
ENDBRANCH  25  30
ENDBRANCH   6  21
TORSDOF 8
ENDMDL
