MODEL 1
REMARK VINA RESULT:      -9.2      0.000      0.000
REMARK  2 active torsions:
REMARK  status: ('A' for Active; 'I' for Inactive)
REMARK    1  A    between atoms: C_8  and  C_9 
REMARK       I    between atoms: N_10  and  C_11 
REMARK    2  A    between atoms: C_11  and  C_12 
ROOT
HETATM    1  C   UNL     1     -12.166   1.987 -34.438  1.00  0.00     0.124 C 
HETATM    2  N   UNL     1     -10.798   1.837 -33.945  1.00  0.00    -0.339 N 
HETATM    3  C   UNL     1     -10.415   0.666 -33.326  1.00  0.00     0.260 C 
HETATM    4  O   UNL     1     -11.201  -0.263 -33.133  1.00  0.00    -0.267 OA
HETATM    5  C   UNL     1      -9.924   2.852 -34.521  1.00  0.00     0.127 C 
HETATM    6  C   UNL     1     -10.868   3.915 -35.061  1.00  0.00     0.022 C 
HETATM    7  C   UNL     1     -12.079   3.099 -35.492  1.00  0.00     0.032 C 
ENDROOT
BRANCH   1   8
HETATM    8  C   UNL     1     -13.151   2.299 -33.345  1.00  0.00     0.014 A 
HETATM    9  C   UNL     1     -13.070   3.130 -32.237  1.00  0.00     0.034 A 
HETATM   10  C   UNL     1     -11.999   3.995 -31.690  1.00  0.00     0.070 C 
HETATM   11  N   UNL     1     -14.263   3.003 -31.581  1.00  0.00    -0.282 N 
HETATM   12  H   UNL     1     -14.547   3.446 -30.714  1.00  0.00     0.189 HD
HETATM   13  N   UNL     1     -15.134   2.191 -32.187  1.00  0.00    -0.179 NA
HETATM   14  C   UNL     1     -14.463   1.733 -33.247  1.00  0.00     0.061 A 
HETATM   15  C   UNL     1     -15.104   0.752 -34.159  1.00  0.00     0.073 C 
ENDBRANCH   1   8
BRANCH   3  16
HETATM   16  C   UNL     1      -8.985   0.471 -32.971  1.00  0.00     0.108 A 
HETATM   17  C   UNL     1      -8.350   1.095 -31.792  1.00  0.00     0.304 A 
HETATM   18  O   UNL     1      -8.953   1.827 -31.015  1.00  0.00    -0.259 OA
HETATM   19  O   UNL     1      -6.995   0.827 -31.596  1.00  0.00    -0.274 OA
HETATM   20  C   UNL     1      -6.306  -0.112 -32.385  1.00  0.00     0.089 A 
HETATM   21  C   UNL     1      -6.942  -0.752 -33.442  1.00  0.00    -0.001 A 
HETATM   22  C   UNL     1      -4.984  -0.388 -32.048  1.00  0.00     0.038 A 
HETATM   23  C   UNL     1      -6.235  -1.706 -34.177  1.00  0.00     0.014 A 
HETATM   24  C   UNL     1      -8.323  -0.412 -33.736  1.00  0.00     0.037 A 
HETATM   25  C   UNL     1      -4.909  -2.002 -33.845  1.00  0.00     0.001 A 
HETATM   26  C   UNL     1      -4.284  -1.341 -32.785  1.00  0.00     0.003 A 
ENDBRANCH   3  16
TORSDOF 2
ENDMDL
MODEL 2
REMARK VINA RESULT:      -9.0      2.818      4.303
REMARK  2 active torsions:
REMARK  status: ('A' for Active; 'I' for Inactive)
REMARK    1  A    between atoms: C_8  and  C_9 
REMARK       I    between atoms: N_10  and  C_11 
REMARK    2  A    between atoms: C_11  and  C_12 
ROOT
HETATM    1  C   UNL     1      -8.318   2.769 -32.867  1.00  0.00     0.124 C 
HETATM    2  N   UNL     1      -7.667   1.463 -32.958  1.00  0.00    -0.339 N 
HETATM    3  C   UNL     1      -6.820   1.189 -34.010  1.00  0.00     0.260 C 
HETATM    4  O   UNL     1      -6.612   2.000 -34.915  1.00  0.00    -0.267 OA
HETATM    5  C   UNL     1      -7.745   0.755 -31.686  1.00  0.00     0.127 C 
HETATM    6  C   UNL     1      -8.840   1.471 -30.910  1.00  0.00     0.022 C 
HETATM    7  C   UNL     1      -8.703   2.909 -31.388  1.00  0.00     0.032 C 
ENDROOT
BRANCH   1   8
HETATM    8  C   UNL     1      -9.499   2.899 -33.790  1.00  0.00     0.014 A 
HETATM    9  C   UNL     1     -10.489   1.999 -34.158  1.00  0.00     0.034 A 
HETATM   10  C   UNL     1     -10.751   0.582 -33.819  1.00  0.00     0.070 C 
HETATM   11  N   UNL     1     -11.292   2.662 -35.043  1.00  0.00    -0.282 N 
HETATM   12  H   UNL     1     -12.102   2.304 -35.538  1.00  0.00     0.189 HD
HETATM   13  N   UNL     1     -10.937   3.933 -35.255  1.00  0.00    -0.179 NA
HETATM   14  C   UNL     1      -9.832   4.085 -34.521  1.00  0.00     0.061 A 
HETATM   15  C   UNL     1      -9.111   5.383 -34.533  1.00  0.00     0.073 C 
ENDBRANCH   1   8
BRANCH   3  16
HETATM   16  C   UNL     1      -6.048  -0.082 -34.004  1.00  0.00     0.108 A 
HETATM   17  C   UNL     1      -4.742  -0.233 -33.333  1.00  0.00     0.304 A 
HETATM   18  O   UNL     1      -4.188   0.680 -32.731  1.00  0.00    -0.259 OA
HETATM   19  O   UNL     1      -4.133  -1.485 -33.423  1.00  0.00    -0.274 OA
HETATM   20  C   UNL     1      -4.796  -2.590 -33.986  1.00  0.00     0.089 A 
HETATM   21  C   UNL     1      -6.063  -2.448 -34.542  1.00  0.00    -0.001 A 
HETATM   22  C   UNL     1      -4.149  -3.821 -33.939  1.00  0.00     0.038 A 
HETATM   23  C   UNL     1      -6.704  -3.577 -35.055  1.00  0.00     0.014 A 
HETATM   24  C   UNL     1      -6.676  -1.132 -34.557  1.00  0.00     0.037 A 
HETATM   25  C   UNL     1      -6.071  -4.823 -35.007  1.00  0.00     0.001 A 
HETATM   26  C   UNL     1      -4.794  -4.944 -34.453  1.00  0.00     0.003 A 
ENDBRANCH   3  16
TORSDOF 2
ENDMDL
MODEL 3
REMARK VINA RESULT:      -8.5      4.860      6.078
REMARK  2 active torsions:
REMARK  status: ('A' for Active; 'I' for Inactive)
REMARK    1  A    between atoms: C_8  and  C_9 
REMARK       I    between atoms: N_10  and  C_11 
REMARK    2  A    between atoms: C_11  and  C_12 
ROOT
HETATM    1  C   UNL     1      -6.836   4.036 -31.995  1.00  0.00     0.124 C 
HETATM    2  N   UNL     1      -6.180   2.881 -32.605  1.00  0.00    -0.339 N 
HETATM    3  C   UNL     1      -6.230   1.653 -31.982  1.00  0.00     0.260 C 
HETATM    4  O   UNL     1      -6.783   1.490 -30.892  1.00  0.00    -0.267 OA
HETATM    5  C   UNL     1      -5.864   3.143 -34.004  1.00  0.00     0.127 C 
HETATM    6  C   UNL     1      -5.952   4.655 -34.145  1.00  0.00     0.022 C 
HETATM    7  C   UNL     1      -7.047   5.020 -33.153  1.00  0.00     0.032 C 
ENDROOT
BRANCH   1   8
HETATM    8  C   UNL     1      -6.041   4.630 -30.864  1.00  0.00     0.014 A 
HETATM    9  C   UNL     1      -4.675   4.776 -30.671  1.00  0.00     0.034 A 
HETATM   10  C   UNL     1      -3.488   4.388 -31.468  1.00  0.00     0.070 C 
HETATM   11  N   UNL     1      -4.527   5.370 -29.449  1.00  0.00    -0.282 N 
HETATM   12  H   UNL     1      -3.664   5.605 -28.971  1.00  0.00     0.189 HD
HETATM   13  N   UNL     1      -5.682   5.664 -28.843  1.00  0.00    -0.179 NA
HETATM   14  C   UNL     1      -6.612   5.195 -29.679  1.00  0.00     0.061 A 
HETATM   15  C   UNL     1      -8.049   5.305 -29.320  1.00  0.00     0.073 C 
ENDBRANCH   1   8
BRANCH   3  16
HETATM   16  C   UNL     1      -5.694   0.461 -32.690  1.00  0.00     0.108 A 
HETATM   17  C   UNL     1      -4.254   0.140 -32.759  1.00  0.00     0.304 A 
HETATM   18  O   UNL     1      -3.387   0.834 -32.240  1.00  0.00    -0.259 OA
HETATM   19  O   UNL     1      -3.902  -1.008 -33.470  1.00  0.00    -0.274 OA
HETATM   20  C   UNL     1      -4.872  -1.899 -33.960  1.00  0.00     0.089 A 
HETATM   21  C   UNL     1      -6.227  -1.622 -33.816  1.00  0.00    -0.001 A 
HETATM   22  C   UNL     1      -4.424  -3.069 -34.566  1.00  0.00     0.038 A 
HETATM   23  C   UNL     1      -7.160  -2.551 -34.282  1.00  0.00     0.014 A 
HETATM   24  C   UNL     1      -6.621  -0.380 -33.174  1.00  0.00     0.037 A 
HETATM   25  C   UNL     1      -6.724  -3.735 -34.885  1.00  0.00     0.001 A 
HETATM   26  C   UNL     1      -5.359  -3.993 -35.030  1.00  0.00     0.003 A 
ENDBRANCH   3  16
TORSDOF 2
ENDMDL
MODEL 4
REMARK VINA RESULT:      -8.5      6.097      8.710
REMARK  2 active torsions:
REMARK  status: ('A' for Active; 'I' for Inactive)
REMARK    1  A    between atoms: C_8  and  C_9 
REMARK       I    between atoms: N_10  and  C_11 
REMARK    2  A    between atoms: C_11  and  C_12 
ROOT
HETATM    1  C   UNL     1      -3.047   6.204 -32.262  1.00  0.00     0.124 C 
HETATM    2  N   UNL     1      -3.249   4.799 -32.614  1.00  0.00    -0.339 N 
HETATM    3  C   UNL     1      -4.284   4.090 -32.044  1.00  0.00     0.260 C 
HETATM    4  O   UNL     1      -5.039   4.587 -31.207  1.00  0.00    -0.267 OA
HETATM    5  C   UNL     1      -2.510   4.456 -33.823  1.00  0.00     0.127 C 
HETATM    6  C   UNL     1      -1.491   5.574 -33.985  1.00  0.00     0.022 C 
HETATM    7  C   UNL     1      -2.226   6.782 -33.423  1.00  0.00     0.032 C 
ENDROOT
BRANCH   1   8
HETATM    8  C   UNL     1      -2.372   6.382 -30.929  1.00  0.00     0.014 A 
HETATM    9  C   UNL     1      -1.140   5.957 -30.453  1.00  0.00     0.034 A 
HETATM   10  C   UNL     1      -0.042   5.157 -31.042  1.00  0.00     0.070 C 
HETATM   11  N   UNL     1      -1.065   6.391 -29.159  1.00  0.00    -0.282 N 
HETATM   12  H   UNL     1      -0.315   6.239 -28.493  1.00  0.00     0.189 HD
HETATM   13  N   UNL     1      -2.126   7.101 -28.760  1.00  0.00    -0.179 NA
HETATM   14  C   UNL     1      -2.942   7.080 -29.817  1.00  0.00     0.061 A 
HETATM   15  C   UNL     1      -4.268   7.743 -29.738  1.00  0.00     0.073 C 
ENDBRANCH   1   8
BRANCH   3  16
HETATM   16  C   UNL     1      -4.568   2.713 -32.529  1.00  0.00     0.108 A 
HETATM   17  C   UNL     1      -3.838   1.521 -32.055  1.00  0.00     0.304 A 
HETATM   18  O   UNL     1      -2.935   1.573 -31.227  1.00  0.00    -0.259 OA
HETATM   19  O   UNL     1      -4.211   0.297 -32.611  1.00  0.00    -0.274 OA
HETATM   20  C   UNL     1      -5.327   0.179 -33.458  1.00  0.00     0.089 A 
HETATM   21  C   UNL     1      -6.055   1.304 -33.830  1.00  0.00    -0.001 A 
HETATM   22  C   UNL     1      -5.683  -1.098 -33.880  1.00  0.00     0.038 A 
HETATM   23  C   UNL     1      -7.181   1.141 -34.640  1.00  0.00     0.014 A 
HETATM   24  C   UNL     1      -5.624   2.605 -33.352  1.00  0.00     0.037 A 
HETATM   25  C   UNL     1      -7.557  -0.137 -35.065  1.00  0.00     0.001 A 
HETATM   26  C   UNL     1      -6.807  -1.254 -34.689  1.00  0.00     0.003 A 
ENDBRANCH   3  16
TORSDOF 2
ENDMDL
MODEL 5
REMARK VINA RESULT:      -8.4      4.504      6.327
REMARK  2 active torsions:
REMARK  status: ('A' for Active; 'I' for Inactive)
REMARK    1  A    between atoms: C_8  and  C_9 
REMARK       I    between atoms: N_10  and  C_11 
REMARK    2  A    between atoms: C_11  and  C_12 
ROOT
HETATM    1  C   UNL     1      -5.917   3.053 -31.182  1.00  0.00     0.124 C 
HETATM    2  N   UNL     1      -6.138   1.819 -31.934  1.00  0.00    -0.339 N 
HETATM    3  C   UNL     1      -5.103   1.253 -32.646  1.00  0.00     0.260 C 
HETATM    4  O   UNL     1      -3.986   1.771 -32.708  1.00  0.00    -0.267 OA
HETATM    5  C   UNL     1      -7.372   1.168 -31.512  1.00  0.00     0.127 C 
HETATM    6  C   UNL     1      -8.146   2.247 -30.771  1.00  0.00     0.022 C 
HETATM    7  C   UNL     1      -7.040   3.077 -30.136  1.00  0.00     0.032 C 
ENDROOT
BRANCH   1   8
HETATM    8  C   UNL     1      -5.911   4.277 -32.056  1.00  0.00     0.014 A 
HETATM    9  C   UNL     1      -6.729   4.667 -33.107  1.00  0.00     0.034 A 
HETATM   10  C   UNL     1      -7.884   4.035 -33.785  1.00  0.00     0.070 C 
HETATM   11  N   UNL     1      -6.241   5.868 -33.541  1.00  0.00    -0.282 N 
HETATM   12  H   UNL     1      -6.576   6.434 -34.312  1.00  0.00     0.189 HD
HETATM   13  N   UNL     1      -5.198   6.318 -32.836  1.00  0.00    -0.179 NA
HETATM   14  C   UNL     1      -4.968   5.349 -31.947  1.00  0.00     0.061 A 
HETATM   15  C   UNL     1      -3.834   5.474 -30.996  1.00  0.00     0.073 C 
ENDBRANCH   1   8
BRANCH   3  16
HETATM   16  C   UNL     1      -5.302  -0.079 -33.275  1.00  0.00     0.108 A 
HETATM   17  C   UNL     1      -6.201  -0.306 -34.425  1.00  0.00     0.304 A 
HETATM   18  O   UNL     1      -6.858   0.588 -34.949  1.00  0.00    -0.259 OA
HETATM   19  O   UNL     1      -6.293  -1.614 -34.900  1.00  0.00    -0.274 OA
HETATM   20  C   UNL     1      -5.457  -2.636 -34.415  1.00  0.00     0.089 A 
HETATM   21  C   UNL     1      -4.557  -2.386 -33.386  1.00  0.00    -0.001 A 
HETATM   22  C   UNL     1      -5.550  -3.885 -35.021  1.00  0.00     0.038 A 
HETATM   23  C   UNL     1      -3.717  -3.417 -32.959  1.00  0.00     0.014 A 
HETATM   24  C   UNL     1      -4.516  -1.058 -32.800  1.00  0.00     0.037 A 
HETATM   25  C   UNL     1      -3.792  -4.675 -33.565  1.00  0.00     0.001 A 
HETATM   26  C   UNL     1      -4.709  -4.910 -34.592  1.00  0.00     0.003 A 
ENDBRANCH   3  16
TORSDOF 2
ENDMDL
MODEL 6
REMARK VINA RESULT:      -8.4      5.029      6.658
REMARK  2 active torsions:
REMARK  status: ('A' for Active; 'I' for Inactive)
REMARK    1  A    between atoms: C_8  and  C_9 
REMARK       I    between atoms: N_10  and  C_11 
REMARK    2  A    between atoms: C_11  and  C_12 
ROOT
HETATM    1  C   UNL     1      -5.333   3.297 -31.009  1.00  0.00     0.124 C 
HETATM    2  N   UNL     1      -5.283   1.931 -31.529  1.00  0.00    -0.339 N 
HETATM    3  C   UNL     1      -4.188   1.511 -32.252  1.00  0.00     0.260 C 
HETATM    4  O   UNL     1      -3.246   2.261 -32.516  1.00  0.00    -0.267 OA
HETATM    5  C   UNL     1      -6.280   1.091 -30.877  1.00  0.00     0.127 C 
HETATM    6  C   UNL     1      -7.252   2.069 -30.235  1.00  0.00     0.022 C 
HETATM    7  C   UNL     1      -6.352   3.239 -29.863  1.00  0.00     0.032 C 
ENDROOT
BRANCH   1   8
HETATM    8  C   UNL     1      -5.697   4.310 -32.059  1.00  0.00     0.014 A 
HETATM    9  C   UNL     1      -6.611   4.274 -33.102  1.00  0.00     0.034 A 
HETATM   10  C   UNL     1      -7.547   3.239 -33.598  1.00  0.00     0.070 C 
HETATM   11  N   UNL     1      -6.498   5.474 -33.746  1.00  0.00    -0.282 N 
HETATM   12  H   UNL     1      -6.996   5.786 -34.572  1.00  0.00     0.189 HD
HETATM   13  N   UNL     1      -5.616   6.310 -33.189  1.00  0.00    -0.179 NA
HETATM   14  C   UNL     1      -5.100   5.607 -32.179  1.00  0.00     0.061 A 
HETATM   15  C   UNL     1      -4.034   6.202 -31.334  1.00  0.00     0.073 C 
ENDBRANCH   1   8
BRANCH   3  16
HETATM   16  C   UNL     1      -4.085   0.079 -32.639  1.00  0.00     0.108 A 
HETATM   17  C   UNL     1      -3.088  -0.846 -32.063  1.00  0.00     0.304 A 
HETATM   18  O   UNL     1      -2.263  -0.504 -31.223  1.00  0.00    -0.259 OA
HETATM   19  O   UNL     1      -3.106  -2.159 -32.535  1.00  0.00    -0.274 OA
HETATM   20  C   UNL     1      -4.120  -2.621 -33.394  1.00  0.00     0.089 A 
HETATM   21  C   UNL     1      -5.100  -1.754 -33.863  1.00  0.00    -0.001 A 
HETATM   22  C   UNL     1      -4.113  -3.972 -33.728  1.00  0.00     0.038 A 
HETATM   23  C   UNL     1      -6.111  -2.260 -34.683  1.00  0.00     0.014 A 
HETATM   24  C   UNL     1      -5.042  -0.357 -33.474  1.00  0.00     0.037 A 
HETATM   25  C   UNL     1      -6.124  -3.617 -35.020  1.00  0.00     0.001 A 
HETATM   26  C   UNL     1      -5.125  -4.471 -34.546  1.00  0.00     0.003 A 
ENDBRANCH   3  16
TORSDOF 2
ENDMDL
MODEL 7
REMARK VINA RESULT:      -8.3      6.909      9.594
REMARK  2 active torsions:
REMARK  status: ('A' for Active; 'I' for Inactive)
REMARK    1  A    between atoms: C_8  and  C_9 
REMARK       I    between atoms: N_10  and  C_11 
REMARK    2  A    between atoms: C_11  and  C_12 
ROOT
HETATM    1  C   UNL     1      -2.260   6.940 -32.148  1.00  0.00     0.124 C 
HETATM    2  N   UNL     1      -2.635   5.549 -32.396  1.00  0.00    -0.339 N 
HETATM    3  C   UNL     1      -3.586   4.942 -31.605  1.00  0.00     0.260 C 
HETATM    4  O   UNL     1      -4.118   5.520 -30.655  1.00  0.00    -0.267 OA
HETATM    5  C   UNL     1      -2.182   5.116 -33.712  1.00  0.00     0.127 C 
HETATM    6  C   UNL     1      -1.134   6.141 -34.118  1.00  0.00     0.022 C 
HETATM    7  C   UNL     1      -1.647   7.419 -33.471  1.00  0.00     0.032 C 
ENDROOT
BRANCH   1   8
HETATM    8  C   UNL     1      -1.320   7.094 -30.983  1.00  0.00     0.014 A 
HETATM    9  C   UNL     1      -0.196   6.376 -30.601  1.00  0.00     0.034 A 
HETATM   10  C   UNL     1       0.489   5.187 -31.158  1.00  0.00     0.070 C 
HETATM   11  N   UNL     1       0.247   6.955 -29.445  1.00  0.00    -0.282 N 
HETATM   12  H   UNL     1       1.034   6.675 -28.870  1.00  0.00     0.189 HD
HETATM   13  N   UNL     1      -0.466   8.018 -29.060  1.00  0.00    -0.179 NA
HETATM   14  C   UNL     1      -1.440   8.098 -29.970  1.00  0.00     0.061 A 
HETATM   15  C   UNL     1      -2.477   9.154 -29.849  1.00  0.00     0.073 C 
ENDBRANCH   1   8
BRANCH   3  16
HETATM   16  C   UNL     1      -4.066   3.582 -31.967  1.00  0.00     0.108 A 
HETATM   17  C   UNL     1      -5.156   3.339 -32.934  1.00  0.00     0.304 A 
HETATM   18  O   UNL     1      -5.754   4.240 -33.510  1.00  0.00    -0.259 OA
HETATM   19  O   UNL     1      -5.504   2.007 -33.163  1.00  0.00    -0.274 OA
HETATM   20  C   UNL     1      -4.754   0.945 -32.626  1.00  0.00     0.089 A 
HETATM   21  C   UNL     1      -3.678   1.194 -31.781  1.00  0.00    -0.001 A 
HETATM   22  C   UNL     1      -5.115  -0.348 -32.993  1.00  0.00     0.038 A 
HETATM   23  C   UNL     1      -2.935   0.114 -31.299  1.00  0.00     0.014 A 
HETATM   24  C   UNL     1      -3.361   2.569 -31.439  1.00  0.00     0.037 A 
HETATM   25  C   UNL     1      -3.279  -1.191 -31.667  1.00  0.00     0.001 A 
HETATM   26  C   UNL     1      -4.369  -1.421 -32.510  1.00  0.00     0.003 A 
ENDBRANCH   3  16
TORSDOF 2
ENDMDL
MODEL 8
REMARK VINA RESULT:      -8.3      1.682      2.264
REMARK  2 active torsions:
REMARK  status: ('A' for Active; 'I' for Inactive)
REMARK    1  A    between atoms: C_8  and  C_9 
REMARK       I    between atoms: N_10  and  C_11 
REMARK    2  A    between atoms: C_11  and  C_12 
ROOT
HETATM    1  C   UNL     1     -10.328   3.270 -33.452  1.00  0.00     0.124 C 
HETATM    2  N   UNL     1      -9.077   2.538 -33.257  1.00  0.00    -0.339 N 
HETATM    3  C   UNL     1      -9.108   1.188 -32.981  1.00  0.00     0.260 C 
HETATM    4  O   UNL     1     -10.164   0.566 -32.853  1.00  0.00    -0.267 OA
HETATM    5  C   UNL     1      -7.943   3.308 -33.751  1.00  0.00     0.127 C 
HETATM    6  C   UNL     1      -8.463   4.731 -33.874  1.00  0.00     0.022 C 
HETATM    7  C   UNL     1      -9.925   4.523 -34.243  1.00  0.00     0.032 C 
ENDROOT
BRANCH   1   8
HETATM    8  C   UNL     1     -11.021   3.599 -32.158  1.00  0.00     0.014 A 
HETATM    9  C   UNL     1     -10.531   3.863 -30.887  1.00  0.00     0.034 A 
HETATM   10  C   UNL     1      -9.167   3.898 -30.310  1.00  0.00     0.070 C 
HETATM   11  N   UNL     1     -11.625   4.075 -30.096  1.00  0.00    -0.282 N 
HETATM   12  H   UNL     1     -11.646   4.270 -29.101  1.00  0.00     0.189 HD
HETATM   13  N   UNL     1     -12.790   4.014 -30.750  1.00  0.00    -0.179 NA
HETATM   14  C   UNL     1     -12.441   3.697 -31.999  1.00  0.00     0.061 A 
HETATM   15  C   UNL     1     -13.491   3.496 -33.030  1.00  0.00     0.073 C 
ENDBRANCH   1   8
BRANCH   3  16
HETATM   16  C   UNL     1      -7.829   0.430 -32.940  1.00  0.00     0.108 A 
HETATM   17  C   UNL     1      -6.869   0.522 -31.822  1.00  0.00     0.304 A 
HETATM   18  O   UNL     1      -7.049   1.233 -30.840  1.00  0.00    -0.259 OA
HETATM   19  O   UNL     1      -5.706  -0.241 -31.932  1.00  0.00    -0.274 OA
HETATM   20  C   UNL     1      -5.527  -1.170 -32.973  1.00  0.00     0.089 A 
HETATM   21  C   UNL     1      -6.481  -1.301 -33.976  1.00  0.00    -0.001 A 
HETATM   22  C   UNL     1      -4.381  -1.959 -32.941  1.00  0.00     0.038 A 
HETATM   23  C   UNL     1      -6.285  -2.261 -34.971  1.00  0.00     0.014 A 
HETATM   24  C   UNL     1      -7.651  -0.442 -33.945  1.00  0.00     0.037 A 
HETATM   25  C   UNL     1      -5.143  -3.068 -34.948  1.00  0.00     0.001 A 
HETATM   26  C   UNL     1      -4.191  -2.915 -33.937  1.00  0.00     0.003 A 
ENDBRANCH   3  16
TORSDOF 2
ENDMDL
MODEL 9
REMARK VINA RESULT:      -8.1      1.232      1.986
REMARK  2 active torsions:
REMARK  status: ('A' for Active; 'I' for Inactive)
REMARK    1  A    between atoms: C_8  and  C_9 
REMARK       I    between atoms: N_10  and  C_11 
REMARK    2  A    between atoms: C_11  and  C_12 
ROOT
HETATM    1  C   UNL     1     -12.037   2.141 -34.359  1.00  0.00     0.124 C 
HETATM    2  N   UNL     1     -10.658   1.903 -33.936  1.00  0.00    -0.339 N 
HETATM    3  C   UNL     1     -10.309   0.690 -33.381  1.00  0.00     0.260 C 
HETATM    4  O   UNL     1     -11.133  -0.206 -33.187  1.00  0.00    -0.267 OA
HETATM    5  C   UNL     1      -9.759   2.895 -34.513  1.00  0.00     0.127 C 
HETATM    6  C   UNL     1     -10.670   4.025 -34.968  1.00  0.00     0.022 C 
HETATM    7  C   UNL     1     -11.939   3.289 -35.373  1.00  0.00     0.032 C 
ENDROOT
BRANCH   1   8
HETATM    8  C   UNL     1     -12.955   2.457 -33.210  1.00  0.00     0.014 A 
HETATM    9  C   UNL     1     -12.796   3.267 -32.095  1.00  0.00     0.034 A 
HETATM   10  C   UNL     1     -11.677   4.098 -31.593  1.00  0.00     0.070 C 
HETATM   11  N   UNL     1     -13.955   3.157 -31.379  1.00  0.00    -0.282 N 
HETATM   12  H   UNL     1     -14.181   3.592 -30.491  1.00  0.00     0.189 HD
HETATM   13  N   UNL     1     -14.876   2.376 -31.951  1.00  0.00    -0.179 NA
HETATM   14  C   UNL     1     -14.273   1.920 -33.052  1.00  0.00     0.061 A 
HETATM   15  C   UNL     1     -14.985   0.970 -33.944  1.00  0.00     0.073 C 
ENDBRANCH   1   8
BRANCH   3  16
HETATM   16  C   UNL     1      -8.876   0.410 -33.100  1.00  0.00     0.108 A 
HETATM   17  C   UNL     1      -7.909   0.014 -34.144  1.00  0.00     0.304 A 
HETATM   18  O   UNL     1      -8.213  -0.119 -35.324  1.00  0.00    -0.259 OA
HETATM   19  O   UNL     1      -6.600  -0.227 -33.725  1.00  0.00    -0.274 OA
HETATM   20  C   UNL     1      -6.184   0.045 -32.410  1.00  0.00     0.089 A 
HETATM   21  C   UNL     1      -7.092   0.496 -31.458  1.00  0.00    -0.001 A 
HETATM   22  C   UNL     1      -4.835  -0.129 -32.113  1.00  0.00     0.038 A 
HETATM   23  C   UNL     1      -6.631   0.792 -30.173  1.00  0.00     0.014 A 
HETATM   24  C   UNL     1      -8.484   0.653 -31.839  1.00  0.00     0.037 A 
HETATM   25  C   UNL     1      -5.277   0.631 -29.862  1.00  0.00     0.001 A 
HETATM   26  C   UNL     1      -4.382   0.168 -30.829  1.00  0.00     0.003 A 
ENDBRANCH   3  16
TORSDOF 2
ENDMDL
MODEL 10
REMARK VINA RESULT:      -7.8      3.446      4.864
REMARK  2 active torsions:
REMARK  status: ('A' for Active; 'I' for Inactive)
REMARK    1  A    between atoms: C_8  and  C_9 
REMARK       I    between atoms: N_10  and  C_11 
REMARK    2  A    between atoms: C_11  and  C_12 
ROOT
HETATM    1  C   UNL     1      -7.520   3.250 -31.794  1.00  0.00     0.124 C 
HETATM    2  N   UNL     1      -7.320   1.916 -32.359  1.00  0.00    -0.339 N 
HETATM    3  C   UNL     1      -6.176   1.639 -33.077  1.00  0.00     0.260 C 
HETATM    4  O   UNL     1      -5.315   2.493 -33.298  1.00  0.00    -0.267 OA
HETATM    5  C   UNL     1      -8.232   0.954 -31.754  1.00  0.00     0.127 C 
HETATM    6  C   UNL     1      -9.309   1.801 -31.096  1.00  0.00     0.022 C 
HETATM    7  C   UNL     1      -8.543   3.044 -30.668  1.00  0.00     0.032 C 
ENDROOT
BRANCH   1   8
HETATM    8  C   UNL     1      -7.974   4.256 -32.815  1.00  0.00     0.014 A 
HETATM    9  C   UNL     1      -7.687   5.605 -32.975  1.00  0.00     0.034 A 
HETATM   10  C   UNL     1      -6.865   6.568 -32.207  1.00  0.00     0.070 C 
HETATM   11  N   UNL     1      -8.400   6.016 -34.067  1.00  0.00    -0.282 N 
HETATM   12  H   UNL     1      -8.452   6.949 -34.461  1.00  0.00     0.189 HD
HETATM   13  N   UNL     1      -9.097   5.042 -34.661  1.00  0.00    -0.179 NA
HETATM   14  C   UNL     1      -8.870   3.972 -33.895  1.00  0.00     0.061 A 
HETATM   15  C   UNL     1      -9.524   2.679 -34.222  1.00  0.00     0.073 C 
ENDBRANCH   1   8
BRANCH   3  16
HETATM   16  C   UNL     1      -5.917   0.241 -33.511  1.00  0.00     0.108 A 
HETATM   17  C   UNL     1      -6.494  -0.347 -34.737  1.00  0.00     0.304 A 
HETATM   18  O   UNL     1      -7.236   0.271 -35.492  1.00  0.00    -0.259 OA
HETATM   19  O   UNL     1      -6.168  -1.677 -35.006  1.00  0.00    -0.274 OA
HETATM   20  C   UNL     1      -5.216  -2.373 -34.241  1.00  0.00     0.089 A 
HETATM   21  C   UNL     1      -4.621  -1.776 -33.135  1.00  0.00    -0.001 A 
HETATM   22  C   UNL     1      -4.881  -3.661 -34.648  1.00  0.00     0.038 A 
HETATM   23  C   UNL     1      -3.652  -2.487 -32.424  1.00  0.00     0.014 A 
HETATM   24  C   UNL     1      -5.022  -0.430 -32.768  1.00  0.00     0.037 A 
HETATM   25  C   UNL     1      -3.297  -3.779 -32.827  1.00  0.00     0.001 A 
HETATM   26  C   UNL     1      -3.913  -4.366 -33.935  1.00  0.00     0.003 A 
ENDBRANCH   3  16
TORSDOF 2
ENDMDL
