MODEL 1
REMARK VINA RESULT:      -9.3      0.000      0.000
REMARK  6 active torsions:
REMARK  status: ('A' for Active; 'I' for Inactive)
REMARK    1  A    between atoms: C_4  and  C_5 
REMARK    2  A    between atoms: C_9  and  C_10 
REMARK       I    between atoms: C_10  and  N_11 
REMARK    3  A    between atoms: N_11  and  C_12 
REMARK    4  A    between atoms: C_12  and  C_13 
REMARK    5  A    between atoms: C_13  and  N_14 
REMARK    6  A    between atoms: C_13  and  C_18 
ROOT
HETATM    1  C   UNL     1      -8.106   0.296 -33.551  1.00  0.00     0.092 A 
HETATM    2  N   UNL     1      -7.965  -0.947 -34.054  1.00  0.00    -0.246 NA
HETATM    3  C   UNL     1      -6.753  -1.519 -34.060  1.00  0.00     0.069 A 
HETATM    4  C   UNL     1      -5.592  -0.892 -33.553  1.00  0.00     0.008 A 
HETATM    5  C   UNL     1      -5.785   0.390 -32.973  1.00  0.00     0.046 A 
HETATM    6  C   UNL     1      -7.051   0.986 -32.991  1.00  0.00     0.052 A 
HETATM    7  C   UNL     1      -6.658  -2.788 -34.616  1.00  0.00     0.032 A 
HETATM    8  C   UNL     1      -5.442  -3.463 -34.716  1.00  0.00     0.002 A 
HETATM    9  C   UNL     1      -4.285  -2.852 -34.265  1.00  0.00     0.001 A 
HETATM   10  C   UNL     1      -4.356  -1.579 -33.700  1.00  0.00     0.015 A 
ENDROOT
BRANCH   5  11
HETATM   11  C   UNL     1      -4.732   1.231 -32.332  1.00  0.00     0.252 C 
HETATM   12  N   UNL     1      -4.541   2.520 -32.785  1.00  0.00    -0.355 N 
HETATM   13  H   UNL     1      -4.985   2.732 -33.676  1.00  0.00     0.162 HD
HETATM   14  O   UNL     1      -4.015   0.742 -31.465  1.00  0.00    -0.268 OA
BRANCH  12  15
HETATM   15  C   UNL     1      -3.307   3.259 -32.521  1.00  0.00     0.161 C 
BRANCH  15  16
HETATM   16  C   UNL     1      -3.293   4.826 -32.359  1.00  0.00     0.237 C 
BRANCH  16  17
HETATM   17  N   UNL     1      -4.010   5.639 -33.432  1.00  0.00    -0.069 N 
HETATM   18  H   UNL     1      -3.571   6.564 -33.368  1.00  0.00     0.279 HD
HETATM   19  C   UNL     1      -3.742   5.234 -34.856  1.00  0.00     0.270 C 
HETATM   20  C   UNL     1      -5.459   5.906 -33.145  1.00  0.00     0.270 C 
ENDBRANCH  16  17
BRANCH  16  21
HETATM   21  C   UNL     1      -1.974   5.475 -31.967  1.00  0.00    -0.026 A 
HETATM   22  C   UNL     1      -1.050   4.741 -31.197  1.00  0.00     0.009 A 
HETATM   23  C   UNL     1       0.141   5.321 -30.756  1.00  0.00     0.001 A 
HETATM   24  C   UNL     1       0.428   6.645 -31.071  1.00  0.00     0.000 A 
HETATM   25  C   UNL     1      -0.474   7.389 -31.826  1.00  0.00     0.001 A 
HETATM   26  C   UNL     1      -1.667   6.810 -32.266  1.00  0.00     0.009 A 
ENDBRANCH  16  21
ENDBRANCH  15  16
ENDBRANCH  12  15
ENDBRANCH   5  11
BRANCH   1  27
HETATM   27  C   UNL     1      -9.441   0.865 -33.668  1.00  0.00     0.104 A 
HETATM   28  O   UNL     1      -9.552   2.032 -34.375  1.00  0.00    -0.313 OA
HETATM   29  C   UNL     1     -10.870   2.375 -34.390  1.00  0.00     0.050 A 
HETATM   30  C   UNL     1     -11.225   3.610 -35.119  1.00  0.00     0.076 C 
HETATM   31  C   UNL     1     -11.610   1.443 -33.697  1.00  0.00     0.035 A 
HETATM   32  C   UNL     1     -10.690   0.473 -33.231  1.00  0.00     0.042 A 
ENDBRANCH   1  27
TORSDOF 6
ENDMDL
MODEL 2
REMARK VINA RESULT:      -9.2      1.778      4.489
REMARK  6 active torsions:
REMARK  status: ('A' for Active; 'I' for Inactive)
REMARK    1  A    between atoms: C_4  and  C_5 
REMARK    2  A    between atoms: C_9  and  C_10 
REMARK       I    between atoms: C_10  and  N_11 
REMARK    3  A    between atoms: N_11  and  C_12 
REMARK    4  A    between atoms: C_12  and  C_13 
REMARK    5  A    between atoms: C_13  and  N_14 
REMARK    6  A    between atoms: C_13  and  C_18 
ROOT
HETATM    1  C   UNL     1      -6.249  -1.071 -33.560  1.00  0.00     0.092 A 
HETATM    2  N   UNL     1      -7.555  -0.734 -33.569  1.00  0.00    -0.246 NA
HETATM    3  C   UNL     1      -7.933   0.438 -33.041  1.00  0.00     0.069 A 
HETATM    4  C   UNL     1      -7.031   1.366 -32.473  1.00  0.00     0.008 A 
HETATM    5  C   UNL     1      -5.658   1.010 -32.536  1.00  0.00     0.046 A 
HETATM    6  C   UNL     1      -5.276  -0.226 -33.070  1.00  0.00     0.052 A 
HETATM    7  C   UNL     1      -9.292   0.724 -33.050  1.00  0.00     0.032 A 
HETATM    8  C   UNL     1      -9.807   1.892 -32.492  1.00  0.00     0.002 A 
HETATM    9  C   UNL     1      -8.947   2.796 -31.891  1.00  0.00     0.001 A 
HETATM   10  C   UNL     1      -7.577   2.533 -31.873  1.00  0.00     0.015 A 
ENDROOT
BRANCH   5  11
HETATM   11  C   UNL     1      -4.514   1.836 -32.050  1.00  0.00     0.252 C 
HETATM   12  N   UNL     1      -4.164   2.970 -32.754  1.00  0.00    -0.355 N 
HETATM   13  H   UNL     1      -4.573   3.041 -33.683  1.00  0.00     0.162 HD
HETATM   14  O   UNL     1      -3.869   1.460 -31.077  1.00  0.00    -0.268 OA
BRANCH  12  15
HETATM   15  C   UNL     1      -2.850   3.597 -32.610  1.00  0.00     0.161 C 
BRANCH  15  16
HETATM   16  C   UNL     1      -2.636   5.142 -32.832  1.00  0.00     0.237 C 
BRANCH  16  17
HETATM   17  N   UNL     1      -2.533   5.626 -34.274  1.00  0.00    -0.069 N 
HETATM   18  H   UNL     1      -2.532   6.649 -34.186  1.00  0.00     0.279 HD
HETATM   19  C   UNL     1      -1.231   5.344 -34.973  1.00  0.00     0.270 C 
HETATM   20  C   UNL     1      -3.742   5.337 -35.115  1.00  0.00     0.270 C 
ENDBRANCH  16  17
BRANCH  16  21
HETATM   21  C   UNL     1      -1.617   5.840 -31.942  1.00  0.00    -0.026 A 
HETATM   22  C   UNL     1      -0.437   5.157 -31.585  1.00  0.00     0.009 A 
HETATM   23  C   UNL     1       0.491   5.732 -30.715  1.00  0.00     0.001 A 
HETATM   24  C   UNL     1       0.256   6.996 -30.183  1.00  0.00     0.000 A 
HETATM   25  C   UNL     1      -0.906   7.685 -30.520  1.00  0.00     0.001 A 
HETATM   26  C   UNL     1      -1.837   7.109 -31.389  1.00  0.00     0.009 A 
ENDBRANCH  16  21
ENDBRANCH  15  16
ENDBRANCH  12  15
ENDBRANCH   5  11
BRANCH   1  27
HETATM   27  C   UNL     1      -5.948  -2.399 -34.075  1.00  0.00     0.104 A 
HETATM   28  O   UNL     1      -4.719  -2.915 -33.764  1.00  0.00    -0.313 OA
HETATM   29  C   UNL     1      -4.650  -4.161 -34.310  1.00  0.00     0.050 A 
HETATM   30  C   UNL     1      -3.401  -4.916 -34.084  1.00  0.00     0.076 C 
HETATM   31  C   UNL     1      -5.821  -4.452 -34.974  1.00  0.00     0.035 A 
HETATM   32  C   UNL     1      -6.655  -3.318 -34.825  1.00  0.00     0.042 A 
ENDBRANCH   1  27
TORSDOF 6
ENDMDL
MODEL 3
REMARK VINA RESULT:      -9.1      2.268      6.297
REMARK  6 active torsions:
REMARK  status: ('A' for Active; 'I' for Inactive)
REMARK    1  A    between atoms: C_4  and  C_5 
REMARK    2  A    between atoms: C_9  and  C_10 
REMARK       I    between atoms: C_10  and  N_11 
REMARK    3  A    between atoms: N_11  and  C_12 
REMARK    4  A    between atoms: C_12  and  C_13 
REMARK    5  A    between atoms: C_13  and  N_14 
REMARK    6  A    between atoms: C_13  and  C_18 
ROOT
HETATM    1  C   UNL     1      -5.252   0.936 -33.036  1.00  0.00     0.092 A 
HETATM    2  N   UNL     1      -4.581  -0.162 -33.440  1.00  0.00    -0.246 NA
HETATM    3  C   UNL     1      -5.267  -1.226 -33.879  1.00  0.00     0.069 A 
HETATM    4  C   UNL     1      -6.678  -1.267 -33.955  1.00  0.00     0.008 A 
HETATM    5  C   UNL     1      -7.352  -0.074 -33.582  1.00  0.00     0.046 A 
HETATM    6  C   UNL     1      -6.626   1.023 -33.106  1.00  0.00     0.052 A 
HETATM    7  C   UNL     1      -4.529  -2.340 -34.255  1.00  0.00     0.032 A 
HETATM    8  C   UNL     1      -5.136  -3.518 -34.687  1.00  0.00     0.002 A 
HETATM    9  C   UNL     1      -6.517  -3.597 -34.729  1.00  0.00     0.001 A 
HETATM   10  C   UNL     1      -7.280  -2.490 -34.359  1.00  0.00     0.015 A 
ENDROOT
BRANCH   5  11
HETATM   11  C   UNL     1      -8.828   0.148 -33.619  1.00  0.00     0.252 C 
HETATM   12  N   UNL     1      -9.345   1.034 -34.543  1.00  0.00    -0.355 N 
HETATM   13  H   UNL     1      -8.658   1.641 -34.986  1.00  0.00     0.162 HD
HETATM   14  O   UNL     1      -9.542  -0.407 -32.792  1.00  0.00    -0.268 OA
BRANCH  12  15
HETATM   15  C   UNL     1     -10.678   1.617 -34.394  1.00  0.00     0.161 C 
BRANCH  15  16
HETATM   16  C   UNL     1     -10.945   2.854 -33.456  1.00  0.00     0.237 C 
BRANCH  16  17
HETATM   17  N   UNL     1     -11.685   4.040 -34.069  1.00  0.00    -0.069 N 
HETATM   18  H   UNL     1     -10.963   4.766 -34.138  1.00  0.00     0.279 HD
HETATM   19  C   UNL     1     -12.135   3.872 -35.494  1.00  0.00     0.270 C 
HETATM   20  C   UNL     1     -12.726   4.651 -33.176  1.00  0.00     0.270 C 
ENDBRANCH  16  17
BRANCH  16  21
HETATM   21  C   UNL     1      -9.799   3.319 -32.570  1.00  0.00    -0.026 A 
HETATM   22  C   UNL     1      -8.851   4.223 -33.092  1.00  0.00     0.009 A 
HETATM   23  C   UNL     1      -7.745   4.620 -32.339  1.00  0.00     0.001 A 
HETATM   24  C   UNL     1      -7.563   4.121 -31.054  1.00  0.00     0.000 A 
HETATM   25  C   UNL     1      -8.485   3.224 -30.522  1.00  0.00     0.001 A 
HETATM   26  C   UNL     1      -9.591   2.823 -31.275  1.00  0.00     0.009 A 
ENDBRANCH  16  21
ENDBRANCH  15  16
ENDBRANCH  12  15
ENDBRANCH   5  11
BRANCH   1  27
HETATM   27  C   UNL     1      -4.424   2.005 -32.495  1.00  0.00     0.104 A 
HETATM   28  O   UNL     1      -4.638   3.261 -32.996  1.00  0.00    -0.313 OA
HETATM   29  C   UNL     1      -3.794   4.108 -32.345  1.00  0.00     0.050 A 
HETATM   30  C   UNL     1      -3.864   5.535 -32.722  1.00  0.00     0.076 C 
HETATM   31  C   UNL     1      -3.034   3.410 -31.432  1.00  0.00     0.035 A 
HETATM   32  C   UNL     1      -3.438   2.057 -31.530  1.00  0.00     0.042 A 
ENDBRANCH   1  27
TORSDOF 6
ENDMDL
MODEL 4
REMARK VINA RESULT:      -9.1      2.036      7.687
REMARK  6 active torsions:
REMARK  status: ('A' for Active; 'I' for Inactive)
REMARK    1  A    between atoms: C_4  and  C_5 
REMARK    2  A    between atoms: C_9  and  C_10 
REMARK       I    between atoms: C_10  and  N_11 
REMARK    3  A    between atoms: N_11  and  C_12 
REMARK    4  A    between atoms: C_12  and  C_13 
REMARK    5  A    between atoms: C_13  and  N_14 
REMARK    6  A    between atoms: C_13  and  C_18 
ROOT
HETATM    1  C   UNL     1      -4.083   1.777 -32.489  1.00  0.00     0.092 A 
HETATM    2  N   UNL     1      -2.965   2.519 -32.350  1.00  0.00    -0.246 NA
HETATM    3  C   UNL     1      -3.035   3.847 -32.507  1.00  0.00     0.069 A 
HETATM    4  C   UNL     1      -4.233   4.536 -32.804  1.00  0.00     0.008 A 
HETATM    5  C   UNL     1      -5.403   3.735 -32.882  1.00  0.00     0.046 A 
HETATM    6  C   UNL     1      -5.314   2.346 -32.737  1.00  0.00     0.052 A 
HETATM    7  C   UNL     1      -1.850   4.560 -32.382  1.00  0.00     0.032 A 
HETATM    8  C   UNL     1      -1.794   5.941 -32.566  1.00  0.00     0.002 A 
HETATM    9  C   UNL     1      -2.946   6.631 -32.900  1.00  0.00     0.001 A 
HETATM   10  C   UNL     1      -4.149   5.938 -33.028  1.00  0.00     0.015 A 
ENDROOT
BRANCH   5  11
HETATM   11  C   UNL     1      -6.789   4.228 -33.137  1.00  0.00     0.252 C 
HETATM   12  N   UNL     1      -7.749   4.048 -32.162  1.00  0.00    -0.355 N 
HETATM   13  H   UNL     1      -7.496   3.393 -31.426  1.00  0.00     0.162 HD
HETATM   14  O   UNL     1      -7.062   4.721 -34.225  1.00  0.00    -0.268 OA
BRANCH  12  15
HETATM   15  C   UNL     1      -9.179   4.116 -32.463  1.00  0.00     0.161 C 
BRANCH  15  16
HETATM   16  C   UNL     1      -9.942   2.922 -33.151  1.00  0.00     0.237 C 
BRANCH  16  17
HETATM   17  N   UNL     1     -11.342   2.605 -32.634  1.00  0.00    -0.069 N 
HETATM   18  H   UNL     1     -11.170   1.992 -31.830  1.00  0.00     0.279 HD
HETATM   19  C   UNL     1     -12.097   3.756 -32.028  1.00  0.00     0.270 C 
HETATM   20  C   UNL     1     -12.171   1.763 -33.561  1.00  0.00     0.270 C 
ENDBRANCH  16  17
BRANCH  16  21
HETATM   21  C   UNL     1      -9.152   1.649 -33.415  1.00  0.00    -0.026 A 
HETATM   22  C   UNL     1      -8.819   0.811 -32.332  1.00  0.00     0.009 A 
HETATM   23  C   UNL     1      -8.036  -0.329 -32.518  1.00  0.00     0.001 A 
HETATM   24  C   UNL     1      -7.568  -0.651 -33.788  1.00  0.00     0.000 A 
HETATM   25  C   UNL     1      -7.882   0.165 -34.870  1.00  0.00     0.001 A 
HETATM   26  C   UNL     1      -8.664   1.308 -34.685  1.00  0.00     0.009 A 
ENDBRANCH  16  21
ENDBRANCH  15  16
ENDBRANCH  12  15
ENDBRANCH   5  11
BRANCH   1  27
HETATM   27  C   UNL     1      -3.889   0.338 -32.387  1.00  0.00     0.104 A 
HETATM   28  O   UNL     1      -4.331  -0.418 -33.440  1.00  0.00    -0.313 OA
HETATM   29  C   UNL     1      -4.032  -1.717 -33.162  1.00  0.00     0.050 A 
HETATM   30  C   UNL     1      -4.411  -2.717 -34.181  1.00  0.00     0.076 C 
HETATM   31  C   UNL     1      -3.405  -1.808 -31.939  1.00  0.00     0.035 A 
HETATM   32  C   UNL     1      -3.315  -0.486 -31.439  1.00  0.00     0.042 A 
ENDBRANCH   1  27
TORSDOF 6
ENDMDL
MODEL 5
REMARK VINA RESULT:      -8.9      4.299      8.716
REMARK  6 active torsions:
REMARK  status: ('A' for Active; 'I' for Inactive)
REMARK    1  A    between atoms: C_4  and  C_5 
REMARK    2  A    between atoms: C_9  and  C_10 
REMARK       I    between atoms: C_10  and  N_11 
REMARK    3  A    between atoms: N_11  and  C_12 
REMARK    4  A    between atoms: C_12  and  C_13 
REMARK    5  A    between atoms: C_13  and  N_14 
REMARK    6  A    between atoms: C_13  and  C_18 
ROOT
HETATM    1  C   UNL     1      -7.197  -0.478 -33.040  1.00  0.00     0.092 A 
HETATM    2  N   UNL     1      -6.665   0.267 -32.050  1.00  0.00    -0.246 NA
HETATM    3  C   UNL     1      -7.399   1.241 -31.494  1.00  0.00     0.069 A 
HETATM    4  C   UNL     1      -8.726   1.535 -31.881  1.00  0.00     0.008 A 
HETATM    5  C   UNL     1      -9.280   0.692 -32.881  1.00  0.00     0.046 A 
HETATM    6  C   UNL     1      -8.497  -0.308 -33.469  1.00  0.00     0.052 A 
HETATM    7  C   UNL     1      -6.793   1.997 -30.500  1.00  0.00     0.032 A 
HETATM    8  C   UNL     1      -7.444   3.062 -29.880  1.00  0.00     0.002 A 
HETATM    9  C   UNL     1      -8.729   3.396 -30.272  1.00  0.00     0.001 A 
HETATM   10  C   UNL     1      -9.360   2.649 -31.267  1.00  0.00     0.015 A 
ENDROOT
BRANCH   5  11
HETATM   11  C   UNL     1     -10.668   0.768 -33.423  1.00  0.00     0.252 C 
HETATM   12  N   UNL     1     -11.038   1.878 -34.155  1.00  0.00    -0.355 N 
HETATM   13  H   UNL     1     -10.402   2.669 -34.085  1.00  0.00     0.162 HD
HETATM   14  O   UNL     1     -11.469  -0.121 -33.155  1.00  0.00    -0.268 OA
BRANCH  12  15
HETATM   15  C   UNL     1     -12.441   2.232 -34.370  1.00  0.00     0.161 C 
BRANCH  15  16
HETATM   16  C   UNL     1     -13.420   2.517 -33.170  1.00  0.00     0.237 C 
BRANCH  16  17
HETATM   17  N   UNL     1     -14.875   2.095 -33.347  1.00  0.00    -0.069 N 
HETATM   18  H   UNL     1     -15.280   2.853 -33.908  1.00  0.00     0.279 HD
HETATM   19  C   UNL     1     -15.109   0.879 -34.201  1.00  0.00     0.270 C 
HETATM   20  C   UNL     1     -15.685   2.108 -32.084  1.00  0.00     0.270 C 
ENDBRANCH  16  17
BRANCH  16  21
HETATM   21  C   UNL     1     -13.321   3.878 -32.497  1.00  0.00    -0.026 A 
HETATM   22  C   UNL     1     -13.678   5.031 -33.224  1.00  0.00     0.009 A 
HETATM   23  C   UNL     1     -13.536   6.304 -32.670  1.00  0.00     0.001 A 
HETATM   24  C   UNL     1     -13.030   6.450 -31.383  1.00  0.00     0.000 A 
HETATM   25  C   UNL     1     -12.667   5.325 -30.650  1.00  0.00     0.001 A 
HETATM   26  C   UNL     1     -12.807   4.050 -31.203  1.00  0.00     0.009 A 
ENDBRANCH  16  21
ENDBRANCH  15  16
ENDBRANCH  12  15
ENDBRANCH   5  11
BRANCH   1  27
HETATM   27  C   UNL     1      -6.294  -1.451 -33.638  1.00  0.00     0.104 A 
HETATM   28  O   UNL     1      -6.870  -2.545 -34.226  1.00  0.00    -0.313 OA
HETATM   29  C   UNL     1      -5.866  -3.305 -34.744  1.00  0.00     0.050 A 
HETATM   30  C   UNL     1      -6.265  -4.543 -35.445  1.00  0.00     0.076 C 
HETATM   31  C   UNL     1      -4.647  -2.714 -34.493  1.00  0.00     0.035 A 
HETATM   32  C   UNL     1      -4.922  -1.522 -33.780  1.00  0.00     0.042 A 
ENDBRANCH   1  27
TORSDOF 6
ENDMDL
MODEL 6
REMARK VINA RESULT:      -8.9      3.265      5.896
REMARK  6 active torsions:
REMARK  status: ('A' for Active; 'I' for Inactive)
REMARK    1  A    between atoms: C_4  and  C_5 
REMARK    2  A    between atoms: C_9  and  C_10 
REMARK       I    between atoms: C_10  and  N_11 
REMARK    3  A    between atoms: N_11  and  C_12 
REMARK    4  A    between atoms: C_12  and  C_13 
REMARK    5  A    between atoms: C_13  and  N_14 
REMARK    6  A    between atoms: C_13  and  C_18 
ROOT
HETATM    1  C   UNL     1      -4.511   0.903 -32.070  1.00  0.00     0.092 A 
HETATM    2  N   UNL     1      -5.687   1.114 -31.444  1.00  0.00    -0.246 NA
HETATM    3  C   UNL     1      -5.928   2.308 -30.885  1.00  0.00     0.069 A 
HETATM    4  C   UNL     1      -5.013   3.385 -30.920  1.00  0.00     0.008 A 
HETATM    5  C   UNL     1      -3.812   3.152 -31.641  1.00  0.00     0.046 A 
HETATM    6  C   UNL     1      -3.562   1.895 -32.202  1.00  0.00     0.052 A 
HETATM    7  C   UNL     1      -7.141   2.462 -30.228  1.00  0.00     0.032 A 
HETATM    8  C   UNL     1      -7.483   3.645 -29.574  1.00  0.00     0.002 A 
HETATM    9  C   UNL     1      -6.585   4.699 -29.558  1.00  0.00     0.001 A 
HETATM   10  C   UNL     1      -5.362   4.568 -30.214  1.00  0.00     0.015 A 
ENDROOT
BRANCH   5  11
HETATM   11  C   UNL     1      -2.715   4.140 -31.861  1.00  0.00     0.252 C 
HETATM   12  N   UNL     1      -1.807   4.365 -30.846  1.00  0.00    -0.355 N 
HETATM   13  H   UNL     1      -2.082   4.001 -29.937  1.00  0.00     0.162 HD
HETATM   14  O   UNL     1      -2.679   4.777 -32.908  1.00  0.00    -0.268 OA
BRANCH  12  15
HETATM   15  C   UNL     1      -0.975   5.567 -30.804  1.00  0.00     0.161 C 
BRANCH  15  16
HETATM   16  C   UNL     1      -1.356   6.813 -29.919  1.00  0.00     0.237 C 
BRANCH  16  17
HETATM   17  N   UNL     1      -1.789   8.078 -30.654  1.00  0.00    -0.069 N 
HETATM   18  H   UNL     1      -1.083   8.770 -30.378  1.00  0.00     0.279 HD
HETATM   19  C   UNL     1      -1.664   8.045 -32.153  1.00  0.00     0.270 C 
HETATM   20  C   UNL     1      -3.082   8.666 -30.170  1.00  0.00     0.270 C 
ENDBRANCH  16  17
BRANCH  16  21
HETATM   21  C   UNL     1      -0.443   7.142 -28.747  1.00  0.00    -0.026 A 
HETATM   22  C   UNL     1       0.638   8.024 -28.947  1.00  0.00     0.009 A 
HETATM   23  C   UNL     1       1.541   8.299 -27.918  1.00  0.00     0.001 A 
HETATM   24  C   UNL     1       1.384   7.695 -26.675  1.00  0.00     0.000 A 
HETATM   25  C   UNL     1       0.326   6.817 -26.459  1.00  0.00     0.001 A 
HETATM   26  C   UNL     1      -0.577   6.540 -27.488  1.00  0.00     0.009 A 
ENDBRANCH  16  21
ENDBRANCH  15  16
ENDBRANCH  12  15
ENDBRANCH   5  11
BRANCH   1  27
HETATM   27  C   UNL     1      -4.307  -0.450 -32.568  1.00  0.00     0.104 A 
HETATM   28  O   UNL     1      -3.623  -1.309 -31.751  1.00  0.00    -0.313 OA
HETATM   29  C   UNL     1      -3.568  -2.514 -32.382  1.00  0.00     0.050 A 
HETATM   30  C   UNL     1      -2.878  -3.607 -31.666  1.00  0.00     0.076 C 
HETATM   31  C   UNL     1      -4.206  -2.440 -33.601  1.00  0.00     0.035 A 
HETATM   32  C   UNL     1      -4.680  -1.111 -33.721  1.00  0.00     0.042 A 
ENDBRANCH   1  27
TORSDOF 6
ENDMDL
MODEL 7
REMARK VINA RESULT:      -8.7      3.067      7.183
REMARK  6 active torsions:
REMARK  status: ('A' for Active; 'I' for Inactive)
REMARK    1  A    between atoms: C_4  and  C_5 
REMARK    2  A    between atoms: C_9  and  C_10 
REMARK       I    between atoms: C_10  and  N_11 
REMARK    3  A    between atoms: N_11  and  C_12 
REMARK    4  A    between atoms: C_12  and  C_13 
REMARK    5  A    between atoms: C_13  and  N_14 
REMARK    6  A    between atoms: C_13  and  C_18 
ROOT
HETATM    1  C   UNL     1      -6.357  -1.149 -33.876  1.00  0.00     0.092 A 
HETATM    2  N   UNL     1      -5.350  -0.385 -33.404  1.00  0.00    -0.246 NA
HETATM    3  C   UNL     1      -5.584   0.901 -33.110  1.00  0.00     0.069 A 
HETATM    4  C   UNL     1      -6.847   1.518 -33.256  1.00  0.00     0.008 A 
HETATM    5  C   UNL     1      -7.901   0.672 -33.695  1.00  0.00     0.046 A 
HETATM    6  C   UNL     1      -7.640  -0.664 -34.019  1.00  0.00     0.052 A 
HETATM    7  C   UNL     1      -4.506   1.650 -32.656  1.00  0.00     0.032 A 
HETATM    8  C   UNL     1      -4.621   3.007 -32.359  1.00  0.00     0.002 A 
HETATM    9  C   UNL     1      -5.838   3.643 -32.536  1.00  0.00     0.001 A 
HETATM   10  C   UNL     1      -6.936   2.911 -32.988  1.00  0.00     0.015 A 
ENDROOT
BRANCH   5  11
HETATM   11  C   UNL     1      -9.327   1.071 -33.882  1.00  0.00     0.252 C 
HETATM   12  N   UNL     1      -9.611   2.205 -34.616  1.00  0.00    -0.355 N 
HETATM   13  H   UNL     1      -8.814   2.813 -34.791  1.00  0.00     0.162 HD
HETATM   14  O   UNL     1     -10.210   0.425 -33.330  1.00  0.00    -0.268 OA
BRANCH  12  15
HETATM   15  C   UNL     1     -10.899   2.891 -34.514  1.00  0.00     0.161 C 
BRANCH  15  16
HETATM   16  C   UNL     1     -11.457   3.412 -33.136  1.00  0.00     0.237 C 
BRANCH  16  17
HETATM   17  N   UNL     1     -12.760   4.205 -33.173  1.00  0.00    -0.069 N 
HETATM   18  H   UNL     1     -12.585   4.987 -32.533  1.00  0.00     0.279 HD
HETATM   19  C   UNL     1     -13.077   4.892 -34.472  1.00  0.00     0.270 C 
HETATM   20  C   UNL     1     -13.936   3.496 -32.564  1.00  0.00     0.270 C 
ENDBRANCH  16  17
BRANCH  16  21
HETATM   21  C   UNL     1     -10.460   4.037 -32.171  1.00  0.00    -0.026 A 
HETATM   22  C   UNL     1      -9.870   5.274 -32.499  1.00  0.00     0.009 A 
HETATM   23  C   UNL     1      -8.899   5.848 -31.677  1.00  0.00     0.001 A 
HETATM   24  C   UNL     1      -8.497   5.196 -30.516  1.00  0.00     0.000 A 
HETATM   25  C   UNL     1      -9.064   3.972 -30.176  1.00  0.00     0.001 A 
HETATM   26  C   UNL     1     -10.035   3.395 -30.999  1.00  0.00     0.009 A 
ENDBRANCH  16  21
ENDBRANCH  15  16
ENDBRANCH  12  15
ENDBRANCH   5  11
BRANCH   1  27
HETATM   27  C   UNL     1      -5.984  -2.506 -34.248  1.00  0.00     0.104 A 
HETATM   28  O   UNL     1      -4.766  -2.951 -33.809  1.00  0.00    -0.313 OA
HETATM   29  C   UNL     1      -4.625  -4.237 -34.235  1.00  0.00     0.050 A 
HETATM   30  C   UNL     1      -3.375  -4.927 -33.858  1.00  0.00     0.076 C 
HETATM   31  C   UNL     1      -5.738  -4.624 -34.948  1.00  0.00     0.035 A 
HETATM   32  C   UNL     1      -6.611  -3.510 -34.958  1.00  0.00     0.042 A 
ENDBRANCH   1  27
TORSDOF 6
ENDMDL
MODEL 8
REMARK VINA RESULT:      -8.4      4.264      8.232
REMARK  6 active torsions:
REMARK  status: ('A' for Active; 'I' for Inactive)
REMARK    1  A    between atoms: C_4  and  C_5 
REMARK    2  A    between atoms: C_9  and  C_10 
REMARK       I    between atoms: C_10  and  N_11 
REMARK    3  A    between atoms: N_11  and  C_12 
REMARK    4  A    between atoms: C_12  and  C_13 
REMARK    5  A    between atoms: C_13  and  N_14 
REMARK    6  A    between atoms: C_13  and  C_18 
ROOT
HETATM    1  C   UNL     1      -7.096  -0.445 -33.128  1.00  0.00     0.092 A 
HETATM    2  N   UNL     1      -6.585   0.188 -32.053  1.00  0.00    -0.246 NA
HETATM    3  C   UNL     1      -7.257   1.214 -31.513  1.00  0.00     0.069 A 
HETATM    4  C   UNL     1      -8.499   1.676 -32.004  1.00  0.00     0.008 A 
HETATM    5  C   UNL     1      -9.042   0.949 -33.097  1.00  0.00     0.046 A 
HETATM    6  C   UNL     1      -8.321  -0.107 -33.665  1.00  0.00     0.052 A 
HETATM    7  C   UNL     1      -6.672   1.849 -30.426  1.00  0.00     0.032 A 
HETATM    8  C   UNL     1      -7.259   2.953 -29.811  1.00  0.00     0.002 A 
HETATM    9  C   UNL     1      -8.454   3.451 -30.300  1.00  0.00     0.001 A 
HETATM   10  C   UNL     1      -9.063   2.828 -31.389  1.00  0.00     0.015 A 
ENDROOT
BRANCH   5  11
HETATM   11  C   UNL     1     -10.353   1.210 -33.760  1.00  0.00     0.252 C 
HETATM   12  N   UNL     1     -10.450   2.252 -34.659  1.00  0.00    -0.355 N 
HETATM   13  H   UNL     1      -9.673   2.909 -34.639  1.00  0.00     0.162 HD
HETATM   14  O   UNL     1     -11.331   0.539 -33.447  1.00  0.00    -0.268 OA
BRANCH  12  15
HETATM   15  C   UNL     1     -11.739   2.833 -35.036  1.00  0.00     0.161 C 
BRANCH  15  16
HETATM   16  C   UNL     1     -12.119   4.319 -34.677  1.00  0.00     0.237 C 
BRANCH  16  17
HETATM   17  N   UNL     1     -11.032   5.374 -34.857  1.00  0.00    -0.069 N 
HETATM   18  H   UNL     1     -10.382   4.941 -35.522  1.00  0.00     0.279 HD
HETATM   19  C   UNL     1     -11.448   6.636 -35.562  1.00  0.00     0.270 C 
HETATM   20  C   UNL     1     -10.193   5.615 -33.636  1.00  0.00     0.270 C 
ENDBRANCH  16  17
BRANCH  16  21
HETATM   21  C   UNL     1     -12.902   4.548 -33.393  1.00  0.00    -0.026 A 
HETATM   22  C   UNL     1     -12.690   3.687 -32.297  1.00  0.00     0.009 A 
HETATM   23  C   UNL     1     -13.437   3.818 -31.125  1.00  0.00     0.001 A 
HETATM   24  C   UNL     1     -14.410   4.806 -31.027  1.00  0.00     0.000 A 
HETATM   25  C   UNL     1     -14.638   5.664 -32.100  1.00  0.00     0.001 A 
HETATM   26  C   UNL     1     -13.893   5.533 -33.274  1.00  0.00     0.009 A 
ENDBRANCH  16  21
ENDBRANCH  15  16
ENDBRANCH  12  15
ENDBRANCH   5  11
BRANCH   1  27
HETATM   27  C   UNL     1      -6.252  -1.487 -33.694  1.00  0.00     0.104 A 
HETATM   28  O   UNL     1      -6.892  -2.543 -34.287  1.00  0.00    -0.313 OA
HETATM   29  C   UNL     1      -5.933  -3.379 -34.772  1.00  0.00     0.050 A 
HETATM   30  C   UNL     1      -6.405  -4.592 -35.471  1.00  0.00     0.076 C 
HETATM   31  C   UNL     1      -4.681  -2.877 -34.495  1.00  0.00     0.035 A 
HETATM   32  C   UNL     1      -4.886  -1.661 -33.799  1.00  0.00     0.042 A 
ENDBRANCH   1  27
TORSDOF 6
ENDMDL
MODEL 9
REMARK VINA RESULT:      -8.2      2.832      5.561
REMARK  6 active torsions:
REMARK  status: ('A' for Active; 'I' for Inactive)
REMARK    1  A    between atoms: C_4  and  C_5 
REMARK    2  A    between atoms: C_9  and  C_10 
REMARK       I    between atoms: C_10  and  N_11 
REMARK    3  A    between atoms: N_11  and  C_12 
REMARK    4  A    between atoms: C_12  and  C_13 
REMARK    5  A    between atoms: C_13  and  N_14 
REMARK    6  A    between atoms: C_13  and  C_18 
ROOT
HETATM    1  C   UNL     1      -5.756   1.236 -32.601  1.00  0.00     0.092 A 
HETATM    2  N   UNL     1      -6.734   1.667 -31.778  1.00  0.00    -0.246 NA
HETATM    3  C   UNL     1      -6.533   2.764 -31.038  1.00  0.00     0.069 A 
HETATM    4  C   UNL     1      -5.340   3.521 -31.072  1.00  0.00     0.008 A 
HETATM    5  C   UNL     1      -4.354   3.079 -31.994  1.00  0.00     0.046 A 
HETATM    6  C   UNL     1      -4.567   1.919 -32.747  1.00  0.00     0.052 A 
HETATM    7  C   UNL     1      -7.561   3.147 -30.186  1.00  0.00     0.032 A 
HETATM    8  C   UNL     1      -7.448   4.247 -29.338  1.00  0.00     0.002 A 
HETATM    9  C   UNL     1      -6.272   4.978 -29.323  1.00  0.00     0.001 A 
HETATM   10  C   UNL     1      -5.227   4.615 -30.171  1.00  0.00     0.015 A 
ENDROOT
BRANCH   5  11
HETATM   11  C   UNL     1      -3.036   3.731 -32.250  1.00  0.00     0.252 C 
HETATM   12  N   UNL     1      -2.253   4.097 -31.174  1.00  0.00    -0.355 N 
HETATM   13  H   UNL     1      -2.732   4.096 -30.276  1.00  0.00     0.162 HD
HETATM   14  O   UNL     1      -2.704   3.987 -33.402  1.00  0.00    -0.268 OA
BRANCH  12  15
HETATM   15  C   UNL     1      -1.177   5.079 -31.298  1.00  0.00     0.161 C 
BRANCH  15  16
HETATM   16  C   UNL     1      -1.134   6.383 -30.414  1.00  0.00     0.237 C 
BRANCH  16  17
HETATM   17  N   UNL     1      -0.206   6.368 -29.203  1.00  0.00    -0.069 N 
HETATM   18  H   UNL     1      -0.850   6.285 -28.408  1.00  0.00     0.279 HD
HETATM   19  C   UNL     1       0.671   5.155 -29.059  1.00  0.00     0.270 C 
HETATM   20  C   UNL     1       0.511   7.663 -28.954  1.00  0.00     0.270 C 
ENDBRANCH  16  17
BRANCH  16  21
HETATM   21  C   UNL     1      -2.463   7.045 -30.082  1.00  0.00    -0.026 A 
HETATM   22  C   UNL     1      -3.221   7.621 -31.120  1.00  0.00     0.009 A 
HETATM   23  C   UNL     1      -4.411   8.299 -30.851  1.00  0.00     0.001 A 
HETATM   24  C   UNL     1      -4.863   8.418 -29.541  1.00  0.00     0.000 A 
HETATM   25  C   UNL     1      -4.126   7.860 -28.500  1.00  0.00     0.001 A 
HETATM   26  C   UNL     1      -2.934   7.183 -28.768  1.00  0.00     0.009 A 
ENDBRANCH  16  21
ENDBRANCH  15  16
ENDBRANCH  12  15
ENDBRANCH   5  11
BRANCH   1  27
HETATM   27  C   UNL     1      -6.035  -0.012 -33.297  1.00  0.00     0.104 A 
HETATM   28  O   UNL     1      -4.965  -0.829 -33.547  1.00  0.00    -0.313 OA
HETATM   29  C   UNL     1      -5.441  -1.942 -34.172  1.00  0.00     0.050 A 
HETATM   30  C   UNL     1      -4.449  -2.977 -34.527  1.00  0.00     0.076 C 
HETATM   31  C   UNL     1      -6.806  -1.849 -34.331  1.00  0.00     0.035 A 
HETATM   32  C   UNL     1      -7.188  -0.607 -33.770  1.00  0.00     0.042 A 
ENDBRANCH   1  27
TORSDOF 6
ENDMDL
MODEL 10
REMARK VINA RESULT:      -8.2      2.227      8.390
REMARK  6 active torsions:
REMARK  status: ('A' for Active; 'I' for Inactive)
REMARK    1  A    between atoms: C_4  and  C_5 
REMARK    2  A    between atoms: C_9  and  C_10 
REMARK       I    between atoms: C_10  and  N_11 
REMARK    3  A    between atoms: N_11  and  C_12 
REMARK    4  A    between atoms: C_12  and  C_13 
REMARK    5  A    between atoms: C_13  and  N_14 
REMARK    6  A    between atoms: C_13  and  C_18 
ROOT
HETATM    1  C   UNL     1      -3.750   3.160 -32.103  1.00  0.00     0.092 A 
HETATM    2  N   UNL     1      -3.195   1.990 -32.480  1.00  0.00    -0.246 NA
HETATM    3  C   UNL     1      -3.942   0.878 -32.483  1.00  0.00     0.069 A 
HETATM    4  C   UNL     1      -5.307   0.855 -32.118  1.00  0.00     0.008 A 
HETATM    5  C   UNL     1      -5.880   2.112 -31.786  1.00  0.00     0.046 A 
HETATM    6  C   UNL     1      -5.084   3.263 -31.767  1.00  0.00     0.052 A 
HETATM    7  C   UNL     1      -3.313  -0.303 -32.851  1.00  0.00     0.032 A 
HETATM    8  C   UNL     1      -3.979  -1.528 -32.850  1.00  0.00     0.002 A 
HETATM    9  C   UNL     1      -5.305  -1.582 -32.455  1.00  0.00     0.001 A 
HETATM   10  C   UNL     1      -5.959  -0.407 -32.083  1.00  0.00     0.015 A 
ENDROOT
BRANCH   5  11
HETATM   11  C   UNL     1      -7.304   2.358 -31.414  1.00  0.00     0.252 C 
HETATM   12  N   UNL     1      -8.280   2.213 -32.380  1.00  0.00    -0.355 N 
HETATM   13  H   UNL     1      -7.933   2.164 -33.335  1.00  0.00     0.162 HD
HETATM   14  O   UNL     1      -7.573   2.745 -30.283  1.00  0.00    -0.268 OA
BRANCH  12  15
HETATM   15  C   UNL     1      -9.607   2.810 -32.235  1.00  0.00     0.161 C 
BRANCH  15  16
HETATM   16  C   UNL     1     -10.595   2.949 -33.454  1.00  0.00     0.237 C 
BRANCH  16  17
HETATM   17  N   UNL     1     -10.955   4.365 -33.895  1.00  0.00    -0.069 N 
HETATM   18  H   UNL     1     -11.978   4.386 -33.826  1.00  0.00     0.279 HD
HETATM   19  C   UNL     1     -10.529   5.472 -32.971  1.00  0.00     0.270 C 
HETATM   20  C   UNL     1     -10.684   4.652 -35.344  1.00  0.00     0.270 C 
ENDBRANCH  16  17
BRANCH  16  21
HETATM   21  C   UNL     1     -11.815   2.040 -33.471  1.00  0.00    -0.026 A 
HETATM   22  C   UNL     1     -11.630   0.645 -33.530  1.00  0.00     0.009 A 
HETATM   23  C   UNL     1     -12.721  -0.222 -33.618  1.00  0.00     0.001 A 
HETATM   24  C   UNL     1     -14.014   0.288 -33.652  1.00  0.00     0.000 A 
HETATM   25  C   UNL     1     -14.218   1.664 -33.600  1.00  0.00     0.001 A 
HETATM   26  C   UNL     1     -13.127   2.533 -33.514  1.00  0.00     0.009 A 
ENDBRANCH  16  21
ENDBRANCH  15  16
ENDBRANCH  12  15
ENDBRANCH   5  11
BRANCH   1  27
HETATM   27  C   UNL     1      -2.837   4.292 -32.050  1.00  0.00     0.104 A 
HETATM   28  O   UNL     1      -1.689   4.121 -31.324  1.00  0.00    -0.313 OA
HETATM   29  C   UNL     1      -0.969   5.273 -31.425  1.00  0.00     0.050 A 
HETATM   30  C   UNL     1       0.330   5.307 -30.721  1.00  0.00     0.076 C 
HETATM   31  C   UNL     1      -1.643   6.187 -32.205  1.00  0.00     0.035 A 
HETATM   32  C   UNL     1      -2.846   5.556 -32.605  1.00  0.00     0.042 A 
ENDBRANCH   1  27
TORSDOF 6
ENDMDL
