MODEL 1
REMARK VINA RESULT:      -9.2      0.000      0.000
REMARK  7 active torsions:
REMARK  status: ('A' for Active; 'I' for Inactive)
REMARK    1  A    between atoms: C_2  and  N_3 
REMARK    2  A    between atoms: C_2  and  C_12 
REMARK       I    between atoms: N_3  and  C_4 
REMARK    3  A    between atoms: C_4  and  C_5 
REMARK    4  A    between atoms: N_17  and  C_19 
REMARK    5  A    between atoms: C_19  and  C_20 
REMARK    6  A    between atoms: C_22  and  C_23 
REMARK    7  A    between atoms: C_23  and  N_24 
ROOT
HETATM    1  C   UNL     1      -2.723   8.283 -31.707  1.00  0.00     0.152 A 
HETATM    2  N   UNL     1      -3.239   7.131 -32.266  1.00  0.00    -0.317 N 
HETATM    3  C   UNL     1      -2.533   6.930 -33.427  1.00  0.00     0.131 A 
HETATM    4  C   UNL     1      -2.648   5.765 -34.337  1.00  0.00     0.108 C 
HETATM    5  C   UNL     1      -2.528   4.464 -33.556  1.00  0.00     0.243 C 
HETATM    6  N   UNL     1      -3.838   4.040 -32.894  1.00  0.00    -0.065 N 
HETATM    7  H   UNL     1      -4.333   3.481 -33.602  1.00  0.00     0.280 HD
HETATM    8  C   UNL     1      -4.816   5.162 -32.546  1.00  0.00     0.255 C 
HETATM    9  C   UNL     1      -4.228   6.264 -31.666  1.00  0.00     0.159 C 
HETATM   10  N   UNL     1      -1.652   7.892 -33.563  1.00  0.00    -0.135 NA
HETATM   11  N   UNL     1      -1.763   8.729 -32.492  1.00  0.00    -0.133 NA
ENDROOT
BRANCH   6  12
HETATM   12  C   UNL     1      -3.599   3.078 -31.730  1.00  0.00     0.280 C 
BRANCH  12  13
HETATM   13  C   UNL     1      -4.469   1.850 -31.794  1.00  0.00     0.009 A 
HETATM   14  S   UNL     1      -5.214   1.389 -33.272  1.00  0.00    -0.096 SA
HETATM   15  C   UNL     1      -6.009   0.052 -32.553  1.00  0.00     0.009 A 
HETATM   16  C   UNL     1      -5.681  -0.060 -31.215  1.00  0.00     0.017 A 
HETATM   17  C   UNL     1      -4.785   0.964 -30.783  1.00  0.00     0.017 A 
BRANCH  15  18
HETATM   18  C   UNL     1      -6.944  -0.808 -33.357  1.00  0.00     0.280 C 
BRANCH  18  19
HETATM   19  N   UNL     1      -6.259  -1.900 -34.154  1.00  0.00    -0.067 N 
HETATM   20  H   UNL     1      -6.135  -1.531 -35.105  1.00  0.00     0.280 HD
HETATM   21  C   UNL     1      -4.891  -2.252 -33.613  1.00  0.00     0.235 C 
HETATM   22  C   UNL     1      -4.236  -3.296 -34.506  1.00  0.00     0.028 C 
HETATM   23  C   UNL     1      -5.107  -4.537 -34.655  1.00  0.00     0.003 C 
HETATM   24  C   UNL     1      -6.499  -4.166 -35.149  1.00  0.00     0.028 C 
HETATM   25  C   UNL     1      -7.152  -3.120 -34.258  1.00  0.00     0.235 C 
ENDBRANCH  18  19
ENDBRANCH  15  18
ENDBRANCH  12  13
ENDBRANCH   6  12
BRANCH   1  26
HETATM   26  C   UNL     1      -3.114   8.885 -30.387  1.00  0.00     0.152 C 
HETATM   27  C   UNL     1      -3.779  10.245 -30.576  1.00  0.00     0.040 C 
BRANCH  26  28
HETATM   28  N   UNL     1      -1.897   9.015 -29.599  1.00  0.00    -0.349 N 
HETATM   29  C   UNL     1      -1.831   8.602 -28.292  1.00  0.00     0.222 C 
HETATM   30  O   UNL     1      -2.828   8.246 -27.667  1.00  0.00    -0.273 OA
HETATM   31  H   UNL     1      -1.036   9.145 -30.121  1.00  0.00     0.163 HD
BRANCH  29  32
HETATM   32  C   UNL     1      -0.420   8.565 -27.704  1.00  0.00     0.082 C 
HETATM   33  C   UNL     1      -0.384   7.790 -26.382  1.00  0.00     0.040 C 
HETATM   34  C   UNL     1      -0.529   6.285 -26.592  1.00  0.00     0.168 C 
HETATM   35  O   UNL     1       0.402   5.779 -27.548  1.00  0.00    -0.391 OA
HETATM   36  C   UNL     1       0.319   6.431 -28.814  1.00  0.00     0.168 C 
HETATM   37  C   UNL     1       0.566   7.929 -28.688  1.00  0.00     0.040 C 
ENDBRANCH  29  32
ENDBRANCH  26  28
ENDBRANCH   1  26
TORSDOF 7
ENDMDL
MODEL 2
REMARK VINA RESULT:      -8.8      2.412      3.229
REMARK  7 active torsions:
REMARK  status: ('A' for Active; 'I' for Inactive)
REMARK    1  A    between atoms: C_2  and  N_3 
REMARK    2  A    between atoms: C_2  and  C_12 
REMARK       I    between atoms: N_3  and  C_4 
REMARK    3  A    between atoms: C_4  and  C_5 
REMARK    4  A    between atoms: N_17  and  C_19 
REMARK    5  A    between atoms: C_19  and  C_20 
REMARK    6  A    between atoms: C_22  and  C_23 
REMARK    7  A    between atoms: C_23  and  N_24 
ROOT
HETATM    1  C   UNL     1      -2.675   8.210 -31.762  1.00  0.00     0.152 A 
HETATM    2  N   UNL     1      -3.144   7.073 -32.388  1.00  0.00    -0.317 N 
HETATM    3  C   UNL     1      -2.411   6.954 -33.545  1.00  0.00     0.131 A 
HETATM    4  C   UNL     1      -2.473   5.834 -34.515  1.00  0.00     0.108 C 
HETATM    5  C   UNL     1      -2.323   4.500 -33.799  1.00  0.00     0.243 C 
HETATM    6  N   UNL     1      -3.629   4.001 -33.183  1.00  0.00    -0.065 N 
HETATM    7  H   UNL     1      -4.093   3.463 -33.928  1.00  0.00     0.280 HD
HETATM    8  C   UNL     1      -4.650   5.071 -32.797  1.00  0.00     0.255 C 
HETATM    9  C   UNL     1      -4.113   6.145 -31.851  1.00  0.00     0.159 C 
HETATM   10  N   UNL     1      -1.561   7.950 -33.615  1.00  0.00    -0.135 NA
HETATM   11  N   UNL     1      -1.717   8.727 -32.505  1.00  0.00    -0.133 NA
ENDROOT
BRANCH   6  12
HETATM   12  C   UNL     1      -3.378   2.988 -32.066  1.00  0.00     0.280 C 
BRANCH  12  13
HETATM   13  C   UNL     1      -4.647   2.382 -31.526  1.00  0.00     0.009 A 
HETATM   14  S   UNL     1      -5.690   1.488 -32.557  1.00  0.00    -0.096 SA
HETATM   15  C   UNL     1      -6.833   1.217 -31.309  1.00  0.00     0.009 A 
HETATM   16  C   UNL     1      -6.406   1.770 -30.117  1.00  0.00     0.017 A 
HETATM   17  C   UNL     1      -5.143   2.426 -30.238  1.00  0.00     0.017 A 
BRANCH  15  18
HETATM   18  C   UNL     1      -8.116   0.485 -31.588  1.00  0.00     0.280 C 
BRANCH  18  19
HETATM   19  N   UNL     1      -9.072   1.228 -32.500  1.00  0.00    -0.067 N 
HETATM   20  H   UNL     1      -8.523   1.527 -33.316  1.00  0.00     0.280 HD
HETATM   21  C   UNL     1     -10.205   0.359 -32.998  1.00  0.00     0.235 C 
HETATM   22  C   UNL     1     -11.076   1.149 -33.963  1.00  0.00     0.028 C 
HETATM   23  C   UNL     1     -11.601   2.430 -33.330  1.00  0.00     0.003 C 
HETATM   24  C   UNL     1     -10.457   3.274 -32.784  1.00  0.00     0.028 C 
HETATM   25  C   UNL     1      -9.585   2.483 -31.821  1.00  0.00     0.235 C 
ENDBRANCH  18  19
ENDBRANCH  15  18
ENDBRANCH  12  13
ENDBRANCH   6  12
BRANCH   1  26
HETATM   26  C   UNL     1      -3.108   8.731 -30.420  1.00  0.00     0.152 C 
HETATM   27  C   UNL     1      -3.852  10.055 -30.557  1.00  0.00     0.040 C 
BRANCH  26  28
HETATM   28  N   UNL     1      -1.904   8.899 -29.619  1.00  0.00    -0.349 N 
HETATM   29  C   UNL     1      -1.881   8.616 -28.277  1.00  0.00     0.222 C 
HETATM   30  O   UNL     1      -2.902   8.354 -27.645  1.00  0.00    -0.273 OA
HETATM   31  H   UNL     1      -1.029   8.950 -30.129  1.00  0.00     0.163 HD
BRANCH  29  32
HETATM   32  C   UNL     1      -0.485   8.592 -27.652  1.00  0.00     0.082 C 
HETATM   33  C   UNL     1      -0.473   7.807 -26.336  1.00  0.00     0.040 C 
HETATM   34  C   UNL     1      -0.593   6.302 -26.561  1.00  0.00     0.168 C 
HETATM   35  O   UNL     1       0.370   5.816 -27.496  1.00  0.00    -0.391 OA
HETATM   36  C   UNL     1       0.310   6.476 -28.759  1.00  0.00     0.168 C 
HETATM   37  C   UNL     1       0.534   7.976 -28.615  1.00  0.00     0.040 C 
ENDBRANCH  29  32
ENDBRANCH  26  28
ENDBRANCH   1  26
TORSDOF 7
ENDMDL
MODEL 3
REMARK VINA RESULT:      -8.6      3.043      5.314
REMARK  7 active torsions:
REMARK  status: ('A' for Active; 'I' for Inactive)
REMARK    1  A    between atoms: C_2  and  N_3 
REMARK    2  A    between atoms: C_2  and  C_12 
REMARK       I    between atoms: N_3  and  C_4 
REMARK    3  A    between atoms: C_4  and  C_5 
REMARK    4  A    between atoms: N_17  and  C_19 
REMARK    5  A    between atoms: C_19  and  C_20 
REMARK    6  A    between atoms: C_22  and  C_23 
REMARK    7  A    between atoms: C_23  and  N_24 
ROOT
HETATM    1  C   UNL     1      -6.501   4.401 -32.628  1.00  0.00     0.152 A 
HETATM    2  N   UNL     1      -7.782   3.896 -32.533  1.00  0.00    -0.317 N 
HETATM    3  C   UNL     1      -8.499   4.503 -33.536  1.00  0.00     0.131 A 
HETATM    4  C   UNL     1      -9.905   4.217 -33.910  1.00  0.00     0.108 C 
HETATM    5  C   UNL     1     -10.111   2.723 -34.109  1.00  0.00     0.243 C 
HETATM    6  N   UNL     1     -10.337   1.970 -32.800  1.00  0.00    -0.065 N 
HETATM    7  H   UNL     1     -11.351   2.010 -32.634  1.00  0.00     0.280 HD
HETATM    8  C   UNL     1      -9.723   2.591 -31.546  1.00  0.00     0.255 C 
HETATM    9  C   UNL     1      -8.219   2.849 -31.638  1.00  0.00     0.159 C 
HETATM   10  N   UNL     1      -7.708   5.319 -34.191  1.00  0.00    -0.135 NA
HETATM   11  N   UNL     1      -6.466   5.252 -33.634  1.00  0.00    -0.133 NA
ENDROOT
BRANCH   6  12
HETATM   12  C   UNL     1     -10.021   0.480 -32.941  1.00  0.00     0.280 C 
BRANCH  12  13
HETATM   13  C   UNL     1      -8.670   0.221 -33.555  1.00  0.00     0.009 A 
HETATM   14  S   UNL     1      -7.379  -0.380 -32.595  1.00  0.00    -0.096 SA
HETATM   15  C   UNL     1      -6.274  -0.343 -33.904  1.00  0.00     0.009 A 
HETATM   16  C   UNL     1      -6.892   0.087 -35.063  1.00  0.00     0.017 A 
HETATM   17  C   UNL     1      -8.272   0.397 -34.866  1.00  0.00     0.017 A 
BRANCH  15  18
HETATM   18  C   UNL     1      -4.833  -0.723 -33.704  1.00  0.00     0.280 C 
BRANCH  18  19
HETATM   19  N   UNL     1      -4.614  -2.186 -33.372  1.00  0.00    -0.067 N 
HETATM   20  H   UNL     1      -5.413  -2.475 -32.793  1.00  0.00     0.280 HD
HETATM   21  C   UNL     1      -4.589  -3.070 -34.598  1.00  0.00     0.235 C 
HETATM   22  C   UNL     1      -4.442  -4.527 -34.182  1.00  0.00     0.028 C 
HETATM   23  C   UNL     1      -3.207  -4.744 -33.318  1.00  0.00     0.003 C 
HETATM   24  C   UNL     1      -3.216  -3.813 -32.114  1.00  0.00     0.028 C 
HETATM   25  C   UNL     1      -3.365  -2.357 -32.530  1.00  0.00     0.235 C 
ENDBRANCH  18  19
ENDBRANCH  15  18
ENDBRANCH  12  13
ENDBRANCH   6  12
BRANCH   1  26
HETATM   26  C   UNL     1      -5.318   3.993 -31.795  1.00  0.00     0.152 C 
HETATM   27  C   UNL     1      -5.522   4.363 -30.329  1.00  0.00     0.040 C 
BRANCH  26  28
HETATM   28  N   UNL     1      -4.155   4.678 -32.340  1.00  0.00    -0.349 N 
HETATM   29  C   UNL     1      -2.884   4.188 -32.179  1.00  0.00     0.222 C 
HETATM   30  O   UNL     1      -2.637   3.236 -31.441  1.00  0.00    -0.273 OA
HETATM   31  H   UNL     1      -4.336   5.353 -33.075  1.00  0.00     0.163 HD
BRANCH  29  32
HETATM   32  C   UNL     1      -1.820   4.879 -33.033  1.00  0.00     0.082 C 
HETATM   33  C   UNL     1      -2.355   6.170 -33.659  1.00  0.00     0.040 C 
HETATM   34  C   UNL     1      -2.512   7.288 -32.632  1.00  0.00     0.168 C 
HETATM   35  O   UNL     1      -1.320   7.500 -31.875  1.00  0.00    -0.391 OA
HETATM   36  C   UNL     1      -0.858   6.326 -31.211  1.00  0.00     0.168 C 
HETATM   37  C   UNL     1      -0.575   5.201 -32.199  1.00  0.00     0.040 C 
ENDBRANCH  29  32
ENDBRANCH  26  28
ENDBRANCH   1  26
TORSDOF 7
ENDMDL
MODEL 4
REMARK VINA RESULT:      -8.5      4.375      6.278
REMARK  7 active torsions:
REMARK  status: ('A' for Active; 'I' for Inactive)
REMARK    1  A    between atoms: C_2  and  N_3 
REMARK    2  A    between atoms: C_2  and  C_12 
REMARK       I    between atoms: N_3  and  C_4 
REMARK    3  A    between atoms: C_4  and  C_5 
REMARK    4  A    between atoms: N_17  and  C_19 
REMARK    5  A    between atoms: C_19  and  C_20 
REMARK    6  A    between atoms: C_22  and  C_23 
REMARK    7  A    between atoms: C_23  and  N_24 
ROOT
HETATM    1  C   UNL     1      -3.467   4.047 -32.669  1.00  0.00     0.152 A 
HETATM    2  N   UNL     1      -4.310   2.956 -32.609  1.00  0.00    -0.317 N 
HETATM    3  C   UNL     1      -3.707   2.065 -31.753  1.00  0.00     0.131 A 
HETATM    4  C   UNL     1      -4.272   0.777 -31.283  1.00  0.00     0.108 C 
HETATM    5  C   UNL     1      -5.678   0.978 -30.738  1.00  0.00     0.243 C 
HETATM    6  N   UNL     1      -6.745   1.014 -31.830  1.00  0.00    -0.065 N 
HETATM    7  H   UNL     1      -7.022   0.033 -31.973  1.00  0.00     0.280 HD
HETATM    8  C   UNL     1      -6.286   1.481 -33.211  1.00  0.00     0.255 C 
HETATM    9  C   UNL     1      -5.614   2.854 -33.224  1.00  0.00     0.159 C 
HETATM   10  N   UNL     1      -2.578   2.579 -31.328  1.00  0.00    -0.135 NA
HETATM   11  N   UNL     1      -2.431   3.812 -31.889  1.00  0.00    -0.133 NA
ENDROOT
BRANCH   6  12
HETATM   12  C   UNL     1      -8.017   1.717 -31.357  1.00  0.00     0.280 C 
BRANCH  12  13
HETATM   13  C   UNL     1      -9.192   1.484 -32.270  1.00  0.00     0.009 A 
HETATM   14  S   UNL     1      -9.911   2.797 -33.114  1.00  0.00    -0.096 SA
HETATM   15  C   UNL     1     -11.111   1.798 -33.820  1.00  0.00     0.009 A 
HETATM   16  C   UNL     1     -10.942   0.479 -33.445  1.00  0.00     0.017 A 
HETATM   17  C   UNL     1      -9.831   0.296 -32.567  1.00  0.00     0.017 A 
BRANCH  15  18
HETATM   18  C   UNL     1     -12.181   2.386 -34.697  1.00  0.00     0.280 C 
BRANCH  18  19
HETATM   19  N   UNL     1     -13.519   2.570 -34.010  1.00  0.00    -0.067 N 
HETATM   20  H   UNL     1     -14.020   3.295 -34.540  1.00  0.00     0.280 HD
HETATM   21  C   UNL     1     -14.366   1.317 -34.026  1.00  0.00     0.235 C 
HETATM   22  C   UNL     1     -15.719   1.600 -33.388  1.00  0.00     0.028 C 
HETATM   23  C   UNL     1     -15.573   2.150 -31.976  1.00  0.00     0.003 C 
HETATM   24  C   UNL     1     -14.676   3.380 -31.963  1.00  0.00     0.028 C 
HETATM   25  C   UNL     1     -13.324   3.099 -32.602  1.00  0.00     0.235 C 
ENDBRANCH  18  19
ENDBRANCH  15  18
ENDBRANCH  12  13
ENDBRANCH   6  12
BRANCH   1  26
HETATM   26  C   UNL     1      -3.717   5.326 -33.418  1.00  0.00     0.152 C 
HETATM   27  C   UNL     1      -3.615   5.111 -34.925  1.00  0.00     0.040 C 
BRANCH  26  28
HETATM   28  N   UNL     1      -2.720   6.286 -32.968  1.00  0.00    -0.349 N 
HETATM   29  C   UNL     1      -3.029   7.297 -32.093  1.00  0.00     0.222 C 
HETATM   30  O   UNL     1      -4.187   7.544 -31.762  1.00  0.00    -0.273 OA
HETATM   31  H   UNL     1      -1.750   6.015 -33.088  1.00  0.00     0.163 HD
BRANCH  29  32
HETATM   32  C   UNL     1      -1.822   8.042 -31.524  1.00  0.00     0.082 C 
HETATM   33  C   UNL     1      -2.181   8.792 -30.237  1.00  0.00     0.040 C 
HETATM   34  C   UNL     1      -2.380   7.847 -29.056  1.00  0.00     0.168 C 
HETATM   35  O   UNL     1      -1.276   6.958 -28.880  1.00  0.00    -0.391 OA
HETATM   36  C   UNL     1      -0.986   6.186 -30.044  1.00  0.00     0.168 C 
HETATM   37  C   UNL     1      -0.668   7.076 -31.239  1.00  0.00     0.040 C 
ENDBRANCH  29  32
ENDBRANCH  26  28
ENDBRANCH   1  26
TORSDOF 7
ENDMDL
MODEL 5
REMARK VINA RESULT:      -8.4      2.502      3.744
REMARK  7 active torsions:
REMARK  status: ('A' for Active; 'I' for Inactive)
REMARK    1  A    between atoms: C_2  and  N_3 
REMARK    2  A    between atoms: C_2  and  C_12 
REMARK       I    between atoms: N_3  and  C_4 
REMARK    3  A    between atoms: C_4  and  C_5 
REMARK    4  A    between atoms: N_17  and  C_19 
REMARK    5  A    between atoms: C_19  and  C_20 
REMARK    6  A    between atoms: C_22  and  C_23 
REMARK    7  A    between atoms: C_23  and  N_24 
ROOT
HETATM    1  C   UNL     1      -0.080   6.817 -29.256  1.00  0.00     0.152 A 
HETATM    2  N   UNL     1      -0.970   6.647 -30.297  1.00  0.00    -0.317 N 
HETATM    3  C   UNL     1      -0.696   5.408 -30.825  1.00  0.00     0.131 A 
HETATM    4  C   UNL     1      -1.449   4.724 -31.904  1.00  0.00     0.108 C 
HETATM    5  C   UNL     1      -2.938   4.713 -31.589  1.00  0.00     0.243 C 
HETATM    6  N   UNL     1      -3.640   6.016 -31.965  1.00  0.00    -0.065 N 
HETATM    7  H   UNL     1      -3.924   5.900 -32.946  1.00  0.00     0.280 HD
HETATM    8  C   UNL     1      -2.775   7.276 -31.968  1.00  0.00     0.255 C 
HETATM    9  C   UNL     1      -2.045   7.546 -30.652  1.00  0.00     0.159 C 
HETATM   10  N   UNL     1       0.292   4.867 -30.153  1.00  0.00    -0.135 NA
HETATM   11  N   UNL     1       0.670   5.736 -29.173  1.00  0.00    -0.133 NA
ENDROOT
BRANCH   6  12
HETATM   12  C   UNL     1      -4.949   6.197 -31.196  1.00  0.00     0.280 C 
BRANCH  12  13
HETATM   13  C   UNL     1      -5.695   4.904 -30.993  1.00  0.00     0.009 A 
HETATM   14  S   UNL     1      -6.477   4.135 -32.315  1.00  0.00    -0.096 SA
HETATM   15  C   UNL     1      -7.091   2.874 -31.330  1.00  0.00     0.009 A 
HETATM   16  C   UNL     1      -6.675   3.020 -30.021  1.00  0.00     0.017 A 
HETATM   17  C   UNL     1      -5.861   4.178 -29.830  1.00  0.00     0.017 A 
BRANCH  15  18
HETATM   18  C   UNL     1      -7.981   1.811 -31.910  1.00  0.00     0.280 C 
BRANCH  18  19
HETATM   19  N   UNL     1      -7.341   0.995 -33.015  1.00  0.00    -0.067 N 
HETATM   20  H   UNL     1      -6.579   1.570 -33.397  1.00  0.00     0.280 HD
HETATM   21  C   UNL     1      -6.737  -0.299 -32.516  1.00  0.00     0.235 C 
HETATM   22  C   UNL     1      -6.049  -1.025 -33.663  1.00  0.00     0.028 C 
HETATM   23  C   UNL     1      -7.001  -1.272 -34.826  1.00  0.00     0.003 C 
HETATM   24  C   UNL     1      -7.644   0.030 -35.287  1.00  0.00     0.028 C 
HETATM   25  C   UNL     1      -8.330   0.756 -34.139  1.00  0.00     0.235 C 
ENDBRANCH  18  19
ENDBRANCH  15  18
ENDBRANCH  12  13
ENDBRANCH   6  12
BRANCH   1  26
HETATM   26  C   UNL     1      -0.025   7.985 -28.312  1.00  0.00     0.152 C 
HETATM   27  C   UNL     1       1.416   8.395 -28.027  1.00  0.00     0.040 C 
BRANCH  26  28
HETATM   28  N   UNL     1      -0.694   7.577 -27.086  1.00  0.00    -0.349 N 
HETATM   29  C   UNL     1      -1.601   8.387 -26.450  1.00  0.00     0.222 C 
HETATM   30  O   UNL     1      -1.785   9.555 -26.788  1.00  0.00    -0.273 OA
HETATM   31  H   UNL     1      -0.690   6.583 -26.883  1.00  0.00     0.163 HD
BRANCH  29  32
HETATM   32  C   UNL     1      -2.399   7.704 -25.339  1.00  0.00     0.082 C 
HETATM   33  C   UNL     1      -3.494   8.624 -24.789  1.00  0.00     0.040 C 
HETATM   34  C   UNL     1      -4.654   8.789 -25.766  1.00  0.00     0.168 C 
HETATM   35  O   UNL     1      -5.169   7.534 -26.213  1.00  0.00    -0.391 OA
HETATM   36  C   UNL     1      -4.177   6.701 -26.811  1.00  0.00     0.168 C 
HETATM   37  C   UNL     1      -3.038   6.406 -25.843  1.00  0.00     0.040 C 
ENDBRANCH  29  32
ENDBRANCH  26  28
ENDBRANCH   1  26
TORSDOF 7
ENDMDL
MODEL 6
REMARK VINA RESULT:      -8.2      3.505      4.652
REMARK  7 active torsions:
REMARK  status: ('A' for Active; 'I' for Inactive)
REMARK    1  A    between atoms: C_2  and  N_3 
REMARK    2  A    between atoms: C_2  and  C_12 
REMARK       I    between atoms: N_3  and  C_4 
REMARK    3  A    between atoms: C_4  and  C_5 
REMARK    4  A    between atoms: N_17  and  C_19 
REMARK    5  A    between atoms: C_19  and  C_20 
REMARK    6  A    between atoms: C_22  and  C_23 
REMARK    7  A    between atoms: C_23  and  N_24 
ROOT
HETATM    1  C   UNL     1      -0.993   6.374 -30.276  1.00  0.00     0.152 A 
HETATM    2  N   UNL     1      -2.120   5.861 -30.888  1.00  0.00    -0.317 N 
HETATM    3  C   UNL     1      -1.672   4.860 -31.716  1.00  0.00     0.131 A 
HETATM    4  C   UNL     1      -2.514   3.938 -32.517  1.00  0.00     0.108 C 
HETATM    5  C   UNL     1      -3.584   3.298 -31.644  1.00  0.00     0.243 C 
HETATM    6  N   UNL     1      -4.805   4.191 -31.441  1.00  0.00    -0.065 N 
HETATM    7  H   UNL     1      -5.431   3.981 -32.230  1.00  0.00     0.280 HD
HETATM    8  C   UNL     1      -4.568   5.698 -31.539  1.00  0.00     0.255 C 
HETATM    9  C   UNL     1      -3.487   6.230 -30.598  1.00  0.00     0.159 C 
HETATM   10  N   UNL     1      -0.368   4.774 -31.615  1.00  0.00    -0.135 NA
HETATM   11  N   UNL     1       0.055   5.707 -30.716  1.00  0.00    -0.133 NA
ENDROOT
BRANCH   6  12
HETATM   12  C   UNL     1      -5.598   3.795 -30.195  1.00  0.00     0.280 C 
BRANCH  12  13
HETATM   13  C   UNL     1      -6.944   3.201 -30.518  1.00  0.00     0.009 A 
HETATM   14  S   UNL     1      -7.062   1.809 -31.518  1.00  0.00    -0.096 SA
HETATM   15  C   UNL     1      -8.775   1.806 -31.458  1.00  0.00     0.009 A 
HETATM   16  C   UNL     1      -9.245   2.830 -30.658  1.00  0.00     0.017 A 
HETATM   17  C   UNL     1      -8.193   3.622 -30.106  1.00  0.00     0.017 A 
BRANCH  15  18
HETATM   18  C   UNL     1      -9.569   0.793 -32.235  1.00  0.00     0.280 C 
BRANCH  18  19
HETATM   19  N   UNL     1     -10.733   1.375 -33.012  1.00  0.00    -0.067 N 
HETATM   20  H   UNL     1     -11.236   1.992 -32.361  1.00  0.00     0.280 HD
HETATM   21  C   UNL     1     -10.293   2.209 -34.194  1.00  0.00     0.235 C 
HETATM   22  C   UNL     1     -11.509   2.819 -34.876  1.00  0.00     0.028 C 
HETATM   23  C   UNL     1     -12.515   1.755 -35.294  1.00  0.00     0.003 C 
HETATM   24  C   UNL     1     -12.911   0.887 -34.108  1.00  0.00     0.028 C 
HETATM   25  C   UNL     1     -11.695   0.279 -33.425  1.00  0.00     0.235 C 
ENDBRANCH  18  19
ENDBRANCH  15  18
ENDBRANCH  12  13
ENDBRANCH   6  12
BRANCH   1  26
HETATM   26  C   UNL     1      -0.961   7.444 -29.222  1.00  0.00     0.152 C 
HETATM   27  C   UNL     1       0.472   7.775 -28.816  1.00  0.00     0.040 C 
BRANCH  26  28
HETATM   28  N   UNL     1      -1.714   6.944 -28.082  1.00  0.00    -0.349 N 
HETATM   29  C   UNL     1      -2.320   7.787 -27.186  1.00  0.00     0.222 C 
HETATM   30  O   UNL     1      -2.136   9.003 -27.203  1.00  0.00    -0.273 OA
HETATM   31  H   UNL     1      -2.017   5.976 -28.133  1.00  0.00     0.163 HD
BRANCH  29  32
HETATM   32  C   UNL     1      -3.282   7.104 -26.213  1.00  0.00     0.082 C 
HETATM   33  C   UNL     1      -3.865   8.102 -25.207  1.00  0.00     0.040 C 
HETATM   34  C   UNL     1      -4.891   9.033 -25.847  1.00  0.00     0.168 C 
HETATM   35  O   UNL     1      -5.903   8.318 -26.557  1.00  0.00    -0.391 OA
HETATM   36  C   UNL     1      -5.379   7.451 -27.561  1.00  0.00     0.168 C 
HETATM   37  C   UNL     1      -4.427   6.420 -26.966  1.00  0.00     0.040 C 
ENDBRANCH  29  32
ENDBRANCH  26  28
ENDBRANCH   1  26
TORSDOF 7
ENDMDL
MODEL 7
REMARK VINA RESULT:      -8.2      3.398      9.405
REMARK  7 active torsions:
REMARK  status: ('A' for Active; 'I' for Inactive)
REMARK    1  A    between atoms: C_2  and  N_3 
REMARK    2  A    between atoms: C_2  and  C_12 
REMARK       I    between atoms: N_3  and  C_4 
REMARK    3  A    between atoms: C_4  and  C_5 
REMARK    4  A    between atoms: N_17  and  C_19 
REMARK    5  A    between atoms: C_19  and  C_20 
REMARK    6  A    between atoms: C_22  and  C_23 
REMARK    7  A    between atoms: C_23  and  N_24 
ROOT
HETATM    1  C   UNL     1      -8.358   2.339 -32.155  1.00  0.00     0.152 A 
HETATM    2  N   UNL     1      -7.632   3.473 -32.458  1.00  0.00    -0.317 N 
HETATM    3  C   UNL     1      -7.667   4.252 -31.328  1.00  0.00     0.131 A 
HETATM    4  C   UNL     1      -6.947   5.532 -31.118  1.00  0.00     0.108 C 
HETATM    5  C   UNL     1      -5.473   5.377 -31.461  1.00  0.00     0.243 C 
HETATM    6  N   UNL     1      -5.190   5.496 -32.958  1.00  0.00    -0.065 N 
HETATM    7  H   UNL     1      -5.046   6.500 -33.129  1.00  0.00     0.280 HD
HETATM    8  C   UNL     1      -6.333   5.112 -33.897  1.00  0.00     0.255 C 
HETATM    9  C   UNL     1      -6.889   3.705 -33.676  1.00  0.00     0.159 C 
HETATM   10  N   UNL     1      -8.366   3.636 -30.406  1.00  0.00    -0.135 NA
HETATM   11  N   UNL     1      -8.790   2.444 -30.914  1.00  0.00    -0.133 NA
ENDROOT
BRANCH   6  12
HETATM   12  C   UNL     1      -3.863   4.839 -33.338  1.00  0.00     0.280 C 
BRANCH  12  13
HETATM   13  C   UNL     1      -2.665   5.672 -32.963  1.00  0.00     0.009 A 
HETATM   14  S   UNL     1      -1.534   5.098 -31.806  1.00  0.00    -0.096 SA
HETATM   15  C   UNL     1      -0.594   6.528 -31.888  1.00  0.00     0.009 A 
HETATM   16  C   UNL     1      -1.117   7.413 -32.811  1.00  0.00     0.017 A 
HETATM   17  C   UNL     1      -2.298   6.916 -33.440  1.00  0.00     0.017 A 
BRANCH  15  18
HETATM   18  C   UNL     1       0.610   6.707 -31.005  1.00  0.00     0.280 C 
BRANCH  18  19
HETATM   19  N   UNL     1       0.287   7.144 -29.590  1.00  0.00    -0.067 N 
HETATM   20  H   UNL     1       1.043   7.778 -29.302  1.00  0.00     0.280 HD
HETATM   21  C   UNL     1      -1.016   7.906 -29.493  1.00  0.00     0.235 C 
HETATM   22  C   UNL     1      -1.234   8.376 -28.062  1.00  0.00     0.028 C 
HETATM   23  C   UNL     1      -1.197   7.216 -27.075  1.00  0.00     0.003 C 
HETATM   24  C   UNL     1       0.095   6.424 -27.218  1.00  0.00     0.028 C 
HETATM   25  C   UNL     1       0.314   5.956 -28.648  1.00  0.00     0.235 C 
ENDBRANCH  18  19
ENDBRANCH  15  18
ENDBRANCH  12  13
ENDBRANCH   6  12
BRANCH   1  26
HETATM   26  C   UNL     1      -8.555   1.142 -33.043  1.00  0.00     0.152 C 
HETATM   27  C   UNL     1      -9.992   0.636 -32.975  1.00  0.00     0.040 C 
BRANCH  26  28
HETATM   28  N   UNL     1      -7.628   0.116 -32.589  1.00  0.00    -0.349 N 
HETATM   29  C   UNL     1      -6.472  -0.171 -33.270  1.00  0.00     0.222 C 
HETATM   30  O   UNL     1      -6.229   0.306 -34.377  1.00  0.00    -0.273 OA
HETATM   31  H   UNL     1      -7.713  -0.168 -31.618  1.00  0.00     0.163 HD
BRANCH  29  32
HETATM   32  C   UNL     1      -5.494  -1.076 -32.520  1.00  0.00     0.082 C 
HETATM   33  C   UNL     1      -4.126  -1.115 -33.209  1.00  0.00     0.040 C 
HETATM   34  C   UNL     1      -3.347   0.184 -33.019  1.00  0.00     0.168 C 
HETATM   35  O   UNL     1      -3.258   0.567 -31.647  1.00  0.00    -0.391 OA
HETATM   36  C   UNL     1      -4.530   0.697 -31.015  1.00  0.00     0.168 C 
HETATM   37  C   UNL     1      -5.317  -0.607 -31.073  1.00  0.00     0.040 C 
ENDBRANCH  29  32
ENDBRANCH  26  28
ENDBRANCH   1  26
TORSDOF 7
ENDMDL
MODEL 8
REMARK VINA RESULT:      -8.1      2.294      3.409
REMARK  7 active torsions:
REMARK  status: ('A' for Active; 'I' for Inactive)
REMARK    1  A    between atoms: C_2  and  N_3 
REMARK    2  A    between atoms: C_2  and  C_12 
REMARK       I    between atoms: N_3  and  C_4 
REMARK    3  A    between atoms: C_4  and  C_5 
REMARK    4  A    between atoms: N_17  and  C_19 
REMARK    5  A    between atoms: C_19  and  C_20 
REMARK    6  A    between atoms: C_22  and  C_23 
REMARK    7  A    between atoms: C_23  and  N_24 
ROOT
HETATM    1  C   UNL     1      -4.188   9.022 -30.340  1.00  0.00     0.152 A 
HETATM    2  N   UNL     1      -4.898   7.883 -30.021  1.00  0.00    -0.317 N 
HETATM    3  C   UNL     1      -6.097   7.991 -30.684  1.00  0.00     0.131 A 
HETATM    4  C   UNL     1      -7.168   6.967 -30.740  1.00  0.00     0.108 C 
HETATM    5  C   UNL     1      -6.595   5.618 -31.150  1.00  0.00     0.243 C 
HETATM    6  N   UNL     1      -5.966   4.855 -29.986  1.00  0.00    -0.065 N 
HETATM    7  H   UNL     1      -6.734   4.316 -29.567  1.00  0.00     0.280 HD
HETATM    8  C   UNL     1      -5.424   5.701 -28.834  1.00  0.00     0.255 C 
HETATM    9  C   UNL     1      -4.406   6.762 -29.252  1.00  0.00     0.159 C 
HETATM   10  N   UNL     1      -6.112   9.117 -31.355  1.00  0.00    -0.135 NA
HETATM   11  N   UNL     1      -4.925   9.756 -31.150  1.00  0.00    -0.133 NA
ENDROOT
BRANCH   6  12
HETATM   12  C   UNL     1      -4.967   3.804 -30.472  1.00  0.00     0.280 C 
BRANCH  12  13
HETATM   13  C   UNL     1      -5.626   2.513 -30.884  1.00  0.00     0.009 A 
HETATM   14  S   UNL     1      -5.892   2.165 -32.544  1.00  0.00    -0.096 SA
HETATM   15  C   UNL     1      -6.671   0.678 -32.196  1.00  0.00     0.009 A 
HETATM   16  C   UNL     1      -6.694   0.438 -30.835  1.00  0.00     0.017 A 
HETATM   17  C   UNL     1      -6.080   1.484 -30.082  1.00  0.00     0.017 A 
BRANCH  15  18
HETATM   18  C   UNL     1      -7.245  -0.165 -33.300  1.00  0.00     0.280 C 
BRANCH  18  19
HETATM   19  N   UNL     1      -6.525  -1.480 -33.519  1.00  0.00    -0.067 N 
HETATM   20  H   UNL     1      -6.620  -2.013 -32.645  1.00  0.00     0.280 HD
HETATM   21  C   UNL     1      -7.133  -2.306 -34.631  1.00  0.00     0.235 C 
HETATM   22  C   UNL     1      -6.407  -3.640 -34.740  1.00  0.00     0.028 C 
HETATM   23  C   UNL     1      -4.911  -3.452 -34.947  1.00  0.00     0.003 C 
HETATM   24  C   UNL     1      -4.317  -2.576 -33.852  1.00  0.00     0.028 C 
HETATM   25  C   UNL     1      -5.044  -1.244 -33.741  1.00  0.00     0.235 C 
ENDBRANCH  18  19
ENDBRANCH  15  18
ENDBRANCH  12  13
ENDBRANCH   6  12
BRANCH   1  26
HETATM   26  C   UNL     1      -2.781   9.343 -29.919  1.00  0.00     0.152 C 
HETATM   27  C   UNL     1      -2.558  10.850 -29.846  1.00  0.00     0.040 C 
BRANCH  26  28
HETATM   28  N   UNL     1      -1.893   8.741 -30.902  1.00  0.00    -0.349 N 
HETATM   29  C   UNL     1      -1.090   7.671 -30.596  1.00  0.00     0.222 C 
HETATM   30  O   UNL     1      -0.958   7.261 -29.445  1.00  0.00    -0.273 OA
HETATM   31  H   UNL     1      -2.098   8.942 -31.876  1.00  0.00     0.163 HD
BRANCH  29  32
HETATM   32  C   UNL     1      -0.429   7.002 -31.801  1.00  0.00     0.082 C 
HETATM   33  C   UNL     1      -0.267   5.493 -31.586  1.00  0.00     0.040 C 
HETATM   34  C   UNL     1      -1.598   4.752 -31.679  1.00  0.00     0.168 C 
HETATM   35  O   UNL     1      -2.308   5.060 -32.879  1.00  0.00    -0.391 OA
HETATM   36  C   UNL     1      -2.546   6.456 -33.049  1.00  0.00     0.168 C 
HETATM   37  C   UNL     1      -1.242   7.245 -33.076  1.00  0.00     0.040 C 
ENDBRANCH  29  32
ENDBRANCH  26  28
ENDBRANCH   1  26
TORSDOF 7
ENDMDL
MODEL 9
REMARK VINA RESULT:      -8.1      3.466      9.533
REMARK  7 active torsions:
REMARK  status: ('A' for Active; 'I' for Inactive)
REMARK    1  A    between atoms: C_2  and  N_3 
REMARK    2  A    between atoms: C_2  and  C_12 
REMARK       I    between atoms: N_3  and  C_4 
REMARK    3  A    between atoms: C_4  and  C_5 
REMARK    4  A    between atoms: N_17  and  C_19 
REMARK    5  A    between atoms: C_19  and  C_20 
REMARK    6  A    between atoms: C_22  and  C_23 
REMARK    7  A    between atoms: C_23  and  N_24 
ROOT
HETATM    1  C   UNL     1      -5.391   4.366 -32.979  1.00  0.00     0.152 A 
HETATM    2  N   UNL     1      -4.051   4.695 -33.008  1.00  0.00    -0.317 N 
HETATM    3  C   UNL     1      -3.757   4.951 -34.326  1.00  0.00     0.131 A 
HETATM    4  C   UNL     1      -2.464   5.443 -34.860  1.00  0.00     0.108 C 
HETATM    5  C   UNL     1      -2.004   6.674 -34.094  1.00  0.00     0.243 C 
HETATM    6  N   UNL     1      -1.300   6.335 -32.781  1.00  0.00    -0.065 N 
HETATM    7  H   UNL     1      -0.309   6.212 -33.027  1.00  0.00     0.280 HD
HETATM    8  C   UNL     1      -1.693   5.014 -32.123  1.00  0.00     0.255 C 
HETATM    9  C   UNL     1      -3.191   4.859 -31.858  1.00  0.00     0.159 C 
HETATM   10  N   UNL     1      -4.842   4.786 -35.044  1.00  0.00    -0.135 NA
HETATM   11  N   UNL     1      -5.859   4.431 -34.209  1.00  0.00    -0.133 NA
ENDROOT
BRANCH   6  12
HETATM   12  C   UNL     1      -1.320   7.514 -31.807  1.00  0.00     0.280 C 
BRANCH  12  13
HETATM   13  C   UNL     1      -0.802   7.154 -30.439  1.00  0.00     0.009 A 
HETATM   14  S   UNL     1      -1.823   7.278 -29.063  1.00  0.00    -0.096 SA
HETATM   15  C   UNL     1      -0.578   6.794 -27.989  1.00  0.00     0.009 A 
HETATM   16  C   UNL     1       0.587   6.508 -28.676  1.00  0.00     0.017 A 
HETATM   17  C   UNL     1       0.454   6.700 -30.085  1.00  0.00     0.017 A 
BRANCH  15  18
HETATM   18  C   UNL     1      -0.819   6.747 -26.506  1.00  0.00     0.280 C 
BRANCH  18  19
HETATM   19  N   UNL     1      -1.466   7.995 -25.940  1.00  0.00    -0.067 N 
HETATM   20  H   UNL     1      -1.960   8.445 -26.720  1.00  0.00     0.280 HD
HETATM   21  C   UNL     1      -2.483   7.692 -24.862  1.00  0.00     0.235 C 
HETATM   22  C   UNL     1      -3.143   8.983 -24.398  1.00  0.00     0.028 C 
HETATM   23  C   UNL     1      -2.116  10.000 -23.918  1.00  0.00     0.003 C 
HETATM   24  C   UNL     1      -1.067  10.258 -24.990  1.00  0.00     0.028 C 
HETATM   25  C   UNL     1      -0.409   8.968 -25.456  1.00  0.00     0.235 C 
ENDBRANCH  18  19
ENDBRANCH  15  18
ENDBRANCH  12  13
ENDBRANCH   6  12
BRANCH   1  26
HETATM   26  C   UNL     1      -6.211   4.073 -31.754  1.00  0.00     0.152 C 
HETATM   27  C   UNL     1      -6.020   5.150 -30.692  1.00  0.00     0.040 C 
BRANCH  26  28
HETATM   28  N   UNL     1      -5.780   2.776 -31.252  1.00  0.00    -0.349 N 
HETATM   29  C   UNL     1      -6.422   1.614 -31.598  1.00  0.00     0.222 C 
HETATM   30  O   UNL     1      -7.482   1.613 -32.220  1.00  0.00    -0.273 OA
HETATM   31  H   UNL     1      -4.835   2.729 -30.884  1.00  0.00     0.163 HD
BRANCH  29  32
HETATM   32  C   UNL     1      -5.685   0.334 -31.203  1.00  0.00     0.082 C 
HETATM   33  C   UNL     1      -5.856  -0.761 -32.261  1.00  0.00     0.040 C 
HETATM   34  C   UNL     1      -5.049  -0.473 -33.524  1.00  0.00     0.168 C 
HETATM   35  O   UNL     1      -3.677  -0.198 -33.239  1.00  0.00    -0.391 OA
HETATM   36  C   UNL     1      -3.498   0.880 -32.323  1.00  0.00     0.168 C 
HETATM   37  C   UNL     1      -4.192   0.605 -30.994  1.00  0.00     0.040 C 
ENDBRANCH  29  32
ENDBRANCH  26  28
ENDBRANCH   1  26
TORSDOF 7
ENDMDL
MODEL 10
REMARK VINA RESULT:      -8.0      2.643      4.767
REMARK  7 active torsions:
REMARK  status: ('A' for Active; 'I' for Inactive)
REMARK    1  A    between atoms: C_2  and  N_3 
REMARK    2  A    between atoms: C_2  and  C_12 
REMARK       I    between atoms: N_3  and  C_4 
REMARK    3  A    between atoms: C_4  and  C_5 
REMARK    4  A    between atoms: N_17  and  C_19 
REMARK    5  A    between atoms: C_19  and  C_20 
REMARK    6  A    between atoms: C_22  and  C_23 
REMARK    7  A    between atoms: C_23  and  N_24 
ROOT
HETATM    1  C   UNL     1      -1.857   8.043 -29.012  1.00  0.00     0.152 A 
HETATM    2  N   UNL     1      -3.191   7.704 -28.897  1.00  0.00    -0.317 N 
HETATM    3  C   UNL     1      -3.855   8.880 -28.646  1.00  0.00     0.131 A 
HETATM    4  C   UNL     1      -5.324   9.057 -28.542  1.00  0.00     0.108 C 
HETATM    5  C   UNL     1      -6.021   8.446 -29.748  1.00  0.00     0.243 C 
HETATM    6  N   UNL     1      -6.223   6.937 -29.622  1.00  0.00    -0.065 N 
HETATM    7  H   UNL     1      -7.123   6.821 -29.138  1.00  0.00     0.280 HD
HETATM    8  C   UNL     1      -5.222   6.190 -28.740  1.00  0.00     0.255 C 
HETATM    9  C   UNL     1      -3.758   6.396 -29.130  1.00  0.00     0.159 C 
HETATM   10  N   UNL     1      -2.986   9.862 -28.608  1.00  0.00    -0.135 NA
HETATM   11  N   UNL     1      -1.746   9.345 -28.842  1.00  0.00    -0.133 NA
ENDROOT
BRANCH   6  12
HETATM   12  C   UNL     1      -6.422   6.275 -30.986  1.00  0.00     0.280 C 
BRANCH  12  13
HETATM   13  C   UNL     1      -7.127   4.947 -30.898  1.00  0.00     0.009 A 
HETATM   14  S   UNL     1      -6.291   3.493 -31.270  1.00  0.00    -0.096 SA
HETATM   15  C   UNL     1      -7.682   2.527 -31.012  1.00  0.00     0.009 A 
HETATM   16  C   UNL     1      -8.756   3.299 -30.614  1.00  0.00     0.017 A 
HETATM   17  C   UNL     1      -8.433   4.687 -30.533  1.00  0.00     0.017 A 
BRANCH  15  18
HETATM   18  C   UNL     1      -7.639   1.042 -31.246  1.00  0.00     0.280 C 
BRANCH  18  19
HETATM   19  N   UNL     1      -7.134   0.640 -32.617  1.00  0.00    -0.067 N 
HETATM   20  H   UNL     1      -6.580   1.433 -32.966  1.00  0.00     0.280 HD
HETATM   21  C   UNL     1      -6.233  -0.573 -32.581  1.00  0.00     0.235 C 
HETATM   22  C   UNL     1      -5.707  -0.869 -33.978  1.00  0.00     0.028 C 
HETATM   23  C   UNL     1      -6.839  -1.052 -34.980  1.00  0.00     0.003 C 
HETATM   24  C   UNL     1      -7.770   0.153 -34.972  1.00  0.00     0.028 C 
HETATM   25  C   UNL     1      -8.295   0.449 -33.575  1.00  0.00     0.235 C 
ENDBRANCH  18  19
ENDBRANCH  15  18
ENDBRANCH  12  13
ENDBRANCH   6  12
BRANCH   1  26
HETATM   26  C   UNL     1      -0.728   7.114 -29.359  1.00  0.00     0.152 C 
HETATM   27  C   UNL     1       0.601   7.638 -28.826  1.00  0.00     0.040 C 
BRANCH  26  28
HETATM   28  N   UNL     1      -0.693   7.008 -30.810  1.00  0.00    -0.349 N 
HETATM   29  C   UNL     1      -0.777   5.798 -31.452  1.00  0.00     0.222 C 
HETATM   30  O   UNL     1      -0.729   4.730 -30.844  1.00  0.00    -0.273 OA
HETATM   31  H   UNL     1      -0.897   7.857 -31.327  1.00  0.00     0.163 HD
BRANCH  29  32
HETATM   32  C   UNL     1      -0.992   5.889 -32.963  1.00  0.00     0.082 C 
HETATM   33  C   UNL     1      -1.729   4.657 -33.499  1.00  0.00     0.040 C 
HETATM   34  C   UNL     1      -3.205   4.653 -33.109  1.00  0.00     0.168 C 
HETATM   35  O   UNL     1      -3.860   5.874 -33.452  1.00  0.00    -0.391 OA
HETATM   36  C   UNL     1      -3.237   7.025 -32.885  1.00  0.00     0.168 C 
HETATM   37  C   UNL     1      -1.784   7.148 -33.327  1.00  0.00     0.040 C 
ENDBRANCH  29  32
ENDBRANCH  26  28
ENDBRANCH   1  26
TORSDOF 7
ENDMDL
