MODEL 1
REMARK VINA RESULT:      -8.4      0.000      0.000
REMARK  8 active torsions:
REMARK  status: ('A' for Active; 'I' for Inactive)
REMARK    1  A    between atoms: C_5  and  O_6 
REMARK    2  A    between atoms: O_6  and  C_7 
REMARK    3  A    between atoms: C_7  and  C_8 
REMARK    4  A    between atoms: C_8  and  C_9 
REMARK    5  A    between atoms: C_9  and  C_10 
REMARK    6  A    between atoms: C_10  and  N_11 
REMARK       I    between atoms: N_11  and  C_12 
REMARK    7  A    between atoms: C_12  and  C_13 
REMARK    8  A    between atoms: C_17  and  C_18 
ROOT
HETATM    1  C   UNL     1      -7.020   1.762 -34.151  1.00  0.00     0.120 A 
HETATM    2  N   UNL     1      -8.067   1.204 -34.830  1.00  0.00    -0.272 N 
HETATM    3  H   UNL     1      -8.890   1.687 -35.179  1.00  0.00     0.189 HD
HETATM    4  N   UNL     1      -7.958  -0.118 -35.024  1.00  0.00    -0.174 NA
HETATM    5  C   UNL     1      -6.782  -0.447 -34.468  1.00  0.00     0.089 A 
HETATM    6  C   UNL     1      -6.166   0.705 -33.902  1.00  0.00     0.071 A 
ENDROOT
BRANCH   1   7
HETATM    7  C   UNL     1      -6.981   3.165 -33.847  1.00  0.00     0.270 C 
HETATM    8  N   UNL     1      -5.804   3.798 -34.151  1.00  0.00    -0.345 N 
HETATM    9  H   UNL     1      -5.047   3.293 -34.588  1.00  0.00     0.163 HD
HETATM   10  O   UNL     1      -7.936   3.754 -33.350  1.00  0.00    -0.266 OA
BRANCH   8  11
HETATM   11  C   UNL     1      -5.647   5.209 -33.925  1.00  0.00     0.217 C 
BRANCH  11  12
HETATM   12  C   UNL     1      -4.180   5.581 -34.076  1.00  0.00    -0.085 C 
BRANCH  12  13
HETATM   13  C   UNL     1      -2.923   5.900 -34.206  1.00  0.00    -0.078 C 
BRANCH  13  14
HETATM   14  C   UNL     1      -1.457   6.272 -34.356  1.00  0.00     0.269 C 
BRANCH  14  15
HETATM   15  O   UNL     1      -1.252   7.550 -33.762  1.00  0.00    -0.338 OA
BRANCH  15  16
HETATM   16  C   UNL     1      -1.092   7.578 -32.407  1.00  0.00     0.087 A 
HETATM   17  C   UNL     1      -1.982   8.383 -31.704  1.00  0.00     0.152 A 
HETATM   18  N   UNL     1      -1.982   8.538 -30.357  1.00  0.00    -0.270 NA
HETATM   19  C   UNL     1      -1.043   7.854 -29.675  1.00  0.00     0.116 A 
HETATM   20  C   UNL     1      -0.110   7.024 -30.277  1.00  0.00     0.022 A 
HETATM   21  C   UNL     1      -0.138   6.886 -31.666  1.00  0.00     0.040 A 
ENDBRANCH  15  16
ENDBRANCH  14  15
ENDBRANCH  13  14
ENDBRANCH  12  13
ENDBRANCH  11  12
ENDBRANCH   8  11
ENDBRANCH   1   7
BRANCH   5  22
HETATM   22  C   UNL     1      -6.282  -1.826 -34.481  1.00  0.00    -0.003 A 
HETATM   23  C   UNL     1      -5.024  -2.139 -33.942  1.00  0.00     0.053 A 
HETATM   24  C   UNL     1      -4.606  -3.455 -33.980  1.00  0.00     0.106 A 
HETATM   25  C   UNL     1      -5.382  -4.452 -34.521  1.00  0.00     0.105 A 
HETATM   26  O   UNL     1      -3.418  -3.920 -33.505  1.00  0.00    -0.323 OA
HETATM   27  O   UNL     1      -4.782  -5.670 -34.455  1.00  0.00    -0.323 OA
HETATM   28  C   UNL     1      -6.620  -4.189 -35.061  1.00  0.00     0.040 A 
HETATM   29  C   UNL     1      -3.537  -5.326 -33.814  1.00  0.00     0.352 A 
HETATM   30  C   UNL     1      -7.068  -2.863 -35.040  1.00  0.00     0.017 A 
ENDBRANCH   5  22
TORSDOF 8
ENDMDL
MODEL 2
REMARK VINA RESULT:      -8.2      1.597      1.876
REMARK  8 active torsions:
REMARK  status: ('A' for Active; 'I' for Inactive)
REMARK    1  A    between atoms: C_5  and  O_6 
REMARK    2  A    between atoms: O_6  and  C_7 
REMARK    3  A    between atoms: C_7  and  C_8 
REMARK    4  A    between atoms: C_8  and  C_9 
REMARK    5  A    between atoms: C_9  and  C_10 
REMARK    6  A    between atoms: C_10  and  N_11 
REMARK       I    between atoms: N_11  and  C_12 
REMARK    7  A    between atoms: C_12  and  C_13 
REMARK    8  A    between atoms: C_17  and  C_18 
ROOT
HETATM    1  C   UNL     1      -5.873   2.248 -33.278  1.00  0.00     0.120 A 
HETATM    2  N   UNL     1      -6.727   2.090 -34.333  1.00  0.00    -0.272 N 
HETATM    3  H   UNL     1      -7.269   2.818 -34.790  1.00  0.00     0.189 HD
HETATM    4  N   UNL     1      -6.836   0.828 -34.771  1.00  0.00    -0.174 NA
HETATM    5  C   UNL     1      -6.005   0.122 -33.987  1.00  0.00     0.089 A 
HETATM    6  C   UNL     1      -5.388   0.978 -33.031  1.00  0.00     0.071 A 
ENDROOT
BRANCH   1   7
HETATM    7  C   UNL     1      -5.647   3.533 -32.678  1.00  0.00     0.270 C 
HETATM    8  N   UNL     1      -5.483   4.571 -33.557  1.00  0.00    -0.345 N 
HETATM    9  H   UNL     1      -5.555   4.417 -34.552  1.00  0.00     0.163 HD
HETATM   10  O   UNL     1      -5.604   3.688 -31.461  1.00  0.00    -0.266 OA
BRANCH   8  11
HETATM   11  C   UNL     1      -5.281   5.913 -33.083  1.00  0.00     0.217 C 
BRANCH  11  12
HETATM   12  C   UNL     1      -3.796   6.236 -33.110  1.00  0.00    -0.085 C 
BRANCH  12  13
HETATM   13  C   UNL     1      -2.522   6.513 -33.134  1.00  0.00    -0.078 C 
BRANCH  13  14
HETATM   14  C   UNL     1      -1.038   6.836 -33.163  1.00  0.00     0.269 C 
BRANCH  14  15
HETATM   15  O   UNL     1      -0.693   7.490 -31.945  1.00  0.00    -0.338 OA
BRANCH  15  16
HETATM   16  C   UNL     1      -0.176   6.708 -30.954  1.00  0.00     0.087 A 
HETATM   17  C   UNL     1       0.322   5.471 -31.349  1.00  0.00     0.152 A 
HETATM   18  N   UNL     1       0.874   4.559 -30.511  1.00  0.00    -0.270 NA
HETATM   19  C   UNL     1       0.932   4.900 -29.209  1.00  0.00     0.116 A 
HETATM   20  C   UNL     1       0.466   6.107 -28.711  1.00  0.00     0.022 A 
HETATM   21  C   UNL     1      -0.097   7.023 -29.600  1.00  0.00     0.040 A 
ENDBRANCH  15  16
ENDBRANCH  14  15
ENDBRANCH  13  14
ENDBRANCH  12  13
ENDBRANCH  11  12
ENDBRANCH   8  11
ENDBRANCH   1   7
BRANCH   5  22
HETATM   22  C   UNL     1      -5.827  -1.323 -34.156  1.00  0.00    -0.003 A 
HETATM   23  C   UNL     1      -4.625  -1.947 -33.784  1.00  0.00     0.053 A 
HETATM   24  C   UNL     1      -4.514  -3.312 -33.964  1.00  0.00     0.106 A 
HETATM   25  C   UNL     1      -5.537  -4.064 -34.488  1.00  0.00     0.105 A 
HETATM   26  O   UNL     1      -3.420  -4.062 -33.659  1.00  0.00    -0.323 OA
HETATM   27  O   UNL     1      -5.219  -5.383 -34.579  1.00  0.00    -0.323 OA
HETATM   28  C   UNL     1      -6.730  -3.494 -34.868  1.00  0.00     0.040 A 
HETATM   29  C   UNL     1      -3.875  -5.374 -34.055  1.00  0.00     0.352 A 
HETATM   30  C   UNL     1      -6.870  -2.111 -34.701  1.00  0.00     0.017 A 
ENDBRANCH   5  22
TORSDOF 8
ENDMDL
MODEL 3
REMARK VINA RESULT:      -8.0      4.388     12.441
REMARK  8 active torsions:
REMARK  status: ('A' for Active; 'I' for Inactive)
REMARK    1  A    between atoms: C_5  and  O_6 
REMARK    2  A    between atoms: O_6  and  C_7 
REMARK    3  A    between atoms: C_7  and  C_8 
REMARK    4  A    between atoms: C_8  and  C_9 
REMARK    5  A    between atoms: C_9  and  C_10 
REMARK    6  A    between atoms: C_10  and  N_11 
REMARK       I    between atoms: N_11  and  C_12 
REMARK    7  A    between atoms: C_12  and  C_13 
REMARK    8  A    between atoms: C_17  and  C_18 
ROOT
HETATM    1  C   UNL     1      -0.456   5.715 -29.955  1.00  0.00     0.120 A 
HETATM    2  N   UNL     1       0.347   4.979 -29.130  1.00  0.00    -0.272 N 
HETATM    3  H   UNL     1       0.549   3.986 -29.207  1.00  0.00     0.189 HD
HETATM    4  N   UNL     1       0.896   5.678 -28.127  1.00  0.00    -0.174 NA
HETATM    5  C   UNL     1       0.455   6.933 -28.305  1.00  0.00     0.089 A 
HETATM    6  C   UNL     1      -0.404   6.995 -29.439  1.00  0.00     0.071 A 
ENDROOT
BRANCH   1   7
HETATM    7  C   UNL     1      -1.133   5.121 -31.074  1.00  0.00     0.270 C 
HETATM    8  N   UNL     1      -2.468   4.871 -30.888  1.00  0.00    -0.345 N 
HETATM    9  H   UNL     1      -2.922   5.128 -30.025  1.00  0.00     0.163 HD
HETATM   10  O   UNL     1      -0.554   4.856 -32.124  1.00  0.00    -0.266 OA
BRANCH   8  11
HETATM   11  C   UNL     1      -3.266   4.308 -31.943  1.00  0.00     0.217 C 
BRANCH  11  12
HETATM   12  C   UNL     1      -3.331   2.799 -31.771  1.00  0.00    -0.085 C 
BRANCH  12  13
HETATM   13  C   UNL     1      -3.387   1.505 -31.625  1.00  0.00    -0.078 C 
BRANCH  13  14
HETATM   14  C   UNL     1      -3.452  -0.004 -31.455  1.00  0.00     0.269 C 
BRANCH  14  15
HETATM   15  O   UNL     1      -4.815  -0.410 -31.538  1.00  0.00    -0.338 OA
BRANCH  15  16
HETATM   16  C   UNL     1      -5.181  -1.103 -32.655  1.00  0.00     0.087 A 
HETATM   17  C   UNL     1      -4.226  -1.969 -33.177  1.00  0.00     0.152 A 
HETATM   18  N   UNL     1      -4.405  -2.741 -34.276  1.00  0.00    -0.270 NA
HETATM   19  C   UNL     1      -5.601  -2.644 -34.889  1.00  0.00     0.116 A 
HETATM   20  C   UNL     1      -6.621  -1.813 -34.452  1.00  0.00     0.022 A 
HETATM   21  C   UNL     1      -6.404  -1.032 -33.316  1.00  0.00     0.040 A 
ENDBRANCH  15  16
ENDBRANCH  14  15
ENDBRANCH  13  14
ENDBRANCH  12  13
ENDBRANCH  11  12
ENDBRANCH   8  11
ENDBRANCH   1   7
BRANCH   5  22
HETATM   22  C   UNL     1       0.846   8.023 -27.405  1.00  0.00    -0.003 A 
HETATM   23  C   UNL     1       1.807   7.817 -26.402  1.00  0.00     0.053 A 
HETATM   24  C   UNL     1       2.138   8.881 -25.586  1.00  0.00     0.106 A 
HETATM   25  C   UNL     1       1.560  10.119 -25.731  1.00  0.00     0.105 A 
HETATM   26  O   UNL     1       3.044   8.845 -24.571  1.00  0.00    -0.323 OA
HETATM   27  O   UNL     1       2.029  11.019 -24.827  1.00  0.00    -0.323 OA
HETATM   28  C   UNL     1       0.613  10.364 -26.699  1.00  0.00     0.040 A 
HETATM   29  C   UNL     1       2.965  10.205 -24.092  1.00  0.00     0.352 A 
HETATM   30  C   UNL     1       0.255   9.303 -27.539  1.00  0.00     0.017 A 
ENDBRANCH   5  22
TORSDOF 8
ENDMDL
MODEL 4
REMARK VINA RESULT:      -8.0      2.977      3.789
REMARK  8 active torsions:
REMARK  status: ('A' for Active; 'I' for Inactive)
REMARK    1  A    between atoms: C_5  and  O_6 
REMARK    2  A    between atoms: O_6  and  C_7 
REMARK    3  A    between atoms: C_7  and  C_8 
REMARK    4  A    between atoms: C_8  and  C_9 
REMARK    5  A    between atoms: C_9  and  C_10 
REMARK    6  A    between atoms: C_10  and  N_11 
REMARK       I    between atoms: N_11  and  C_12 
REMARK    7  A    between atoms: C_12  and  C_13 
REMARK    8  A    between atoms: C_17  and  C_18 
ROOT
HETATM    1  C   UNL     1      -6.352   2.787 -30.157  1.00  0.00     0.120 A 
HETATM    2  N   UNL     1      -6.341   1.691 -29.341  1.00  0.00    -0.272 N 
HETATM    3  H   UNL     1      -6.414   1.687 -28.328  1.00  0.00     0.189 HD
HETATM    4  N   UNL     1      -6.209   0.524 -29.988  1.00  0.00    -0.174 NA
HETATM    5  C   UNL     1      -6.150   0.859 -31.286  1.00  0.00     0.089 A 
HETATM    6  C   UNL     1      -6.229   2.273 -31.433  1.00  0.00     0.071 A 
ENDROOT
BRANCH   1   7
HETATM    7  C   UNL     1      -6.475   4.118 -29.629  1.00  0.00     0.270 C 
HETATM    8  N   UNL     1      -5.549   4.460 -28.678  1.00  0.00    -0.345 N 
HETATM    9  H   UNL     1      -4.824   3.811 -28.411  1.00  0.00     0.163 HD
HETATM   10  O   UNL     1      -7.349   4.893 -30.006  1.00  0.00    -0.266 OA
BRANCH   8  11
HETATM   11  C   UNL     1      -5.543   5.773 -28.094  1.00  0.00     0.217 C 
BRANCH  11  12
HETATM   12  C   UNL     1      -4.440   6.601 -28.733  1.00  0.00    -0.085 C 
BRANCH  12  13
HETATM   13  C   UNL     1      -3.494   7.311 -29.282  1.00  0.00    -0.078 C 
BRANCH  13  14
HETATM   14  C   UNL     1      -2.392   8.138 -29.923  1.00  0.00     0.269 C 
BRANCH  14  15
HETATM   15  O   UNL     1      -1.357   7.258 -30.352  1.00  0.00    -0.338 OA
BRANCH  15  16
HETATM   16  C   UNL     1      -1.434   6.800 -31.635  1.00  0.00     0.087 A 
HETATM   17  C   UNL     1      -1.514   7.773 -32.627  1.00  0.00     0.152 A 
HETATM   18  N   UNL     1      -1.596   7.514 -33.955  1.00  0.00    -0.270 NA
HETATM   19  C   UNL     1      -1.598   6.215 -34.313  1.00  0.00     0.116 A 
HETATM   20  C   UNL     1      -1.522   5.169 -33.407  1.00  0.00     0.022 A 
HETATM   21  C   UNL     1      -1.439   5.470 -32.046  1.00  0.00     0.040 A 
ENDBRANCH  15  16
ENDBRANCH  14  15
ENDBRANCH  13  14
ENDBRANCH  12  13
ENDBRANCH  11  12
ENDBRANCH   8  11
ENDBRANCH   1   7
BRANCH   5  22
HETATM   22  C   UNL     1      -6.016  -0.154 -32.338  1.00  0.00    -0.003 A 
HETATM   23  C   UNL     1      -4.932  -1.047 -32.342  1.00  0.00     0.053 A 
HETATM   24  C   UNL     1      -4.859  -1.982 -33.356  1.00  0.00     0.106 A 
HETATM   25  C   UNL     1      -5.808  -2.059 -34.347  1.00  0.00     0.105 A 
HETATM   26  O   UNL     1      -3.876  -2.911 -33.504  1.00  0.00    -0.323 OA
HETATM   27  O   UNL     1      -5.544  -3.047 -35.242  1.00  0.00    -0.323 OA
HETATM   28  C   UNL     1      -6.884  -1.203 -34.383  1.00  0.00     0.040 A 
HETATM   29  C   UNL     1      -4.317  -3.581 -34.704  1.00  0.00     0.352 A 
HETATM   30  C   UNL     1      -6.983  -0.242 -33.369  1.00  0.00     0.017 A 
ENDBRANCH   5  22
TORSDOF 8
ENDMDL
MODEL 5
REMARK VINA RESULT:      -7.8      2.301      2.858
REMARK  8 active torsions:
REMARK  status: ('A' for Active; 'I' for Inactive)
REMARK    1  A    between atoms: C_5  and  O_6 
REMARK    2  A    between atoms: O_6  and  C_7 
REMARK    3  A    between atoms: C_7  and  C_8 
REMARK    4  A    between atoms: C_8  and  C_9 
REMARK    5  A    between atoms: C_9  and  C_10 
REMARK    6  A    between atoms: C_10  and  N_11 
REMARK       I    between atoms: N_11  and  C_12 
REMARK    7  A    between atoms: C_12  and  C_13 
REMARK    8  A    between atoms: C_17  and  C_18 
ROOT
HETATM    1  C   UNL     1      -5.445   2.181 -32.603  1.00  0.00     0.120 A 
HETATM    2  N   UNL     1      -6.217   2.233 -33.729  1.00  0.00    -0.272 N 
HETATM    3  H   UNL     1      -6.647   3.060 -34.132  1.00  0.00     0.189 HD
HETATM    4  N   UNL     1      -6.405   1.047 -34.324  1.00  0.00    -0.174 NA
HETATM    5  C   UNL     1      -5.714   0.175 -33.572  1.00  0.00     0.089 A 
HETATM    6  C   UNL     1      -5.103   0.849 -32.477  1.00  0.00     0.071 A 
ENDROOT
BRANCH   1   7
HETATM    7  C   UNL     1      -5.151   3.359 -31.835  1.00  0.00     0.270 C 
HETATM    8  N   UNL     1      -4.243   4.217 -32.400  1.00  0.00    -0.345 N 
HETATM    9  H   UNL     1      -3.850   4.022 -33.308  1.00  0.00     0.163 HD
HETATM   10  O   UNL     1      -5.679   3.581 -30.749  1.00  0.00    -0.266 OA
BRANCH   8  11
HETATM   11  C   UNL     1      -3.888   5.448 -31.747  1.00  0.00     0.217 C 
BRANCH  11  12
HETATM   12  C   UNL     1      -2.421   5.398 -31.350  1.00  0.00    -0.085 C 
BRANCH  12  13
HETATM   13  C   UNL     1      -1.163   5.357 -31.010  1.00  0.00    -0.078 C 
BRANCH  13  14
HETATM   14  C   UNL     1       0.302   5.308 -30.612  1.00  0.00     0.269 C 
BRANCH  14  15
HETATM   15  O   UNL     1       0.383   5.147 -29.199  1.00  0.00    -0.338 OA
BRANCH  15  16
HETATM   16  C   UNL     1       0.382   6.287 -28.451  1.00  0.00     0.087 A 
HETATM   17  C   UNL     1      -0.160   6.179 -27.174  1.00  0.00     0.152 A 
HETATM   18  N   UNL     1      -0.247   7.199 -26.285  1.00  0.00    -0.270 NA
HETATM   19  C   UNL     1       0.232   8.391 -26.691  1.00  0.00     0.116 A 
HETATM   20  C   UNL     1       0.793   8.606 -27.941  1.00  0.00     0.022 A 
HETATM   21  C   UNL     1       0.868   7.535 -28.832  1.00  0.00     0.040 A 
ENDBRANCH  15  16
ENDBRANCH  14  15
ENDBRANCH  13  14
ENDBRANCH  12  13
ENDBRANCH  11  12
ENDBRANCH   8  11
ENDBRANCH   1   7
BRANCH   5  22
HETATM   22  C   UNL     1      -5.657  -1.253 -33.903  1.00  0.00    -0.003 A 
HETATM   23  C   UNL     1      -4.521  -2.017 -33.592  1.00  0.00     0.053 A 
HETATM   24  C   UNL     1      -4.525  -3.358 -33.924  1.00  0.00     0.106 A 
HETATM   25  C   UNL     1      -5.598  -3.954 -34.541  1.00  0.00     0.105 A 
HETATM   26  O   UNL     1      -3.506  -4.231 -33.695  1.00  0.00    -0.323 OA
HETATM   27  O   UNL     1      -5.393  -5.276 -34.777  1.00  0.00    -0.323 OA
HETATM   28  C   UNL     1      -6.730  -3.242 -34.865  1.00  0.00     0.040 A 
HETATM   29  C   UNL     1      -4.064  -5.445 -34.242  1.00  0.00     0.352 A 
HETATM   30  C   UNL     1      -6.754  -1.879 -34.543  1.00  0.00     0.017 A 
ENDBRANCH   5  22
TORSDOF 8
ENDMDL
MODEL 6
REMARK VINA RESULT:      -7.8      1.628      2.353
REMARK  8 active torsions:
REMARK  status: ('A' for Active; 'I' for Inactive)
REMARK    1  A    between atoms: C_5  and  O_6 
REMARK    2  A    between atoms: O_6  and  C_7 
REMARK    3  A    between atoms: C_7  and  C_8 
REMARK    4  A    between atoms: C_8  and  C_9 
REMARK    5  A    between atoms: C_9  and  C_10 
REMARK    6  A    between atoms: C_10  and  N_11 
REMARK       I    between atoms: N_11  and  C_12 
REMARK    7  A    between atoms: C_12  and  C_13 
REMARK    8  A    between atoms: C_17  and  C_18 
ROOT
HETATM    1  C   UNL     1      -7.657   1.603 -33.815  1.00  0.00     0.120 A 
HETATM    2  N   UNL     1      -8.227   1.166 -34.977  1.00  0.00    -0.272 N 
HETATM    3  H   UNL     1      -8.868   1.683 -35.571  1.00  0.00     0.189 HD
HETATM    4  N   UNL     1      -7.882  -0.081 -35.326  1.00  0.00    -0.174 NA
HETATM    5  C   UNL     1      -7.033  -0.481 -34.366  1.00  0.00     0.089 A 
HETATM    6  C   UNL     1      -6.873   0.547 -33.394  1.00  0.00     0.071 A 
ENDROOT
BRANCH   1   7
HETATM    7  C   UNL     1      -7.927   2.912 -33.288  1.00  0.00     0.270 C 
HETATM    8  N   UNL     1      -7.195   3.930 -33.842  1.00  0.00    -0.345 N 
HETATM    9  H   UNL     1      -6.542   3.745 -34.588  1.00  0.00     0.163 HD
HETATM   10  O   UNL     1      -8.758   3.103 -32.405  1.00  0.00    -0.266 OA
BRANCH   8  11
HETATM   11  C   UNL     1      -7.393   5.291 -33.425  1.00  0.00     0.217 C 
BRANCH  11  12
HETATM   12  C   UNL     1      -6.254   5.705 -32.507  1.00  0.00    -0.085 C 
BRANCH  12  13
HETATM   13  C   UNL     1      -5.276   6.061 -31.721  1.00  0.00    -0.078 C 
BRANCH  13  14
HETATM   14  C   UNL     1      -4.138   6.477 -30.805  1.00  0.00     0.269 C 
BRANCH  14  15
HETATM   15  O   UNL     1      -3.038   5.599 -31.024  1.00  0.00    -0.338 OA
BRANCH  15  16
HETATM   16  C   UNL     1      -2.478   5.615 -32.268  1.00  0.00     0.087 A 
HETATM   17  C   UNL     1      -1.832   6.792 -32.631  1.00  0.00     0.152 A 
HETATM   18  N   UNL     1      -1.217   6.998 -33.822  1.00  0.00    -0.270 NA
HETATM   19  C   UNL     1      -1.248   5.974 -34.697  1.00  0.00     0.116 A 
HETATM   20  C   UNL     1      -1.864   4.760 -34.435  1.00  0.00     0.022 A 
HETATM   21  C   UNL     1      -2.488   4.581 -33.200  1.00  0.00     0.040 A 
ENDBRANCH  15  16
ENDBRANCH  14  15
ENDBRANCH  13  14
ENDBRANCH  12  13
ENDBRANCH  11  12
ENDBRANCH   8  11
ENDBRANCH   1   7
BRANCH   5  22
HETATM   22  C   UNL     1      -6.411  -1.809 -34.390  1.00  0.00    -0.003 A 
HETATM   23  C   UNL     1      -5.129  -2.012 -33.855  1.00  0.00     0.053 A 
HETATM   24  C   UNL     1      -4.594  -3.284 -33.903  1.00  0.00     0.106 A 
HETATM   25  C   UNL     1      -5.278  -4.343 -34.451  1.00  0.00     0.105 A 
HETATM   26  O   UNL     1      -3.369  -3.644 -33.433  1.00  0.00    -0.323 OA
HETATM   27  O   UNL     1      -4.571  -5.502 -34.395  1.00  0.00    -0.323 OA
HETATM   28  C   UNL     1      -6.536  -4.188 -34.988  1.00  0.00     0.040 A 
HETATM   29  C   UNL     1      -3.361  -5.052 -33.753  1.00  0.00     0.352 A 
HETATM   30  C   UNL     1      -7.102  -2.908 -34.956  1.00  0.00     0.017 A 
ENDBRANCH   5  22
TORSDOF 8
ENDMDL
MODEL 7
REMARK VINA RESULT:      -7.7      2.014      2.975
REMARK  8 active torsions:
REMARK  status: ('A' for Active; 'I' for Inactive)
REMARK    1  A    between atoms: C_5  and  O_6 
REMARK    2  A    between atoms: O_6  and  C_7 
REMARK    3  A    between atoms: C_7  and  C_8 
REMARK    4  A    between atoms: C_8  and  C_9 
REMARK    5  A    between atoms: C_9  and  C_10 
REMARK    6  A    between atoms: C_10  and  N_11 
REMARK       I    between atoms: N_11  and  C_12 
REMARK    7  A    between atoms: C_12  and  C_13 
REMARK    8  A    between atoms: C_17  and  C_18 
ROOT
HETATM    1  C   UNL     1      -7.003   3.061 -33.280  1.00  0.00     0.120 A 
HETATM    2  N   UNL     1      -7.981   2.327 -32.672  1.00  0.00    -0.272 N 
HETATM    3  H   UNL     1      -8.802   2.687 -32.193  1.00  0.00     0.189 HD
HETATM    4  N   UNL     1      -7.794   1.001 -32.731  1.00  0.00    -0.174 NA
HETATM    5  C   UNL     1      -6.654   0.848 -33.423  1.00  0.00     0.089 A 
HETATM    6  C   UNL     1      -6.123   2.120 -33.780  1.00  0.00     0.071 A 
ENDROOT
BRANCH   1   7
HETATM    7  C   UNL     1      -7.041   4.496 -33.302  1.00  0.00     0.270 C 
HETATM    8  N   UNL     1      -7.451   5.090 -32.136  1.00  0.00    -0.345 N 
HETATM    9  H   UNL     1      -7.673   4.531 -31.326  1.00  0.00     0.163 HD
HETATM   10  O   UNL     1      -6.726   5.145 -34.296  1.00  0.00    -0.266 OA
BRANCH   8  11
HETATM   11  C   UNL     1      -7.502   6.522 -32.017  1.00  0.00     0.217 C 
BRANCH  11  12
HETATM   12  C   UNL     1      -6.110   7.049 -31.704  1.00  0.00    -0.085 C 
BRANCH  12  13
HETATM   13  C   UNL     1      -4.917   7.501 -31.435  1.00  0.00    -0.078 C 
BRANCH  13  14
HETATM   14  C   UNL     1      -3.527   8.028 -31.121  1.00  0.00     0.269 C 
BRANCH  14  15
HETATM   15  O   UNL     1      -2.632   6.922 -31.042  1.00  0.00    -0.338 OA
BRANCH  15  16
HETATM   16  C   UNL     1      -2.252   6.355 -32.223  1.00  0.00     0.087 A 
HETATM   17  C   UNL     1      -1.542   7.176 -33.094  1.00  0.00     0.152 A 
HETATM   18  N   UNL     1      -1.081   6.793 -34.310  1.00  0.00    -0.270 NA
HETATM   19  C   UNL     1      -1.340   5.523 -34.677  1.00  0.00     0.116 A 
HETATM   20  C   UNL     1      -2.037   4.624 -33.885  1.00  0.00     0.022 A 
HETATM   21  C   UNL     1      -2.499   5.050 -32.639  1.00  0.00     0.040 A 
ENDBRANCH  15  16
ENDBRANCH  14  15
ENDBRANCH  13  14
ENDBRANCH  12  13
ENDBRANCH  11  12
ENDBRANCH   8  11
ENDBRANCH   1   7
BRANCH   5  22
HETATM   22  C   UNL     1      -6.103  -0.478 -33.719  1.00  0.00    -0.003 A 
HETATM   23  C   UNL     1      -6.911  -1.486 -34.269  1.00  0.00     0.053 A 
HETATM   24  C   UNL     1      -6.337  -2.715 -34.529  1.00  0.00     0.106 A 
HETATM   25  C   UNL     1      -5.013  -2.971 -34.269  1.00  0.00     0.105 A 
HETATM   26  O   UNL     1      -6.981  -3.792 -35.056  1.00  0.00    -0.323 OA
HETATM   27  O   UNL     1      -4.655  -4.240 -34.599  1.00  0.00    -0.323 OA
HETATM   28  C   UNL     1      -4.186  -2.014 -33.728  1.00  0.00     0.040 A 
HETATM   29  C   UNL     1      -5.908  -4.756 -35.094  1.00  0.00     0.352 A 
HETATM   30  C   UNL     1      -4.741  -0.759 -33.450  1.00  0.00     0.017 A 
ENDBRANCH   5  22
TORSDOF 8
ENDMDL
MODEL 8
REMARK VINA RESULT:      -7.6      4.763      7.973
REMARK  8 active torsions:
REMARK  status: ('A' for Active; 'I' for Inactive)
REMARK    1  A    between atoms: C_5  and  O_6 
REMARK    2  A    between atoms: O_6  and  C_7 
REMARK    3  A    between atoms: C_7  and  C_8 
REMARK    4  A    between atoms: C_8  and  C_9 
REMARK    5  A    between atoms: C_9  and  C_10 
REMARK    6  A    between atoms: C_10  and  N_11 
REMARK       I    between atoms: N_11  and  C_12 
REMARK    7  A    between atoms: C_12  and  C_13 
REMARK    8  A    between atoms: C_17  and  C_18 
ROOT
HETATM    1  C   UNL     1      -7.348   1.778 -33.042  1.00  0.00     0.120 A 
HETATM    2  N   UNL     1      -7.197   1.827 -34.399  1.00  0.00    -0.272 N 
HETATM    3  H   UNL     1      -7.364   2.629 -35.000  1.00  0.00     0.189 HD
HETATM    4  N   UNL     1      -6.796   0.674 -34.952  1.00  0.00    -0.174 NA
HETATM    5  C   UNL     1      -6.656  -0.169 -33.916  1.00  0.00     0.089 A 
HETATM    6  C   UNL     1      -7.001   0.486 -32.700  1.00  0.00     0.071 A 
ENDROOT
BRANCH   1   7
HETATM    7  C   UNL     1      -7.783   2.922 -32.290  1.00  0.00     0.270 C 
HETATM    8  N   UNL     1      -8.455   2.641 -31.129  1.00  0.00    -0.345 N 
HETATM    9  H   UNL     1      -8.590   1.686 -30.833  1.00  0.00     0.163 HD
HETATM   10  O   UNL     1      -7.566   4.072 -32.664  1.00  0.00    -0.266 OA
BRANCH   8  11
HETATM   11  C   UNL     1      -8.915   3.698 -30.270  1.00  0.00     0.217 C 
BRANCH  11  12
HETATM   12  C   UNL     1     -10.389   3.955 -30.537  1.00  0.00    -0.085 C 
BRANCH  12  13
HETATM   13  C   UNL     1     -11.654   4.175 -30.765  1.00  0.00    -0.078 C 
BRANCH  13  14
HETATM   14  C   UNL     1     -13.128   4.432 -31.030  1.00  0.00     0.269 C 
BRANCH  14  15
HETATM   15  O   UNL     1     -13.339   4.445 -32.439  1.00  0.00    -0.338 OA
BRANCH  15  16
HETATM   16  C   UNL     1     -13.716   3.267 -33.014  1.00  0.00     0.087 A 
HETATM   17  C   UNL     1     -13.164   2.993 -34.262  1.00  0.00     0.152 A 
HETATM   18  N   UNL     1     -13.417   1.876 -34.987  1.00  0.00    -0.270 NA
HETATM   19  C   UNL     1     -14.264   0.984 -34.438  1.00  0.00     0.116 A 
HETATM   20  C   UNL     1     -14.867   1.158 -33.202  1.00  0.00     0.022 A 
HETATM   21  C   UNL     1     -14.586   2.320 -32.481  1.00  0.00     0.040 A 
ENDBRANCH  15  16
ENDBRANCH  14  15
ENDBRANCH  13  14
ENDBRANCH  12  13
ENDBRANCH  11  12
ENDBRANCH   8  11
ENDBRANCH   1   7
BRANCH   5  22
HETATM   22  C   UNL     1      -6.212  -1.554 -34.104  1.00  0.00    -0.003 A 
HETATM   23  C   UNL     1      -4.937  -1.964 -33.681  1.00  0.00     0.053 A 
HETATM   24  C   UNL     1      -4.573  -3.281 -33.881  1.00  0.00     0.106 A 
HETATM   25  C   UNL     1      -5.418  -4.189 -34.474  1.00  0.00     0.105 A 
HETATM   26  O   UNL     1      -3.379  -3.832 -33.533  1.00  0.00    -0.323 OA
HETATM   27  O   UNL     1      -4.864  -5.426 -34.573  1.00  0.00    -0.323 OA
HETATM   28  C   UNL     1      -6.675  -3.830 -34.905  1.00  0.00     0.040 A 
HETATM   29  C   UNL     1      -3.570  -5.193 -33.979  1.00  0.00     0.352 A 
HETATM   30  C   UNL     1      -7.069  -2.499 -34.718  1.00  0.00     0.017 A 
ENDBRANCH   5  22
TORSDOF 8
ENDMDL
MODEL 9
REMARK VINA RESULT:      -7.5      2.895      3.568
REMARK  8 active torsions:
REMARK  status: ('A' for Active; 'I' for Inactive)
REMARK    1  A    between atoms: C_5  and  O_6 
REMARK    2  A    between atoms: O_6  and  C_7 
REMARK    3  A    between atoms: C_7  and  C_8 
REMARK    4  A    between atoms: C_8  and  C_9 
REMARK    5  A    between atoms: C_9  and  C_10 
REMARK    6  A    between atoms: C_10  and  N_11 
REMARK       I    between atoms: N_11  and  C_12 
REMARK    7  A    between atoms: C_12  and  C_13 
REMARK    8  A    between atoms: C_17  and  C_18 
ROOT
HETATM    1  C   UNL     1      -6.079   2.801 -30.245  1.00  0.00     0.120 A 
HETATM    2  N   UNL     1      -6.384   1.782 -29.387  1.00  0.00    -0.272 N 
HETATM    3  H   UNL     1      -6.758   1.871 -28.447  1.00  0.00     0.189 HD
HETATM    4  N   UNL     1      -6.141   0.558 -29.875  1.00  0.00    -0.174 NA
HETATM    5  C   UNL     1      -5.673   0.773 -31.115  1.00  0.00     0.089 A 
HETATM    6  C   UNL     1      -5.613   2.170 -31.382  1.00  0.00     0.071 A 
ENDROOT
BRANCH   1   7
HETATM    7  C   UNL     1      -6.267   4.177 -29.878  1.00  0.00     0.270 C 
HETATM    8  N   UNL     1      -5.372   5.058 -30.425  1.00  0.00    -0.345 N 
HETATM    9  H   UNL     1      -4.660   4.736 -31.064  1.00  0.00     0.163 HD
HETATM   10  O   UNL     1      -7.169   4.536 -29.126  1.00  0.00    -0.266 OA
BRANCH   8  11
HETATM   11  C   UNL     1      -5.471   6.468 -30.162  1.00  0.00     0.217 C 
BRANCH  11  12
HETATM   12  C   UNL     1      -4.252   7.172 -30.737  1.00  0.00    -0.085 C 
BRANCH  12  13
HETATM   13  C   UNL     1      -3.207   7.777 -31.230  1.00  0.00    -0.078 C 
BRANCH  13  14
HETATM   14  C   UNL     1      -1.990   8.481 -31.804  1.00  0.00     0.269 C 
BRANCH  14  15
HETATM   15  O   UNL     1      -1.034   7.494 -32.182  1.00  0.00    -0.338 OA
BRANCH  15  16
HETATM   16  C   UNL     1      -0.453   6.784 -31.172  1.00  0.00     0.087 A 
HETATM   17  C   UNL     1      -0.304   5.419 -31.392  1.00  0.00     0.152 A 
HETATM   18  N   UNL     1       0.249   4.551 -30.509  1.00  0.00    -0.270 NA
HETATM   19  C   UNL     1       0.678   5.074 -29.344  1.00  0.00     0.116 A 
HETATM   20  C   UNL     1       0.579   6.420 -29.025  1.00  0.00     0.022 A 
HETATM   21  C   UNL     1       0.004   7.286 -29.956  1.00  0.00     0.040 A 
ENDBRANCH  15  16
ENDBRANCH  14  15
ENDBRANCH  13  14
ENDBRANCH  12  13
ENDBRANCH  11  12
ENDBRANCH   8  11
ENDBRANCH   1   7
BRANCH   5  22
HETATM   22  C   UNL     1      -5.296  -0.335 -32.000  1.00  0.00    -0.003 A 
HETATM   23  C   UNL     1      -6.169  -0.781 -33.005  1.00  0.00     0.053 A 
HETATM   24  C   UNL     1      -5.759  -1.826 -33.810  1.00  0.00     0.106 A 
HETATM   25  C   UNL     1      -4.533  -2.429 -33.655  1.00  0.00     0.105 A 
HETATM   26  O   UNL     1      -6.484  -2.375 -34.821  1.00  0.00    -0.323 OA
HETATM   27  O   UNL     1      -4.332  -3.433 -34.549  1.00  0.00    -0.323 OA
HETATM   28  C   UNL     1      -3.648  -2.024 -32.682  1.00  0.00     0.040 A 
HETATM   29  C   UNL     1      -5.573  -3.396 -35.283  1.00  0.00     0.352 A 
HETATM   30  C   UNL     1      -4.039  -0.969 -31.848  1.00  0.00     0.017 A 
ENDBRANCH   5  22
TORSDOF 8
ENDMDL
MODEL 10
REMARK VINA RESULT:      -7.5      2.056      2.898
REMARK  8 active torsions:
REMARK  status: ('A' for Active; 'I' for Inactive)
REMARK    1  A    between atoms: C_5  and  O_6 
REMARK    2  A    between atoms: O_6  and  C_7 
REMARK    3  A    between atoms: C_7  and  C_8 
REMARK    4  A    between atoms: C_8  and  C_9 
REMARK    5  A    between atoms: C_9  and  C_10 
REMARK    6  A    between atoms: C_10  and  N_11 
REMARK       I    between atoms: N_11  and  C_12 
REMARK    7  A    between atoms: C_12  and  C_13 
REMARK    8  A    between atoms: C_17  and  C_18 
ROOT
HETATM    1  C   UNL     1      -6.207   2.894 -32.932  1.00  0.00     0.120 A 
HETATM    2  N   UNL     1      -6.856   2.696 -34.118  1.00  0.00    -0.272 N 
HETATM    3  H   UNL     1      -7.393   3.384 -34.639  1.00  0.00     0.189 HD
HETATM    4  N   UNL     1      -6.754   1.451 -34.603  1.00  0.00    -0.174 NA
HETATM    5  C   UNL     1      -5.989   0.801 -33.711  1.00  0.00     0.089 A 
HETATM    6  C   UNL     1      -5.632   1.672 -32.643  1.00  0.00     0.071 A 
ENDROOT
BRANCH   1   7
HETATM    7  C   UNL     1      -6.223   4.168 -32.268  1.00  0.00     0.270 C 
HETATM    8  N   UNL     1      -6.250   4.115 -30.898  1.00  0.00    -0.345 N 
HETATM    9  H   UNL     1      -6.227   3.227 -30.419  1.00  0.00     0.163 HD
HETATM   10  O   UNL     1      -6.212   5.228 -32.885  1.00  0.00    -0.266 OA
BRANCH   8  11
HETATM   11  C   UNL     1      -6.237   5.320 -30.114  1.00  0.00     0.217 C 
BRANCH  11  12
HETATM   12  C   UNL     1      -4.819   5.867 -30.062  1.00  0.00    -0.085 C 
BRANCH  12  13
HETATM   13  C   UNL     1      -3.604   6.336 -30.018  1.00  0.00    -0.078 C 
BRANCH  13  14
HETATM   14  C   UNL     1      -2.187   6.882 -29.966  1.00  0.00     0.269 C 
BRANCH  14  15
HETATM   15  O   UNL     1      -1.315   5.936 -30.578  1.00  0.00    -0.338 OA
BRANCH  15  16
HETATM   16  C   UNL     1      -1.428   5.784 -31.929  1.00  0.00     0.087 A 
HETATM   17  C   UNL     1      -1.978   4.581 -32.364  1.00  0.00     0.152 A 
HETATM   18  N   UNL     1      -2.171   4.248 -33.663  1.00  0.00    -0.270 NA
HETATM   19  C   UNL     1      -1.796   5.162 -34.579  1.00  0.00     0.116 A 
HETATM   20  C   UNL     1      -1.240   6.390 -34.254  1.00  0.00     0.022 A 
HETATM   21  C   UNL     1      -1.055   6.702 -32.907  1.00  0.00     0.040 A 
ENDBRANCH  15  16
ENDBRANCH  14  15
ENDBRANCH  13  14
ENDBRANCH  12  13
ENDBRANCH  11  12
ENDBRANCH   8  11
ENDBRANCH   1   7
BRANCH   5  22
HETATM   22  C   UNL     1      -5.628  -0.610 -33.887  1.00  0.00    -0.003 A 
HETATM   23  C   UNL     1      -4.576  -1.180 -33.151  1.00  0.00     0.053 A 
HETATM   24  C   UNL     1      -4.283  -2.513 -33.357  1.00  0.00     0.106 A 
HETATM   25  C   UNL     1      -4.986  -3.286 -34.250  1.00  0.00     0.105 A 
HETATM   26  O   UNL     1      -3.297  -3.211 -32.729  1.00  0.00    -0.323 OA
HETATM   27  O   UNL     1      -4.534  -4.567 -34.297  1.00  0.00    -0.323 OA
HETATM   28  C   UNL     1      -6.022  -2.768 -34.993  1.00  0.00     0.040 A 
HETATM   29  C   UNL     1      -3.461  -4.512 -33.334  1.00  0.00     0.352 A 
HETATM   30  C   UNL     1      -6.340  -1.417 -34.808  1.00  0.00     0.017 A 
ENDBRANCH   5  22
TORSDOF 8
ENDMDL
