MODEL 1
REMARK VINA RESULT:      -9.9      0.000      0.000
REMARK  3 active torsions:
REMARK  status: ('A' for Active; 'I' for Inactive)
REMARK    1  A    between atoms: N_3  and  C_4 
REMARK    2  A    between atoms: C_6  and  C_7 
REMARK       I    between atoms: C_7  and  N_8 
REMARK    3  A    between atoms: N_8  and  C_9 
ROOT
HETATM    1  C   UNL     1      -3.411   0.496 -32.429  1.00  0.00     0.072 C 
HETATM    2  C   UNL     1      -4.839   0.945 -32.053  1.00  0.00     0.149 C 
HETATM    3  N   UNL     1      -4.854   2.273 -31.389  1.00  0.00    -0.267 N 
HETATM    4  C   UNL     1      -5.795   2.588 -30.414  1.00  0.00     0.326 C 
HETATM    5  O   UNL     1      -5.912   3.677 -29.855  1.00  0.00    -0.247 OA
HETATM    6  N   UNL     1      -6.660   1.595 -30.054  1.00  0.00    -0.334 N 
HETATM    7  O   UNL     1      -5.581   0.996 -33.290  1.00  0.00    -0.319 OA
HETATM    8  C   UNL     1      -6.935   0.822 -33.206  1.00  0.00     0.080 A 
HETATM    9  C   UNL     1      -7.589   0.507 -32.010  1.00  0.00    -0.002 A 
HETATM   10  C   UNL     1      -7.653   0.950 -34.393  1.00  0.00     0.037 A 
HETATM   11  C   UNL     1      -9.038   0.780 -34.390  1.00  0.00     0.003 A 
HETATM   12  C   UNL     1      -9.701   0.488 -33.199  1.00  0.00     0.001 A 
HETATM   13  C   UNL     1      -8.982   0.355 -32.009  1.00  0.00     0.012 A 
HETATM   14  C   UNL     1      -5.394  -0.136 -31.117  1.00  0.00     0.092 C 
HETATM   15  C   UNL     1      -6.778   0.345 -30.756  1.00  0.00     0.127 C 
HETATM   16  H   UNL     1      -7.407   1.908 -29.447  1.00  0.00     0.165 HD
ENDROOT
BRANCH   3  17
HETATM   17  C   UNL     1      -4.003   3.316 -31.864  1.00  0.00     0.043 A 
HETATM   18  C   UNL     1      -2.876   3.722 -31.143  1.00  0.00     0.047 A 
HETATM   19  C   UNL     1      -2.056   4.740 -31.646  1.00  0.00     0.034 A 
HETATM   20  C   UNL     1      -2.385   5.399 -32.833  1.00  0.00     0.017 A 
HETATM   21  C   UNL     1      -3.502   4.993 -33.558  1.00  0.00     0.003 A 
HETATM   22  C   UNL     1      -4.293   3.941 -33.087  1.00  0.00     0.030 A 
BRANCH  19  23
HETATM   23  C   UNL     1      -0.794   5.105 -30.965  1.00  0.00     0.252 C 
HETATM   24  N   UNL     1      -0.953   5.879 -29.837  1.00  0.00    -0.352 N 
HETATM   25  H   UNL     1      -1.886   6.163 -29.562  1.00  0.00     0.163 HD
HETATM   26  O   UNL     1       0.276   4.674 -31.375  1.00  0.00    -0.268 OA
BRANCH  24  27
HETATM   27  C   UNL     1       0.166   6.286 -29.016  1.00  0.00     0.084 C 
HETATM   28  C   UNL     1       0.473   7.773 -29.149  1.00  0.00     0.025 C 
HETATM   29  C   UNL     1       1.294   8.058 -27.902  1.00  0.00     0.002 C 
HETATM   30  C   UNL     1       0.606   7.248 -26.810  1.00  0.00     0.002 C 
HETATM   31  C   UNL     1      -0.103   6.094 -27.520  1.00  0.00     0.025 C 
ENDBRANCH  24  27
ENDBRANCH  19  23
ENDBRANCH   3  17
TORSDOF 3
ENDMDL
MODEL 2
REMARK VINA RESULT:      -9.6      3.120      8.271
REMARK  3 active torsions:
REMARK  status: ('A' for Active; 'I' for Inactive)
REMARK    1  A    between atoms: N_3  and  C_4 
REMARK    2  A    between atoms: C_6  and  C_7 
REMARK       I    between atoms: C_7  and  N_8 
REMARK    3  A    between atoms: N_8  and  C_9 
ROOT
HETATM    1  C   UNL     1      -7.483   5.795 -32.999  1.00  0.00     0.072 C 
HETATM    2  C   UNL     1      -6.057   5.385 -32.576  1.00  0.00     0.149 C 
HETATM    3  N   UNL     1      -6.045   4.140 -31.770  1.00  0.00    -0.267 N 
HETATM    4  C   UNL     1      -5.105   3.930 -30.766  1.00  0.00     0.326 C 
HETATM    5  O   UNL     1      -4.990   2.910 -30.091  1.00  0.00    -0.247 OA
HETATM    6  N   UNL     1      -4.236   4.955 -30.520  1.00  0.00    -0.334 N 
HETATM    7  O   UNL     1      -5.316   5.195 -33.801  1.00  0.00    -0.319 OA
HETATM    8  C   UNL     1      -3.962   5.373 -33.738  1.00  0.00     0.080 A 
HETATM    9  C   UNL     1      -3.305   5.816 -32.585  1.00  0.00    -0.002 A 
HETATM   10  C   UNL     1      -3.246   5.112 -34.905  1.00  0.00     0.037 A 
HETATM   11  C   UNL     1      -1.861   5.276 -34.922  1.00  0.00     0.003 A 
HETATM   12  C   UNL     1      -1.195   5.696 -33.771  1.00  0.00     0.001 A 
HETATM   13  C   UNL     1      -1.912   5.962 -32.603  1.00  0.00     0.012 A 
HETATM   14  C   UNL     1      -5.497   6.561 -31.767  1.00  0.00     0.092 C 
HETATM   15  C   UNL     1      -4.115   6.118 -31.356  1.00  0.00     0.127 C 
HETATM   16  H   UNL     1      -3.489   4.708 -29.883  1.00  0.00     0.165 HD
ENDROOT
BRANCH   3  17
HETATM   17  C   UNL     1      -6.901   3.053 -32.126  1.00  0.00     0.043 A 
HETATM   18  C   UNL     1      -6.540   2.139 -33.122  1.00  0.00     0.047 A 
HETATM   19  C   UNL     1      -7.399   1.077 -33.436  1.00  0.00     0.034 A 
HETATM   20  C   UNL     1      -8.640   0.954 -32.807  1.00  0.00     0.017 A 
HETATM   21  C   UNL     1      -8.999   1.858 -31.811  1.00  0.00     0.003 A 
HETATM   22  C   UNL     1      -8.123   2.887 -31.456  1.00  0.00     0.030 A 
BRANCH  19  23
HETATM   23  C   UNL     1      -6.990   0.030 -34.397  1.00  0.00     0.252 C 
HETATM   24  N   UNL     1      -6.246  -0.994 -33.850  1.00  0.00    -0.352 N 
HETATM   25  H   UNL     1      -6.012  -0.959 -32.865  1.00  0.00     0.163 HD
HETATM   26  O   UNL     1      -7.362   0.081 -35.562  1.00  0.00    -0.268 OA
BRANCH  24  27
HETATM   27  C   UNL     1      -5.805  -2.129 -34.629  1.00  0.00     0.084 C 
HETATM   28  C   UNL     1      -4.594  -2.821 -34.012  1.00  0.00     0.025 C 
HETATM   29  C   UNL     1      -4.618  -4.189 -34.673  1.00  0.00     0.002 C 
HETATM   30  C   UNL     1      -6.096  -4.557 -34.715  1.00  0.00     0.002 C 
HETATM   31  C   UNL     1      -6.863  -3.234 -34.709  1.00  0.00     0.025 C 
ENDBRANCH  24  27
ENDBRANCH  19  23
ENDBRANCH   3  17
TORSDOF 3
ENDMDL
MODEL 3
REMARK VINA RESULT:      -9.5      1.907      2.593
REMARK  3 active torsions:
REMARK  status: ('A' for Active; 'I' for Inactive)
REMARK    1  A    between atoms: N_3  and  C_4 
REMARK    2  A    between atoms: C_6  and  C_7 
REMARK       I    between atoms: C_7  and  N_8 
REMARK    3  A    between atoms: N_8  and  C_9 
ROOT
HETATM    1  C   UNL     1      -5.392   2.790 -30.072  1.00  0.00     0.072 C 
HETATM    2  C   UNL     1      -5.920   2.650 -31.514  1.00  0.00     0.149 C 
HETATM    3  N   UNL     1      -5.535   3.801 -32.369  1.00  0.00    -0.267 N 
HETATM    4  C   UNL     1      -6.359   4.254 -33.394  1.00  0.00     0.326 C 
HETATM    5  O   UNL     1      -6.094   5.161 -34.180  1.00  0.00    -0.247 OA
HETATM    6  N   UNL     1      -7.564   3.627 -33.532  1.00  0.00    -0.334 N 
HETATM    7  O   UNL     1      -5.348   1.430 -32.033  1.00  0.00    -0.319 OA
HETATM    8  C   UNL     1      -6.043   0.793 -33.023  1.00  0.00     0.080 A 
HETATM    9  C   UNL     1      -7.300   1.219 -33.465  1.00  0.00    -0.002 A 
HETATM   10  C   UNL     1      -5.447  -0.341 -33.572  1.00  0.00     0.037 A 
HETATM   11  C   UNL     1      -6.098  -1.049 -34.582  1.00  0.00     0.003 A 
HETATM   12  C   UNL     1      -7.340  -0.618 -35.045  1.00  0.00     0.001 A 
HETATM   13  C   UNL     1      -7.941   0.515 -34.493  1.00  0.00     0.012 A 
HETATM   14  C   UNL     1      -7.445   2.543 -31.402  1.00  0.00     0.092 C 
HETATM   15  C   UNL     1      -7.926   2.427 -32.828  1.00  0.00     0.127 C 
HETATM   16  H   UNL     1      -8.067   3.895 -34.369  1.00  0.00     0.165 HD
ENDROOT
BRANCH   3  17
HETATM   17  C   UNL     1      -4.226   4.361 -32.261  1.00  0.00     0.043 A 
HETATM   18  C   UNL     1      -3.926   5.330 -31.298  1.00  0.00     0.047 A 
HETATM   19  C   UNL     1      -2.627   5.848 -31.213  1.00  0.00     0.034 A 
HETATM   20  C   UNL     1      -1.641   5.453 -32.120  1.00  0.00     0.017 A 
HETATM   21  C   UNL     1      -1.935   4.484 -33.075  1.00  0.00     0.003 A 
HETATM   22  C   UNL     1      -3.214   3.925 -33.129  1.00  0.00     0.030 A 
BRANCH  19  23
HETATM   23  C   UNL     1      -2.252   6.782 -30.129  1.00  0.00     0.252 C 
HETATM   24  N   UNL     1      -1.221   6.346 -29.326  1.00  0.00    -0.352 N 
HETATM   25  H   UNL     1      -0.810   5.437 -29.503  1.00  0.00     0.163 HD
HETATM   26  O   UNL     1      -2.802   7.871 -30.034  1.00  0.00    -0.268 OA
BRANCH  24  27
HETATM   27  C   UNL     1      -0.686   7.151 -28.250  1.00  0.00     0.084 C 
HETATM   28  C   UNL     1      -0.071   6.303 -27.142  1.00  0.00     0.025 C 
HETATM   29  C   UNL     1       0.818   7.298 -26.414  1.00  0.00     0.002 C 
HETATM   30  C   UNL     1       1.438   8.129 -27.531  1.00  0.00     0.002 C 
HETATM   31  C   UNL     1       0.462   8.055 -28.707  1.00  0.00     0.025 C 
ENDBRANCH  24  27
ENDBRANCH  19  23
ENDBRANCH   3  17
TORSDOF 3
ENDMDL
MODEL 4
REMARK VINA RESULT:      -9.3      4.100      7.813
REMARK  3 active torsions:
REMARK  status: ('A' for Active; 'I' for Inactive)
REMARK    1  A    between atoms: N_3  and  C_4 
REMARK    2  A    between atoms: C_6  and  C_7 
REMARK       I    between atoms: C_7  and  N_8 
REMARK    3  A    between atoms: N_8  and  C_9 
ROOT
HETATM    1  C   UNL     1      -4.645   3.602 -32.814  1.00  0.00     0.072 C 
HETATM    2  C   UNL     1      -4.905   2.121 -32.471  1.00  0.00     0.149 C 
HETATM    3  N   UNL     1      -5.552   1.955 -31.146  1.00  0.00    -0.267 N 
HETATM    4  C   UNL     1      -5.297   0.846 -30.344  1.00  0.00     0.326 C 
HETATM    5  O   UNL     1      -5.829   0.605 -29.263  1.00  0.00    -0.247 OA
HETATM    6  N   UNL     1      -4.375  -0.046 -30.811  1.00  0.00    -0.334 N 
HETATM    7  O   UNL     1      -5.764   1.613 -33.514  1.00  0.00    -0.319 OA
HETATM    8  C   UNL     1      -5.701   0.271 -33.768  1.00  0.00     0.080 A 
HETATM    9  C   UNL     1      -4.788  -0.581 -33.138  1.00  0.00    -0.002 A 
HETATM   10  C   UNL     1      -6.589  -0.224 -34.722  1.00  0.00     0.037 A 
HETATM   11  C   UNL     1      -6.581  -1.582 -35.041  1.00  0.00     0.003 A 
HETATM   12  C   UNL     1      -5.690  -2.442 -34.401  1.00  0.00     0.001 A 
HETATM   13  C   UNL     1      -4.798  -1.947 -33.448  1.00  0.00     0.012 A 
HETATM   14  C   UNL     1      -3.535   1.431 -32.496  1.00  0.00     0.092 C 
HETATM   15  C   UNL     1      -3.825  -0.007 -32.138  1.00  0.00     0.127 C 
HETATM   16  H   UNL     1      -4.324  -0.898 -30.266  1.00  0.00     0.165 HD
ENDROOT
BRANCH   3  17
HETATM   17  C   UNL     1      -6.585   2.853 -30.741  1.00  0.00     0.043 A 
HETATM   18  C   UNL     1      -7.865   2.792 -31.303  1.00  0.00     0.047 A 
HETATM   19  C   UNL     1      -8.857   3.682 -30.872  1.00  0.00     0.034 A 
HETATM   20  C   UNL     1      -8.568   4.670 -29.928  1.00  0.00     0.017 A 
HETATM   21  C   UNL     1      -7.298   4.729 -29.362  1.00  0.00     0.003 A 
HETATM   22  C   UNL     1      -6.320   3.810 -29.749  1.00  0.00     0.030 A 
BRANCH  19  23
HETATM   23  C   UNL     1     -10.249   3.561 -31.361  1.00  0.00     0.252 C 
HETATM   24  N   UNL     1     -10.384   2.867 -32.544  1.00  0.00    -0.352 N 
HETATM   25  H   UNL     1      -9.554   2.513 -33.004  1.00  0.00     0.163 HD
HETATM   26  O   UNL     1     -11.177   4.004 -30.698  1.00  0.00    -0.268 OA
BRANCH  24  27
HETATM   27  C   UNL     1     -11.674   2.606 -33.142  1.00  0.00     0.084 C 
HETATM   28  C   UNL     1     -11.949   3.505 -34.343  1.00  0.00     0.025 C 
HETATM   29  C   UNL     1     -13.055   2.760 -35.071  1.00  0.00     0.002 C 
HETATM   30  C   UNL     1     -12.654   1.294 -34.960  1.00  0.00     0.002 C 
HETATM   31  C   UNL     1     -11.783   1.187 -33.708  1.00  0.00     0.025 C 
ENDBRANCH  24  27
ENDBRANCH  19  23
ENDBRANCH   3  17
TORSDOF 3
ENDMDL
MODEL 5
REMARK VINA RESULT:      -9.1      2.427      8.314
REMARK  3 active torsions:
REMARK  status: ('A' for Active; 'I' for Inactive)
REMARK    1  A    between atoms: N_3  and  C_4 
REMARK    2  A    between atoms: C_6  and  C_7 
REMARK       I    between atoms: C_7  and  N_8 
REMARK    3  A    between atoms: N_8  and  C_9 
ROOT
HETATM    1  C   UNL     1      -2.510   5.584 -34.901  1.00  0.00     0.072 C 
HETATM    2  C   UNL     1      -2.436   6.079 -33.441  1.00  0.00     0.149 C 
HETATM    3  N   UNL     1      -3.777   6.188 -32.816  1.00  0.00    -0.267 N 
HETATM    4  C   UNL     1      -4.060   7.162 -31.863  1.00  0.00     0.326 C 
HETATM    5  O   UNL     1      -5.123   7.288 -31.258  1.00  0.00    -0.247 OA
HETATM    6  N   UNL     1      -3.061   8.050 -31.582  1.00  0.00    -0.334 N 
HETATM    7  O   UNL     1      -1.630   5.114 -32.731  1.00  0.00    -0.319 OA
HETATM    8  C   UNL     1      -0.962   5.560 -31.625  1.00  0.00     0.080 A 
HETATM    9  C   UNL     1      -0.957   6.902 -31.229  1.00  0.00    -0.002 A 
HETATM   10  C   UNL     1      -0.250   4.606 -30.901  1.00  0.00     0.037 A 
HETATM   11  C   UNL     1       0.462   4.985 -29.764  1.00  0.00     0.003 A 
HETATM   12  C   UNL     1       0.455   6.316 -29.349  1.00  0.00     0.001 A 
HETATM   13  C   UNL     1      -0.255   7.274 -30.075  1.00  0.00     0.012 A 
HETATM   14  C   UNL     1      -1.747   7.448 -33.489  1.00  0.00     0.092 C 
HETATM   15  C   UNL     1      -1.710   7.908 -32.052  1.00  0.00     0.127 C 
HETATM   16  H   UNL     1      -3.263   8.649 -30.792  1.00  0.00     0.165 HD
ENDROOT
BRANCH   3  17
HETATM   17  C   UNL     1      -4.760   5.180 -33.058  1.00  0.00     0.043 A 
HETATM   18  C   UNL     1      -4.488   3.828 -32.825  1.00  0.00     0.047 A 
HETATM   19  C   UNL     1      -5.480   2.868 -33.061  1.00  0.00     0.034 A 
HETATM   20  C   UNL     1      -6.721   3.238 -33.586  1.00  0.00     0.017 A 
HETATM   21  C   UNL     1      -6.997   4.584 -33.812  1.00  0.00     0.003 A 
HETATM   22  C   UNL     1      -6.029   5.551 -33.527  1.00  0.00     0.030 A 
BRANCH  19  23
HETATM   23  C   UNL     1      -5.261   1.447 -32.710  1.00  0.00     0.252 C 
HETATM   24  N   UNL     1      -5.831   0.545 -33.582  1.00  0.00    -0.352 N 
HETATM   25  H   UNL     1      -6.365   0.892 -34.369  1.00  0.00     0.163 HD
HETATM   26  O   UNL     1      -4.568   1.149 -31.747  1.00  0.00    -0.268 OA
BRANCH  24  27
HETATM   27  C   UNL     1      -5.675  -0.884 -33.426  1.00  0.00     0.084 C 
HETATM   28  C   UNL     1      -6.557  -1.672 -34.387  1.00  0.00     0.025 C 
HETATM   29  C   UNL     1      -5.899  -3.042 -34.398  1.00  0.00     0.002 C 
HETATM   30  C   UNL     1      -4.405  -2.737 -34.394  1.00  0.00     0.002 C 
HETATM   31  C   UNL     1      -4.255  -1.359 -33.749  1.00  0.00     0.025 C 
ENDBRANCH  24  27
ENDBRANCH  19  23
ENDBRANCH   3  17
TORSDOF 3
ENDMDL
MODEL 6
REMARK VINA RESULT:      -8.9      2.563      3.475
REMARK  3 active torsions:
REMARK  status: ('A' for Active; 'I' for Inactive)
REMARK    1  A    between atoms: N_3  and  C_4 
REMARK    2  A    between atoms: C_6  and  C_7 
REMARK       I    between atoms: C_7  and  N_8 
REMARK    3  A    between atoms: N_8  and  C_9 
ROOT
HETATM    1  C   UNL     1      -5.687   1.231 -29.923  1.00  0.00     0.072 C 
HETATM    2  C   UNL     1      -5.996   0.923 -31.403  1.00  0.00     0.149 C 
HETATM    3  N   UNL     1      -5.906   2.131 -32.260  1.00  0.00    -0.267 N 
HETATM    4  C   UNL     1      -6.722   2.296 -33.375  1.00  0.00     0.326 C 
HETATM    5  O   UNL     1      -6.676   3.236 -34.166  1.00  0.00    -0.247 OA
HETATM    6  N   UNL     1      -7.650   1.321 -33.602  1.00  0.00    -0.334 N 
HETATM    7  O   UNL     1      -5.021  -0.058 -31.820  1.00  0.00    -0.319 OA
HETATM    8  C   UNL     1      -5.379  -0.887 -32.846  1.00  0.00     0.080 A 
HETATM    9  C   UNL     1      -6.654  -0.881 -33.421  1.00  0.00    -0.002 A 
HETATM   10  C   UNL     1      -4.406  -1.779 -33.293  1.00  0.00     0.037 A 
HETATM   11  C   UNL     1      -4.697  -2.662 -34.333  1.00  0.00     0.003 A 
HETATM   12  C   UNL     1      -5.958  -2.647 -34.927  1.00  0.00     0.001 A 
HETATM   13  C   UNL     1      -6.935  -1.757 -34.477  1.00  0.00     0.012 A 
HETATM   14  C   UNL     1      -7.414   0.342 -31.432  1.00  0.00     0.092 C 
HETATM   15  C   UNL     1      -7.688   0.072 -32.891  1.00  0.00     0.127 C 
HETATM   16  H   UNL     1      -8.123   1.412 -34.492  1.00  0.00     0.165 HD
ENDROOT
BRANCH   3  17
HETATM   17  C   UNL     1      -4.856   3.076 -32.051  1.00  0.00     0.043 A 
HETATM   18  C   UNL     1      -5.067   4.250 -31.321  1.00  0.00     0.047 A 
HETATM   19  C   UNL     1      -4.010   5.148 -31.125  1.00  0.00     0.034 A 
HETATM   20  C   UNL     1      -2.759   4.914 -31.701  1.00  0.00     0.017 A 
HETATM   21  C   UNL     1      -2.543   3.743 -32.422  1.00  0.00     0.003 A 
HETATM   22  C   UNL     1      -3.580   2.819 -32.575  1.00  0.00     0.030 A 
BRANCH  19  23
HETATM   23  C   UNL     1      -4.174   6.335 -30.257  1.00  0.00     0.252 C 
HETATM   24  N   UNL     1      -3.176   7.278 -30.378  1.00  0.00    -0.352 N 
HETATM   25  H   UNL     1      -2.406   7.100 -31.012  1.00  0.00     0.163 HD
HETATM   26  O   UNL     1      -5.168   6.453 -29.553  1.00  0.00    -0.268 OA
BRANCH  24  27
HETATM   27  C   UNL     1      -3.199   8.525 -29.647  1.00  0.00     0.084 C 
HETATM   28  C   UNL     1      -1.958   8.712 -28.780  1.00  0.00     0.025 C 
HETATM   29  C   UNL     1      -1.955  10.209 -28.519  1.00  0.00     0.002 C 
HETATM   30  C   UNL     1      -2.376  10.820 -29.850  1.00  0.00     0.002 C 
HETATM   31  C   UNL     1      -3.194   9.747 -30.570  1.00  0.00     0.025 C 
ENDBRANCH  24  27
ENDBRANCH  19  23
ENDBRANCH   3  17
TORSDOF 3
ENDMDL
MODEL 7
REMARK VINA RESULT:      -8.8      2.440      3.675
REMARK  3 active torsions:
REMARK  status: ('A' for Active; 'I' for Inactive)
REMARK    1  A    between atoms: N_3  and  C_4 
REMARK    2  A    between atoms: C_6  and  C_7 
REMARK       I    between atoms: C_7  and  N_8 
REMARK    3  A    between atoms: N_8  and  C_9 
ROOT
HETATM    1  C   UNL     1      -4.072   3.653 -32.508  1.00  0.00     0.072 C 
HETATM    2  C   UNL     1      -4.718   2.264 -32.320  1.00  0.00     0.149 C 
HETATM    3  N   UNL     1      -5.329   2.105 -30.977  1.00  0.00    -0.267 N 
HETATM    4  C   UNL     1      -5.359   0.873 -30.332  1.00  0.00     0.326 C 
HETATM    5  O   UNL     1      -5.890   0.643 -29.247  1.00  0.00    -0.247 OA
HETATM    6  N   UNL     1      -4.742  -0.166 -30.969  1.00  0.00    -0.334 N 
HETATM    7  O   UNL     1      -5.729   2.151 -33.345  1.00  0.00    -0.319 OA
HETATM    8  C   UNL     1      -6.053   0.889 -33.757  1.00  0.00     0.080 A 
HETATM    9  C   UNL     1      -5.387  -0.255 -33.303  1.00  0.00    -0.002 A 
HETATM   10  C   UNL     1      -7.083   0.784 -34.690  1.00  0.00     0.037 A 
HETATM   11  C   UNL     1      -7.467  -0.471 -35.164  1.00  0.00     0.003 A 
HETATM   12  C   UNL     1      -6.824  -1.617 -34.699  1.00  0.00     0.001 A 
HETATM   13  C   UNL     1      -5.789  -1.513 -33.768  1.00  0.00     0.012 A 
HETATM   14  C   UNL     1      -3.597   1.239 -32.531  1.00  0.00     0.092 C 
HETATM   15  C   UNL     1      -4.260  -0.100 -32.322  1.00  0.00     0.127 C 
HETATM   16  H   UNL     1      -4.906  -1.064 -30.532  1.00  0.00     0.165 HD
ENDROOT
BRANCH   3  17
HETATM   17  C   UNL     1      -6.053   3.188 -30.391  1.00  0.00     0.043 A 
HETATM   18  C   UNL     1      -5.443   4.071 -29.495  1.00  0.00     0.047 A 
HETATM   19  C   UNL     1      -6.181   5.130 -28.950  1.00  0.00     0.034 A 
HETATM   20  C   UNL     1      -7.538   5.279 -29.244  1.00  0.00     0.017 A 
HETATM   21  C   UNL     1      -8.147   4.406 -30.142  1.00  0.00     0.003 A 
HETATM   22  C   UNL     1      -7.401   3.381 -30.730  1.00  0.00     0.030 A 
BRANCH  19  23
HETATM   23  C   UNL     1      -5.530   6.148 -28.095  1.00  0.00     0.252 C 
HETATM   24  N   UNL     1      -4.183   6.318 -28.328  1.00  0.00    -0.352 N 
HETATM   25  H   UNL     1      -3.728   5.742 -29.027  1.00  0.00     0.163 HD
HETATM   26  O   UNL     1      -6.193   6.805 -27.304  1.00  0.00    -0.268 OA
BRANCH  24  27
HETATM   27  C   UNL     1      -3.396   7.305 -27.624  1.00  0.00     0.084 C 
HETATM   28  C   UNL     1      -2.865   6.783 -26.294  1.00  0.00     0.025 C 
HETATM   29  C   UNL     1      -1.726   7.742 -25.989  1.00  0.00     0.002 C 
HETATM   30  C   UNL     1      -1.058   7.969 -27.340  1.00  0.00     0.002 C 
HETATM   31  C   UNL     1      -2.135   7.710 -28.394  1.00  0.00     0.025 C 
ENDBRANCH  24  27
ENDBRANCH  19  23
ENDBRANCH   3  17
TORSDOF 3
ENDMDL
MODEL 8
REMARK VINA RESULT:      -8.7      1.828      8.717
REMARK  3 active torsions:
REMARK  status: ('A' for Active; 'I' for Inactive)
REMARK    1  A    between atoms: N_3  and  C_4 
REMARK    2  A    between atoms: C_6  and  C_7 
REMARK       I    between atoms: C_7  and  N_8 
REMARK    3  A    between atoms: N_8  and  C_9 
ROOT
HETATM    1  C   UNL     1      -2.561   4.837 -34.445  1.00  0.00     0.072 C 
HETATM    2  C   UNL     1      -2.579   5.375 -33.000  1.00  0.00     0.149 C 
HETATM    3  N   UNL     1      -3.735   4.864 -32.222  1.00  0.00    -0.267 N 
HETATM    4  C   UNL     1      -4.345   5.631 -31.235  1.00  0.00     0.326 C 
HETATM    5  O   UNL     1      -5.268   5.265 -30.510  1.00  0.00    -0.247 OA
HETATM    6  N   UNL     1      -3.867   6.898 -31.062  1.00  0.00    -0.334 N 
HETATM    7  O   UNL     1      -1.340   4.943 -32.397  1.00  0.00    -0.319 OA
HETATM    8  C   UNL     1      -0.853   5.704 -31.371  1.00  0.00     0.080 A 
HETATM    9  C   UNL     1      -1.446   6.904 -30.966  1.00  0.00    -0.002 A 
HETATM   10  C   UNL     1       0.301   5.237 -30.743  1.00  0.00     0.037 A 
HETATM   11  C   UNL     1       0.862   5.962 -29.692  1.00  0.00     0.003 A 
HETATM   12  C   UNL     1       0.265   7.148 -29.267  1.00  0.00     0.001 A 
HETATM   13  C   UNL     1      -0.888   7.619 -29.897  1.00  0.00     0.012 A 
HETATM   14  C   UNL     1      -2.635   6.904 -33.114  1.00  0.00     0.092 C 
HETATM   15  C   UNL     1      -2.670   7.393 -31.687  1.00  0.00     0.127 C 
HETATM   16  H   UNL     1      -4.245   7.366 -30.249  1.00  0.00     0.165 HD
ENDROOT
BRANCH   3  17
HETATM   17  C   UNL     1      -4.137   3.501 -32.359  1.00  0.00     0.043 A 
HETATM   18  C   UNL     1      -5.316   3.153 -33.026  1.00  0.00     0.047 A 
HETATM   19  C   UNL     1      -5.673   1.804 -33.152  1.00  0.00     0.034 A 
HETATM   20  C   UNL     1      -4.895   0.803 -32.566  1.00  0.00     0.017 A 
HETATM   21  C   UNL     1      -3.717   1.145 -31.908  1.00  0.00     0.003 A 
HETATM   22  C   UNL     1      -3.329   2.485 -31.826  1.00  0.00     0.030 A 
BRANCH  19  23
HETATM   23  C   UNL     1      -6.849   1.402 -33.955  1.00  0.00     0.252 C 
HETATM   24  N   UNL     1      -8.065   1.659 -33.362  1.00  0.00    -0.352 N 
HETATM   25  H   UNL     1      -8.084   2.072 -32.436  1.00  0.00     0.163 HD
HETATM   26  O   UNL     1      -6.701   0.940 -35.078  1.00  0.00    -0.268 OA
BRANCH  24  27
HETATM   27  C   UNL     1      -9.321   1.382 -34.022  1.00  0.00     0.084 C 
HETATM   28  C   UNL     1     -10.274   0.580 -33.142  1.00  0.00     0.025 C 
HETATM   29  C   UNL     1     -11.622   0.827 -33.799  1.00  0.00     0.002 C 
HETATM   30  C   UNL     1     -11.582   2.300 -34.189  1.00  0.00     0.002 C 
HETATM   31  C   UNL     1     -10.104   2.655 -34.355  1.00  0.00     0.025 C 
ENDBRANCH  24  27
ENDBRANCH  19  23
ENDBRANCH   3  17
TORSDOF 3
ENDMDL
MODEL 9
REMARK VINA RESULT:      -8.7      4.725      7.878
REMARK  3 active torsions:
REMARK  status: ('A' for Active; 'I' for Inactive)
REMARK    1  A    between atoms: N_3  and  C_4 
REMARK    2  A    between atoms: C_6  and  C_7 
REMARK       I    between atoms: C_7  and  N_8 
REMARK    3  A    between atoms: N_8  and  C_9 
ROOT
HETATM    1  C   UNL     1      -9.053   3.084 -30.580  1.00  0.00     0.072 C 
HETATM    2  C   UNL     1      -9.244   3.729 -31.968  1.00  0.00     0.149 C 
HETATM    3  N   UNL     1      -7.957   3.926 -32.679  1.00  0.00    -0.267 N 
HETATM    4  C   UNL     1      -7.758   5.000 -33.541  1.00  0.00     0.326 C 
HETATM    5  O   UNL     1      -6.746   5.208 -34.208  1.00  0.00    -0.247 OA
HETATM    6  N   UNL     1      -8.784   5.895 -33.650  1.00  0.00    -0.334 N 
HETATM    7  O   UNL     1     -10.093   2.829 -32.714  1.00  0.00    -0.319 OA
HETATM    8  C   UNL     1     -10.849   3.378 -33.712  1.00  0.00     0.080 A 
HETATM    9  C   UNL     1     -10.898   4.753 -33.962  1.00  0.00    -0.002 A 
HETATM   10  C   UNL     1     -11.606   2.492 -34.477  1.00  0.00     0.037 A 
HETATM   11  C   UNL     1     -12.408   2.976 -35.511  1.00  0.00     0.003 A 
HETATM   12  C   UNL     1     -12.446   4.343 -35.781  1.00  0.00     0.001 A 
HETATM   13  C   UNL     1     -11.691   5.232 -35.013  1.00  0.00     0.012 A 
HETATM   14  C   UNL     1      -9.941   5.073 -31.723  1.00  0.00     0.092 C 
HETATM   15  C   UNL     1     -10.093   5.680 -33.096  1.00  0.00     0.127 C 
HETATM   16  H   UNL     1      -8.649   6.577 -34.385  1.00  0.00     0.165 HD
ENDROOT
BRANCH   3  17
HETATM   17  C   UNL     1      -6.949   2.916 -32.620  1.00  0.00     0.043 A 
HETATM   18  C   UNL     1      -7.014   1.775 -33.427  1.00  0.00     0.047 A 
HETATM   19  C   UNL     1      -6.001   0.811 -33.352  1.00  0.00     0.034 A 
HETATM   20  C   UNL     1      -4.954   0.946 -32.437  1.00  0.00     0.017 A 
HETATM   21  C   UNL     1      -4.882   2.084 -31.638  1.00  0.00     0.003 A 
HETATM   22  C   UNL     1      -5.862   3.074 -31.747  1.00  0.00     0.030 A 
BRANCH  19  23
HETATM   23  C   UNL     1      -5.982  -0.343 -34.277  1.00  0.00     0.252 C 
HETATM   24  N   UNL     1      -5.205  -1.402 -33.859  1.00  0.00    -0.352 N 
HETATM   25  H   UNL     1      -4.694  -1.323 -32.988  1.00  0.00     0.163 HD
HETATM   26  O   UNL     1      -6.669  -0.335 -35.289  1.00  0.00    -0.268 OA
BRANCH  24  27
HETATM   27  C   UNL     1      -5.110  -2.634 -34.610  1.00  0.00     0.084 C 
HETATM   28  C   UNL     1      -4.304  -3.700 -33.876  1.00  0.00     0.025 C 
HETATM   29  C   UNL     1      -4.736  -4.982 -34.568  1.00  0.00     0.002 C 
HETATM   30  C   UNL     1      -6.233  -4.800 -34.787  1.00  0.00     0.002 C 
HETATM   31  C   UNL     1      -6.475  -3.291 -34.836  1.00  0.00     0.025 C 
ENDBRANCH  24  27
ENDBRANCH  19  23
ENDBRANCH   3  17
TORSDOF 3
ENDMDL
MODEL 10
REMARK VINA RESULT:      -8.6      4.440      8.587
REMARK  3 active torsions:
REMARK  status: ('A' for Active; 'I' for Inactive)
REMARK    1  A    between atoms: N_3  and  C_4 
REMARK    2  A    between atoms: C_6  and  C_7 
REMARK       I    between atoms: C_7  and  N_8 
REMARK    3  A    between atoms: N_8  and  C_9 
ROOT
HETATM    1  C   UNL     1      -5.543   4.591 -33.953  1.00  0.00     0.072 C 
HETATM    2  C   UNL     1      -5.937   3.260 -33.278  1.00  0.00     0.149 C 
HETATM    3  N   UNL     1      -6.914   3.456 -32.177  1.00  0.00    -0.267 N 
HETATM    4  C   UNL     1      -6.918   2.636 -31.053  1.00  0.00     0.326 C 
HETATM    5  O   UNL     1      -7.722   2.694 -30.125  1.00  0.00    -0.247 OA
HETATM    6  N   UNL     1      -5.939   1.686 -30.986  1.00  0.00    -0.334 N 
HETATM    7  O   UNL     1      -6.513   2.439 -34.316  1.00  0.00    -0.319 OA
HETATM    8  C   UNL     1      -6.435   1.085 -34.148  1.00  0.00     0.080 A 
HETATM    9  C   UNL     1      -5.750   0.488 -33.084  1.00  0.00    -0.002 A 
HETATM   10  C   UNL     1      -7.061   0.301 -35.115  1.00  0.00     0.037 A 
HETATM   11  C   UNL     1      -7.020  -1.090 -35.016  1.00  0.00     0.003 A 
HETATM   12  C   UNL     1      -6.359  -1.693 -33.947  1.00  0.00     0.001 A 
HETATM   13  C   UNL     1      -5.728  -0.909 -32.979  1.00  0.00     0.012 A 
HETATM   14  C   UNL     1      -4.635   2.650 -32.746  1.00  0.00     0.092 C 
HETATM   15  C   UNL     1      -5.060   1.365 -32.078  1.00  0.00     0.127 C 
HETATM   16  H   UNL     1      -6.063   1.030 -30.225  1.00  0.00     0.165 HD
ENDROOT
BRANCH   3  17
HETATM   17  C   UNL     1      -7.983   4.389 -32.332  1.00  0.00     0.043 A 
HETATM   18  C   UNL     1      -9.169   4.036 -32.983  1.00  0.00     0.047 A 
HETATM   19  C   UNL     1     -10.203   4.974 -33.104  1.00  0.00     0.034 A 
HETATM   20  C   UNL     1     -10.039   6.280 -32.636  1.00  0.00     0.017 A 
HETATM   21  C   UNL     1      -8.863   6.633 -31.981  1.00  0.00     0.003 A 
HETATM   22  C   UNL     1      -7.850   5.685 -31.809  1.00  0.00     0.030 A 
BRANCH  19  23
HETATM   23  C   UNL     1     -11.511   4.592 -33.680  1.00  0.00     0.252 C 
HETATM   24  N   UNL     1     -11.847   3.266 -33.514  1.00  0.00    -0.352 N 
HETATM   25  H   UNL     1     -11.194   2.648 -33.046  1.00  0.00     0.163 HD
HETATM   26  O   UNL     1     -12.229   5.437 -34.196  1.00  0.00    -0.268 OA
BRANCH  24  27
HETATM   27  C   UNL     1     -13.111   2.727 -33.965  1.00  0.00     0.084 C 
HETATM   28  C   UNL     1     -13.016   1.247 -34.319  1.00  0.00     0.025 C 
HETATM   29  C   UNL     1     -14.468   0.801 -34.281  1.00  0.00     0.002 C 
HETATM   30  C   UNL     1     -15.050   1.530 -33.076  1.00  0.00     0.002 C 
HETATM   31  C   UNL     1     -14.192   2.781 -32.882  1.00  0.00     0.025 C 
ENDBRANCH  24  27
ENDBRANCH  19  23
ENDBRANCH   3  17
TORSDOF 3
ENDMDL
