MODEL 1
REMARK VINA RESULT:      -9.1      0.000      0.000
REMARK  11 active torsions:
REMARK  status: ('A' for Active; 'I' for Inactive)
REMARK    1  A    between atoms: C_4  and  C_5 
REMARK    2  A    between atoms: C_7  and  O_8 
REMARK    3  A    between atoms: C_10  and  O_11 
REMARK    4  A    between atoms: C_16  and  C_17 
REMARK    5  A    between atoms: C_20  and  C_21 
REMARK    6  A    between atoms: C_21  and  N_22 
REMARK    7  A    between atoms: N_22  and  C_23 
REMARK    8  A    between atoms: C_23  and  N_24 
REMARK    9  A    between atoms: N_24  and  C_25 
REMARK   10  A    between atoms: C_27  and  C_28 
REMARK   11  A    between atoms: C_28  and  O_29 
ROOT
HETATM    1  C   UNL     1     -10.898   2.275 -33.163  1.00  0.00     0.067 C 
HETATM    2  C   UNL     1     -11.398   2.396 -34.616  1.00  0.00     0.001 C 
HETATM    3  C   UNL     1     -10.893   3.684 -35.299  1.00  0.00     0.040 C 
HETATM    4  C   UNL     1     -11.397   4.951 -34.591  1.00  0.00     0.206 C 
HETATM    5  N   UNL     1     -12.045   4.497 -33.284  1.00  0.00    -0.065 N 
HETATM    6  H   UNL     1     -12.305   5.323 -32.728  1.00  0.00     0.280 HD
HETATM    7  C   UNL     1     -11.103   3.628 -32.445  1.00  0.00     0.246 C 
HETATM    8  C   UNL     1     -12.941   2.548 -34.533  1.00  0.00     0.033 C 
HETATM    9  C   UNL     1     -13.315   3.714 -33.604  1.00  0.00     0.236 C 
ENDROOT
BRANCH   4  10
HETATM   10  C   UNL     1     -10.300   6.018 -34.367  1.00  0.00     0.155 C 
BRANCH  10  11
HETATM   11  N   UNL     1      -8.954   5.504 -34.618  1.00  0.00    -0.365 N 
HETATM   12  H   UNL     1      -8.549   5.698 -35.530  1.00  0.00     0.161 HD
BRANCH  11  13
HETATM   13  C   UNL     1      -7.996   5.271 -33.670  1.00  0.00     0.172 C 
HETATM   14  S   UNL     1      -7.834   6.119 -32.240  1.00  0.00    -0.041 SA
BRANCH  13  15
HETATM   15  N   UNL     1      -7.085   4.287 -33.930  1.00  0.00    -0.333 N 
HETATM   16  H   UNL     1      -7.459   3.568 -34.547  1.00  0.00     0.168 HD
BRANCH  15  17
HETATM   17  C   UNL     1      -5.712   4.161 -33.629  1.00  0.00     0.035 A 
HETATM   18  C   UNL     1      -4.704   4.897 -34.253  1.00  0.00     0.047 A 
HETATM   19  C   UNL     1      -3.352   4.704 -33.918  1.00  0.00     0.041 A 
HETATM   20  C   UNL     1      -3.006   3.742 -32.967  1.00  0.00     0.018 A 
HETATM   21  C   UNL     1      -4.005   2.978 -32.364  1.00  0.00     0.003 A 
HETATM   22  C   UNL     1      -5.347   3.185 -32.696  1.00  0.00     0.029 A 
BRANCH  19  23
HETATM   23  C   UNL     1      -2.346   5.557 -34.608  1.00  0.00     0.293 C 
HETATM   24  O   UNL     1      -1.464   5.096 -35.320  1.00  0.00    -0.259 OA
BRANCH  23  25
HETATM   25  O   UNL     1      -2.555   6.865 -34.338  1.00  0.00    -0.323 OA
HETATM   26  C   UNL     1      -1.629   7.431 -33.408  1.00  0.00     0.213 C 
ENDBRANCH  23  25
ENDBRANCH  19  23
ENDBRANCH  15  17
ENDBRANCH  13  15
ENDBRANCH  11  13
ENDBRANCH  10  11
ENDBRANCH   4  10
BRANCH   1  27
HETATM   27  C   UNL     1      -9.561   1.664 -32.842  1.00  0.00     0.038 C 
HETATM   28  N   UNL     1      -8.715   1.825 -31.766  1.00  0.00    -0.277 N 
HETATM   29  C   UNL     1      -8.731   2.757 -30.664  1.00  0.00     0.179 C 
HETATM   30  N   UNL     1      -7.704   0.942 -31.757  1.00  0.00    -0.172 NA
HETATM   31  C   UNL     1      -7.759   0.311 -32.932  1.00  0.00     0.089 C 
HETATM   32  C   UNL     1      -8.903   0.737 -33.642  1.00  0.00     0.061 C 
BRANCH  31  33
HETATM   33  C   UNL     1      -6.766  -0.688 -33.321  1.00  0.00    -0.003 A 
HETATM   34  C   UNL     1      -5.529  -0.746 -32.662  1.00  0.00     0.053 A 
HETATM   35  C   UNL     1      -4.575  -1.712 -33.006  1.00  0.00     0.102 A 
HETATM   36  C   UNL     1      -4.854  -2.626 -34.041  1.00  0.00     0.101 A 
HETATM   37  C   UNL     1      -6.083  -2.564 -34.704  1.00  0.00     0.040 A 
HETATM   38  C   UNL     1      -7.034  -1.602 -34.346  1.00  0.00     0.017 A 
BRANCH  35  39
HETATM   39  O   UNL     1      -3.352  -1.845 -32.397  1.00  0.00    -0.353 OA
HETATM   40  C   UNL     1      -2.819  -0.710 -31.729  1.00  0.00     0.210 C 
ENDBRANCH  35  39
BRANCH  36  41
HETATM   41  O   UNL     1      -3.872  -3.543 -34.317  1.00  0.00    -0.353 OA
HETATM   42  C   UNL     1      -4.076  -4.882 -33.889  1.00  0.00     0.210 C 
ENDBRANCH  36  41
ENDBRANCH  31  33
ENDBRANCH   1  27
TORSDOF 11
ENDMDL
MODEL 2
REMARK VINA RESULT:      -8.8      3.187      6.176
REMARK  11 active torsions:
REMARK  status: ('A' for Active; 'I' for Inactive)
REMARK    1  A    between atoms: C_4  and  C_5 
REMARK    2  A    between atoms: C_7  and  O_8 
REMARK    3  A    between atoms: C_10  and  O_11 
REMARK    4  A    between atoms: C_16  and  C_17 
REMARK    5  A    between atoms: C_20  and  C_21 
REMARK    6  A    between atoms: C_21  and  N_22 
REMARK    7  A    between atoms: N_22  and  C_23 
REMARK    8  A    between atoms: C_23  and  N_24 
REMARK    9  A    between atoms: N_24  and  C_25 
REMARK   10  A    between atoms: C_27  and  C_28 
REMARK   11  A    between atoms: C_28  and  O_29 
ROOT
HETATM    1  C   UNL     1      -6.250   4.239 -31.121  1.00  0.00     0.067 C 
HETATM    2  C   UNL     1      -7.683   4.051 -30.587  1.00  0.00     0.001 C 
HETATM    3  C   UNL     1      -8.743   4.223 -31.693  1.00  0.00     0.040 C 
HETATM    4  C   UNL     1      -8.721   5.635 -32.301  1.00  0.00     0.206 C 
HETATM    5  N   UNL     1      -7.473   6.328 -31.758  1.00  0.00    -0.065 N 
HETATM    6  H   UNL     1      -7.363   7.241 -32.220  1.00  0.00     0.280 HD
HETATM    7  C   UNL     1      -6.204   5.507 -32.004  1.00  0.00     0.246 C 
HETATM    8  C   UNL     1      -7.931   5.213 -29.588  1.00  0.00     0.033 C 
HETATM    9  C   UNL     1      -7.648   6.566 -30.261  1.00  0.00     0.236 C 
ENDROOT
BRANCH   4  10
HETATM   10  C   UNL     1      -8.780   5.649 -33.846  1.00  0.00     0.155 C 
BRANCH  10  11
HETATM   11  N   UNL     1     -10.122   5.929 -34.357  1.00  0.00    -0.365 N 
HETATM   12  H   UNL     1     -10.330   6.893 -34.603  1.00  0.00     0.161 HD
BRANCH  11  13
HETATM   13  C   UNL     1     -10.926   5.045 -35.024  1.00  0.00     0.172 C 
HETATM   14  S   UNL     1     -12.492   5.353 -35.516  1.00  0.00    -0.041 SA
BRANCH  13  15
HETATM   15  N   UNL     1     -10.413   3.805 -35.280  1.00  0.00    -0.333 N 
HETATM   16  H   UNL     1      -9.734   3.817 -36.040  1.00  0.00     0.168 HD
BRANCH  15  17
HETATM   17  C   UNL     1     -10.536   2.570 -34.609  1.00  0.00     0.035 A 
HETATM   18  C   UNL     1     -11.752   1.930 -34.364  1.00  0.00     0.047 A 
HETATM   19  C   UNL     1     -11.803   0.710 -33.669  1.00  0.00     0.041 A 
HETATM   20  C   UNL     1     -10.622   0.139 -33.189  1.00  0.00     0.018 A 
HETATM   21  C   UNL     1      -9.406   0.788 -33.399  1.00  0.00     0.003 A 
HETATM   22  C   UNL     1      -9.366   1.997 -34.101  1.00  0.00     0.029 A 
BRANCH  19  23
HETATM   23  C   UNL     1     -13.139   0.081 -33.482  1.00  0.00     0.293 C 
HETATM   24  O   UNL     1     -13.292  -1.126 -33.357  1.00  0.00    -0.259 OA
BRANCH  23  25
HETATM   25  O   UNL     1     -14.115   1.018 -33.470  1.00  0.00    -0.323 OA
HETATM   26  C   UNL     1     -15.224   0.724 -34.322  1.00  0.00     0.213 C 
ENDBRANCH  23  25
ENDBRANCH  19  23
ENDBRANCH  15  17
ENDBRANCH  13  15
ENDBRANCH  11  13
ENDBRANCH  10  11
ENDBRANCH   4  10
BRANCH   1  27
HETATM   27  C   UNL     1      -5.484   3.098 -31.735  1.00  0.00     0.038 C 
HETATM   28  N   UNL     1      -4.131   2.857 -31.845  1.00  0.00    -0.277 N 
HETATM   29  C   UNL     1      -2.984   3.687 -31.569  1.00  0.00     0.179 C 
HETATM   30  N   UNL     1      -3.853   1.620 -32.284  1.00  0.00    -0.172 NA
HETATM   31  C   UNL     1      -5.022   1.093 -32.656  1.00  0.00     0.089 C 
HETATM   32  C   UNL     1      -6.066   1.986 -32.333  1.00  0.00     0.061 C 
BRANCH  31  33
HETATM   33  C   UNL     1      -5.115  -0.236 -33.256  1.00  0.00    -0.003 A 
HETATM   34  C   UNL     1      -4.228  -1.251 -32.864  1.00  0.00     0.053 A 
HETATM   35  C   UNL     1      -4.318  -2.536 -33.412  1.00  0.00     0.102 A 
HETATM   36  C   UNL     1      -5.301  -2.810 -34.384  1.00  0.00     0.101 A 
HETATM   37  C   UNL     1      -6.179  -1.798 -34.782  1.00  0.00     0.040 A 
HETATM   38  C   UNL     1      -6.088  -0.520 -34.220  1.00  0.00     0.017 A 
BRANCH  35  39
HETATM   39  O   UNL     1      -3.501  -3.585 -33.068  1.00  0.00    -0.353 OA
HETATM   40  C   UNL     1      -2.894  -3.555 -31.783  1.00  0.00     0.210 C 
ENDBRANCH  35  39
BRANCH  36  41
HETATM   41  O   UNL     1      -5.326  -4.093 -34.870  1.00  0.00    -0.353 OA
HETATM   42  C   UNL     1      -6.534  -4.553 -35.459  1.00  0.00     0.210 C 
ENDBRANCH  36  41
ENDBRANCH  31  33
ENDBRANCH   1  27
TORSDOF 11
ENDMDL
MODEL 3
REMARK VINA RESULT:      -8.7      2.616      3.988
REMARK  11 active torsions:
REMARK  status: ('A' for Active; 'I' for Inactive)
REMARK    1  A    between atoms: C_4  and  C_5 
REMARK    2  A    between atoms: C_7  and  O_8 
REMARK    3  A    between atoms: C_10  and  O_11 
REMARK    4  A    between atoms: C_16  and  C_17 
REMARK    5  A    between atoms: C_20  and  C_21 
REMARK    6  A    between atoms: C_21  and  N_22 
REMARK    7  A    between atoms: N_22  and  C_23 
REMARK    8  A    between atoms: C_23  and  N_24 
REMARK    9  A    between atoms: N_24  and  C_25 
REMARK   10  A    between atoms: C_27  and  C_28 
REMARK   11  A    between atoms: C_28  and  O_29 
ROOT
HETATM    1  C   UNL     1      -9.001   3.324 -31.498  1.00  0.00     0.067 C 
HETATM    2  C   UNL     1      -8.819   4.681 -32.205  1.00  0.00     0.001 C 
HETATM    3  C   UNL     1      -7.363   5.184 -32.128  1.00  0.00     0.040 C 
HETATM    4  C   UNL     1      -6.907   5.419 -30.679  1.00  0.00     0.206 C 
HETATM    5  N   UNL     1      -7.993   4.834 -29.777  1.00  0.00    -0.065 N 
HETATM    6  H   UNL     1      -7.680   4.877 -28.797  1.00  0.00     0.280 HD
HETATM    7  C   UNL     1      -8.304   3.375 -30.120  1.00  0.00     0.246 C 
HETATM    8  C   UNL     1      -9.657   5.708 -31.397  1.00  0.00     0.033 C 
HETATM    9  C   UNL     1      -9.259   5.675 -29.913  1.00  0.00     0.236 C 
ENDROOT
BRANCH   4  10
HETATM   10  C   UNL     1      -5.506   4.844 -30.366  1.00  0.00     0.155 C 
BRANCH  10  11
HETATM   11  N   UNL     1      -4.957   5.350 -29.108  1.00  0.00    -0.365 N 
HETATM   12  H   UNL     1      -4.545   4.668 -28.477  1.00  0.00     0.161 HD
BRANCH  11  13
HETATM   13  C   UNL     1      -4.460   6.608 -28.900  1.00  0.00     0.172 C 
HETATM   14  S   UNL     1      -5.368   8.009 -28.880  1.00  0.00    -0.041 SA
BRANCH  13  15
HETATM   15  N   UNL     1      -3.110   6.724 -28.722  1.00  0.00    -0.333 N 
HETATM   16  H   UNL     1      -2.840   6.632 -27.744  1.00  0.00     0.168 HD
BRANCH  15  17
HETATM   17  C   UNL     1      -2.037   6.801 -29.635  1.00  0.00     0.035 A 
HETATM   18  C   UNL     1      -2.175   6.679 -31.018  1.00  0.00     0.047 A 
HETATM   19  C   UNL     1      -1.057   6.743 -31.867  1.00  0.00     0.041 A 
HETATM   20  C   UNL     1       0.218   6.903 -31.320  1.00  0.00     0.018 A 
HETATM   21  C   UNL     1       0.369   6.992 -29.937  1.00  0.00     0.003 A 
HETATM   22  C   UNL     1      -0.751   6.937 -29.101  1.00  0.00     0.029 A 
BRANCH  19  23
HETATM   23  C   UNL     1      -1.300   6.638 -33.331  1.00  0.00     0.293 C 
HETATM   24  O   UNL     1      -1.460   7.615 -34.049  1.00  0.00    -0.259 OA
BRANCH  23  25
HETATM   25  O   UNL     1      -1.314   5.344 -33.726  1.00  0.00    -0.323 OA
HETATM   26  C   UNL     1      -2.049   5.101 -34.927  1.00  0.00     0.213 C 
ENDBRANCH  23  25
ENDBRANCH  19  23
ENDBRANCH  15  17
ENDBRANCH  13  15
ENDBRANCH  11  13
ENDBRANCH  10  11
ENDBRANCH   4  10
BRANCH   1  27
HETATM   27  C   UNL     1      -8.742   2.025 -32.213  1.00  0.00     0.038 C 
HETATM   28  N   UNL     1      -9.536   1.257 -33.037  1.00  0.00    -0.277 N 
HETATM   29  C   UNL     1     -10.940   1.338 -33.362  1.00  0.00     0.179 C 
HETATM   30  N   UNL     1      -8.863   0.265 -33.640  1.00  0.00    -0.172 NA
HETATM   31  C   UNL     1      -7.656   0.245 -33.071  1.00  0.00     0.089 C 
HETATM   32  C   UNL     1      -7.540   1.326 -32.170  1.00  0.00     0.061 C 
BRANCH  31  33
HETATM   33  C   UNL     1      -6.651  -0.756 -33.424  1.00  0.00    -0.003 A 
HETATM   34  C   UNL     1      -5.475  -0.871 -32.667  1.00  0.00     0.053 A 
HETATM   35  C   UNL     1      -4.512  -1.840 -32.977  1.00  0.00     0.102 A 
HETATM   36  C   UNL     1      -4.719  -2.699 -34.074  1.00  0.00     0.101 A 
HETATM   37  C   UNL     1      -5.886  -2.580 -34.834  1.00  0.00     0.040 A 
HETATM   38  C   UNL     1      -6.847  -1.616 -34.510  1.00  0.00     0.017 A 
BRANCH  35  39
HETATM   39  O   UNL     1      -3.347  -2.027 -32.275  1.00  0.00    -0.353 OA
HETATM   40  C   UNL     1      -2.654  -0.871 -31.825  1.00  0.00     0.210 C 
ENDBRANCH  35  39
BRANCH  36  41
HETATM   41  O   UNL     1      -3.732  -3.623 -34.311  1.00  0.00    -0.353 OA
HETATM   42  C   UNL     1      -3.970  -4.964 -33.907  1.00  0.00     0.210 C 
ENDBRANCH  36  41
ENDBRANCH  31  33
ENDBRANCH   1  27
TORSDOF 11
ENDMDL
MODEL 4
REMARK VINA RESULT:      -8.6      3.517      5.031
REMARK  11 active torsions:
REMARK  status: ('A' for Active; 'I' for Inactive)
REMARK    1  A    between atoms: C_4  and  C_5 
REMARK    2  A    between atoms: C_7  and  O_8 
REMARK    3  A    between atoms: C_10  and  O_11 
REMARK    4  A    between atoms: C_16  and  C_17 
REMARK    5  A    between atoms: C_20  and  C_21 
REMARK    6  A    between atoms: C_21  and  N_22 
REMARK    7  A    between atoms: N_22  and  C_23 
REMARK    8  A    between atoms: C_23  and  N_24 
REMARK    9  A    between atoms: N_24  and  C_25 
REMARK   10  A    between atoms: C_27  and  C_28 
REMARK   11  A    between atoms: C_28  and  O_29 
ROOT
HETATM    1  C   UNL     1      -7.238   4.417 -30.792  1.00  0.00     0.067 C 
HETATM    2  C   UNL     1      -7.252   5.903 -31.197  1.00  0.00     0.001 C 
HETATM    3  C   UNL     1      -6.135   6.706 -30.499  1.00  0.00     0.040 C 
HETATM    4  C   UNL     1      -6.289   6.703 -28.970  1.00  0.00     0.206 C 
HETATM    5  N   UNL     1      -7.381   5.687 -28.640  1.00  0.00    -0.065 N 
HETATM    6  H   UNL     1      -7.446   5.577 -27.619  1.00  0.00     0.280 HD
HETATM    7  C   UNL     1      -7.097   4.314 -29.256  1.00  0.00     0.246 C 
HETATM    8  C   UNL     1      -8.584   6.489 -30.658  1.00  0.00     0.033 C 
HETATM    9  C   UNL     1      -8.720   6.212 -29.152  1.00  0.00     0.236 C 
ENDROOT
BRANCH   4  10
HETATM   10  C   UNL     1      -4.972   6.421 -28.211  1.00  0.00     0.155 C 
BRANCH  10  11
HETATM   11  N   UNL     1      -3.950   7.438 -28.459  1.00  0.00    -0.365 N 
HETATM   12  H   UNL     1      -4.274   8.359 -28.743  1.00  0.00     0.161 HD
BRANCH  11  13
HETATM   13  C   UNL     1      -2.711   7.487 -27.879  1.00  0.00     0.172 C 
HETATM   14  S   UNL     1      -2.407   7.305 -26.248  1.00  0.00    -0.041 SA
BRANCH  13  15
HETATM   15  N   UNL     1      -1.647   7.732 -28.700  1.00  0.00    -0.333 N 
HETATM   16  H   UNL     1      -1.105   8.541 -28.399  1.00  0.00     0.168 HD
BRANCH  15  17
HETATM   17  C   UNL     1      -1.090   7.005 -29.773  1.00  0.00     0.035 A 
HETATM   18  C   UNL     1      -1.411   7.219 -31.114  1.00  0.00     0.047 A 
HETATM   19  C   UNL     1      -0.833   6.441 -32.132  1.00  0.00     0.041 A 
HETATM   20  C   UNL     1       0.057   5.417 -31.798  1.00  0.00     0.018 A 
HETATM   21  C   UNL     1       0.357   5.174 -30.458  1.00  0.00     0.003 A 
HETATM   22  C   UNL     1      -0.216   5.961 -29.454  1.00  0.00     0.029 A 
BRANCH  19  23
HETATM   23  C   UNL     1      -1.206   6.761 -33.537  1.00  0.00     0.293 C 
HETATM   24  O   UNL     1      -1.581   7.871 -33.886  1.00  0.00    -0.259 OA
BRANCH  23  25
HETATM   25  O   UNL     1      -1.067   5.675 -34.332  1.00  0.00    -0.323 OA
HETATM   26  C   UNL     1      -2.297   5.149 -34.833  1.00  0.00     0.213 C 
ENDBRANCH  23  25
ENDBRANCH  19  23
ENDBRANCH  15  17
ENDBRANCH  13  15
ENDBRANCH  11  13
ENDBRANCH  10  11
ENDBRANCH   4  10
BRANCH   1  27
HETATM   27  C   UNL     1      -6.369   3.416 -31.505  1.00  0.00     0.038 C 
HETATM   28  N   UNL     1      -5.002   3.340 -31.667  1.00  0.00    -0.277 N 
HETATM   29  C   UNL     1      -3.947   4.276 -31.363  1.00  0.00     0.179 C 
HETATM   30  N   UNL     1      -4.601   2.176 -32.201  1.00  0.00    -0.172 NA
HETATM   31  C   UNL     1      -5.715   1.544 -32.579  1.00  0.00     0.089 C 
HETATM   32  C   UNL     1      -6.842   2.287 -32.166  1.00  0.00     0.061 C 
BRANCH  31  33
HETATM   33  C   UNL     1      -5.678   0.257 -33.270  1.00  0.00    -0.003 A 
HETATM   34  C   UNL     1      -4.706  -0.697 -32.932  1.00  0.00     0.053 A 
HETATM   35  C   UNL     1      -4.670  -1.944 -33.567  1.00  0.00     0.102 A 
HETATM   36  C   UNL     1      -5.612  -2.238 -34.573  1.00  0.00     0.101 A 
HETATM   37  C   UNL     1      -6.575  -1.286 -34.918  1.00  0.00     0.040 A 
HETATM   38  C   UNL     1      -6.609  -0.047 -34.269  1.00  0.00     0.017 A 
BRANCH  35  39
HETATM   39  O   UNL     1      -3.765  -2.935 -33.280  1.00  0.00    -0.353 OA
HETATM   40  C   UNL     1      -3.156  -2.922 -31.996  1.00  0.00     0.210 C 
ENDBRANCH  35  39
BRANCH  36  41
HETATM   41  O   UNL     1      -5.513  -3.481 -35.146  1.00  0.00    -0.353 OA
HETATM   42  C   UNL     1      -6.616  -4.364 -35.005  1.00  0.00     0.210 C 
ENDBRANCH  36  41
ENDBRANCH  31  33
ENDBRANCH   1  27
TORSDOF 11
ENDMDL
MODEL 5
REMARK VINA RESULT:      -8.5      2.322      3.357
REMARK  11 active torsions:
REMARK  status: ('A' for Active; 'I' for Inactive)
REMARK    1  A    between atoms: C_4  and  C_5 
REMARK    2  A    between atoms: C_7  and  O_8 
REMARK    3  A    between atoms: C_10  and  O_11 
REMARK    4  A    between atoms: C_16  and  C_17 
REMARK    5  A    between atoms: C_20  and  C_21 
REMARK    6  A    between atoms: C_21  and  N_22 
REMARK    7  A    between atoms: N_22  and  C_23 
REMARK    8  A    between atoms: C_23  and  N_24 
REMARK    9  A    between atoms: N_24  and  C_25 
REMARK   10  A    between atoms: C_27  and  C_28 
REMARK   11  A    between atoms: C_28  and  O_29 
ROOT
HETATM    1  C   UNL     1      -9.781   3.418 -31.842  1.00  0.00     0.067 C 
HETATM    2  C   UNL     1      -9.753   4.766 -32.588  1.00  0.00     0.001 C 
HETATM    3  C   UNL     1      -8.355   5.418 -32.556  1.00  0.00     0.040 C 
HETATM    4  C   UNL     1      -7.898   5.739 -31.124  1.00  0.00     0.206 C 
HETATM    5  N   UNL     1      -8.900   5.072 -30.183  1.00  0.00    -0.065 N 
HETATM    6  H   UNL     1      -8.574   5.174 -29.212  1.00  0.00     0.280 HD
HETATM    7  C   UNL     1      -9.066   3.579 -30.482  1.00  0.00     0.246 C 
HETATM    8  C   UNL     1     -10.676   5.725 -31.789  1.00  0.00     0.033 C 
HETATM    9  C   UNL     1     -10.248   5.775 -30.313  1.00  0.00     0.236 C 
ENDROOT
BRANCH   4  10
HETATM   10  C   UNL     1      -6.439   5.320 -30.828  1.00  0.00     0.155 C 
BRANCH  10  11
HETATM   11  N   UNL     1      -5.884   4.442 -31.858  1.00  0.00    -0.365 N 
HETATM   12  H   UNL     1      -5.788   4.831 -32.792  1.00  0.00     0.161 HD
BRANCH  11  13
HETATM   13  C   UNL     1      -5.022   3.401 -31.644  1.00  0.00     0.172 C 
HETATM   14  S   UNL     1      -5.180   2.255 -30.440  1.00  0.00    -0.041 SA
BRANCH  13  15
HETATM   15  N   UNL     1      -3.933   3.314 -32.464  1.00  0.00    -0.333 N 
HETATM   16  H   UNL     1      -3.920   2.447 -32.999  1.00  0.00     0.168 HD
BRANCH  15  17
HETATM   17  C   UNL     1      -2.926   4.242 -32.806  1.00  0.00     0.035 A 
HETATM   18  C   UNL     1      -1.878   4.608 -31.960  1.00  0.00     0.047 A 
HETATM   19  C   UNL     1      -0.922   5.557 -32.359  1.00  0.00     0.041 A 
HETATM   20  C   UNL     1      -1.034   6.167 -33.610  1.00  0.00     0.018 A 
HETATM   21  C   UNL     1      -2.097   5.833 -34.448  1.00  0.00     0.003 A 
HETATM   22  C   UNL     1      -3.037   4.880 -34.046  1.00  0.00     0.029 A 
BRANCH  19  23
HETATM   23  C   UNL     1       0.181   5.862 -31.407  1.00  0.00     0.293 C 
HETATM   24  O   UNL     1       0.492   7.004 -31.097  1.00  0.00    -0.259 OA
BRANCH  23  25
HETATM   25  O   UNL     1       0.756   4.724 -30.955  1.00  0.00    -0.323 OA
HETATM   26  C   UNL     1       0.970   4.691 -29.543  1.00  0.00     0.213 C 
ENDBRANCH  23  25
ENDBRANCH  19  23
ENDBRANCH  15  17
ENDBRANCH  13  15
ENDBRANCH  11  13
ENDBRANCH  10  11
ENDBRANCH   4  10
BRANCH   1  27
HETATM   27  C   UNL     1      -9.403   2.133 -32.528  1.00  0.00     0.038 C 
HETATM   28  N   UNL     1     -10.112   1.298 -33.364  1.00  0.00    -0.277 N 
HETATM   29  C   UNL     1     -11.507   1.269 -33.733  1.00  0.00     0.179 C 
HETATM   30  N   UNL     1      -9.348   0.351 -33.930  1.00  0.00    -0.172 NA
HETATM   31  C   UNL     1      -8.161   0.428 -33.325  1.00  0.00     0.089 C 
HETATM   32  C   UNL     1      -8.155   1.527 -32.437  1.00  0.00     0.061 C 
BRANCH  31  33
HETATM   33  C   UNL     1      -7.074  -0.500 -33.631  1.00  0.00    -0.003 A 
HETATM   34  C   UNL     1      -5.751  -0.165 -33.308  1.00  0.00     0.053 A 
HETATM   35  C   UNL     1      -4.700  -1.052 -33.573  1.00  0.00     0.102 A 
HETATM   36  C   UNL     1      -4.973  -2.290 -34.188  1.00  0.00     0.101 A 
HETATM   37  C   UNL     1      -6.290  -2.620 -34.519  1.00  0.00     0.040 A 
HETATM   38  C   UNL     1      -7.335  -1.732 -34.240  1.00  0.00     0.017 A 
BRANCH  35  39
HETATM   39  O   UNL     1      -3.383  -0.806 -33.271  1.00  0.00    -0.353 OA
HETATM   40  C   UNL     1      -3.017  -0.761 -31.898  1.00  0.00     0.210 C 
ENDBRANCH  35  39
BRANCH  36  41
HETATM   41  O   UNL     1      -3.891  -3.104 -34.412  1.00  0.00    -0.353 OA
HETATM   42  C   UNL     1      -3.938  -4.424 -33.891  1.00  0.00     0.210 C 
ENDBRANCH  36  41
ENDBRANCH  31  33
ENDBRANCH   1  27
TORSDOF 11
ENDMDL
MODEL 6
REMARK VINA RESULT:      -8.3      5.942     11.195
REMARK  11 active torsions:
REMARK  status: ('A' for Active; 'I' for Inactive)
REMARK    1  A    between atoms: C_4  and  C_5 
REMARK    2  A    between atoms: C_7  and  O_8 
REMARK    3  A    between atoms: C_10  and  O_11 
REMARK    4  A    between atoms: C_16  and  C_17 
REMARK    5  A    between atoms: C_20  and  C_21 
REMARK    6  A    between atoms: C_21  and  N_22 
REMARK    7  A    between atoms: N_22  and  C_23 
REMARK    8  A    between atoms: C_23  and  N_24 
REMARK    9  A    between atoms: N_24  and  C_25 
REMARK   10  A    between atoms: C_27  and  C_28 
REMARK   11  A    between atoms: C_28  and  O_29 
ROOT
HETATM    1  C   UNL     1      -1.004   6.738 -31.033  1.00  0.00     0.067 C 
HETATM    2  C   UNL     1      -1.727   7.477 -32.175  1.00  0.00     0.001 C 
HETATM    3  C   UNL     1      -3.214   7.078 -32.276  1.00  0.00     0.040 C 
HETATM    4  C   UNL     1      -3.393   5.584 -32.585  1.00  0.00     0.206 C 
HETATM    5  N   UNL     1      -2.015   4.939 -32.448  1.00  0.00    -0.065 N 
HETATM    6  H   UNL     1      -2.106   3.918 -32.546  1.00  0.00     0.280 HD
HETATM    7  C   UNL     1      -1.369   5.238 -31.093  1.00  0.00     0.246 C 
HETATM    8  C   UNL     1      -1.074   6.984 -33.494  1.00  0.00     0.033 C 
HETATM    9  C   UNL     1      -1.114   5.449 -33.570  1.00  0.00     0.236 C 
ENDROOT
BRANCH   4  10
HETATM   10  C   UNL     1      -4.460   4.889 -31.707  1.00  0.00     0.155 C 
BRANCH  10  11
HETATM   11  N   UNL     1      -4.401   3.431 -31.796  1.00  0.00    -0.365 N 
HETATM   12  H   UNL     1      -3.564   2.979 -31.436  1.00  0.00     0.161 HD
BRANCH  11  13
HETATM   13  C   UNL     1      -5.477   2.584 -31.804  1.00  0.00     0.172 C 
HETATM   14  S   UNL     1      -6.319   2.090 -30.449  1.00  0.00    -0.041 SA
BRANCH  13  15
HETATM   15  N   UNL     1      -5.871   2.087 -33.013  1.00  0.00    -0.333 N 
HETATM   16  H   UNL     1      -6.044   2.822 -33.696  1.00  0.00     0.168 HD
BRANCH  15  17
HETATM   17  C   UNL     1      -5.940   0.772 -33.521  1.00  0.00     0.035 A 
HETATM   18  C   UNL     1      -5.007  -0.226 -33.238  1.00  0.00     0.047 A 
HETATM   19  C   UNL     1      -5.126  -1.510 -33.797  1.00  0.00     0.041 A 
HETATM   20  C   UNL     1      -6.178  -1.788 -34.672  1.00  0.00     0.018 A 
HETATM   21  C   UNL     1      -7.096  -0.787 -34.988  1.00  0.00     0.003 A 
HETATM   22  C   UNL     1      -6.974   0.484 -34.418  1.00  0.00     0.029 A 
BRANCH  19  23
HETATM   23  C   UNL     1      -4.105  -2.523 -33.413  1.00  0.00     0.293 C 
HETATM   24  O   UNL     1      -3.394  -2.406 -32.425  1.00  0.00    -0.259 OA
BRANCH  23  25
HETATM   25  O   UNL     1      -4.091  -3.551 -34.292  1.00  0.00    -0.323 OA
HETATM   26  C   UNL     1      -3.787  -4.820 -33.711  1.00  0.00     0.213 C 
ENDBRANCH  23  25
ENDBRANCH  19  23
ENDBRANCH  15  17
ENDBRANCH  13  15
ENDBRANCH  11  13
ENDBRANCH  10  11
ENDBRANCH   4  10
BRANCH   1  27
HETATM   27  C   UNL     1      -1.018   7.265 -29.624  1.00  0.00     0.038 C 
HETATM   28  N   UNL     1      -2.026   7.355 -28.688  1.00  0.00    -0.277 N 
HETATM   29  C   UNL     1      -3.449   7.137 -28.789  1.00  0.00     0.179 C 
HETATM   30  N   UNL     1      -1.583   7.703 -27.470  1.00  0.00    -0.172 NA
HETATM   31  C   UNL     1      -0.301   8.038 -27.630  1.00  0.00     0.089 C 
HETATM   32  C   UNL     1       0.091   7.783 -28.963  1.00  0.00     0.061 C 
BRANCH  31  33
HETATM   33  C   UNL     1       0.511   8.541 -26.524  1.00  0.00    -0.003 A 
HETATM   34  C   UNL     1      -0.009   9.509 -25.651  1.00  0.00     0.053 A 
HETATM   35  C   UNL     1       0.747   9.985 -24.573  1.00  0.00     0.102 A 
HETATM   36  C   UNL     1       2.054   9.499 -24.371  1.00  0.00     0.101 A 
HETATM   37  C   UNL     1       2.576   8.541 -25.245  1.00  0.00     0.040 A 
HETATM   38  C   UNL     1       1.810   8.064 -26.314  1.00  0.00     0.017 A 
BRANCH  35  39
HETATM   39  O   UNL     1       0.303  10.915 -23.666  1.00  0.00    -0.353 OA
HETATM   40  C   UNL     1      -0.635  10.488 -22.687  1.00  0.00     0.210 C 
ENDBRANCH  35  39
BRANCH  36  41
HETATM   41  O   UNL     1       2.728  10.012 -23.292  1.00  0.00    -0.353 OA
HETATM   42  C   UNL     1       4.112  10.290 -23.448  1.00  0.00     0.210 C 
ENDBRANCH  36  41
ENDBRANCH  31  33
ENDBRANCH   1  27
TORSDOF 11
ENDMDL
MODEL 7
REMARK VINA RESULT:      -8.1      2.084      2.527
REMARK  11 active torsions:
REMARK  status: ('A' for Active; 'I' for Inactive)
REMARK    1  A    between atoms: C_4  and  C_5 
REMARK    2  A    between atoms: C_7  and  O_8 
REMARK    3  A    between atoms: C_10  and  O_11 
REMARK    4  A    between atoms: C_16  and  C_17 
REMARK    5  A    between atoms: C_20  and  C_21 
REMARK    6  A    between atoms: C_21  and  N_22 
REMARK    7  A    between atoms: N_22  and  C_23 
REMARK    8  A    between atoms: C_23  and  N_24 
REMARK    9  A    between atoms: N_24  and  C_25 
REMARK   10  A    between atoms: C_27  and  C_28 
REMARK   11  A    between atoms: C_28  and  O_29 
ROOT
HETATM    1  C   UNL     1     -10.120   2.939 -32.005  1.00  0.00     0.067 C 
HETATM    2  C   UNL     1     -11.133   3.822 -32.757  1.00  0.00     0.001 C 
HETATM    3  C   UNL     1     -10.708   5.305 -32.779  1.00  0.00     0.040 C 
HETATM    4  C   UNL     1     -10.621   5.903 -31.366  1.00  0.00     0.206 C 
HETATM    5  N   UNL     1     -10.757   4.739 -30.387  1.00  0.00    -0.065 N 
HETATM    6  H   UNL     1     -10.601   5.081 -29.428  1.00  0.00     0.280 HD
HETATM    7  C   UNL     1      -9.745   3.625 -30.671  1.00  0.00     0.246 C 
HETATM    8  C   UNL     1     -12.446   3.779 -31.931  1.00  0.00     0.033 C 
HETATM    9  C   UNL     1     -12.174   4.179 -30.472  1.00  0.00     0.236 C 
ENDROOT
BRANCH   4  10
HETATM   10  C   UNL     1      -9.342   6.737 -31.119  1.00  0.00     0.155 C 
BRANCH  10  11
HETATM   11  N   UNL     1      -8.703   6.424 -29.842  1.00  0.00    -0.365 N 
HETATM   12  H   UNL     1      -9.252   5.897 -29.167  1.00  0.00     0.161 HD
BRANCH  11  13
HETATM   13  C   UNL     1      -7.358   6.278 -29.634  1.00  0.00     0.172 C 
HETATM   14  S   UNL     1      -6.574   6.561 -28.187  1.00  0.00    -0.041 SA
BRANCH  13  15
HETATM   15  N   UNL     1      -6.598   5.898 -30.704  1.00  0.00    -0.333 N 
HETATM   16  H   UNL     1      -6.652   6.564 -31.472  1.00  0.00     0.168 HD
BRANCH  15  17
HETATM   17  C   UNL     1      -5.663   4.855 -30.880  1.00  0.00     0.035 A 
HETATM   18  C   UNL     1      -4.428   5.011 -31.510  1.00  0.00     0.047 A 
HETATM   19  C   UNL     1      -3.554   3.922 -31.670  1.00  0.00     0.041 A 
HETATM   20  C   UNL     1      -3.936   2.656 -31.220  1.00  0.00     0.018 A 
HETATM   21  C   UNL     1      -5.183   2.485 -30.620  1.00  0.00     0.003 A 
HETATM   22  C   UNL     1      -6.041   3.577 -30.456  1.00  0.00     0.029 A 
BRANCH  19  23
HETATM   23  C   UNL     1      -2.242   4.185 -32.323  1.00  0.00     0.293 C 
HETATM   24  O   UNL     1      -1.230   4.455 -31.691  1.00  0.00    -0.259 OA
BRANCH  23  25
HETATM   25  O   UNL     1      -2.342   4.080 -33.667  1.00  0.00    -0.323 OA
HETATM   26  C   UNL     1      -1.843   5.209 -34.387  1.00  0.00     0.213 C 
ENDBRANCH  23  25
ENDBRANCH  19  23
ENDBRANCH  15  17
ENDBRANCH  13  15
ENDBRANCH  11  13
ENDBRANCH  10  11
ENDBRANCH   4  10
BRANCH   1  27
HETATM   27  C   UNL     1      -8.915   2.360 -32.697  1.00  0.00     0.038 C 
HETATM   28  N   UNL     1      -7.885   2.954 -33.393  1.00  0.00    -0.277 N 
HETATM   29  C   UNL     1      -7.690   4.310 -33.847  1.00  0.00     0.179 C 
HETATM   30  N   UNL     1      -6.890   2.101 -33.687  1.00  0.00    -0.172 NA
HETATM   31  C   UNL     1      -7.340   0.888 -33.359  1.00  0.00     0.089 C 
HETATM   32  C   UNL     1      -8.605   1.005 -32.741  1.00  0.00     0.061 C 
BRANCH  31  33
HETATM   33  C   UNL     1      -6.554  -0.320 -33.599  1.00  0.00    -0.003 A 
HETATM   34  C   UNL     1      -5.305  -0.483 -32.980  1.00  0.00     0.053 A 
HETATM   35  C   UNL     1      -4.549  -1.643 -33.180  1.00  0.00     0.102 A 
HETATM   36  C   UNL     1      -5.039  -2.655 -34.030  1.00  0.00     0.101 A 
HETATM   37  C   UNL     1      -6.279  -2.490 -34.655  1.00  0.00     0.040 A 
HETATM   38  C   UNL     1      -7.032  -1.331 -34.439  1.00  0.00     0.017 A 
BRANCH  35  39
HETATM   39  O   UNL     1      -3.330  -1.885 -32.596  1.00  0.00    -0.353 OA
HETATM   40  C   UNL     1      -2.733  -0.832 -31.852  1.00  0.00     0.210 C 
ENDBRANCH  35  39
BRANCH  36  41
HETATM   41  O   UNL     1      -4.242  -3.762 -34.173  1.00  0.00    -0.353 OA
HETATM   42  C   UNL     1      -4.857  -4.970 -34.595  1.00  0.00     0.210 C 
ENDBRANCH  36  41
ENDBRANCH  31  33
ENDBRANCH   1  27
TORSDOF 11
ENDMDL
MODEL 8
REMARK VINA RESULT:      -7.7      2.839      6.140
REMARK  11 active torsions:
REMARK  status: ('A' for Active; 'I' for Inactive)
REMARK    1  A    between atoms: C_4  and  C_5 
REMARK    2  A    between atoms: C_7  and  O_8 
REMARK    3  A    between atoms: C_10  and  O_11 
REMARK    4  A    between atoms: C_16  and  C_17 
REMARK    5  A    between atoms: C_20  and  C_21 
REMARK    6  A    between atoms: C_21  and  N_22 
REMARK    7  A    between atoms: N_22  and  C_23 
REMARK    8  A    between atoms: C_23  and  N_24 
REMARK    9  A    between atoms: N_24  and  C_25 
REMARK   10  A    between atoms: C_27  and  C_28 
REMARK   11  A    between atoms: C_28  and  O_29 
ROOT
HETATM    1  C   UNL     1      -5.228   5.652 -31.594  1.00  0.00     0.067 C 
HETATM    2  C   UNL     1      -6.468   5.692 -30.682  1.00  0.00     0.001 C 
HETATM    3  C   UNL     1      -7.736   5.189 -31.402  1.00  0.00     0.040 C 
HETATM    4  C   UNL     1      -8.098   6.062 -32.615  1.00  0.00     0.206 C 
HETATM    5  N   UNL     1      -6.920   7.009 -32.841  1.00  0.00    -0.065 N 
HETATM    6  H   UNL     1      -7.075   7.542 -33.708  1.00  0.00     0.280 HD
HETATM    7  C   UNL     1      -5.592   6.258 -32.968  1.00  0.00     0.246 C 
HETATM    8  C   UNL     1      -6.732   7.190 -30.373  1.00  0.00     0.033 C 
HETATM    9  C   UNL     1      -6.844   7.994 -31.679  1.00  0.00     0.236 C 
ENDROOT
BRANCH   4  10
HETATM   10  C   UNL     1      -8.456   5.250 -33.881  1.00  0.00     0.155 C 
BRANCH  10  11
HETATM   11  N   UNL     1      -9.390   5.956 -34.758  1.00  0.00    -0.365 N 
HETATM   12  H   UNL     1      -9.049   6.219 -35.679  1.00  0.00     0.161 HD
BRANCH  11  13
HETATM   13  C   UNL     1     -10.754   5.851 -34.726  1.00  0.00     0.172 C 
HETATM   14  S   UNL     1     -11.785   6.949 -34.004  1.00  0.00    -0.041 SA
BRANCH  13  15
HETATM   15  N   UNL     1     -11.309   4.746 -35.307  1.00  0.00    -0.333 N 
HETATM   16  H   UNL     1     -11.419   4.852 -36.314  1.00  0.00     0.168 HD
BRANCH  15  17
HETATM   17  C   UNL     1     -11.614   3.463 -34.805  1.00  0.00     0.035 A 
HETATM   18  C   UNL     1     -10.734   2.689 -34.048  1.00  0.00     0.047 A 
HETATM   19  C   UNL     1     -11.097   1.408 -33.598  1.00  0.00     0.041 A 
HETATM   20  C   UNL     1     -12.348   0.886 -33.935  1.00  0.00     0.018 A 
HETATM   21  C   UNL     1     -13.221   1.639 -34.720  1.00  0.00     0.003 A 
HETATM   22  C   UNL     1     -12.853   2.916 -35.154  1.00  0.00     0.029 A 
BRANCH  19  23
HETATM   23  C   UNL     1     -10.109   0.666 -32.768  1.00  0.00     0.293 C 
HETATM   24  O   UNL     1     -10.168  -0.542 -32.589  1.00  0.00    -0.259 OA
BRANCH  23  25
HETATM   25  O   UNL     1      -9.174   1.505 -32.266  1.00  0.00    -0.323 OA
HETATM   26  C   UNL     1      -8.028   0.851 -31.717  1.00  0.00     0.213 C 
ENDBRANCH  23  25
ENDBRANCH  19  23
ENDBRANCH  15  17
ENDBRANCH  13  15
ENDBRANCH  11  13
ENDBRANCH  10  11
ENDBRANCH   4  10
BRANCH   1  27
HETATM   27  C   UNL     1      -4.394   4.406 -31.732  1.00  0.00     0.038 C 
HETATM   28  N   UNL     1      -3.058   4.167 -31.494  1.00  0.00    -0.277 N 
HETATM   29  C   UNL     1      -1.961   5.058 -31.199  1.00  0.00     0.179 C 
HETATM   30  N   UNL     1      -2.741   2.863 -31.546  1.00  0.00    -0.172 NA
HETATM   31  C   UNL     1      -3.826   2.241 -32.011  1.00  0.00     0.089 C 
HETATM   32  C   UNL     1      -4.881   3.171 -32.144  1.00  0.00     0.061 C 
BRANCH  31  33
HETATM   33  C   UNL     1      -3.843   0.803 -32.269  1.00  0.00    -0.003 A 
HETATM   34  C   UNL     1      -4.782   0.258 -33.158  1.00  0.00     0.053 A 
HETATM   35  C   UNL     1      -4.797  -1.114 -33.435  1.00  0.00     0.102 A 
HETATM   36  C   UNL     1      -3.869  -1.962 -32.800  1.00  0.00     0.101 A 
HETATM   37  C   UNL     1      -2.939  -1.422 -31.907  1.00  0.00     0.040 A 
HETATM   38  C   UNL     1      -2.924  -0.048 -31.645  1.00  0.00     0.017 A 
BRANCH  35  39
HETATM   39  O   UNL     1      -5.669  -1.720 -34.305  1.00  0.00    -0.353 OA
HETATM   40  C   UNL     1      -6.617  -0.896 -34.971  1.00  0.00     0.210 C 
ENDBRANCH  35  39
BRANCH  36  41
HETATM   41  O   UNL     1      -3.945  -3.293 -33.125  1.00  0.00    -0.353 OA
HETATM   42  C   UNL     1      -3.174  -4.207 -32.360  1.00  0.00     0.210 C 
ENDBRANCH  36  41
ENDBRANCH  31  33
ENDBRANCH   1  27
TORSDOF 11
ENDMDL
MODEL 9
REMARK VINA RESULT:      -7.7      2.892      4.020
REMARK  11 active torsions:
REMARK  status: ('A' for Active; 'I' for Inactive)
REMARK    1  A    between atoms: C_4  and  C_5 
REMARK    2  A    between atoms: C_7  and  O_8 
REMARK    3  A    between atoms: C_10  and  O_11 
REMARK    4  A    between atoms: C_16  and  C_17 
REMARK    5  A    between atoms: C_20  and  C_21 
REMARK    6  A    between atoms: C_21  and  N_22 
REMARK    7  A    between atoms: N_22  and  C_23 
REMARK    8  A    between atoms: C_23  and  N_24 
REMARK    9  A    between atoms: N_24  and  C_25 
REMARK   10  A    between atoms: C_27  and  C_28 
REMARK   11  A    between atoms: C_28  and  O_29 
ROOT
HETATM    1  C   UNL     1      -9.232   3.232 -31.763  1.00  0.00     0.067 C 
HETATM    2  C   UNL     1      -9.740   4.496 -32.483  1.00  0.00     0.001 C 
HETATM    3  C   UNL     1      -8.582   5.382 -32.988  1.00  0.00     0.040 C 
HETATM    4  C   UNL     1      -7.704   5.898 -31.837  1.00  0.00     0.206 C 
HETATM    5  N   UNL     1      -8.142   5.149 -30.580  1.00  0.00    -0.065 N 
HETATM    6  H   UNL     1      -7.510   5.388 -29.804  1.00  0.00     0.280 HD
HETATM    7  C   UNL     1      -8.114   3.630 -30.774  1.00  0.00     0.246 C 
HETATM    8  C   UNL     1     -10.473   5.343 -31.409  1.00  0.00     0.033 C 
HETATM    9  C   UNL     1      -9.553   5.592 -30.204  1.00  0.00     0.236 C 
ENDROOT
BRANCH   4  10
HETATM   10  C   UNL     1      -6.186   5.766 -32.105  1.00  0.00     0.155 C 
BRANCH  10  11
HETATM   11  N   UNL     1      -5.373   6.295 -31.010  1.00  0.00    -0.365 N 
HETATM   12  H   UNL     1      -4.652   5.684 -30.634  1.00  0.00     0.161 HD
BRANCH  11  13
HETATM   13  C   UNL     1      -5.095   7.616 -30.784  1.00  0.00     0.172 C 
HETATM   14  S   UNL     1      -6.040   8.654 -29.880  1.00  0.00    -0.041 SA
BRANCH  13  15
HETATM   15  N   UNL     1      -3.972   8.127 -31.370  1.00  0.00    -0.333 N 
HETATM   16  H   UNL     1      -4.128   9.053 -31.765  1.00  0.00     0.168 HD
BRANCH  15  17
HETATM   17  C   UNL     1      -2.633   7.683 -31.399  1.00  0.00     0.035 A 
HETATM   18  C   UNL     1      -1.812   7.595 -30.274  1.00  0.00     0.047 A 
HETATM   19  C   UNL     1      -0.479   7.165 -30.380  1.00  0.00     0.041 A 
HETATM   20  C   UNL     1       0.047   6.846 -31.635  1.00  0.00     0.018 A 
HETATM   21  C   UNL     1      -0.756   6.963 -32.769  1.00  0.00     0.003 A 
HETATM   22  C   UNL     1      -2.085   7.382 -32.650  1.00  0.00     0.029 A 
BRANCH  19  23
HETATM   23  C   UNL     1       0.314   7.069 -29.124  1.00  0.00     0.293 C 
HETATM   24  O   UNL     1       0.755   6.011 -28.698  1.00  0.00    -0.259 OA
BRANCH  23  25
HETATM   25  O   UNL     1       0.465   8.287 -28.555  1.00  0.00    -0.323 OA
HETATM   26  C   UNL     1       1.495   8.352 -27.566  1.00  0.00     0.213 C 
ENDBRANCH  23  25
ENDBRANCH  19  23
ENDBRANCH  15  17
ENDBRANCH  13  15
ENDBRANCH  11  13
ENDBRANCH  10  11
ENDBRANCH   4  10
BRANCH   1  27
HETATM   27  C   UNL     1      -8.891   1.979 -32.524  1.00  0.00     0.038 C 
HETATM   28  N   UNL     1      -9.563   1.296 -33.515  1.00  0.00    -0.277 N 
HETATM   29  C   UNL     1     -10.897   1.444 -34.045  1.00  0.00     0.179 C 
HETATM   30  N   UNL     1      -8.824   0.328 -34.078  1.00  0.00    -0.172 NA
HETATM   31  C   UNL     1      -7.721   0.229 -33.333  1.00  0.00     0.089 C 
HETATM   32  C   UNL     1      -7.725   1.241 -32.348  1.00  0.00     0.061 C 
BRANCH  31  33
HETATM   33  C   UNL     1      -6.694  -0.776 -33.600  1.00  0.00    -0.003 A 
HETATM   34  C   UNL     1      -5.499  -0.774 -32.866  1.00  0.00     0.053 A 
HETATM   35  C   UNL     1      -4.515  -1.744 -33.092  1.00  0.00     0.102 A 
HETATM   36  C   UNL     1      -4.719  -2.724 -34.083  1.00  0.00     0.101 A 
HETATM   37  C   UNL     1      -5.906  -2.722 -34.822  1.00  0.00     0.040 A 
HETATM   38  C   UNL     1      -6.888  -1.755 -34.581  1.00  0.00     0.017 A 
BRANCH  35  39
HETATM   39  O   UNL     1      -3.329  -1.821 -32.403  1.00  0.00    -0.353 OA
HETATM   40  C   UNL     1      -2.937  -0.691 -31.635  1.00  0.00     0.210 C 
ENDBRANCH  35  39
BRANCH  36  41
HETATM   41  O   UNL     1      -3.710  -3.640 -34.243  1.00  0.00    -0.353 OA
HETATM   42  C   UNL     1      -3.959  -4.977 -33.832  1.00  0.00     0.210 C 
ENDBRANCH  36  41
ENDBRANCH  31  33
ENDBRANCH   1  27
TORSDOF 11
ENDMDL
MODEL 10
REMARK VINA RESULT:      -7.7      4.139      5.587
REMARK  11 active torsions:
REMARK  status: ('A' for Active; 'I' for Inactive)
REMARK    1  A    between atoms: C_4  and  C_5 
REMARK    2  A    between atoms: C_7  and  O_8 
REMARK    3  A    between atoms: C_10  and  O_11 
REMARK    4  A    between atoms: C_16  and  C_17 
REMARK    5  A    between atoms: C_20  and  C_21 
REMARK    6  A    between atoms: C_21  and  N_22 
REMARK    7  A    between atoms: N_22  and  C_23 
REMARK    8  A    between atoms: C_23  and  N_24 
REMARK    9  A    between atoms: N_24  and  C_25 
REMARK   10  A    between atoms: C_27  and  C_28 
REMARK   11  A    between atoms: C_28  and  O_29 
ROOT
HETATM    1  C   UNL     1      -7.654   5.512 -30.513  1.00  0.00     0.067 C 
HETATM    2  C   UNL     1      -6.409   6.332 -30.900  1.00  0.00     0.001 C 
HETATM    3  C   UNL     1      -5.255   6.148 -29.893  1.00  0.00     0.040 C 
HETATM    4  C   UNL     1      -5.634   6.631 -28.484  1.00  0.00     0.206 C 
HETATM    5  N   UNL     1      -7.135   6.913 -28.505  1.00  0.00    -0.065 N 
HETATM    6  H   UNL     1      -7.452   7.141 -27.553  1.00  0.00     0.280 HD
HETATM    7  C   UNL     1      -7.941   5.713 -29.007  1.00  0.00     0.246 C 
HETATM    8  C   UNL     1      -6.820   7.825 -30.792  1.00  0.00     0.033 C 
HETATM    9  C   UNL     1      -7.401   8.121 -29.400  1.00  0.00     0.236 C 
ENDROOT
BRANCH   4  10
HETATM   10  C   UNL     1      -5.234   5.647 -27.360  1.00  0.00     0.155 C 
BRANCH  10  11
HETATM   11  N   UNL     1      -4.000   6.040 -26.679  1.00  0.00    -0.365 N 
HETATM   12  H   UNL     1      -3.224   5.386 -26.716  1.00  0.00     0.161 HD
BRANCH  11  13
HETATM   13  C   UNL     1      -3.578   7.325 -26.465  1.00  0.00     0.172 C 
HETATM   14  S   UNL     1      -4.227   8.374 -25.339  1.00  0.00    -0.041 SA
BRANCH  13  15
HETATM   15  N   UNL     1      -2.566   7.789 -27.255  1.00  0.00    -0.333 N 
HETATM   16  H   UNL     1      -2.471   8.802 -27.207  1.00  0.00     0.168 HD
BRANCH  15  17
HETATM   17  C   UNL     1      -1.559   7.130 -27.992  1.00  0.00     0.035 A 
HETATM   18  C   UNL     1      -1.671   6.792 -29.342  1.00  0.00     0.047 A 
HETATM   19  C   UNL     1      -0.636   6.114 -30.008  1.00  0.00     0.041 A 
HETATM   20  C   UNL     1       0.514   5.746 -29.305  1.00  0.00     0.018 A 
HETATM   21  C   UNL     1       0.620   6.050 -27.949  1.00  0.00     0.003 A 
HETATM   22  C   UNL     1      -0.412   6.733 -27.298  1.00  0.00     0.029 A 
BRANCH  19  23
HETATM   23  C   UNL     1      -0.826   5.824 -31.455  1.00  0.00     0.293 C 
HETATM   24  O   UNL     1      -0.654   6.664 -32.328  1.00  0.00    -0.259 OA
BRANCH  23  25
HETATM   25  O   UNL     1      -1.200   4.538 -31.644  1.00  0.00    -0.323 OA
HETATM   26  C   UNL     1      -2.244   4.362 -32.604  1.00  0.00     0.213 C 
ENDBRANCH  23  25
ENDBRANCH  19  23
ENDBRANCH  15  17
ENDBRANCH  13  15
ENDBRANCH  11  13
ENDBRANCH  10  11
ENDBRANCH   4  10
BRANCH   1  27
HETATM   27  C   UNL     1      -7.808   4.074 -30.928  1.00  0.00     0.038 C 
HETATM   28  N   UNL     1      -8.900   3.233 -30.934  1.00  0.00    -0.277 N 
HETATM   29  C   UNL     1     -10.227   3.382 -30.387  1.00  0.00     0.179 C 
HETATM   30  N   UNL     1      -8.668   2.076 -31.573  1.00  0.00    -0.172 NA
HETATM   31  C   UNL     1      -7.358   2.056 -31.830  1.00  0.00     0.089 C 
HETATM   32  C   UNL     1      -6.782   3.285 -31.438  1.00  0.00     0.061 C 
BRANCH  31  33
HETATM   33  C   UNL     1      -6.712   0.910 -32.465  1.00  0.00    -0.003 A 
HETATM   34  C   UNL     1      -5.313   0.797 -32.458  1.00  0.00     0.053 A 
HETATM   35  C   UNL     1      -4.678  -0.306 -33.042  1.00  0.00     0.102 A 
HETATM   36  C   UNL     1      -5.452  -1.307 -33.660  1.00  0.00     0.101 A 
HETATM   37  C   UNL     1      -6.845  -1.192 -33.675  1.00  0.00     0.040 A 
HETATM   38  C   UNL     1      -7.471  -0.091 -33.080  1.00  0.00     0.017 A 
BRANCH  35  39
HETATM   39  O   UNL     1      -3.319  -0.498 -33.059  1.00  0.00    -0.353 OA
HETATM   40  C   UNL     1      -2.676  -0.789 -31.826  1.00  0.00     0.210 C 
ENDBRANCH  35  39
BRANCH  36  41
HETATM   41  O   UNL     1      -4.757  -2.357 -34.206  1.00  0.00    -0.353 OA
HETATM   42  C   UNL     1      -5.479  -3.289 -34.997  1.00  0.00     0.210 C 
ENDBRANCH  36  41
ENDBRANCH  31  33
ENDBRANCH   1  27
TORSDOF 11
ENDMDL
