MODEL 1
REMARK VINA RESULT:      -9.1      0.000      0.000
REMARK  8 active torsions:
REMARK  status: ('A' for Active; 'I' for Inactive)
REMARK    1  A    between atoms: C_3  and  S_4 
REMARK    2  A    between atoms: S_4  and  C_5 
REMARK    3  A    between atoms: C_5  and  C_6 
REMARK       I    between atoms: C_6  and  N_7 
REMARK    4  A    between atoms: N_7  and  C_8 
REMARK    5  A    between atoms: C_8  and  C_9 
REMARK    6  A    between atoms: C_17  and  C_18 
REMARK    7  A    between atoms: C_18  and  O_19 
REMARK    8  A    between atoms: O_19  and  C_20 
ROOT
HETATM    1  C   UNL     1      -5.094   4.005 -33.854  1.00  0.00     0.160 C 
HETATM    2  N   UNL     1      -3.887   3.940 -33.071  1.00  0.00    -0.314 N 
HETATM    3  C   UNL     1      -2.842   4.820 -33.035  1.00  0.00     0.191 A 
HETATM    4  N   UNL     1      -1.934   4.394 -32.189  1.00  0.00    -0.123 NA
HETATM    5  N   UNL     1      -2.391   3.230 -31.630  1.00  0.00    -0.132 NA
HETATM    6  C   UNL     1      -3.565   2.952 -32.164  1.00  0.00     0.154 A 
ENDROOT
BRANCH   3   7
HETATM    7  S   UNL     1      -2.760   6.283 -33.949  1.00  0.00    -0.081 SA
BRANCH   7   8
HETATM    8  C   UNL     1      -1.234   7.027 -33.299  1.00  0.00     0.185 C 
BRANCH   8   9
HETATM    9  C   UNL     1      -1.532   7.904 -32.094  1.00  0.00     0.227 C 
HETATM   10  N   UNL     1      -1.294   7.305 -30.877  1.00  0.00    -0.354 N 
HETATM   11  H   UNL     1      -1.262   6.286 -30.863  1.00  0.00     0.162 HD
HETATM   12  O   UNL     1      -1.952   9.053 -32.204  1.00  0.00    -0.273 OA
BRANCH  10  13
HETATM   13  C   UNL     1      -1.650   7.982 -29.652  1.00  0.00     0.187 C 
BRANCH  13  14
HETATM   14  C   UNL     1      -0.613   7.726 -28.623  1.00  0.00     0.070 A 
HETATM   15  O   UNL     1      -1.039   7.223 -27.428  1.00  0.00    -0.325 OA
HETATM   16  C   UNL     1       0.062   7.062 -26.650  1.00  0.00     0.142 A 
HETATM   17  C   UNL     1       1.194   7.450 -27.327  1.00  0.00     0.027 A 
HETATM   18  C   UNL     1       0.760   7.876 -28.605  1.00  0.00     0.036 A 
ENDBRANCH  13  14
ENDBRANCH  10  13
ENDBRANCH   8   9
ENDBRANCH   7   8
ENDBRANCH   3   7
BRANCH   6  19
HETATM   19  C   UNL     1      -4.422   1.782 -31.833  1.00  0.00     0.256 C 
BRANCH  19  20
HETATM   20  O   UNL     1      -3.683   0.616 -32.193  1.00  0.00    -0.344 OA
BRANCH  20  21
HETATM   21  C   UNL     1      -4.381  -0.366 -32.842  1.00  0.00     0.070 A 
HETATM   22  C   UNL     1      -3.931  -1.668 -33.069  1.00  0.00     0.049 A 
HETATM   23  C   UNL     1      -4.737  -2.598 -33.754  1.00  0.00    -0.023 A 
HETATM   24  C   UNL     1      -6.017  -2.208 -34.208  1.00  0.00    -0.026 A 
HETATM   25  C   UNL     1      -4.296  -3.909 -33.997  1.00  0.00     0.012 A 
HETATM   26  C   UNL     1      -6.463  -0.902 -33.959  1.00  0.00     0.015 A 
HETATM   27  C   UNL     1      -6.816  -3.133 -34.897  1.00  0.00     0.012 A 
HETATM   28  C   UNL     1      -5.652   0.007 -33.276  1.00  0.00     0.037 A 
HETATM   29  C   UNL     1      -6.361  -4.431 -35.134  1.00  0.00     0.001 A 
HETATM   30  C   UNL     1      -5.103  -4.819 -34.684  1.00  0.00     0.001 A 
ENDBRANCH  20  21
ENDBRANCH  19  20
ENDBRANCH   6  19
TORSDOF 8
ENDMDL
MODEL 2
REMARK VINA RESULT:      -8.9      1.771      2.132
REMARK  8 active torsions:
REMARK  status: ('A' for Active; 'I' for Inactive)
REMARK    1  A    between atoms: C_3  and  S_4 
REMARK    2  A    between atoms: S_4  and  C_5 
REMARK    3  A    between atoms: C_5  and  C_6 
REMARK       I    between atoms: C_6  and  N_7 
REMARK    4  A    between atoms: N_7  and  C_8 
REMARK    5  A    between atoms: C_8  and  C_9 
REMARK    6  A    between atoms: C_17  and  C_18 
REMARK    7  A    between atoms: C_18  and  O_19 
REMARK    8  A    between atoms: O_19  and  C_20 
ROOT
HETATM    1  C   UNL     1      -5.693   4.565 -32.073  1.00  0.00     0.160 C 
HETATM    2  N   UNL     1      -4.597   3.655 -31.865  1.00  0.00    -0.314 N 
HETATM    3  C   UNL     1      -3.296   3.937 -31.558  1.00  0.00     0.191 A 
HETATM    4  N   UNL     1      -2.614   2.821 -31.453  1.00  0.00    -0.123 NA
HETATM    5  N   UNL     1      -3.475   1.779 -31.665  1.00  0.00    -0.132 NA
HETATM    6  C   UNL     1      -4.670   2.278 -31.918  1.00  0.00     0.154 A 
ENDROOT
BRANCH   3   7
HETATM    7  S   UNL     1      -2.668   5.528 -31.315  1.00  0.00    -0.081 SA
BRANCH   7   8
HETATM    8  C   UNL     1      -0.942   5.317 -31.845  1.00  0.00     0.185 C 
BRANCH   8   9
HETATM    9  C   UNL     1      -0.020   5.203 -30.643  1.00  0.00     0.227 C 
HETATM   10  N   UNL     1      -0.458   5.867 -29.519  1.00  0.00    -0.354 N 
HETATM   11  H   UNL     1      -1.143   6.610 -29.660  1.00  0.00     0.162 HD
HETATM   12  O   UNL     1       1.031   4.567 -30.677  1.00  0.00    -0.273 OA
BRANCH  10  13
HETATM   13  C   UNL     1       0.380   5.943 -28.346  1.00  0.00     0.187 C 
BRANCH  13  14
HETATM   14  C   UNL     1       0.469   7.351 -27.887  1.00  0.00     0.070 A 
HETATM   15  O   UNL     1      -0.684   8.081 -27.904  1.00  0.00    -0.325 OA
HETATM   16  C   UNL     1      -0.376   9.320 -27.443  1.00  0.00     0.142 A 
HETATM   17  C   UNL     1       0.959   9.400 -27.125  1.00  0.00     0.027 A 
HETATM   18  C   UNL     1       1.506   8.126 -27.407  1.00  0.00     0.036 A 
ENDBRANCH  13  14
ENDBRANCH  10  13
ENDBRANCH   8   9
ENDBRANCH   7   8
ENDBRANCH   3   7
BRANCH   6  19
HETATM   19  C   UNL     1      -5.906   1.497 -32.193  1.00  0.00     0.256 C 
BRANCH  19  20
HETATM   20  O   UNL     1      -5.877   1.154 -33.577  1.00  0.00    -0.344 OA
BRANCH  20  21
HETATM   21  C   UNL     1      -5.802  -0.181 -33.868  1.00  0.00     0.070 A 
HETATM   22  C   UNL     1      -4.769  -1.039 -33.487  1.00  0.00     0.049 A 
HETATM   23  C   UNL     1      -4.795  -2.400 -33.846  1.00  0.00    -0.023 A 
HETATM   24  C   UNL     1      -5.885  -2.901 -34.594  1.00  0.00    -0.026 A 
HETATM   25  C   UNL     1      -3.760  -3.275 -33.477  1.00  0.00     0.012 A 
HETATM   26  C   UNL     1      -6.924  -2.032 -34.955  1.00  0.00     0.015 A 
HETATM   27  C   UNL     1      -5.906  -4.257 -34.958  1.00  0.00     0.012 A 
HETATM   28  C   UNL     1      -6.883  -0.686 -34.589  1.00  0.00     0.037 A 
HETATM   29  C   UNL     1      -4.867  -5.111 -34.586  1.00  0.00     0.001 A 
HETATM   30  C   UNL     1      -3.795  -4.621 -33.846  1.00  0.00     0.001 A 
ENDBRANCH  20  21
ENDBRANCH  19  20
ENDBRANCH   6  19
TORSDOF 8
ENDMDL
MODEL 3
REMARK VINA RESULT:      -8.7      2.027      2.667
REMARK  8 active torsions:
REMARK  status: ('A' for Active; 'I' for Inactive)
REMARK    1  A    between atoms: C_3  and  S_4 
REMARK    2  A    between atoms: S_4  and  C_5 
REMARK    3  A    between atoms: C_5  and  C_6 
REMARK       I    between atoms: C_6  and  N_7 
REMARK    4  A    between atoms: N_7  and  C_8 
REMARK    5  A    between atoms: C_8  and  C_9 
REMARK    6  A    between atoms: C_17  and  C_18 
REMARK    7  A    between atoms: C_18  and  O_19 
REMARK    8  A    between atoms: O_19  and  C_20 
ROOT
HETATM    1  C   UNL     1      -4.855   6.108 -31.873  1.00  0.00     0.160 C 
HETATM    2  N   UNL     1      -4.589   5.697 -33.227  1.00  0.00    -0.314 N 
HETATM    3  C   UNL     1      -3.502   5.976 -34.008  1.00  0.00     0.191 A 
HETATM    4  N   UNL     1      -3.647   5.412 -35.184  1.00  0.00    -0.123 NA
HETATM    5  N   UNL     1      -4.831   4.726 -35.181  1.00  0.00    -0.132 NA
HETATM    6  C   UNL     1      -5.403   4.901 -34.005  1.00  0.00     0.154 A 
ENDROOT
BRANCH   3   7
HETATM    7  S   UNL     1      -2.138   6.902 -33.496  1.00  0.00    -0.081 SA
BRANCH   7   8
HETATM    8  C   UNL     1      -0.895   5.601 -33.240  1.00  0.00     0.185 C 
BRANCH   8   9
HETATM    9  C   UNL     1      -0.902   5.124 -31.797  1.00  0.00     0.227 C 
HETATM   10  N   UNL     1       0.047   5.715 -30.994  1.00  0.00    -0.354 N 
HETATM   11  H   UNL     1       0.845   6.144 -31.463  1.00  0.00     0.162 HD
HETATM   12  O   UNL     1      -1.694   4.280 -31.387  1.00  0.00    -0.273 OA
BRANCH  10  13
HETATM   13  C   UNL     1       0.231   5.267 -29.634  1.00  0.00     0.187 C 
BRANCH  13  14
HETATM   14  C   UNL     1       0.576   6.423 -28.771  1.00  0.00     0.070 A 
HETATM   15  O   UNL     1       0.755   6.170 -27.442  1.00  0.00    -0.325 OA
HETATM   16  C   UNL     1       1.067   7.352 -26.852  1.00  0.00     0.142 A 
HETATM   17  C   UNL     1       1.097   8.364 -27.782  1.00  0.00     0.027 A 
HETATM   18  C   UNL     1       0.784   7.765 -29.024  1.00  0.00     0.036 A 
ENDBRANCH  13  14
ENDBRANCH  10  13
ENDBRANCH   8   9
ENDBRANCH   7   8
ENDBRANCH   3   7
BRANCH   6  19
HETATM   19  C   UNL     1      -6.701   4.319 -33.567  1.00  0.00     0.256 C 
BRANCH  19  20
HETATM   20  O   UNL     1      -6.392   3.257 -32.665  1.00  0.00    -0.344 OA
BRANCH  20  21
HETATM   21  C   UNL     1      -6.340   2.001 -33.205  1.00  0.00     0.070 A 
HETATM   22  C   UNL     1      -5.374   1.034 -32.919  1.00  0.00     0.049 A 
HETATM   23  C   UNL     1      -5.417  -0.230 -33.539  1.00  0.00    -0.023 A 
HETATM   24  C   UNL     1      -6.454  -0.522 -34.453  1.00  0.00    -0.026 A 
HETATM   25  C   UNL     1      -4.449  -1.211 -33.268  1.00  0.00     0.012 A 
HETATM   26  C   UNL     1      -7.427   0.453 -34.718  1.00  0.00     0.015 A 
HETATM   27  C   UNL     1      -6.492  -1.779 -35.075  1.00  0.00     0.012 A 
HETATM   28  C   UNL     1      -7.371   1.700 -34.093  1.00  0.00     0.037 A 
HETATM   29  C   UNL     1      -5.520  -2.741 -34.798  1.00  0.00     0.001 A 
HETATM   30  C   UNL     1      -4.499  -2.458 -33.895  1.00  0.00     0.001 A 
ENDBRANCH  20  21
ENDBRANCH  19  20
ENDBRANCH   6  19
TORSDOF 8
ENDMDL
MODEL 4
REMARK VINA RESULT:      -8.7      1.608      2.310
REMARK  8 active torsions:
REMARK  status: ('A' for Active; 'I' for Inactive)
REMARK    1  A    between atoms: C_3  and  S_4 
REMARK    2  A    between atoms: S_4  and  C_5 
REMARK    3  A    between atoms: C_5  and  C_6 
REMARK       I    between atoms: C_6  and  N_7 
REMARK    4  A    between atoms: N_7  and  C_8 
REMARK    5  A    between atoms: C_8  and  C_9 
REMARK    6  A    between atoms: C_17  and  C_18 
REMARK    7  A    between atoms: C_18  and  O_19 
REMARK    8  A    between atoms: O_19  and  C_20 
ROOT
HETATM    1  C   UNL     1      -5.453   3.161 -30.061  1.00  0.00     0.160 C 
HETATM    2  N   UNL     1      -4.442   2.992 -31.073  1.00  0.00    -0.314 N 
HETATM    3  C   UNL     1      -3.828   3.945 -31.837  1.00  0.00     0.191 A 
HETATM    4  N   UNL     1      -2.964   3.376 -32.643  1.00  0.00    -0.123 NA
HETATM    5  N   UNL     1      -2.980   2.029 -32.397  1.00  0.00    -0.132 NA
HETATM    6  C   UNL     1      -3.874   1.795 -31.455  1.00  0.00     0.154 A 
ENDROOT
BRANCH   3   7
HETATM    7  S   UNL     1      -4.132   5.641 -31.720  1.00  0.00    -0.081 SA
BRANCH   7   8
HETATM    8  C   UNL     1      -3.487   6.231 -33.314  1.00  0.00     0.185 C 
BRANCH   8   9
HETATM    9  C   UNL     1      -2.104   6.836 -33.146  1.00  0.00     0.227 C 
HETATM   10  N   UNL     1      -1.357   6.284 -32.129  1.00  0.00    -0.354 N 
HETATM   11  H   UNL     1      -1.867   5.783 -31.401  1.00  0.00     0.162 HD
HETATM   12  O   UNL     1      -1.690   7.744 -33.862  1.00  0.00    -0.273 OA
BRANCH  10  13
HETATM   13  C   UNL     1      -0.073   6.846 -31.781  1.00  0.00     0.187 C 
BRANCH  13  14
HETATM   14  C   UNL     1       0.216   6.579 -30.351  1.00  0.00     0.070 A 
HETATM   15  O   UNL     1       0.199   7.652 -29.506  1.00  0.00    -0.325 OA
HETATM   16  C   UNL     1       0.479   7.182 -28.263  1.00  0.00     0.142 A 
HETATM   17  C   UNL     1       0.673   5.821 -28.292  1.00  0.00     0.027 A 
HETATM   18  C   UNL     1       0.499   5.429 -29.640  1.00  0.00     0.036 A 
ENDBRANCH  13  14
ENDBRANCH  10  13
ENDBRANCH   8   9
ENDBRANCH   7   8
ENDBRANCH   3   7
BRANCH   6  19
HETATM   19  C   UNL     1      -4.205   0.466 -30.873  1.00  0.00     0.256 C 
BRANCH  19  20
HETATM   20  O   UNL     1      -3.199  -0.441 -31.321  1.00  0.00    -0.344 OA
BRANCH  20  21
HETATM   21  C   UNL     1      -3.630  -1.494 -32.081  1.00  0.00     0.070 A 
HETATM   22  C   UNL     1      -4.665  -1.451 -33.017  1.00  0.00     0.049 A 
HETATM   23  C   UNL     1      -5.026  -2.601 -33.743  1.00  0.00    -0.023 A 
HETATM   24  C   UNL     1      -4.326  -3.809 -33.526  1.00  0.00    -0.026 A 
HETATM   25  C   UNL     1      -6.070  -2.577 -34.683  1.00  0.00     0.012 A 
HETATM   26  C   UNL     1      -3.277  -3.835 -32.596  1.00  0.00     0.015 A 
HETATM   27  C   UNL     1      -4.691  -4.958 -34.246  1.00  0.00     0.012 A 
HETATM   28  C   UNL     1      -2.930  -2.684 -31.885  1.00  0.00     0.037 A 
HETATM   29  C   UNL     1      -5.734  -4.917 -35.172  1.00  0.00     0.001 A 
HETATM   30  C   UNL     1      -6.423  -3.727 -35.391  1.00  0.00     0.001 A 
ENDBRANCH  20  21
ENDBRANCH  19  20
ENDBRANCH   6  19
TORSDOF 8
ENDMDL
MODEL 5
REMARK VINA RESULT:      -8.5      2.182     10.318
REMARK  8 active torsions:
REMARK  status: ('A' for Active; 'I' for Inactive)
REMARK    1  A    between atoms: C_3  and  S_4 
REMARK    2  A    between atoms: S_4  and  C_5 
REMARK    3  A    between atoms: C_5  and  C_6 
REMARK       I    between atoms: C_6  and  N_7 
REMARK    4  A    between atoms: N_7  and  C_8 
REMARK    5  A    between atoms: C_8  and  C_9 
REMARK    6  A    between atoms: C_17  and  C_18 
REMARK    7  A    between atoms: C_18  and  O_19 
REMARK    8  A    between atoms: O_19  and  C_20 
ROOT
HETATM    1  C   UNL     1      -2.764   4.269 -32.044  1.00  0.00     0.160 C 
HETATM    2  N   UNL     1      -3.409   4.596 -33.289  1.00  0.00    -0.314 N 
HETATM    3  C   UNL     1      -4.683   4.312 -33.693  1.00  0.00     0.191 A 
HETATM    4  N   UNL     1      -4.880   4.785 -34.901  1.00  0.00    -0.123 NA
HETATM    5  N   UNL     1      -3.732   5.416 -35.299  1.00  0.00    -0.132 NA
HETATM    6  C   UNL     1      -2.843   5.299 -34.332  1.00  0.00     0.154 A 
ENDROOT
BRANCH   3   7
HETATM    7  S   UNL     1      -5.856   3.486 -32.731  1.00  0.00    -0.081 SA
BRANCH   7   8
HETATM    8  C   UNL     1      -5.169   1.804 -32.694  1.00  0.00     0.185 C 
BRANCH   8   9
HETATM    9  C   UNL     1      -6.246   0.774 -32.990  1.00  0.00     0.227 C 
HETATM   10  N   UNL     1      -5.930  -0.113 -33.995  1.00  0.00    -0.354 N 
HETATM   11  H   UNL     1      -5.199   0.171 -34.648  1.00  0.00     0.162 HD
HETATM   12  O   UNL     1      -7.311   0.741 -32.379  1.00  0.00    -0.273 OA
BRANCH  10  13
HETATM   13  C   UNL     1      -6.911  -1.064 -34.460  1.00  0.00     0.187 C 
BRANCH  13  14
HETATM   14  C   UNL     1      -6.289  -2.407 -34.570  1.00  0.00     0.070 A 
HETATM   15  O   UNL     1      -4.956  -2.495 -34.291  1.00  0.00    -0.325 OA
HETATM   16  C   UNL     1      -4.604  -3.798 -34.445  1.00  0.00     0.142 A 
HETATM   17  C   UNL     1      -5.692  -4.552 -34.816  1.00  0.00     0.027 A 
HETATM   18  C   UNL     1      -6.783  -3.656 -34.893  1.00  0.00     0.036 A 
ENDBRANCH  13  14
ENDBRANCH  10  13
ENDBRANCH   8   9
ENDBRANCH   7   8
ENDBRANCH   3   7
BRANCH   6  19
HETATM   19  C   UNL     1      -1.461   5.852 -34.341  1.00  0.00     0.256 C 
BRANCH  19  20
HETATM   20  O   UNL     1      -1.566   7.227 -33.977  1.00  0.00    -0.344 OA
BRANCH  20  21
HETATM   21  C   UNL     1      -1.405   7.514 -32.649  1.00  0.00     0.070 A 
HETATM   22  C   UNL     1      -0.370   7.047 -31.836  1.00  0.00     0.049 A 
HETATM   23  C   UNL     1      -0.306   7.407 -30.476  1.00  0.00    -0.023 A 
HETATM   24  C   UNL     1      -1.297   8.257 -29.934  1.00  0.00    -0.026 A 
HETATM   25  C   UNL     1       0.724   6.940 -29.643  1.00  0.00     0.012 A 
HETATM   26  C   UNL     1      -2.321   8.732 -30.766  1.00  0.00     0.015 A 
HETATM   27  C   UNL     1      -1.236   8.609 -28.577  1.00  0.00     0.012 A 
HETATM   28  C   UNL     1      -2.369   8.367 -32.112  1.00  0.00     0.037 A 
HETATM   29  C   UNL     1      -0.208   8.132 -27.762  1.00  0.00     0.001 A 
HETATM   30  C   UNL     1       0.771   7.299 -28.295  1.00  0.00     0.001 A 
ENDBRANCH  20  21
ENDBRANCH  19  20
ENDBRANCH   6  19
TORSDOF 8
ENDMDL
MODEL 6
REMARK VINA RESULT:      -8.5      4.795      7.815
REMARK  8 active torsions:
REMARK  status: ('A' for Active; 'I' for Inactive)
REMARK    1  A    between atoms: C_3  and  S_4 
REMARK    2  A    between atoms: S_4  and  C_5 
REMARK    3  A    between atoms: C_5  and  C_6 
REMARK       I    between atoms: C_6  and  N_7 
REMARK    4  A    between atoms: N_7  and  C_8 
REMARK    5  A    between atoms: C_8  and  C_9 
REMARK    6  A    between atoms: C_17  and  C_18 
REMARK    7  A    between atoms: C_18  and  O_19 
REMARK    8  A    between atoms: O_19  and  C_20 
ROOT
HETATM    1  C   UNL     1      -6.270   0.704 -29.901  1.00  0.00     0.160 C 
HETATM    2  N   UNL     1      -5.738   1.902 -30.497  1.00  0.00    -0.314 N 
HETATM    3  C   UNL     1      -6.290   3.151 -30.546  1.00  0.00     0.191 A 
HETATM    4  N   UNL     1      -5.483   3.966 -31.183  1.00  0.00    -0.123 NA
HETATM    5  N   UNL     1      -4.366   3.260 -31.541  1.00  0.00    -0.132 NA
HETATM    6  C   UNL     1      -4.520   2.015 -31.134  1.00  0.00     0.154 A 
ENDROOT
BRANCH   3   7
HETATM    7  S   UNL     1      -7.806   3.583 -29.840  1.00  0.00    -0.081 SA
BRANCH   7   8
HETATM    8  C   UNL     1      -8.728   4.162 -31.295  1.00  0.00     0.185 C 
BRANCH   8   9
HETATM    9  C   UNL     1      -8.886   3.045 -32.313  1.00  0.00     0.227 C 
HETATM   10  N   UNL     1      -9.854   2.118 -31.999  1.00  0.00    -0.354 N 
HETATM   11  H   UNL     1     -10.139   2.060 -31.022  1.00  0.00     0.162 HD
HETATM   12  O   UNL     1      -8.202   2.981 -33.331  1.00  0.00    -0.273 OA
BRANCH  10  13
HETATM   13  C   UNL     1     -10.025   0.940 -32.817  1.00  0.00     0.187 C 
BRANCH  13  14
HETATM   14  C   UNL     1     -11.241   1.087 -33.654  1.00  0.00     0.070 A 
HETATM   15  O   UNL     1     -11.154   1.925 -34.728  1.00  0.00    -0.325 OA
HETATM   16  C   UNL     1     -12.363   1.902 -35.348  1.00  0.00     0.142 A 
HETATM   17  C   UNL     1     -13.227   1.058 -34.691  1.00  0.00     0.027 A 
HETATM   18  C   UNL     1     -12.502   0.526 -33.599  1.00  0.00     0.036 A 
ENDBRANCH  13  14
ENDBRANCH  10  13
ENDBRANCH   8   9
ENDBRANCH   7   8
ENDBRANCH   3   7
BRANCH   6  19
HETATM   19  C   UNL     1      -3.537   0.910 -31.303  1.00  0.00     0.256 C 
BRANCH  19  20
HETATM   20  O   UNL     1      -3.424   0.673 -32.705  1.00  0.00    -0.344 OA
BRANCH  20  21
HETATM   21  C   UNL     1      -4.165  -0.362 -33.205  1.00  0.00     0.070 A 
HETATM   22  C   UNL     1      -3.744  -1.690 -33.304  1.00  0.00     0.049 A 
HETATM   23  C   UNL     1      -4.594  -2.676 -33.840  1.00  0.00    -0.023 A 
HETATM   24  C   UNL     1      -5.890  -2.316 -34.275  1.00  0.00    -0.026 A 
HETATM   25  C   UNL     1      -4.183  -4.014 -33.953  1.00  0.00     0.012 A 
HETATM   26  C   UNL     1      -6.306  -0.982 -34.155  1.00  0.00     0.015 A 
HETATM   27  C   UNL     1      -6.734  -3.298 -34.816  1.00  0.00     0.012 A 
HETATM   28  C   UNL     1      -5.451  -0.017 -33.618  1.00  0.00     0.037 A 
HETATM   29  C   UNL     1      -6.308  -4.623 -34.925  1.00  0.00     0.001 A 
HETATM   30  C   UNL     1      -5.034  -4.981 -34.494  1.00  0.00     0.001 A 
ENDBRANCH  20  21
ENDBRANCH  19  20
ENDBRANCH   6  19
TORSDOF 8
ENDMDL
MODEL 7
REMARK VINA RESULT:      -8.4      2.660     10.099
REMARK  8 active torsions:
REMARK  status: ('A' for Active; 'I' for Inactive)
REMARK    1  A    between atoms: C_3  and  S_4 
REMARK    2  A    between atoms: S_4  and  C_5 
REMARK    3  A    between atoms: C_5  and  C_6 
REMARK       I    between atoms: C_6  and  N_7 
REMARK    4  A    between atoms: N_7  and  C_8 
REMARK    5  A    between atoms: C_8  and  C_9 
REMARK    6  A    between atoms: C_17  and  C_18 
REMARK    7  A    between atoms: C_18  and  O_19 
REMARK    8  A    between atoms: O_19  and  C_20 
ROOT
HETATM    1  C   UNL     1      -4.027   2.808 -32.553  1.00  0.00     0.160 C 
HETATM    2  N   UNL     1      -5.171   3.546 -33.023  1.00  0.00    -0.314 N 
HETATM    3  C   UNL     1      -6.475   3.446 -32.628  1.00  0.00     0.191 A 
HETATM    4  N   UNL     1      -7.209   4.298 -33.305  1.00  0.00    -0.123 NA
HETATM    5  N   UNL     1      -6.381   4.995 -34.144  1.00  0.00    -0.132 NA
HETATM    6  C   UNL     1      -5.153   4.540 -33.980  1.00  0.00     0.154 A 
ENDROOT
BRANCH   3   7
HETATM    7  S   UNL     1      -7.049   2.379 -31.397  1.00  0.00    -0.081 SA
BRANCH   7   8
HETATM    8  C   UNL     1      -7.454   0.897 -32.367  1.00  0.00     0.185 C 
BRANCH   8   9
HETATM    9  C   UNL     1      -6.301  -0.093 -32.347  1.00  0.00     0.227 C 
HETATM   10  N   UNL     1      -5.797  -0.410 -33.588  1.00  0.00    -0.354 N 
HETATM   11  H   UNL     1      -6.403  -0.236 -34.390  1.00  0.00     0.162 HD
HETATM   12  O   UNL     1      -5.859  -0.568 -31.304  1.00  0.00    -0.273 OA
BRANCH  10  13
HETATM   13  C   UNL     1      -4.783  -1.428 -33.723  1.00  0.00     0.187 C 
BRANCH  13  14
HETATM   14  C   UNL     1      -5.395  -2.674 -34.246  1.00  0.00     0.070 A 
HETATM   15  O   UNL     1      -4.627  -3.802 -34.212  1.00  0.00    -0.325 OA
HETATM   16  C   UNL     1      -5.378  -4.810 -34.725  1.00  0.00     0.142 A 
HETATM   17  C   UNL     1      -6.623  -4.350 -35.086  1.00  0.00     0.027 A 
HETATM   18  C   UNL     1      -6.637  -2.970 -34.773  1.00  0.00     0.036 A 
ENDBRANCH  13  14
ENDBRANCH  10  13
ENDBRANCH   8   9
ENDBRANCH   7   8
ENDBRANCH   3   7
BRANCH   6  19
HETATM   19  C   UNL     1      -3.937   5.027 -34.685  1.00  0.00     0.256 C 
BRANCH  19  20
HETATM   20  O   UNL     1      -3.671   6.338 -34.187  1.00  0.00    -0.344 OA
BRANCH  20  21
HETATM   21  C   UNL     1      -2.724   6.430 -33.204  1.00  0.00     0.070 A 
HETATM   22  C   UNL     1      -2.753   7.323 -32.130  1.00  0.00     0.049 A 
HETATM   23  C   UNL     1      -1.719   7.332 -31.175  1.00  0.00    -0.023 A 
HETATM   24  C   UNL     1      -0.646   6.421 -31.303  1.00  0.00    -0.026 A 
HETATM   25  C   UNL     1      -1.729   8.229 -30.094  1.00  0.00     0.012 A 
HETATM   26  C   UNL     1      -0.639   5.518 -32.376  1.00  0.00     0.015 A 
HETATM   27  C   UNL     1       0.388   6.435 -30.354  1.00  0.00     0.012 A 
HETATM   28  C   UNL     1      -1.673   5.521 -33.313  1.00  0.00     0.037 A 
HETATM   29  C   UNL     1       0.364   7.336 -29.288  1.00  0.00     0.001 A 
HETATM   30  C   UNL     1      -0.693   8.231 -29.158  1.00  0.00     0.001 A 
ENDBRANCH  20  21
ENDBRANCH  19  20
ENDBRANCH   6  19
TORSDOF 8
ENDMDL
MODEL 8
REMARK VINA RESULT:      -8.3      1.699      1.979
REMARK  8 active torsions:
REMARK  status: ('A' for Active; 'I' for Inactive)
REMARK    1  A    between atoms: C_3  and  S_4 
REMARK    2  A    between atoms: S_4  and  C_5 
REMARK    3  A    between atoms: C_5  and  C_6 
REMARK       I    between atoms: C_6  and  N_7 
REMARK    4  A    between atoms: N_7  and  C_8 
REMARK    5  A    between atoms: C_8  and  C_9 
REMARK    6  A    between atoms: C_17  and  C_18 
REMARK    7  A    between atoms: C_18  and  O_19 
REMARK    8  A    between atoms: O_19  and  C_20 
ROOT
HETATM    1  C   UNL     1      -5.976   3.992 -30.368  1.00  0.00     0.160 C 
HETATM    2  N   UNL     1      -5.074   4.261 -31.458  1.00  0.00    -0.314 N 
HETATM    3  C   UNL     1      -4.132   5.245 -31.566  1.00  0.00     0.191 A 
HETATM    4  N   UNL     1      -3.519   5.145 -32.722  1.00  0.00    -0.123 NA
HETATM    5  N   UNL     1      -4.038   4.064 -33.383  1.00  0.00    -0.132 NA
HETATM    6  C   UNL     1      -4.979   3.533 -32.626  1.00  0.00     0.154 A 
ENDROOT
BRANCH   3   7
HETATM    7  S   UNL     1      -3.789   6.414 -30.342  1.00  0.00    -0.081 SA
BRANCH   7   8
HETATM    8  C   UNL     1      -2.268   7.172 -30.986  1.00  0.00     0.185 C 
BRANCH   8   9
HETATM    9  C   UNL     1      -1.040   6.531 -30.360  1.00  0.00     0.227 C 
HETATM   10  N   UNL     1      -1.066   6.466 -28.985  1.00  0.00    -0.354 N 
HETATM   11  H   UNL     1      -1.699   7.106 -28.505  1.00  0.00     0.162 HD
HETATM   12  O   UNL     1      -0.103   6.107 -31.032  1.00  0.00    -0.273 OA
BRANCH  10  13
HETATM   13  C   UNL     1       0.087   5.993 -28.257  1.00  0.00     0.187 C 
BRANCH  13  14
HETATM   14  C   UNL     1       0.783   7.141 -27.626  1.00  0.00     0.070 A 
HETATM   15  O   UNL     1       1.063   7.039 -26.294  1.00  0.00    -0.325 OA
HETATM   16  C   UNL     1       1.700   8.183 -25.933  1.00  0.00     0.142 A 
HETATM   17  C   UNL     1       1.839   9.021 -27.015  1.00  0.00     0.027 A 
HETATM   18  C   UNL     1       1.251   8.348 -28.111  1.00  0.00     0.036 A 
ENDBRANCH  13  14
ENDBRANCH  10  13
ENDBRANCH   8   9
ENDBRANCH   7   8
ENDBRANCH   3   7
BRANCH   6  19
HETATM   19  C   UNL     1      -5.793   2.332 -32.954  1.00  0.00     0.256 C 
BRANCH  19  20
HETATM   20  O   UNL     1      -5.032   1.196 -32.549  1.00  0.00    -0.344 OA
BRANCH  20  21
HETATM   21  C   UNL     1      -5.383  -0.000 -33.113  1.00  0.00     0.070 A 
HETATM   22  C   UNL     1      -4.562  -1.126 -33.207  1.00  0.00     0.049 A 
HETATM   23  C   UNL     1      -5.029  -2.308 -33.813  1.00  0.00    -0.023 A 
HETATM   24  C   UNL     1      -6.346  -2.354 -34.324  1.00  0.00    -0.026 A 
HETATM   25  C   UNL     1      -4.213  -3.446 -33.923  1.00  0.00     0.012 A 
HETATM   26  C   UNL     1      -7.165  -1.222 -34.208  1.00  0.00     0.015 A 
HETATM   27  C   UNL     1      -6.808  -3.530 -34.935  1.00  0.00     0.012 A 
HETATM   28  C   UNL     1      -6.687  -0.059 -33.601  1.00  0.00     0.037 A 
HETATM   29  C   UNL     1      -5.983  -4.651 -35.039  1.00  0.00     0.001 A 
HETATM   30  C   UNL     1      -4.687  -4.609 -34.533  1.00  0.00     0.001 A 
ENDBRANCH  20  21
ENDBRANCH  19  20
ENDBRANCH   6  19
TORSDOF 8
ENDMDL
MODEL 9
REMARK VINA RESULT:      -8.3      4.034      6.725
REMARK  8 active torsions:
REMARK  status: ('A' for Active; 'I' for Inactive)
REMARK    1  A    between atoms: C_3  and  S_4 
REMARK    2  A    between atoms: S_4  and  C_5 
REMARK    3  A    between atoms: C_5  and  C_6 
REMARK       I    between atoms: C_6  and  N_7 
REMARK    4  A    between atoms: N_7  and  C_8 
REMARK    5  A    between atoms: C_8  and  C_9 
REMARK    6  A    between atoms: C_17  and  C_18 
REMARK    7  A    between atoms: C_18  and  O_19 
REMARK    8  A    between atoms: O_19  and  C_20 
ROOT
HETATM    1  C   UNL     1      -3.705   4.048 -31.266  1.00  0.00     0.160 C 
HETATM    2  N   UNL     1      -4.812   3.303 -30.726  1.00  0.00    -0.314 N 
HETATM    3  C   UNL     1      -5.926   3.769 -30.086  1.00  0.00     0.191 A 
HETATM    4  N   UNL     1      -6.696   2.761 -29.748  1.00  0.00    -0.123 NA
HETATM    5  N   UNL     1      -6.103   1.610 -30.192  1.00  0.00    -0.132 NA
HETATM    6  C   UNL     1      -4.965   1.933 -30.776  1.00  0.00     0.154 A 
ENDROOT
BRANCH   3   7
HETATM    7  S   UNL     1      -6.270   5.438 -29.803  1.00  0.00    -0.081 SA
BRANCH   7   8
HETATM    8  C   UNL     1      -8.017   5.365 -29.308  1.00  0.00     0.185 C 
BRANCH   8   9
HETATM    9  C   UNL     1      -8.920   5.294 -30.527  1.00  0.00     0.227 C 
HETATM   10  N   UNL     1      -9.383   4.031 -30.824  1.00  0.00    -0.354 N 
HETATM   11  H   UNL     1      -8.858   3.246 -30.440  1.00  0.00     0.162 HD
HETATM   12  O   UNL     1      -9.211   6.286 -31.191  1.00  0.00    -0.273 OA
BRANCH  10  13
HETATM   13  C   UNL     1     -10.150   3.802 -32.025  1.00  0.00     0.187 C 
BRANCH  13  14
HETATM   14  C   UNL     1     -10.098   2.363 -32.382  1.00  0.00     0.070 A 
HETATM   15  O   UNL     1      -9.263   1.573 -31.646  1.00  0.00    -0.325 OA
HETATM   16  C   UNL     1      -9.378   0.311 -32.133  1.00  0.00     0.142 A 
HETATM   17  C   UNL     1     -10.279   0.273 -33.171  1.00  0.00     0.027 A 
HETATM   18  C   UNL     1     -10.749   1.598 -33.331  1.00  0.00     0.036 A 
ENDBRANCH  13  14
ENDBRANCH  10  13
ENDBRANCH   8   9
ENDBRANCH   7   8
ENDBRANCH   3   7
BRANCH   6  19
HETATM   19  C   UNL     1      -4.008   0.988 -31.412  1.00  0.00     0.256 C 
BRANCH  19  20
HETATM   20  O   UNL     1      -4.302   0.982 -32.808  1.00  0.00    -0.344 OA
BRANCH  20  21
HETATM   21  C   UNL     1      -4.822  -0.178 -33.312  1.00  0.00     0.070 A 
HETATM   22  C   UNL     1      -4.166  -1.410 -33.361  1.00  0.00     0.049 A 
HETATM   23  C   UNL     1      -4.801  -2.542 -33.906  1.00  0.00    -0.023 A 
HETATM   24  C   UNL     1      -6.119  -2.429 -34.401  1.00  0.00    -0.026 A 
HETATM   25  C   UNL     1      -4.151  -3.786 -33.970  1.00  0.00     0.012 A 
HETATM   26  C   UNL     1      -6.773  -1.191 -34.330  1.00  0.00     0.015 A 
HETATM   27  C   UNL     1      -6.749  -3.556 -34.951  1.00  0.00     0.012 A 
HETATM   28  C   UNL     1      -6.130  -0.078 -33.784  1.00  0.00     0.037 A 
HETATM   29  C   UNL     1      -6.087  -4.784 -35.011  1.00  0.00     0.001 A 
HETATM   30  C   UNL     1      -4.790  -4.899 -34.520  1.00  0.00     0.001 A 
ENDBRANCH  20  21
ENDBRANCH  19  20
ENDBRANCH   6  19
TORSDOF 8
ENDMDL
MODEL 10
REMARK VINA RESULT:      -8.3      2.470      3.219
REMARK  8 active torsions:
REMARK  status: ('A' for Active; 'I' for Inactive)
REMARK    1  A    between atoms: C_3  and  S_4 
REMARK    2  A    between atoms: S_4  and  C_5 
REMARK    3  A    between atoms: C_5  and  C_6 
REMARK       I    between atoms: C_6  and  N_7 
REMARK    4  A    between atoms: N_7  and  C_8 
REMARK    5  A    between atoms: C_8  and  C_9 
REMARK    6  A    between atoms: C_17  and  C_18 
REMARK    7  A    between atoms: C_18  and  O_19 
REMARK    8  A    between atoms: O_19  and  C_20 
ROOT
HETATM    1  C   UNL     1      -7.497   3.344 -30.742  1.00  0.00     0.160 C 
HETATM    2  N   UNL     1      -7.118   3.953 -31.991  1.00  0.00    -0.314 N 
HETATM    3  C   UNL     1      -6.802   5.258 -32.245  1.00  0.00     0.191 A 
HETATM    4  N   UNL     1      -6.512   5.402 -33.517  1.00  0.00    -0.123 NA
HETATM    5  N   UNL     1      -6.609   4.174 -34.114  1.00  0.00    -0.132 NA
HETATM    6  C   UNL     1      -6.978   3.300 -33.198  1.00  0.00     0.154 A 
ENDROOT
BRANCH   3   7
HETATM    7  S   UNL     1      -6.762   6.508 -31.054  1.00  0.00    -0.081 SA
BRANCH   7   8
HETATM    8  C   UNL     1      -5.214   6.125 -30.183  1.00  0.00     0.185 C 
BRANCH   8   9
HETATM    9  C   UNL     1      -4.052   6.046 -31.159  1.00  0.00     0.227 C 
HETATM   10  N   UNL     1      -3.331   4.875 -31.097  1.00  0.00    -0.354 N 
HETATM   11  H   UNL     1      -3.410   4.329 -30.239  1.00  0.00     0.162 HD
HETATM   12  O   UNL     1      -3.782   6.958 -31.937  1.00  0.00    -0.273 OA
BRANCH  10  13
HETATM   13  C   UNL     1      -2.129   4.718 -31.882  1.00  0.00     0.187 C 
BRANCH  13  14
HETATM   14  C   UNL     1      -0.967   5.240 -31.123  1.00  0.00     0.070 A 
HETATM   15  O   UNL     1      -0.259   4.339 -30.380  1.00  0.00    -0.325 OA
HETATM   16  C   UNL     1       0.751   5.024 -29.783  1.00  0.00     0.142 A 
HETATM   17  C   UNL     1       0.708   6.353 -30.133  1.00  0.00     0.027 A 
HETATM   18  C   UNL     1      -0.399   6.494 -31.002  1.00  0.00     0.036 A 
ENDBRANCH  13  14
ENDBRANCH  10  13
ENDBRANCH   8   9
ENDBRANCH   7   8
ENDBRANCH   3   7
BRANCH   6  19
HETATM   19  C   UNL     1      -7.189   1.843 -33.412  1.00  0.00     0.256 C 
BRANCH  19  20
HETATM   20  O   UNL     1      -5.915   1.286 -33.730  1.00  0.00    -0.344 OA
BRANCH  20  21
HETATM   21  C   UNL     1      -5.885  -0.062 -33.962  1.00  0.00     0.070 A 
HETATM   22  C   UNL     1      -4.838  -0.922 -33.624  1.00  0.00     0.049 A 
HETATM   23  C   UNL     1      -4.915  -2.297 -33.915  1.00  0.00    -0.023 A 
HETATM   24  C   UNL     1      -6.068  -2.811 -34.549  1.00  0.00    -0.026 A 
HETATM   25  C   UNL     1      -3.867  -3.174 -33.589  1.00  0.00     0.012 A 
HETATM   26  C   UNL     1      -7.120  -1.940 -34.867  1.00  0.00     0.015 A 
HETATM   27  C   UNL     1      -6.141  -4.181 -34.845  1.00  0.00     0.012 A 
HETATM   28  C   UNL     1      -7.028  -0.578 -34.570  1.00  0.00     0.037 A 
HETATM   29  C   UNL     1      -5.089  -5.038 -34.517  1.00  0.00     0.001 A 
HETATM   30  C   UNL     1      -3.953  -4.535 -33.889  1.00  0.00     0.001 A 
ENDBRANCH  20  21
ENDBRANCH  19  20
ENDBRANCH   6  19
TORSDOF 8
ENDMDL
