MODEL 1
REMARK VINA RESULT:      -8.5      0.000      0.000
REMARK  3 active torsions:
REMARK  status: ('A' for Active; 'I' for Inactive)
REMARK    1  A    between atoms: C_9  and  N_10 
REMARK       I    between atoms: N_10  and  C_11 
REMARK    2  A    between atoms: C_11  and  C_12 
REMARK    3  A    between atoms: C_15  and  C_16 
REMARK       I    between atoms: C_16  and  N_17 
ROOT
HETATM    1  N   UNL     1      -4.820   1.165 -33.099  1.00  0.00    -0.322 N 
HETATM    2  C   UNL     1      -5.027   1.766 -31.869  1.00  0.00     0.263 C 
HETATM    3  O   UNL     1      -5.767   1.327 -30.993  1.00  0.00    -0.267 OA
HETATM    4  H   UNL     1      -4.182   1.656 -33.715  1.00  0.00     0.169 HD
ENDROOT
BRANCH   1   5
HETATM    5  C   UNL     1      -5.367  -0.035 -33.593  1.00  0.00     0.035 A 
HETATM    6  C   UNL     1      -6.655  -0.152 -34.111  1.00  0.00     0.030 A 
HETATM    7  C   UNL     1      -7.124  -1.388 -34.573  1.00  0.00     0.014 A 
HETATM    8  C   UNL     1      -6.314  -2.531 -34.525  1.00  0.00    -0.026 A 
HETATM    9  C   UNL     1      -6.775  -3.777 -34.980  1.00  0.00     0.012 A 
HETATM   10  C   UNL     1      -5.007  -2.423 -34.003  1.00  0.00    -0.024 A 
HETATM   11  C   UNL     1      -5.955  -4.904 -34.923  1.00  0.00     0.001 A 
HETATM   12  C   UNL     1      -4.665  -4.800 -34.411  1.00  0.00     0.001 A 
HETATM   13  C   UNL     1      -4.193  -3.568 -33.954  1.00  0.00     0.012 A 
HETATM   14  C   UNL     1      -4.551  -1.174 -33.544  1.00  0.00     0.042 A 
ENDBRANCH   1   5
BRANCH   2  15
HETATM   15  C   UNL     1      -4.276   3.006 -31.660  1.00  0.00     0.073 A 
HETATM   16  S   UNL     1      -4.945   4.376 -30.883  1.00  0.00    -0.096 SA
HETATM   17  C   UNL     1      -3.505   5.271 -31.071  1.00  0.00     0.067 A 
HETATM   18  C   UNL     1      -2.501   4.566 -31.714  1.00  0.00     0.039 A 
HETATM   19  C   UNL     1      -2.969   3.248 -32.047  1.00  0.00     0.042 A 
BRANCH  18  20
HETATM   20  C   UNL     1      -1.193   5.163 -31.972  1.00  0.00     0.249 C 
HETATM   21  N   UNL     1      -1.160   6.193 -32.864  1.00  0.00    -0.366 N 
HETATM   22  H   UNL     1      -1.967   6.549 -33.348  1.00  0.00     0.159 HD
HETATM   23  H   UNL     1      -0.258   6.611 -33.051  1.00  0.00     0.159 HD
HETATM   24  O   UNL     1      -0.161   4.780 -31.429  1.00  0.00    -0.268 OA
ENDBRANCH  18  20
ENDBRANCH   2  15
TORSDOF 3
ENDMDL
MODEL 2
REMARK VINA RESULT:      -8.3      5.382      7.861
REMARK  3 active torsions:
REMARK  status: ('A' for Active; 'I' for Inactive)
REMARK    1  A    between atoms: C_9  and  N_10 
REMARK       I    between atoms: N_10  and  C_11 
REMARK    2  A    between atoms: C_11  and  C_12 
REMARK    3  A    between atoms: C_15  and  C_16 
REMARK       I    between atoms: C_16  and  N_17 
ROOT
HETATM    1  N   UNL     1      -9.489   0.685 -32.878  1.00  0.00    -0.322 N 
HETATM    2  C   UNL     1      -9.913   1.816 -33.554  1.00  0.00     0.263 C 
HETATM    3  O   UNL     1      -9.192   2.528 -34.246  1.00  0.00    -0.267 OA
HETATM    4  H   UNL     1     -10.206   0.209 -32.344  1.00  0.00     0.169 HD
ENDROOT
BRANCH   1   5
HETATM    5  C   UNL     1      -8.203   0.110 -32.849  1.00  0.00     0.035 A 
HETATM    6  C   UNL     1      -7.202   0.479 -31.954  1.00  0.00     0.030 A 
HETATM    7  C   UNL     1      -5.946  -0.138 -32.001  1.00  0.00     0.014 A 
HETATM    8  C   UNL     1      -5.667  -1.136 -32.945  1.00  0.00    -0.026 A 
HETATM    9  C   UNL     1      -4.410  -1.759 -33.006  1.00  0.00     0.012 A 
HETATM   10  C   UNL     1      -6.675  -1.519 -33.855  1.00  0.00    -0.024 A 
HETATM   11  C   UNL     1      -4.150  -2.749 -33.953  1.00  0.00     0.001 A 
HETATM   12  C   UNL     1      -5.143  -3.129 -34.850  1.00  0.00     0.001 A 
HETATM   13  C   UNL     1      -6.398  -2.519 -34.803  1.00  0.00     0.012 A 
HETATM   14  C   UNL     1      -7.932  -0.889 -33.794  1.00  0.00     0.042 A 
ENDBRANCH   1   5
BRANCH   2  15
HETATM   15  C   UNL     1     -11.336   2.127 -33.392  1.00  0.00     0.073 A 
HETATM   16  S   UNL     1     -11.893   3.544 -32.612  1.00  0.00    -0.096 SA
HETATM   17  C   UNL     1     -13.527   3.115 -32.850  1.00  0.00     0.067 A 
HETATM   18  C   UNL     1     -13.686   1.911 -33.516  1.00  0.00     0.039 A 
HETATM   19  C   UNL     1     -12.399   1.353 -33.825  1.00  0.00     0.042 A 
BRANCH  18  20
HETATM   20  C   UNL     1     -15.011   1.372 -33.813  1.00  0.00     0.249 C 
HETATM   21  N   UNL     1     -16.047   1.865 -33.077  1.00  0.00    -0.366 N 
HETATM   22  H   UNL     1     -15.948   2.557 -32.352  1.00  0.00     0.159 HD
HETATM   23  H   UNL     1     -16.968   1.496 -33.272  1.00  0.00     0.159 HD
HETATM   24  O   UNL     1     -15.213   0.520 -34.673  1.00  0.00    -0.268 OA
ENDBRANCH  18  20
ENDBRANCH   2  15
TORSDOF 3
ENDMDL
MODEL 3
REMARK VINA RESULT:      -8.2      4.178      6.226
REMARK  3 active torsions:
REMARK  status: ('A' for Active; 'I' for Inactive)
REMARK    1  A    between atoms: C_9  and  N_10 
REMARK       I    between atoms: N_10  and  C_11 
REMARK    2  A    between atoms: C_11  and  C_12 
REMARK    3  A    between atoms: C_15  and  C_16 
REMARK       I    between atoms: C_16  and  N_17 
ROOT
HETATM    1  N   UNL     1      -7.528   0.705 -34.313  1.00  0.00    -0.322 N 
HETATM    2  C   UNL     1      -8.435   1.210 -33.397  1.00  0.00     0.263 C 
HETATM    3  O   UNL     1      -8.565   0.804 -32.245  1.00  0.00    -0.267 OA
HETATM    4  H   UNL     1      -7.548   1.146 -35.225  1.00  0.00     0.169 HD
ENDROOT
BRANCH   1   5
HETATM    5  C   UNL     1      -6.582  -0.323 -34.135  1.00  0.00     0.035 A 
HETATM    6  C   UNL     1      -5.328  -0.140 -33.556  1.00  0.00     0.030 A 
HETATM    7  C   UNL     1      -4.443  -1.217 -33.426  1.00  0.00     0.014 A 
HETATM    8  C   UNL     1      -4.794  -2.498 -33.874  1.00  0.00    -0.026 A 
HETATM    9  C   UNL     1      -3.914  -3.585 -33.755  1.00  0.00     0.012 A 
HETATM   10  C   UNL     1      -6.062  -2.695 -34.461  1.00  0.00    -0.024 A 
HETATM   11  C   UNL     1      -4.280  -4.853 -34.208  1.00  0.00     0.001 A 
HETATM   12  C   UNL     1      -5.531  -5.049 -34.785  1.00  0.00     0.001 A 
HETATM   13  C   UNL     1      -6.417  -3.978 -34.911  1.00  0.00     0.012 A 
HETATM   14  C   UNL     1      -6.940  -1.602 -34.583  1.00  0.00     0.042 A 
ENDBRANCH   1   5
BRANCH   2  15
HETATM   15  C   UNL     1      -9.264   2.308 -33.899  1.00  0.00     0.073 A 
HETATM   16  S   UNL     1      -8.828   3.953 -33.730  1.00  0.00    -0.096 SA
HETATM   17  C   UNL     1     -10.245   4.482 -34.519  1.00  0.00     0.067 A 
HETATM   18  C   UNL     1     -11.067   3.443 -34.923  1.00  0.00     0.039 A 
HETATM   19  C   UNL     1     -10.478   2.185 -34.555  1.00  0.00     0.042 A 
BRANCH  18  20
HETATM   20  C   UNL     1     -12.330   3.693 -35.614  1.00  0.00     0.249 C 
HETATM   21  N   UNL     1     -13.180   4.581 -35.025  1.00  0.00    -0.366 N 
HETATM   22  H   UNL     1     -12.992   5.054 -34.156  1.00  0.00     0.159 HD
HETATM   23  H   UNL     1     -14.058   4.758 -35.494  1.00  0.00     0.159 HD
HETATM   24  O   UNL     1     -12.637   3.149 -36.670  1.00  0.00    -0.268 OA
ENDBRANCH  18  20
ENDBRANCH   2  15
TORSDOF 3
ENDMDL
MODEL 4
REMARK VINA RESULT:      -8.2      4.694      6.020
REMARK  3 active torsions:
REMARK  status: ('A' for Active; 'I' for Inactive)
REMARK    1  A    between atoms: C_9  and  N_10 
REMARK       I    between atoms: N_10  and  C_11 
REMARK    2  A    between atoms: C_11  and  C_12 
REMARK    3  A    between atoms: C_15  and  C_16 
REMARK       I    between atoms: C_16  and  N_17 
ROOT
HETATM    1  N   UNL     1      -8.059   0.632 -34.490  1.00  0.00    -0.322 N 
HETATM    2  C   UNL     1      -9.227   0.798 -33.765  1.00  0.00     0.263 C 
HETATM    3  O   UNL     1      -9.551   0.116 -32.796  1.00  0.00    -0.267 OA
HETATM    4  H   UNL     1      -7.940   1.273 -35.266  1.00  0.00     0.169 HD
ENDROOT
BRANCH   1   5
HETATM    5  C   UNL     1      -7.021  -0.296 -34.280  1.00  0.00     0.035 A 
HETATM    6  C   UNL     1      -5.791   0.023 -33.709  1.00  0.00     0.030 A 
HETATM    7  C   UNL     1      -4.808  -0.961 -33.545  1.00  0.00     0.014 A 
HETATM    8  C   UNL     1      -5.037  -2.283 -33.949  1.00  0.00    -0.026 A 
HETATM    9  C   UNL     1      -4.058  -3.278 -33.794  1.00  0.00     0.012 A 
HETATM   10  C   UNL     1      -6.280  -2.618 -34.526  1.00  0.00    -0.024 A 
HETATM   11  C   UNL     1      -4.303  -4.589 -34.204  1.00  0.00     0.001 A 
HETATM   12  C   UNL     1      -5.529  -4.922 -34.772  1.00  0.00     0.001 A 
HETATM   13  C   UNL     1      -6.512  -3.944 -34.932  1.00  0.00     0.012 A 
HETATM   14  C   UNL     1      -7.257  -1.618 -34.684  1.00  0.00     0.042 A 
ENDBRANCH   1   5
BRANCH   2  15
HETATM   15  C   UNL     1     -10.090   1.884 -34.236  1.00  0.00     0.073 A 
HETATM   16  S   UNL     1     -11.749   1.665 -34.589  1.00  0.00    -0.096 SA
HETATM   17  C   UNL     1     -11.941   3.299 -35.039  1.00  0.00     0.067 A 
HETATM   18  C   UNL     1     -10.774   4.037 -34.933  1.00  0.00     0.039 A 
HETATM   19  C   UNL     1      -9.708   3.196 -34.461  1.00  0.00     0.042 A 
BRANCH  18  20
HETATM   20  C   UNL     1     -10.734   5.457 -35.275  1.00  0.00     0.249 C 
HETATM   21  N   UNL     1     -11.867   6.174 -35.026  1.00  0.00    -0.366 N 
HETATM   22  H   UNL     1     -12.710   5.784 -34.638  1.00  0.00     0.159 HD
HETATM   23  H   UNL     1     -11.850   7.157 -35.262  1.00  0.00     0.159 HD
HETATM   24  O   UNL     1      -9.749   6.004 -35.760  1.00  0.00    -0.268 OA
ENDBRANCH  18  20
ENDBRANCH   2  15
TORSDOF 3
ENDMDL
MODEL 5
REMARK VINA RESULT:      -8.0      4.988      7.921
REMARK  3 active torsions:
REMARK  status: ('A' for Active; 'I' for Inactive)
REMARK    1  A    between atoms: C_9  and  N_10 
REMARK       I    between atoms: N_10  and  C_11 
REMARK    2  A    between atoms: C_11  and  C_12 
REMARK    3  A    between atoms: C_15  and  C_16 
REMARK       I    between atoms: C_16  and  N_17 
ROOT
HETATM    1  N   UNL     1      -8.933   0.251 -33.689  1.00  0.00    -0.322 N 
HETATM    2  C   UNL     1      -9.349   1.525 -34.037  1.00  0.00     0.263 C 
HETATM    3  O   UNL     1      -8.596   2.464 -34.279  1.00  0.00    -0.267 OA
HETATM    4  H   UNL     1      -9.678  -0.413 -33.515  1.00  0.00     0.169 HD
ENDROOT
BRANCH   1   5
HETATM    5  C   UNL     1      -7.618  -0.238 -33.559  1.00  0.00     0.035 A 
HETATM    6  C   UNL     1      -7.046  -1.178 -34.414  1.00  0.00     0.030 A 
HETATM    7  C   UNL     1      -5.732  -1.617 -34.208  1.00  0.00     0.014 A 
HETATM    8  C   UNL     1      -4.966  -1.125 -33.142  1.00  0.00    -0.026 A 
HETATM    9  C   UNL     1      -3.650  -1.562 -32.921  1.00  0.00     0.012 A 
HETATM   10  C   UNL     1      -5.535  -0.172 -32.271  1.00  0.00    -0.024 A 
HETATM   11  C   UNL     1      -2.903  -1.062 -31.854  1.00  0.00     0.001 A 
HETATM   12  C   UNL     1      -3.461  -0.120 -30.996  1.00  0.00     0.001 A 
HETATM   13  C   UNL     1      -4.769   0.323 -31.202  1.00  0.00     0.012 A 
HETATM   14  C   UNL     1      -6.856   0.260 -32.493  1.00  0.00     0.042 A 
ENDBRANCH   1   5
BRANCH   2  15
HETATM   15  C   UNL     1     -10.802   1.695 -34.108  1.00  0.00     0.073 A 
HETATM   16  S   UNL     1     -11.550   3.222 -34.288  1.00  0.00    -0.096 SA
HETATM   17  C   UNL     1     -13.112   2.537 -34.268  1.00  0.00     0.067 A 
HETATM   18  C   UNL     1     -13.104   1.160 -34.128  1.00  0.00     0.039 A 
HETATM   19  C   UNL     1     -11.750   0.687 -34.039  1.00  0.00     0.042 A 
BRANCH  18  20
HETATM   20  C   UNL     1     -14.345   0.389 -34.086  1.00  0.00     0.249 C 
HETATM   21  N   UNL     1     -14.335  -0.738 -33.319  1.00  0.00    -0.366 N 
HETATM   22  H   UNL     1     -13.535  -1.063 -32.801  1.00  0.00     0.159 HD
HETATM   23  H   UNL     1     -15.187  -1.280 -33.286  1.00  0.00     0.159 HD
HETATM   24  O   UNL     1     -15.359   0.713 -34.697  1.00  0.00    -0.268 OA
ENDBRANCH  18  20
ENDBRANCH   2  15
TORSDOF 3
ENDMDL
MODEL 6
REMARK VINA RESULT:      -7.9      1.833      2.074
REMARK  3 active torsions:
REMARK  status: ('A' for Active; 'I' for Inactive)
REMARK    1  A    between atoms: C_9  and  N_10 
REMARK       I    between atoms: N_10  and  C_11 
REMARK    2  A    between atoms: C_11  and  C_12 
REMARK    3  A    between atoms: C_15  and  C_16 
REMARK       I    between atoms: C_16  and  N_17 
ROOT
HETATM    1  N   UNL     1      -5.007   1.222 -33.027  1.00  0.00    -0.322 N 
HETATM    2  C   UNL     1      -5.214   1.748 -31.763  1.00  0.00     0.263 C 
HETATM    3  O   UNL     1      -5.873   1.206 -30.880  1.00  0.00    -0.267 OA
HETATM    4  H   UNL     1      -4.444   1.795 -33.644  1.00  0.00     0.169 HD
ENDROOT
BRANCH   1   5
HETATM    5  C   UNL     1      -5.465  -0.001 -33.554  1.00  0.00     0.035 A 
HETATM    6  C   UNL     1      -6.705  -0.174 -34.167  1.00  0.00     0.030 A 
HETATM    7  C   UNL     1      -7.086  -1.429 -34.656  1.00  0.00     0.014 A 
HETATM    8  C   UNL     1      -6.235  -2.537 -34.541  1.00  0.00    -0.026 A 
HETATM    9  C   UNL     1      -6.607  -3.802 -35.023  1.00  0.00     0.012 A 
HETATM   10  C   UNL     1      -4.976  -2.373 -33.925  1.00  0.00    -0.024 A 
HETATM   11  C   UNL     1      -5.747  -4.894 -34.900  1.00  0.00     0.001 A 
HETATM   12  C   UNL     1      -4.505  -4.734 -34.293  1.00  0.00     0.001 A 
HETATM   13  C   UNL     1      -4.120  -3.482 -33.809  1.00  0.00     0.012 A 
HETATM   14  C   UNL     1      -4.608  -1.105 -33.439  1.00  0.00     0.042 A 
ENDBRANCH   1   5
BRANCH   2  15
HETATM   15  C   UNL     1      -4.570   3.042 -31.527  1.00  0.00     0.073 A 
HETATM   16  S   UNL     1      -3.074   3.477 -32.234  1.00  0.00    -0.096 SA
HETATM   17  C   UNL     1      -3.079   5.003 -31.472  1.00  0.00     0.067 A 
HETATM   18  C   UNL     1      -4.194   5.216 -30.679  1.00  0.00     0.039 A 
HETATM   19  C   UNL     1      -5.051   4.064 -30.726  1.00  0.00     0.042 A 
BRANCH  18  20
HETATM   20  C   UNL     1      -4.380   6.463 -29.941  1.00  0.00     0.249 C 
HETATM   21  N   UNL     1      -4.012   6.453 -28.628  1.00  0.00    -0.366 N 
HETATM   22  H   UNL     1      -3.638   5.649 -28.151  1.00  0.00     0.159 HD
HETATM   23  H   UNL     1      -4.139   7.310 -28.107  1.00  0.00     0.159 HD
HETATM   24  O   UNL     1      -4.838   7.482 -30.447  1.00  0.00    -0.268 OA
ENDBRANCH  18  20
ENDBRANCH   2  15
TORSDOF 3
ENDMDL
MODEL 7
REMARK VINA RESULT:      -7.8      4.935      8.116
REMARK  3 active torsions:
REMARK  status: ('A' for Active; 'I' for Inactive)
REMARK    1  A    between atoms: C_9  and  N_10 
REMARK       I    between atoms: N_10  and  C_11 
REMARK    2  A    between atoms: C_11  and  C_12 
REMARK    3  A    between atoms: C_15  and  C_16 
REMARK       I    between atoms: C_16  and  N_17 
ROOT
HETATM    1  N   UNL     1      -8.160  -0.026 -33.403  1.00  0.00    -0.322 N 
HETATM    2  C   UNL     1      -7.215  -0.102 -34.411  1.00  0.00     0.263 C 
HETATM    3  O   UNL     1      -7.160   0.655 -35.376  1.00  0.00    -0.267 OA
HETATM    4  H   UNL     1      -8.073  -0.729 -32.678  1.00  0.00     0.169 HD
ENDROOT
BRANCH   1   5
HETATM    5  C   UNL     1      -9.208   0.902 -33.250  1.00  0.00     0.035 A 
HETATM    6  C   UNL     1      -9.030   2.223 -32.845  1.00  0.00     0.030 A 
HETATM    7  C   UNL     1     -10.130   3.079 -32.710  1.00  0.00     0.014 A 
HETATM    8  C   UNL     1     -11.430   2.629 -32.978  1.00  0.00    -0.026 A 
HETATM    9  C   UNL     1     -12.542   3.475 -32.841  1.00  0.00     0.012 A 
HETATM   10  C   UNL     1     -11.623   1.293 -33.391  1.00  0.00    -0.024 A 
HETATM   11  C   UNL     1     -13.830   3.010 -33.110  1.00  0.00     0.001 A 
HETATM   12  C   UNL     1     -14.021   1.694 -33.520  1.00  0.00     0.001 A 
HETATM   13  C   UNL     1     -12.926   0.840 -33.660  1.00  0.00     0.012 A 
HETATM   14  C   UNL     1     -10.506   0.447 -33.522  1.00  0.00     0.042 A 
ENDBRANCH   1   5
BRANCH   2  15
HETATM   15  C   UNL     1      -6.238  -1.182 -34.253  1.00  0.00     0.073 A 
HETATM   16  S   UNL     1      -4.693  -0.942 -33.559  1.00  0.00    -0.096 SA
HETATM   17  C   UNL     1      -4.267  -2.581 -33.768  1.00  0.00     0.067 A 
HETATM   18  C   UNL     1      -5.268  -3.335 -34.357  1.00  0.00     0.039 A 
HETATM   19  C   UNL     1      -6.408  -2.504 -34.630  1.00  0.00     0.042 A 
BRANCH  18  20
HETATM   20  C   UNL     1      -5.093  -4.761 -34.622  1.00  0.00     0.249 C 
HETATM   21  N   UNL     1      -4.062  -5.377 -33.977  1.00  0.00    -0.366 N 
HETATM   22  H   UNL     1      -3.426  -4.911 -33.352  1.00  0.00     0.159 HD
HETATM   23  H   UNL     1      -3.930  -6.364 -34.156  1.00  0.00     0.159 HD
HETATM   24  O   UNL     1      -5.820  -5.399 -35.378  1.00  0.00    -0.268 OA
ENDBRANCH  18  20
ENDBRANCH   2  15
TORSDOF 3
ENDMDL
MODEL 8
REMARK VINA RESULT:      -7.5      2.997      3.514
REMARK  3 active torsions:
REMARK  status: ('A' for Active; 'I' for Inactive)
REMARK    1  A    between atoms: C_9  and  N_10 
REMARK       I    between atoms: N_10  and  C_11 
REMARK    2  A    between atoms: C_11  and  C_12 
REMARK    3  A    between atoms: C_15  and  C_16 
REMARK       I    between atoms: C_16  and  N_17 
ROOT
HETATM    1  N   UNL     1      -6.159   2.471 -31.660  1.00  0.00    -0.322 N 
HETATM    2  C   UNL     1      -6.351   3.771 -32.098  1.00  0.00     0.263 C 
HETATM    3  O   UNL     1      -6.782   4.078 -33.205  1.00  0.00    -0.267 OA
HETATM    4  H   UNL     1      -5.790   2.384 -30.720  1.00  0.00     0.169 HD
ENDROOT
BRANCH   1   5
HETATM    5  C   UNL     1      -6.419   1.268 -32.343  1.00  0.00     0.035 A 
HETATM    6  C   UNL     1      -7.695   0.818 -32.676  1.00  0.00     0.030 A 
HETATM    7  C   UNL     1      -7.866  -0.398 -33.350  1.00  0.00     0.014 A 
HETATM    8  C   UNL     1      -6.763  -1.188 -33.702  1.00  0.00    -0.026 A 
HETATM    9  C   UNL     1      -6.921  -2.412 -34.372  1.00  0.00     0.012 A 
HETATM   10  C   UNL     1      -5.466  -0.742 -33.371  1.00  0.00    -0.024 A 
HETATM   11  C   UNL     1      -5.812  -3.186 -34.714  1.00  0.00     0.001 A 
HETATM   12  C   UNL     1      -4.532  -2.746 -34.390  1.00  0.00     0.001 A 
HETATM   13  C   UNL     1      -4.359  -1.532 -33.724  1.00  0.00     0.012 A 
HETATM   14  C   UNL     1      -5.312   0.483 -32.695  1.00  0.00     0.042 A 
ENDBRANCH   1   5
BRANCH   2  15
HETATM   15  C   UNL     1      -6.001   4.803 -31.120  1.00  0.00     0.073 A 
HETATM   16  S   UNL     1      -5.540   6.388 -31.569  1.00  0.00    -0.096 SA
HETATM   17  C   UNL     1      -5.323   6.860 -29.943  1.00  0.00     0.067 A 
HETATM   18  C   UNL     1      -5.590   5.846 -29.039  1.00  0.00     0.039 A 
HETATM   19  C   UNL     1      -5.986   4.658 -29.743  1.00  0.00     0.042 A 
BRANCH  18  20
HETATM   20  C   UNL     1      -5.459   6.054 -27.599  1.00  0.00     0.249 C 
HETATM   21  N   UNL     1      -4.869   5.049 -26.891  1.00  0.00    -0.366 N 
HETATM   22  H   UNL     1      -4.535   4.191 -27.298  1.00  0.00     0.159 HD
HETATM   23  H   UNL     1      -4.776   5.182 -25.893  1.00  0.00     0.159 HD
HETATM   24  O   UNL     1      -5.849   7.067 -27.027  1.00  0.00    -0.268 OA
ENDBRANCH  18  20
ENDBRANCH   2  15
TORSDOF 3
ENDMDL
MODEL 9
REMARK VINA RESULT:      -7.5      2.107      2.993
REMARK  3 active torsions:
REMARK  status: ('A' for Active; 'I' for Inactive)
REMARK    1  A    between atoms: C_9  and  N_10 
REMARK       I    between atoms: N_10  and  C_11 
REMARK    2  A    between atoms: C_11  and  C_12 
REMARK    3  A    between atoms: C_15  and  C_16 
REMARK       I    between atoms: C_16  and  N_17 
ROOT
HETATM    1  N   UNL     1      -4.009   3.221 -32.027  1.00  0.00    -0.322 N 
HETATM    2  C   UNL     1      -2.979   4.020 -32.493  1.00  0.00     0.263 C 
HETATM    3  O   UNL     1      -2.516   3.970 -33.629  1.00  0.00    -0.267 OA
HETATM    4  H   UNL     1      -4.274   3.380 -31.062  1.00  0.00     0.169 HD
ENDROOT
BRANCH   1   5
HETATM    5  C   UNL     1      -4.736   2.233 -32.720  1.00  0.00     0.035 A 
HETATM    6  C   UNL     1      -5.929   2.473 -33.398  1.00  0.00     0.030 A 
HETATM    7  C   UNL     1      -6.594   1.430 -34.055  1.00  0.00     0.014 A 
HETATM    8  C   UNL     1      -6.078   0.127 -34.044  1.00  0.00    -0.026 A 
HETATM    9  C   UNL     1      -6.737  -0.929 -34.694  1.00  0.00     0.012 A 
HETATM   10  C   UNL     1      -4.869  -0.127 -33.362  1.00  0.00    -0.024 A 
HETATM   11  C   UNL     1      -6.210  -2.220 -34.672  1.00  0.00     0.001 A 
HETATM   12  C   UNL     1      -5.017  -2.472 -34.001  1.00  0.00     0.001 A 
HETATM   13  C   UNL     1      -4.350  -1.433 -33.350  1.00  0.00     0.012 A 
HETATM   14  C   UNL     1      -4.214   0.932 -32.708  1.00  0.00     0.042 A 
ENDBRANCH   1   5
BRANCH   2  15
HETATM   15  C   UNL     1      -2.453   4.973 -31.514  1.00  0.00     0.073 A 
HETATM   16  S   UNL     1      -3.360   6.302 -30.933  1.00  0.00    -0.096 SA
HETATM   17  C   UNL     1      -2.081   6.827 -29.933  1.00  0.00     0.067 A 
HETATM   18  C   UNL     1      -0.957   6.022 -30.014  1.00  0.00     0.039 A 
HETATM   19  C   UNL     1      -1.195   4.946 -30.936  1.00  0.00     0.042 A 
BRANCH  18  20
HETATM   20  C   UNL     1       0.244   6.308 -29.234  1.00  0.00     0.249 C 
HETATM   21  N   UNL     1       0.866   5.239 -28.661  1.00  0.00    -0.366 N 
HETATM   22  H   UNL     1       0.542   4.288 -28.737  1.00  0.00     0.159 HD
HETATM   23  H   UNL     1       1.697   5.426 -28.116  1.00  0.00     0.159 HD
HETATM   24  O   UNL     1       0.697   7.439 -29.086  1.00  0.00    -0.268 OA
ENDBRANCH  18  20
ENDBRANCH   2  15
TORSDOF 3
ENDMDL
MODEL 10
REMARK VINA RESULT:      -7.5      2.856      8.244
REMARK  3 active torsions:
REMARK  status: ('A' for Active; 'I' for Inactive)
REMARK    1  A    between atoms: C_9  and  N_10 
REMARK       I    between atoms: N_10  and  C_11 
REMARK    2  A    between atoms: C_11  and  C_12 
REMARK    3  A    between atoms: C_15  and  C_16 
REMARK       I    between atoms: C_16  and  N_17 
ROOT
HETATM    1  N   UNL     1      -4.822   1.278 -32.866  1.00  0.00    -0.322 N 
HETATM    2  C   UNL     1      -4.198   0.042 -32.838  1.00  0.00     0.263 C 
HETATM    3  O   UNL     1      -3.120  -0.184 -32.297  1.00  0.00    -0.267 OA
HETATM    4  H   UNL     1      -5.707   1.302 -33.359  1.00  0.00     0.169 HD
ENDROOT
BRANCH   1   5
HETATM    5  C   UNL     1      -4.392   2.491 -32.292  1.00  0.00     0.035 A 
HETATM    6  C   UNL     1      -5.061   3.149 -31.263  1.00  0.00     0.030 A 
HETATM    7  C   UNL     1      -4.569   4.357 -30.755  1.00  0.00     0.014 A 
HETATM    8  C   UNL     1      -3.399   4.932 -31.269  1.00  0.00    -0.026 A 
HETATM    9  C   UNL     1      -2.897   6.146 -30.773  1.00  0.00     0.012 A 
HETATM   10  C   UNL     1      -2.711   4.273 -32.311  1.00  0.00    -0.024 A 
HETATM   11  C   UNL     1      -1.731   6.704 -31.297  1.00  0.00     0.001 A 
HETATM   12  C   UNL     1      -1.051   6.055 -32.323  1.00  0.00     0.001 A 
HETATM   13  C   UNL     1      -1.537   4.847 -32.827  1.00  0.00     0.012 A 
HETATM   14  C   UNL     1      -3.219   3.059 -32.809  1.00  0.00     0.042 A 
ENDBRANCH   1   5
BRANCH   2  15
HETATM   15  C   UNL     1      -4.933  -1.028 -33.516  1.00  0.00     0.073 A 
HETATM   16  S   UNL     1      -6.469  -0.791 -34.231  1.00  0.00    -0.096 SA
HETATM   17  C   UNL     1      -6.565  -2.420 -34.730  1.00  0.00     0.067 A 
HETATM   18  C   UNL     1      -5.455  -3.168 -34.375  1.00  0.00     0.039 A 
HETATM   19  C   UNL     1      -4.515  -2.340 -33.671  1.00  0.00     0.042 A 
BRANCH  18  20
HETATM   20  C   UNL     1      -5.350  -4.586 -34.711  1.00  0.00     0.249 C 
HETATM   21  N   UNL     1      -4.307  -5.266 -34.155  1.00  0.00    -0.366 N 
HETATM   22  H   UNL     1      -3.619  -4.851 -33.549  1.00  0.00     0.159 HD
HETATM   23  H   UNL     1      -4.224  -6.248 -34.384  1.00  0.00     0.159 HD
HETATM   24  O   UNL     1      -6.142  -5.163 -35.449  1.00  0.00    -0.268 OA
ENDBRANCH  18  20
ENDBRANCH   2  15
TORSDOF 3
ENDMDL
