MODEL 1
REMARK VINA RESULT:      -9.7      0.000      0.000
REMARK  5 active torsions:
REMARK  status: ('A' for Active; 'I' for Inactive)
REMARK    1  A    between atoms: C_3  and  O_4 
REMARK    2  A    between atoms: C_8  and  C_9 
REMARK       I    between atoms: N_10  and  C_11 
REMARK    3  A    between atoms: C_11  and  C_12 
REMARK    4  A    between atoms: C_12  and  C_13 
REMARK    5  A    between atoms: C_13  and  C_14 
ROOT
HETATM    1  C   UNL     1      -7.813   0.991 -32.241  1.00  0.00     0.171 C 
HETATM    2  N   UNL     1      -7.123   2.293 -32.052  1.00  0.00    -0.338 N 
HETATM    3  C   UNL     1      -6.495   2.888 -33.156  1.00  0.00     0.221 C 
HETATM    4  O   UNL     1      -6.246   2.279 -34.196  1.00  0.00    -0.273 OA
HETATM    5  C   UNL     1      -7.795   3.126 -31.032  1.00  0.00     0.131 C 
HETATM    6  C   UNL     1      -9.183   3.608 -31.530  1.00  0.00     0.061 C 
HETATM    7  C   UNL     1      -9.863   2.532 -32.323  1.00  0.00    -0.019 A 
HETATM    8  C   UNL     1      -9.219   1.349 -32.661  1.00  0.00     0.044 A 
HETATM    9  N   UNL     1     -10.107   0.574 -33.354  1.00  0.00    -0.356 N 
HETATM   10  H   UNL     1      -9.930  -0.360 -33.701  1.00  0.00     0.166 HD
HETATM   11  C   UNL     1     -11.276   1.278 -33.567  1.00  0.00     0.043 A 
HETATM   12  C   UNL     1     -11.152   2.507 -32.913  1.00  0.00    -0.001 A 
HETATM   13  C   UNL     1     -12.424   0.920 -34.283  1.00  0.00     0.030 A 
HETATM   14  C   UNL     1     -13.475   1.843 -34.329  1.00  0.00     0.002 A 
HETATM   15  C   UNL     1     -13.382   3.071 -33.678  1.00  0.00     0.001 A 
HETATM   16  C   UNL     1     -12.228   3.415 -32.966  1.00  0.00     0.014 A 
ENDROOT
BRANCH   1  17
HETATM   17  C   UNL     1      -7.058  -0.117 -32.957  1.00  0.00    -0.029 A 
HETATM   18  C   UNL     1      -7.502  -0.730 -34.137  1.00  0.00     0.012 A 
HETATM   19  C   UNL     1      -6.768  -1.760 -34.738  1.00  0.00     0.038 A 
HETATM   20  C   UNL     1      -5.563  -2.189 -34.180  1.00  0.00     0.074 A 
HETATM   21  C   UNL     1      -5.066  -1.556 -33.032  1.00  0.00    -0.028 A 
HETATM   22  C   UNL     1      -3.727  -1.932 -32.462  1.00  0.00     0.051 C 
HETATM   23  C   UNL     1      -5.818  -0.531 -32.434  1.00  0.00     0.019 A 
BRANCH  20  24
HETATM   24  O   UNL     1      -4.777  -3.178 -34.716  1.00  0.00    -0.355 OA
HETATM   25  C   UNL     1      -5.338  -4.485 -34.704  1.00  0.00     0.210 C 
ENDBRANCH  20  24
ENDBRANCH   1  17
BRANCH   3  26
HETATM   26  C   UNL     1      -6.044   4.341 -33.018  1.00  0.00     0.108 C 
BRANCH  26  27
HETATM   27  C   UNL     1      -5.272   4.828 -34.251  1.00  0.00     0.051 C 
BRANCH  27  28
HETATM   28  C   UNL     1      -3.808   5.015 -33.995  1.00  0.00    -0.021 A 
HETATM   29  C   UNL     1      -3.130   5.004 -32.792  1.00  0.00     0.120 A 
HETATM   30  N   UNL     1      -1.814   5.211 -33.083  1.00  0.00    -0.285 N 
HETATM   31  C   UNL     1      -0.721   5.268 -32.146  1.00  0.00     0.179 C 
HETATM   32  N   UNL     1      -1.579   5.371 -34.397  1.00  0.00    -0.185 NA
HETATM   33  C   UNL     1      -2.792   5.268 -34.948  1.00  0.00     0.147 A 
ENDBRANCH  27  28
ENDBRANCH  26  27
ENDBRANCH   3  26
TORSDOF 5
ENDMDL
MODEL 2
REMARK VINA RESULT:      -9.4      2.316      6.175
REMARK  5 active torsions:
REMARK  status: ('A' for Active; 'I' for Inactive)
REMARK    1  A    between atoms: C_3  and  O_4 
REMARK    2  A    between atoms: C_8  and  C_9 
REMARK       I    between atoms: N_10  and  C_11 
REMARK    3  A    between atoms: C_11  and  C_12 
REMARK    4  A    between atoms: C_12  and  C_13 
REMARK    5  A    between atoms: C_13  and  C_14 
ROOT
HETATM    1  C   UNL     1      -6.958   0.958 -33.829  1.00  0.00     0.171 C 
HETATM    2  N   UNL     1      -6.132   1.505 -32.722  1.00  0.00    -0.338 N 
HETATM    3  C   UNL     1      -6.571   1.326 -31.403  1.00  0.00     0.221 C 
HETATM    4  O   UNL     1      -7.720   0.988 -31.116  1.00  0.00    -0.273 OA
HETATM    5  C   UNL     1      -4.690   1.466 -33.045  1.00  0.00     0.131 C 
HETATM    6  C   UNL     1      -4.168   0.006 -33.095  1.00  0.00     0.061 C 
HETATM    7  C   UNL     1      -5.195  -0.901 -33.706  1.00  0.00    -0.019 A 
HETATM    8  C   UNL     1      -6.474  -0.461 -34.016  1.00  0.00     0.044 A 
HETATM    9  N   UNL     1      -7.152  -1.508 -34.576  1.00  0.00    -0.356 N 
HETATM   10  H   UNL     1      -8.098  -1.476 -34.933  1.00  0.00     0.166 HD
HETATM   11  C   UNL     1      -6.372  -2.647 -34.532  1.00  0.00     0.043 A 
HETATM   12  C   UNL     1      -5.130  -2.287 -34.004  1.00  0.00    -0.001 A 
HETATM   13  C   UNL     1      -6.672  -3.959 -34.919  1.00  0.00     0.030 A 
HETATM   14  C   UNL     1      -5.673  -4.926 -34.763  1.00  0.00     0.002 A 
HETATM   15  C   UNL     1      -4.423  -4.592 -34.248  1.00  0.00     0.001 A 
HETATM   16  C   UNL     1      -4.137  -3.277 -33.866  1.00  0.00     0.014 A 
ENDROOT
BRANCH   1  17
HETATM   17  C   UNL     1      -8.447   1.264 -33.824  1.00  0.00    -0.029 A 
HETATM   18  C   UNL     1      -9.435   0.342 -33.451  1.00  0.00     0.012 A 
HETATM   19  C   UNL     1     -10.793   0.682 -33.487  1.00  0.00     0.038 A 
HETATM   20  C   UNL     1     -11.193   1.959 -33.881  1.00  0.00     0.074 A 
HETATM   21  C   UNL     1     -10.224   2.920 -34.205  1.00  0.00    -0.028 A 
HETATM   22  C   UNL     1     -10.619   4.330 -34.542  1.00  0.00     0.051 C 
HETATM   23  C   UNL     1      -8.867   2.562 -34.175  1.00  0.00     0.019 A 
BRANCH  20  24
HETATM   24  O   UNL     1     -12.499   2.376 -33.926  1.00  0.00    -0.355 OA
HETATM   25  C   UNL     1     -13.413   1.472 -34.536  1.00  0.00     0.210 C 
ENDBRANCH  20  24
ENDBRANCH   1  17
BRANCH   3  26
HETATM   26  C   UNL     1      -5.586   1.635 -30.278  1.00  0.00     0.108 C 
BRANCH  26  27
HETATM   27  C   UNL     1      -5.805   3.031 -29.680  1.00  0.00     0.051 C 
BRANCH  27  28
HETATM   28  C   UNL     1      -5.468   4.139 -30.629  1.00  0.00    -0.021 A 
HETATM   29  C   UNL     1      -4.229   4.539 -31.090  1.00  0.00     0.120 A 
HETATM   30  N   UNL     1      -4.446   5.584 -31.938  1.00  0.00    -0.285 N 
HETATM   31  C   UNL     1      -3.449   6.322 -32.671  1.00  0.00     0.179 C 
HETATM   32  N   UNL     1      -5.744   5.911 -32.057  1.00  0.00    -0.185 NA
HETATM   33  C   UNL     1      -6.362   5.044 -31.250  1.00  0.00     0.147 A 
ENDBRANCH  27  28
ENDBRANCH  26  27
ENDBRANCH   3  26
TORSDOF 5
ENDMDL
MODEL 3
REMARK VINA RESULT:      -9.3      2.718      7.758
REMARK  5 active torsions:
REMARK  status: ('A' for Active; 'I' for Inactive)
REMARK    1  A    between atoms: C_3  and  O_4 
REMARK    2  A    between atoms: C_8  and  C_9 
REMARK       I    between atoms: N_10  and  C_11 
REMARK    3  A    between atoms: C_11  and  C_12 
REMARK    4  A    between atoms: C_12  and  C_13 
REMARK    5  A    between atoms: C_13  and  C_14 
ROOT
HETATM    1  C   UNL     1      -8.256   2.543 -32.499  1.00  0.00     0.171 C 
HETATM    2  N   UNL     1      -8.063   1.072 -32.429  1.00  0.00    -0.338 N 
HETATM    3  C   UNL     1      -8.111   0.329 -33.617  1.00  0.00     0.221 C 
HETATM    4  O   UNL     1      -8.568   0.774 -34.670  1.00  0.00    -0.273 OA
HETATM    5  C   UNL     1      -7.133   0.692 -31.344  1.00  0.00     0.131 C 
HETATM    6  C   UNL     1      -5.686   1.154 -31.662  1.00  0.00     0.061 C 
HETATM    7  C   UNL     1      -5.696   2.494 -32.336  1.00  0.00    -0.019 A 
HETATM    8  C   UNL     1      -6.875   3.109 -32.735  1.00  0.00     0.044 A 
HETATM    9  N   UNL     1      -6.550   4.316 -33.288  1.00  0.00    -0.356 N 
HETATM   10  H   UNL     1      -7.207   5.001 -33.637  1.00  0.00     0.166 HD
HETATM   11  C   UNL     1      -5.177   4.445 -33.356  1.00  0.00     0.043 A 
HETATM   12  C   UNL     1      -4.617   3.318 -32.748  1.00  0.00    -0.001 A 
HETATM   13  C   UNL     1      -4.395   5.468 -33.906  1.00  0.00     0.030 A 
HETATM   14  C   UNL     1      -3.004   5.335 -33.828  1.00  0.00     0.002 A 
HETATM   15  C   UNL     1      -2.421   4.227 -33.219  1.00  0.00     0.001 A 
HETATM   16  C   UNL     1      -3.214   3.212 -32.674  1.00  0.00     0.014 A 
ENDROOT
BRANCH   1  17
HETATM   17  C   UNL     1      -9.444   3.068 -33.288  1.00  0.00    -0.029 A 
HETATM   18  C   UNL     1      -9.331   3.892 -34.416  1.00  0.00     0.012 A 
HETATM   19  C   UNL     1     -10.467   4.359 -35.089  1.00  0.00     0.038 A 
HETATM   20  C   UNL     1     -11.744   3.996 -34.657  1.00  0.00     0.074 A 
HETATM   21  C   UNL     1     -11.886   3.127 -33.566  1.00  0.00    -0.028 A 
HETATM   22  C   UNL     1     -13.242   2.644 -33.137  1.00  0.00     0.051 C 
HETATM   23  C   UNL     1     -10.738   2.676 -32.895  1.00  0.00     0.019 A 
BRANCH  20  24
HETATM   24  O   UNL     1     -12.904   4.395 -35.270  1.00  0.00    -0.355 OA
HETATM   25  C   UNL     1     -13.114   5.801 -35.337  1.00  0.00     0.210 C 
ENDBRANCH  20  24
ENDBRANCH   1  17
BRANCH   3  26
HETATM   26  C   UNL     1      -7.633  -1.121 -33.569  1.00  0.00     0.108 C 
BRANCH  26  27
HETATM   27  C   UNL     1      -6.912  -1.538 -34.856  1.00  0.00     0.051 C 
BRANCH  27  28
HETATM   28  C   UNL     1      -6.116  -2.797 -34.706  1.00  0.00    -0.021 A 
HETATM   29  C   UNL     1      -4.831  -2.958 -34.225  1.00  0.00     0.120 A 
HETATM   30  N   UNL     1      -4.557  -4.293 -34.279  1.00  0.00    -0.285 N 
HETATM   31  C   UNL     1      -3.337  -4.942 -33.870  1.00  0.00     0.179 C 
HETATM   32  N   UNL     1      -5.570  -5.023 -34.778  1.00  0.00    -0.185 NA
HETATM   33  C   UNL     1      -6.509  -4.113 -35.050  1.00  0.00     0.147 A 
ENDBRANCH  27  28
ENDBRANCH  26  27
ENDBRANCH   3  26
TORSDOF 5
ENDMDL
MODEL 4
REMARK VINA RESULT:      -9.3      2.566      7.473
REMARK  5 active torsions:
REMARK  status: ('A' for Active; 'I' for Inactive)
REMARK    1  A    between atoms: C_3  and  O_4 
REMARK    2  A    between atoms: C_8  and  C_9 
REMARK       I    between atoms: N_10  and  C_11 
REMARK    3  A    between atoms: C_11  and  C_12 
REMARK    4  A    between atoms: C_12  and  C_13 
REMARK    5  A    between atoms: C_13  and  C_14 
ROOT
HETATM    1  C   UNL     1      -6.123   2.131 -31.636  1.00  0.00     0.171 C 
HETATM    2  N   UNL     1      -7.534   2.568 -31.788  1.00  0.00    -0.338 N 
HETATM    3  C   UNL     1      -7.877   3.366 -32.889  1.00  0.00     0.221 C 
HETATM    4  O   UNL     1      -7.043   3.948 -33.583  1.00  0.00    -0.273 OA
HETATM    5  C   UNL     1      -8.479   1.555 -31.272  1.00  0.00     0.131 C 
HETATM    6  C   UNL     1      -8.477   0.285 -32.162  1.00  0.00     0.061 C 
HETATM    7  C   UNL     1      -7.089  -0.022 -32.641  1.00  0.00    -0.019 A 
HETATM    8  C   UNL     1      -6.025   0.840 -32.414  1.00  0.00     0.044 A 
HETATM    9  N   UNL     1      -4.903   0.268 -32.946  1.00  0.00    -0.356 N 
HETATM   10  H   UNL     1      -3.968   0.651 -32.903  1.00  0.00     0.166 HD
HETATM   11  C   UNL     1      -5.241  -0.895 -33.610  1.00  0.00     0.043 A 
HETATM   12  C   UNL     1      -6.609  -1.107 -33.418  1.00  0.00    -0.001 A 
HETATM   13  C   UNL     1      -4.444  -1.767 -34.360  1.00  0.00     0.030 A 
HETATM   14  C   UNL     1      -5.062  -2.889 -34.925  1.00  0.00     0.002 A 
HETATM   15  C   UNL     1      -6.421  -3.129 -34.741  1.00  0.00     0.001 A 
HETATM   16  C   UNL     1      -7.207  -2.248 -33.989  1.00  0.00     0.014 A 
ENDROOT
BRANCH   1  17
HETATM   17  C   UNL     1      -5.034   3.185 -31.761  1.00  0.00    -0.029 A 
HETATM   18  C   UNL     1      -4.049   3.177 -32.757  1.00  0.00     0.012 A 
HETATM   19  C   UNL     1      -3.060   4.168 -32.806  1.00  0.00     0.038 A 
HETATM   20  C   UNL     1      -3.046   5.200 -31.867  1.00  0.00     0.074 A 
HETATM   21  C   UNL     1      -4.053   5.265 -30.894  1.00  0.00    -0.028 A 
HETATM   22  C   UNL     1      -4.119   6.415 -29.928  1.00  0.00     0.051 C 
HETATM   23  C   UNL     1      -5.031   4.259 -30.850  1.00  0.00     0.019 A 
BRANCH  20  24
HETATM   24  O   UNL     1      -2.125   6.217 -31.857  1.00  0.00    -0.355 OA
HETATM   25  C   UNL     1      -1.805   6.770 -33.127  1.00  0.00     0.210 C 
ENDBRANCH  20  24
ENDBRANCH   1  17
BRANCH   3  26
HETATM   26  C   UNL     1      -9.361   3.567 -33.186  1.00  0.00     0.108 C 
BRANCH  26  27
HETATM   27  C   UNL     1      -9.746   3.067 -34.585  1.00  0.00     0.051 C 
BRANCH  27  28
HETATM   28  C   UNL     1     -11.065   2.359 -34.617  1.00  0.00    -0.021 A 
HETATM   29  C   UNL     1     -11.530   1.354 -33.791  1.00  0.00     0.120 A 
HETATM   30  N   UNL     1     -12.788   1.048 -34.217  1.00  0.00    -0.285 N 
HETATM   31  C   UNL     1     -13.676   0.063 -33.652  1.00  0.00     0.179 C 
HETATM   32  N   UNL     1     -13.181   1.774 -35.278  1.00  0.00    -0.185 NA
HETATM   33  C   UNL     1     -12.129   2.558 -35.529  1.00  0.00     0.147 A 
ENDBRANCH  27  28
ENDBRANCH  26  27
ENDBRANCH   3  26
TORSDOF 5
ENDMDL
MODEL 5
REMARK VINA RESULT:      -9.1      2.847      6.439
REMARK  5 active torsions:
REMARK  status: ('A' for Active; 'I' for Inactive)
REMARK    1  A    between atoms: C_3  and  O_4 
REMARK    2  A    between atoms: C_8  and  C_9 
REMARK       I    between atoms: N_10  and  C_11 
REMARK    3  A    between atoms: C_11  and  C_12 
REMARK    4  A    between atoms: C_12  and  C_13 
REMARK    5  A    between atoms: C_13  and  C_14 
ROOT
HETATM    1  C   UNL     1      -8.139   1.834 -33.821  1.00  0.00     0.171 C 
HETATM    2  N   UNL     1      -7.551   2.546 -32.657  1.00  0.00    -0.338 N 
HETATM    3  C   UNL     1      -8.038   2.257 -31.375  1.00  0.00     0.221 C 
HETATM    4  O   UNL     1      -9.096   1.658 -31.176  1.00  0.00    -0.273 OA
HETATM    5  C   UNL     1      -6.119   2.847 -32.866  1.00  0.00     0.131 C 
HETATM    6  C   UNL     1      -5.269   1.550 -32.863  1.00  0.00     0.061 C 
HETATM    7  C   UNL     1      -6.006   0.435 -33.545  1.00  0.00    -0.019 A 
HETATM    8  C   UNL     1      -7.325   0.569 -33.958  1.00  0.00     0.044 A 
HETATM    9  N   UNL     1      -7.694  -0.602 -34.561  1.00  0.00    -0.356 N 
HETATM   10  H   UNL     1      -8.591  -0.786 -34.991  1.00  0.00     0.166 HD
HETATM   11  C   UNL     1      -6.677  -1.528 -34.446  1.00  0.00     0.043 A 
HETATM   12  C   UNL     1      -5.597  -0.894 -33.825  1.00  0.00    -0.001 A 
HETATM   13  C   UNL     1      -6.632  -2.870 -34.844  1.00  0.00     0.030 A 
HETATM   14  C   UNL     1      -5.451  -3.580 -34.603  1.00  0.00     0.002 A 
HETATM   15  C   UNL     1      -4.356  -2.969 -33.995  1.00  0.00     0.001 A 
HETATM   16  C   UNL     1      -4.415  -1.627 -33.602  1.00  0.00     0.014 A 
ENDROOT
BRANCH   1  17
HETATM   17  C   UNL     1      -9.654   1.785 -33.935  1.00  0.00    -0.029 A 
HETATM   18  C   UNL     1     -10.438   0.710 -33.495  1.00  0.00     0.012 A 
HETATM   19  C   UNL     1     -11.830   0.719 -33.647  1.00  0.00     0.038 A 
HETATM   20  C   UNL     1     -12.471   1.814 -34.228  1.00  0.00     0.074 A 
HETATM   21  C   UNL     1     -11.718   2.928 -34.625  1.00  0.00    -0.028 A 
HETATM   22  C   UNL     1     -12.389   4.159 -35.167  1.00  0.00     0.051 C 
HETATM   23  C   UNL     1     -10.322   2.900 -34.477  1.00  0.00     0.019 A 
BRANCH  20  24
HETATM   24  O   UNL     1     -13.829   1.908 -34.396  1.00  0.00    -0.355 OA
HETATM   25  C   UNL     1     -14.550   0.687 -34.282  1.00  0.00     0.210 C 
ENDBRANCH  20  24
ENDBRANCH   1  17
BRANCH   3  26
HETATM   26  C   UNL     1      -7.242   2.776 -30.179  1.00  0.00     0.108 C 
BRANCH  26  27
HETATM   27  C   UNL     1      -7.705   4.168 -29.733  1.00  0.00     0.051 C 
BRANCH  27  28
HETATM   28  C   UNL     1      -6.586   5.035 -29.246  1.00  0.00    -0.021 A 
HETATM   29  C   UNL     1      -6.405   5.599 -27.998  1.00  0.00     0.120 A 
HETATM   30  N   UNL     1      -5.234   6.294 -28.049  1.00  0.00    -0.285 N 
HETATM   31  C   UNL     1      -4.624   7.040 -26.976  1.00  0.00     0.179 C 
HETATM   32  N   UNL     1      -4.635   6.239 -29.251  1.00  0.00    -0.185 NA
HETATM   33  C   UNL     1      -5.464   5.488 -29.981  1.00  0.00     0.147 A 
ENDBRANCH  27  28
ENDBRANCH  26  27
ENDBRANCH   3  26
TORSDOF 5
ENDMDL
MODEL 6
REMARK VINA RESULT:      -9.0      2.052      7.075
REMARK  5 active torsions:
REMARK  status: ('A' for Active; 'I' for Inactive)
REMARK    1  A    between atoms: C_3  and  O_4 
REMARK    2  A    between atoms: C_8  and  C_9 
REMARK       I    between atoms: N_10  and  C_11 
REMARK    3  A    between atoms: C_11  and  C_12 
REMARK    4  A    between atoms: C_12  and  C_13 
REMARK    5  A    between atoms: C_13  and  C_14 
ROOT
HETATM    1  C   UNL     1      -6.390   1.083 -34.140  1.00  0.00     0.171 C 
HETATM    2  N   UNL     1      -7.855   1.139 -33.903  1.00  0.00    -0.338 N 
HETATM    3  C   UNL     1      -8.376   0.514 -32.761  1.00  0.00     0.221 C 
HETATM    4  O   UNL     1      -7.742  -0.301 -32.092  1.00  0.00    -0.273 OA
HETATM    5  C   UNL     1      -8.443   2.400 -34.403  1.00  0.00     0.131 C 
HETATM    6  C   UNL     1      -7.971   3.611 -33.556  1.00  0.00     0.061 C 
HETATM    7  C   UNL     1      -6.534   3.448 -33.157  1.00  0.00    -0.019 A 
HETATM    8  C   UNL     1      -5.828   2.280 -33.409  1.00  0.00     0.044 A 
HETATM    9  N   UNL     1      -4.552   2.457 -32.953  1.00  0.00    -0.356 N 
HETATM   10  H   UNL     1      -3.799   1.786 -33.030  1.00  0.00     0.166 HD
HETATM   11  C   UNL     1      -4.449   3.675 -32.310  1.00  0.00     0.043 A 
HETATM   12  C   UNL     1      -5.680   4.325 -32.440  1.00  0.00    -0.001 A 
HETATM   13  C   UNL     1      -3.367   4.245 -31.630  1.00  0.00     0.030 A 
HETATM   14  C   UNL     1      -3.548   5.516 -31.071  1.00  0.00     0.002 A 
HETATM   15  C   UNL     1      -4.761   6.189 -31.194  1.00  0.00     0.001 A 
HETATM   16  C   UNL     1      -5.834   5.607 -31.877  1.00  0.00     0.014 A 
ENDROOT
BRANCH   1  17
HETATM   17  C   UNL     1      -5.703  -0.269 -34.036  1.00  0.00    -0.029 A 
HETATM   18  C   UNL     1      -4.538  -0.499 -33.292  1.00  0.00     0.012 A 
HETATM   19  C   UNL     1      -3.943  -1.767 -33.252  1.00  0.00     0.038 A 
HETATM   20  C   UNL     1      -4.511  -2.837 -33.944  1.00  0.00     0.074 A 
HETATM   21  C   UNL     1      -5.708  -2.649 -34.650  1.00  0.00    -0.028 A 
HETATM   22  C   UNL     1      -6.393  -3.803 -35.326  1.00  0.00     0.051 C 
HETATM   23  C   UNL     1      -6.287  -1.371 -34.690  1.00  0.00     0.019 A 
BRANCH  20  24
HETATM   24  O   UNL     1      -4.001  -4.111 -33.942  1.00  0.00    -0.355 OA
HETATM   25  C   UNL     1      -3.191  -4.448 -32.822  1.00  0.00     0.210 C 
ENDBRANCH  20  24
ENDBRANCH   1  17
BRANCH   3  26
HETATM   26  C   UNL     1      -9.825   0.819 -32.383  1.00  0.00     0.108 C 
BRANCH  26  27
HETATM   27  C   UNL     1     -10.804  -0.216 -32.953  1.00  0.00     0.051 C 
BRANCH  27  28
HETATM   28  C   UNL     1     -12.058   0.395 -33.497  1.00  0.00    -0.021 A 
HETATM   29  C   UNL     1     -13.303  -0.181 -33.660  1.00  0.00     0.120 A 
HETATM   30  N   UNL     1     -14.113   0.781 -34.184  1.00  0.00    -0.285 N 
HETATM   31  C   UNL     1     -15.510   0.648 -34.514  1.00  0.00     0.179 C 
HETATM   32  N   UNL     1     -13.484   1.951 -34.393  1.00  0.00    -0.185 NA
HETATM   33  C   UNL     1     -12.233   1.710 -33.990  1.00  0.00     0.147 A 
ENDBRANCH  27  28
ENDBRANCH  26  27
ENDBRANCH   3  26
TORSDOF 5
ENDMDL
MODEL 7
REMARK VINA RESULT:      -8.9      1.683      7.127
REMARK  5 active torsions:
REMARK  status: ('A' for Active; 'I' for Inactive)
REMARK    1  A    between atoms: C_3  and  O_4 
REMARK    2  A    between atoms: C_8  and  C_9 
REMARK       I    between atoms: N_10  and  C_11 
REMARK    3  A    between atoms: C_11  and  C_12 
REMARK    4  A    between atoms: C_12  and  C_13 
REMARK    5  A    between atoms: C_13  and  C_14 
ROOT
HETATM    1  C   UNL     1      -5.074   3.068 -33.250  1.00  0.00     0.171 C 
HETATM    2  N   UNL     1      -6.330   3.594 -32.657  1.00  0.00    -0.338 N 
HETATM    3  C   UNL     1      -6.608   3.314 -31.311  1.00  0.00     0.221 C 
HETATM    4  O   UNL     1      -6.019   2.443 -30.670  1.00  0.00    -0.273 OA
HETATM    5  C   UNL     1      -6.712   4.894 -33.247  1.00  0.00     0.131 C 
HETATM    6  C   UNL     1      -5.715   6.009 -32.836  1.00  0.00     0.061 C 
HETATM    7  C   UNL     1      -4.313   5.476 -32.801  1.00  0.00    -0.019 A 
HETATM    8  C   UNL     1      -4.034   4.127 -32.969  1.00  0.00     0.044 A 
HETATM    9  N   UNL     1      -2.677   3.971 -32.911  1.00  0.00    -0.356 N 
HETATM   10  H   UNL     1      -2.177   3.100 -33.035  1.00  0.00     0.166 HD
HETATM   11  C   UNL     1      -2.080   5.176 -32.597  1.00  0.00     0.043 A 
HETATM   12  C   UNL     1      -3.088   6.143 -32.539  1.00  0.00    -0.001 A 
HETATM   13  C   UNL     1      -0.734   5.480 -32.363  1.00  0.00     0.030 A 
HETATM   14  C   UNL     1      -0.410   6.808 -32.066  1.00  0.00     0.002 A 
HETATM   15  C   UNL     1      -1.394   7.793 -32.011  1.00  0.00     0.001 A 
HETATM   16  C   UNL     1      -2.736   7.475 -32.247  1.00  0.00     0.014 A 
ENDROOT
BRANCH   1  17
HETATM   17  C   UNL     1      -4.747   1.599 -33.038  1.00  0.00    -0.029 A 
HETATM   18  C   UNL     1      -3.642   1.140 -32.309  1.00  0.00     0.012 A 
HETATM   19  C   UNL     1      -3.386  -0.230 -32.167  1.00  0.00     0.038 A 
HETATM   20  C   UNL     1      -4.241  -1.172 -32.739  1.00  0.00     0.074 A 
HETATM   21  C   UNL     1      -5.386  -0.744 -33.425  1.00  0.00    -0.028 A 
HETATM   22  C   UNL     1      -6.375  -1.735 -33.970  1.00  0.00     0.051 C 
HETATM   23  C   UNL     1      -5.624   0.633 -33.569  1.00  0.00     0.019 A 
BRANCH  20  24
HETATM   24  O   UNL     1      -4.071  -2.529 -32.630  1.00  0.00    -0.355 OA
HETATM   25  C   UNL     1      -2.950  -2.950 -31.862  1.00  0.00     0.210 C 
ENDBRANCH  20  24
ENDBRANCH   1  17
BRANCH   3  26
HETATM   26  C   UNL     1      -7.742   4.089 -30.644  1.00  0.00     0.108 C 
BRANCH  26  27
HETATM   27  C   UNL     1      -8.928   3.185 -30.283  1.00  0.00     0.051 C 
BRANCH  27  28
HETATM   28  C   UNL     1      -9.425   2.373 -31.438  1.00  0.00    -0.021 A 
HETATM   29  C   UNL     1     -10.253   2.756 -32.476  1.00  0.00     0.120 A 
HETATM   30  N   UNL     1     -10.407   1.665 -33.277  1.00  0.00    -0.285 N 
HETATM   31  C   UNL     1     -11.177   1.587 -34.493  1.00  0.00     0.179 C 
HETATM   32  N   UNL     1      -9.748   0.581 -32.832  1.00  0.00    -0.185 NA
HETATM   33  C   UNL     1      -9.165   1.008 -31.708  1.00  0.00     0.147 A 
ENDBRANCH  27  28
ENDBRANCH  26  27
ENDBRANCH   3  26
TORSDOF 5
ENDMDL
MODEL 8
REMARK VINA RESULT:      -8.6      2.275      5.744
REMARK  5 active torsions:
REMARK  status: ('A' for Active; 'I' for Inactive)
REMARK    1  A    between atoms: C_3  and  O_4 
REMARK    2  A    between atoms: C_8  and  C_9 
REMARK       I    between atoms: N_10  and  C_11 
REMARK    3  A    between atoms: C_11  and  C_12 
REMARK    4  A    between atoms: C_12  and  C_13 
REMARK    5  A    between atoms: C_13  and  C_14 
ROOT
HETATM    1  C   UNL     1      -6.650   2.573 -34.080  1.00  0.00     0.171 C 
HETATM    2  N   UNL     1      -7.978   3.078 -33.647  1.00  0.00    -0.338 N 
HETATM    3  C   UNL     1      -8.568   2.525 -32.502  1.00  0.00     0.221 C 
HETATM    4  O   UNL     1      -8.188   1.471 -31.992  1.00  0.00    -0.273 OA
HETATM    5  C   UNL     1      -8.146   4.513 -33.960  1.00  0.00     0.131 C 
HETATM    6  C   UNL     1      -7.210   5.388 -33.086  1.00  0.00     0.061 C 
HETATM    7  C   UNL     1      -5.883   4.715 -32.896  1.00  0.00    -0.019 A 
HETATM    8  C   UNL     1      -5.646   3.420 -33.335  1.00  0.00     0.044 A 
HETATM    9  N   UNL     1      -4.348   3.110 -33.038  1.00  0.00    -0.356 N 
HETATM   10  H   UNL     1      -3.880   2.243 -33.270  1.00  0.00     0.166 HD
HETATM   11  C   UNL     1      -3.774   4.138 -32.317  1.00  0.00     0.043 A 
HETATM   12  C   UNL     1      -4.716   5.167 -32.229  1.00  0.00    -0.001 A 
HETATM   13  C   UNL     1      -2.502   4.234 -31.741  1.00  0.00     0.030 A 
HETATM   14  C   UNL     1      -2.183   5.414 -31.061  1.00  0.00     0.002 A 
HETATM   15  C   UNL     1      -3.100   6.459 -30.967  1.00  0.00     0.001 A 
HETATM   16  C   UNL     1      -4.368   6.350 -31.547  1.00  0.00     0.014 A 
ENDROOT
BRANCH   1  17
HETATM   17  C   UNL     1      -6.459   1.068 -34.180  1.00  0.00    -0.029 A 
HETATM   18  C   UNL     1      -7.172   0.245 -35.062  1.00  0.00     0.012 A 
HETATM   19  C   UNL     1      -6.962  -1.139 -35.091  1.00  0.00     0.038 A 
HETATM   20  C   UNL     1      -6.019  -1.730 -34.248  1.00  0.00     0.074 A 
HETATM   21  C   UNL     1      -5.250  -0.924 -33.396  1.00  0.00    -0.028 A 
HETATM   22  C   UNL     1      -4.163  -1.519 -32.546  1.00  0.00     0.051 C 
HETATM   23  C   UNL     1      -5.480   0.461 -33.370  1.00  0.00     0.019 A 
BRANCH  20  24
HETATM   24  O   UNL     1      -5.741  -3.073 -34.228  1.00  0.00    -0.355 OA
HETATM   25  C   UNL     1      -6.668  -3.904 -34.917  1.00  0.00     0.210 C 
ENDBRANCH  20  24
ENDBRANCH   1  17
BRANCH   3  26
HETATM   26  C   UNL     1      -9.781   3.241 -31.912  1.00  0.00     0.108 C 
BRANCH  26  27
HETATM   27  C   UNL     1      -9.709   3.342 -30.383  1.00  0.00     0.051 C 
BRANCH  27  28
HETATM   28  C   UNL     1      -8.639   4.272 -29.902  1.00  0.00    -0.021 A 
HETATM   29  C   UNL     1      -8.683   5.646 -29.761  1.00  0.00     0.120 A 
HETATM   30  N   UNL     1      -7.465   6.029 -29.283  1.00  0.00    -0.285 N 
HETATM   31  C   UNL     1      -7.044   7.370 -28.966  1.00  0.00     0.179 C 
HETATM   32  N   UNL     1      -6.613   5.002 -29.113  1.00  0.00    -0.185 NA
HETATM   33  C   UNL     1      -7.322   3.939 -29.504  1.00  0.00     0.147 A 
ENDBRANCH  27  28
ENDBRANCH  26  27
ENDBRANCH   3  26
TORSDOF 5
ENDMDL
MODEL 9
REMARK VINA RESULT:      -8.6      3.831      7.540
REMARK  5 active torsions:
REMARK  status: ('A' for Active; 'I' for Inactive)
REMARK    1  A    between atoms: C_3  and  O_4 
REMARK    2  A    between atoms: C_8  and  C_9 
REMARK       I    between atoms: N_10  and  C_11 
REMARK    3  A    between atoms: C_11  and  C_12 
REMARK    4  A    between atoms: C_12  and  C_13 
REMARK    5  A    between atoms: C_13  and  C_14 
ROOT
HETATM    1  C   UNL     1      -4.318   4.158 -32.036  1.00  0.00     0.171 C 
HETATM    2  N   UNL     1      -5.583   4.811 -31.614  1.00  0.00    -0.338 N 
HETATM    3  C   UNL     1      -6.196   4.387 -30.427  1.00  0.00     0.221 C 
HETATM    4  O   UNL     1      -5.905   3.334 -29.859  1.00  0.00    -0.273 OA
HETATM    5  C   UNL     1      -5.624   6.235 -32.012  1.00  0.00     0.131 C 
HETATM    6  C   UNL     1      -4.591   7.069 -31.210  1.00  0.00     0.061 C 
HETATM    7  C   UNL     1      -3.329   6.287 -31.000  1.00  0.00    -0.019 A 
HETATM    8  C   UNL     1      -3.223   4.950 -31.361  1.00  0.00     0.044 A 
HETATM    9  N   UNL     1      -1.953   4.538 -31.067  1.00  0.00    -0.356 N 
HETATM   10  H   UNL     1      -1.573   3.619 -31.252  1.00  0.00     0.166 HD
HETATM   11  C   UNL     1      -1.270   5.550 -30.421  1.00  0.00     0.043 A 
HETATM   12  C   UNL     1      -2.110   6.666 -30.381  1.00  0.00    -0.001 A 
HETATM   13  C   UNL     1       0.018   5.559 -29.873  1.00  0.00     0.030 A 
HETATM   14  C   UNL     1       0.460   6.743 -29.272  1.00  0.00     0.002 A 
HETATM   15  C   UNL     1      -0.353   7.874 -29.228  1.00  0.00     0.001 A 
HETATM   16  C   UNL     1      -1.639   7.850 -29.780  1.00  0.00     0.014 A 
ENDROOT
BRANCH   1  17
HETATM   17  C   UNL     1      -4.269   2.639 -32.045  1.00  0.00    -0.029 A 
HETATM   18  C   UNL     1      -3.416   1.879 -31.234  1.00  0.00     0.012 A 
HETATM   19  C   UNL     1      -3.407   0.480 -31.303  1.00  0.00     0.038 A 
HETATM   20  C   UNL     1      -4.265  -0.191 -32.176  1.00  0.00     0.074 A 
HETATM   21  C   UNL     1      -5.169   0.541 -32.958  1.00  0.00    -0.028 A 
HETATM   22  C   UNL     1      -6.169  -0.156 -33.838  1.00  0.00     0.051 C 
HETATM   23  C   UNL     1      -5.160   1.944 -32.886  1.00  0.00     0.019 A 
BRANCH  20  24
HETATM   24  O   UNL     1      -4.330  -1.556 -32.291  1.00  0.00    -0.355 OA
HETATM   25  C   UNL     1      -3.135  -2.259 -31.973  1.00  0.00     0.210 C 
ENDBRANCH  20  24
ENDBRANCH   1  17
BRANCH   3  26
HETATM   26  C   UNL     1      -7.324   5.248 -29.863  1.00  0.00     0.108 C 
BRANCH  26  27
HETATM   27  C   UNL     1      -7.256   5.367 -28.335  1.00  0.00     0.051 C 
BRANCH  27  28
HETATM   28  C   UNL     1      -6.129   6.231 -27.860  1.00  0.00    -0.021 A 
HETATM   29  C   UNL     1      -4.975   5.863 -27.195  1.00  0.00     0.120 A 
HETATM   30  N   UNL     1      -4.262   7.006 -26.988  1.00  0.00    -0.285 N 
HETATM   31  C   UNL     1      -2.979   7.118 -26.340  1.00  0.00     0.179 C 
HETATM   32  N   UNL     1      -4.873   8.107 -27.458  1.00  0.00    -0.185 NA
HETATM   33  C   UNL     1      -6.013   7.637 -27.973  1.00  0.00     0.147 A 
ENDBRANCH  27  28
ENDBRANCH  26  27
ENDBRANCH   3  26
TORSDOF 5
ENDMDL
MODEL 10
REMARK VINA RESULT:      -8.5      2.976      6.836
REMARK  5 active torsions:
REMARK  status: ('A' for Active; 'I' for Inactive)
REMARK    1  A    between atoms: C_3  and  O_4 
REMARK    2  A    between atoms: C_8  and  C_9 
REMARK       I    between atoms: N_10  and  C_11 
REMARK    3  A    between atoms: C_11  and  C_12 
REMARK    4  A    between atoms: C_12  and  C_13 
REMARK    5  A    between atoms: C_13  and  C_14 
ROOT
HETATM    1  C   UNL     1      -6.263   1.824 -31.839  1.00  0.00     0.171 C 
HETATM    2  N   UNL     1      -7.587   2.347 -32.262  1.00  0.00    -0.338 N 
HETATM    3  C   UNL     1      -7.660   3.140 -33.416  1.00  0.00     0.221 C 
HETATM    4  O   UNL     1      -6.672   3.652 -33.944  1.00  0.00    -0.273 OA
HETATM    5  C   UNL     1      -8.679   1.410 -31.925  1.00  0.00     0.131 C 
HETATM    6  C   UNL     1      -8.595   0.121 -32.785  1.00  0.00     0.061 C 
HETATM    7  C   UNL     1      -7.165  -0.285 -32.988  1.00  0.00    -0.019 A 
HETATM    8  C   UNL     1      -6.107   0.512 -32.571  1.00  0.00     0.044 A 
HETATM    9  N   UNL     1      -4.946  -0.144 -32.874  1.00  0.00    -0.356 N 
HETATM   10  H   UNL     1      -4.012   0.180 -32.658  1.00  0.00     0.166 HD
HETATM   11  C   UNL     1      -5.230  -1.297 -33.579  1.00  0.00     0.043 A 
HETATM   12  C   UNL     1      -6.621  -1.416 -33.649  1.00  0.00    -0.001 A 
HETATM   13  C   UNL     1      -4.366  -2.236 -34.154  1.00  0.00     0.030 A 
HETATM   14  C   UNL     1      -4.940  -3.328 -34.815  1.00  0.00     0.002 A 
HETATM   15  C   UNL     1      -6.323  -3.476 -34.891  1.00  0.00     0.001 A 
HETATM   16  C   UNL     1      -7.175  -2.529 -34.311  1.00  0.00     0.014 A 
ENDROOT
BRANCH   1  17
HETATM   17  C   UNL     1      -5.101   2.802 -31.765  1.00  0.00    -0.029 A 
HETATM   18  C   UNL     1      -3.894   2.636 -32.457  1.00  0.00     0.012 A 
HETATM   19  C   UNL     1      -2.854   3.566 -32.331  1.00  0.00     0.038 A 
HETATM   20  C   UNL     1      -3.006   4.692 -31.522  1.00  0.00     0.074 A 
HETATM   21  C   UNL     1      -4.223   4.913 -30.863  1.00  0.00    -0.028 A 
HETATM   22  C   UNL     1      -4.450   6.164 -30.060  1.00  0.00     0.051 C 
HETATM   23  C   UNL     1      -5.254   3.967 -30.990  1.00  0.00     0.019 A 
BRANCH  20  24
HETATM   24  O   UNL     1      -2.044   5.657 -31.359  1.00  0.00    -0.355 OA
HETATM   25  C   UNL     1      -1.052   5.715 -32.378  1.00  0.00     0.210 C 
ENDBRANCH  20  24
ENDBRANCH   1  17
BRANCH   3  26
HETATM   26  C   UNL     1      -9.044   3.429 -33.993  1.00  0.00     0.108 C 
BRANCH  26  27
HETATM   27  C   UNL     1      -9.827   4.441 -33.146  1.00  0.00     0.051 C 
BRANCH  27  28
HETATM   28  C   UNL     1     -10.086   5.732 -33.857  1.00  0.00    -0.021 A 
HETATM   29  C   UNL     1     -10.217   5.964 -35.213  1.00  0.00     0.120 A 
HETATM   30  N   UNL     1     -10.452   7.299 -35.360  1.00  0.00    -0.285 N 
HETATM   31  C   UNL     1     -10.668   8.007 -36.597  1.00  0.00     0.179 C 
HETATM   32  N   UNL     1     -10.470   7.968 -34.194  1.00  0.00    -0.185 NA
HETATM   33  C   UNL     1     -10.232   7.019 -33.284  1.00  0.00     0.147 A 
ENDBRANCH  27  28
ENDBRANCH  26  27
ENDBRANCH   3  26
TORSDOF 5
ENDMDL
