MODEL 1
REMARK VINA RESULT:      -8.4      0.000      0.000
REMARK  6 active torsions:
REMARK  status: ('A' for Active; 'I' for Inactive)
REMARK    1  A    between atoms: O_2  and  C_3 
REMARK    2  A    between atoms: C_3  and  C_4 
REMARK    3  A    between atoms: C_4  and  N_5 
REMARK       I    between atoms: N_5  and  C_6 
REMARK    4  A    between atoms: C_6  and  C_7 
REMARK    5  A    between atoms: C_12  and  C_13 
REMARK    6  A    between atoms: C_20  and  C_21 
ROOT
HETATM    1  C   UNL     1      -6.213   3.207 -32.113  1.00  0.00     0.165 A 
HETATM    2  N   UNL     1      -7.428   2.761 -32.522  1.00  0.00    -0.163 NA
HETATM    3  N   UNL     1      -7.204   1.490 -32.896  1.00  0.00    -0.238 N 
HETATM    4  C   UNL     1      -5.880   1.137 -32.870  1.00  0.00     0.141 A 
HETATM    5  N   UNL     1      -5.470  -0.073 -33.329  1.00  0.00    -0.365 N 
HETATM    6  C   UNL     1      -6.357  -0.839 -34.201  1.00  0.00     0.118 C 
HETATM    7  C   UNL     1      -7.777  -0.796 -33.624  1.00  0.00     0.066 C 
HETATM    8  C   UNL     1      -8.254   0.662 -33.466  1.00  0.00     0.221 C 
HETATM    9  C   UNL     1      -5.227   2.210 -32.323  1.00  0.00     0.092 A 
HETATM   10 BR   UNL     1      -3.390   2.334 -31.978  1.00  0.00    -0.044 Br
HETATM   11  H   UNL     1      -4.474  -0.226 -33.495  1.00  0.00     0.162 HD
ENDROOT
BRANCH   1  12
HETATM   12  C   UNL     1      -6.058   4.565 -31.561  1.00  0.00     0.273 C 
HETATM   13  N   UNL     1      -5.171   5.342 -32.272  1.00  0.00    -0.353 N 
HETATM   14  H   UNL     1      -4.851   4.950 -33.157  1.00  0.00     0.162 HD
HETATM   15  O   UNL     1      -6.659   4.973 -30.572  1.00  0.00    -0.266 OA
BRANCH  13  16
HETATM   16  C   UNL     1      -5.019   6.764 -32.051  1.00  0.00     0.149 C 
BRANCH  16  17
HETATM   17  C   UNL     1      -3.547   7.161 -31.946  1.00  0.00     0.186 C 
BRANCH  17  18
HETATM   18  O   UNL     1      -2.759   6.256 -32.727  1.00  0.00    -0.394 OA
HETATM   19  C   UNL     1      -2.199   6.901 -33.864  1.00  0.00     0.201 C 
ENDBRANCH  17  18
ENDBRANCH  16  17
ENDBRANCH  13  16
ENDBRANCH   1  12
BRANCH   8  20
HETATM   20  C   UNL     1      -9.517   0.695 -32.633  1.00  0.00     0.409 C 
HETATM   21  F   UNL     1      -9.263   0.657 -31.306  1.00  0.00    -0.169 F 
HETATM   22  F   UNL     1     -10.294   1.769 -32.885  1.00  0.00    -0.169 F 
HETATM   23  F   UNL     1     -10.278  -0.396 -32.915  1.00  0.00    -0.169 F 
ENDBRANCH   8  20
BRANCH   6  24
HETATM   24  C   UNL     1      -5.867  -2.267 -34.340  1.00  0.00    -0.035 A 
HETATM   25  C   UNL     1      -4.556  -2.633 -33.989  1.00  0.00     0.009 A 
HETATM   26  C   UNL     1      -4.130  -3.958 -34.104  1.00  0.00     0.001 A 
HETATM   27  C   UNL     1      -5.011  -4.936 -34.560  1.00  0.00     0.000 A 
HETATM   28  C   UNL     1      -6.317  -4.591 -34.901  1.00  0.00     0.001 A 
HETATM   29  C   UNL     1      -6.743  -3.266 -34.792  1.00  0.00     0.009 A 
ENDBRANCH   6  24
TORSDOF 6
ENDMDL
MODEL 2
REMARK VINA RESULT:      -8.3      1.612      2.245
REMARK  6 active torsions:
REMARK  status: ('A' for Active; 'I' for Inactive)
REMARK    1  A    between atoms: O_2  and  C_3 
REMARK    2  A    between atoms: C_3  and  C_4 
REMARK    3  A    between atoms: C_4  and  N_5 
REMARK       I    between atoms: N_5  and  C_6 
REMARK    4  A    between atoms: C_6  and  C_7 
REMARK    5  A    between atoms: C_12  and  C_13 
REMARK    6  A    between atoms: C_20  and  C_21 
ROOT
HETATM    1  C   UNL     1      -6.211   3.198 -32.033  1.00  0.00     0.165 A 
HETATM    2  N   UNL     1      -7.427   2.755 -32.443  1.00  0.00    -0.163 NA
HETATM    3  N   UNL     1      -7.202   1.489 -32.833  1.00  0.00    -0.238 N 
HETATM    4  C   UNL     1      -5.877   1.138 -32.816  1.00  0.00     0.141 A 
HETATM    5  N   UNL     1      -5.467  -0.065 -33.291  1.00  0.00    -0.365 N 
HETATM    6  C   UNL     1      -6.355  -0.822 -34.169  1.00  0.00     0.118 C 
HETATM    7  C   UNL     1      -7.774  -0.789 -33.588  1.00  0.00     0.066 C 
HETATM    8  C   UNL     1      -8.252   0.666 -33.410  1.00  0.00     0.221 C 
HETATM    9  C   UNL     1      -5.224   2.206 -32.258  1.00  0.00     0.092 A 
HETATM   10 BR   UNL     1      -3.387   2.329 -31.917  1.00  0.00    -0.044 Br
HETATM   11  H   UNL     1      -4.472  -0.214 -33.462  1.00  0.00     0.162 HD
ENDROOT
BRANCH   1  12
HETATM   12  C   UNL     1      -6.058   4.549 -31.465  1.00  0.00     0.273 C 
HETATM   13  N   UNL     1      -5.788   4.543 -30.114  1.00  0.00    -0.353 N 
HETATM   14  H   UNL     1      -5.582   3.631 -29.709  1.00  0.00     0.162 HD
HETATM   15  O   UNL     1      -6.153   5.582 -32.122  1.00  0.00    -0.266 OA
BRANCH  13  16
HETATM   16  C   UNL     1      -5.388   5.729 -29.387  1.00  0.00     0.149 C 
BRANCH  16  17
HETATM   17  C   UNL     1      -6.352   6.036 -28.242  1.00  0.00     0.186 C 
BRANCH  17  18
HETATM   18  O   UNL     1      -5.664   5.889 -26.995  1.00  0.00    -0.394 OA
HETATM   19  C   UNL     1      -4.601   6.825 -26.872  1.00  0.00     0.201 C 
ENDBRANCH  17  18
ENDBRANCH  16  17
ENDBRANCH  13  16
ENDBRANCH   1  12
BRANCH   8  20
HETATM   20  C   UNL     1      -9.513   0.687 -32.573  1.00  0.00     0.409 C 
HETATM   21  F   UNL     1      -9.253   0.702 -31.246  1.00  0.00    -0.169 F 
HETATM   22  F   UNL     1     -10.326   1.726 -32.857  1.00  0.00    -0.169 F 
HETATM   23  F   UNL     1     -10.240  -0.437 -32.814  1.00  0.00    -0.169 F 
ENDBRANCH   8  20
BRANCH   6  24
HETATM   24  C   UNL     1      -5.863  -2.247 -34.327  1.00  0.00    -0.035 A 
HETATM   25  C   UNL     1      -4.555  -2.619 -33.970  1.00  0.00     0.009 A 
HETATM   26  C   UNL     1      -4.128  -3.941 -34.103  1.00  0.00     0.001 A 
HETATM   27  C   UNL     1      -5.004  -4.912 -34.582  1.00  0.00     0.000 A 
HETATM   28  C   UNL     1      -6.306  -4.563 -34.930  1.00  0.00     0.001 A 
HETATM   29  C   UNL     1      -6.734  -3.240 -34.803  1.00  0.00     0.009 A 
ENDBRANCH   6  24
TORSDOF 6
ENDMDL
MODEL 3
REMARK VINA RESULT:      -8.1      2.740      4.946
REMARK  6 active torsions:
REMARK  status: ('A' for Active; 'I' for Inactive)
REMARK    1  A    between atoms: O_2  and  C_3 
REMARK    2  A    between atoms: C_3  and  C_4 
REMARK    3  A    between atoms: C_4  and  N_5 
REMARK       I    between atoms: N_5  and  C_6 
REMARK    4  A    between atoms: C_6  and  C_7 
REMARK    5  A    between atoms: C_12  and  C_13 
REMARK    6  A    between atoms: C_20  and  C_21 
ROOT
HETATM    1  C   UNL     1      -4.870   2.619 -32.673  1.00  0.00     0.165 A 
HETATM    2  N   UNL     1      -5.128   1.290 -32.570  1.00  0.00    -0.163 NA
HETATM    3  N   UNL     1      -6.420   1.178 -32.921  1.00  0.00    -0.238 N 
HETATM    4  C   UNL     1      -7.042   2.383 -33.119  1.00  0.00     0.141 A 
HETATM    5  N   UNL     1      -8.375   2.451 -33.365  1.00  0.00    -0.365 N 
HETATM    6  C   UNL     1      -9.216   1.303 -33.035  1.00  0.00     0.118 C 
HETATM    7  C   UNL     1      -8.518   0.024 -33.513  1.00  0.00     0.066 C 
HETATM    8  C   UNL     1      -7.116  -0.098 -32.882  1.00  0.00     0.221 C 
HETATM    9  C   UNL     1      -6.052   3.325 -33.013  1.00  0.00     0.092 A 
HETATM   10 BR   UNL     1      -6.252   5.175 -33.226  1.00  0.00    -0.044 Br
HETATM   11  H   UNL     1      -8.843   3.355 -33.296  1.00  0.00     0.162 HD
ENDROOT
BRANCH   1  12
HETATM   12  C   UNL     1      -3.515   3.142 -32.424  1.00  0.00     0.273 C 
HETATM   13  N   UNL     1      -3.094   4.037 -33.383  1.00  0.00    -0.353 N 
HETATM   14  H   UNL     1      -3.805   4.339 -34.048  1.00  0.00     0.162 HD
HETATM   15  O   UNL     1      -2.825   2.823 -31.460  1.00  0.00    -0.266 OA
BRANCH  13  16
HETATM   16  C   UNL     1      -1.897   4.838 -33.239  1.00  0.00     0.149 C 
BRANCH  16  17
HETATM   17  C   UNL     1      -1.437   5.404 -34.582  1.00  0.00     0.186 C 
BRANCH  17  18
HETATM   18  O   UNL     1      -0.992   6.753 -34.397  1.00  0.00    -0.394 OA
HETATM   19  C   UNL     1      -1.700   7.395 -33.345  1.00  0.00     0.201 C 
ENDBRANCH  17  18
ENDBRANCH  16  17
ENDBRANCH  13  16
ENDBRANCH   1  12
BRANCH   8  20
HETATM   20  C   UNL     1      -6.338  -1.190 -33.582  1.00  0.00     0.409 C 
HETATM   21  F   UNL     1      -5.870  -0.801 -34.789  1.00  0.00    -0.169 F 
HETATM   22  F   UNL     1      -5.300  -1.656 -32.855  1.00  0.00    -0.169 F 
HETATM   23  F   UNL     1      -7.150  -2.258 -33.805  1.00  0.00    -0.169 F 
ENDBRANCH   8  20
BRANCH   6  24
HETATM   24  C   UNL     1     -10.586   1.446 -33.666  1.00  0.00    -0.035 A 
HETATM   25  C   UNL     1     -10.887   2.502 -34.543  1.00  0.00     0.009 A 
HETATM   26  C   UNL     1     -12.148   2.605 -35.132  1.00  0.00     0.001 A 
HETATM   27  C   UNL     1     -13.123   1.648 -34.861  1.00  0.00     0.000 A 
HETATM   28  C   UNL     1     -12.839   0.589 -34.003  1.00  0.00     0.001 A 
HETATM   29  C   UNL     1     -11.579   0.488 -33.409  1.00  0.00     0.009 A 
ENDBRANCH   6  24
TORSDOF 6
ENDMDL
MODEL 4
REMARK VINA RESULT:      -8.0      1.513      2.379
REMARK  6 active torsions:
REMARK  status: ('A' for Active; 'I' for Inactive)
REMARK    1  A    between atoms: O_2  and  C_3 
REMARK    2  A    between atoms: C_3  and  C_4 
REMARK    3  A    between atoms: C_4  and  N_5 
REMARK       I    between atoms: N_5  and  C_6 
REMARK    4  A    between atoms: C_6  and  C_7 
REMARK    5  A    between atoms: C_12  and  C_13 
REMARK    6  A    between atoms: C_20  and  C_21 
ROOT
HETATM    1  C   UNL     1      -6.366   3.293 -32.363  1.00  0.00     0.165 A 
HETATM    2  N   UNL     1      -7.576   2.789 -32.719  1.00  0.00    -0.163 NA
HETATM    3  N   UNL     1      -7.317   1.511 -33.045  1.00  0.00    -0.238 N 
HETATM    4  C   UNL     1      -5.982   1.204 -33.041  1.00  0.00     0.141 A 
HETATM    5  N   UNL     1      -5.542  -0.010 -33.459  1.00  0.00    -0.365 N 
HETATM    6  C   UNL     1      -6.424  -0.842 -34.273  1.00  0.00     0.118 C 
HETATM    7  C   UNL     1      -7.829  -0.822 -33.661  1.00  0.00     0.066 C 
HETATM    8  C   UNL     1      -8.352   0.625 -33.551  1.00  0.00     0.221 C 
HETATM    9  C   UNL     1      -5.352   2.322 -32.557  1.00  0.00     0.092 A 
HETATM   10 BR   UNL     1      -3.513   2.522 -32.268  1.00  0.00    -0.044 Br
HETATM   11  H   UNL     1      -4.546  -0.136 -33.646  1.00  0.00     0.162 HD
ENDROOT
BRANCH   1  12
HETATM   12  C   UNL     1      -6.245   4.677 -31.874  1.00  0.00     0.273 C 
HETATM   13  N   UNL     1      -7.005   5.575 -32.590  1.00  0.00    -0.353 N 
HETATM   14  H   UNL     1      -7.660   5.167 -33.256  1.00  0.00     0.162 HD
HETATM   15  O   UNL     1      -5.544   5.007 -30.922  1.00  0.00    -0.266 OA
BRANCH  13  16
HETATM   16  C   UNL     1      -7.214   6.943 -32.166  1.00  0.00     0.149 C 
BRANCH  16  17
HETATM   17  C   UNL     1      -8.426   7.065 -31.245  1.00  0.00     0.186 C 
BRANCH  17  18
HETATM   18  O   UNL     1      -7.984   7.076 -29.883  1.00  0.00    -0.394 OA
HETATM   19  C   UNL     1      -8.804   6.253 -29.063  1.00  0.00     0.201 C 
ENDBRANCH  17  18
ENDBRANCH  16  17
ENDBRANCH  13  16
ENDBRANCH   1  12
BRANCH   8  20
HETATM   20  C   UNL     1      -9.593   0.651 -32.686  1.00  0.00     0.409 C 
HETATM   21  F   UNL     1     -10.389   1.711 -32.954  1.00  0.00    -0.169 F 
HETATM   22  F   UNL     1     -10.335  -0.471 -32.782  1.00  0.00    -0.169 F 
HETATM   23  F   UNL     1      -9.235   0.755 -31.377  1.00  0.00    -0.169 F 
ENDBRANCH   8  20
BRANCH   6  24
HETATM   24  C   UNL     1      -5.888  -2.257 -34.365  1.00  0.00    -0.035 A 
HETATM   25  C   UNL     1      -4.567  -2.570 -34.002  1.00  0.00     0.009 A 
HETATM   26  C   UNL     1      -4.099  -3.883 -34.073  1.00  0.00     0.001 A 
HETATM   27  C   UNL     1      -4.947  -4.904 -34.497  1.00  0.00     0.000 A 
HETATM   28  C   UNL     1      -6.263  -4.613 -34.849  1.00  0.00     0.001 A 
HETATM   29  C   UNL     1      -6.731  -3.298 -34.784  1.00  0.00     0.009 A 
ENDBRANCH   6  24
TORSDOF 6
ENDMDL
MODEL 5
REMARK VINA RESULT:      -7.4      2.051      2.495
REMARK  6 active torsions:
REMARK  status: ('A' for Active; 'I' for Inactive)
REMARK    1  A    between atoms: O_2  and  C_3 
REMARK    2  A    between atoms: C_3  and  C_4 
REMARK    3  A    between atoms: C_4  and  N_5 
REMARK       I    between atoms: N_5  and  C_6 
REMARK    4  A    between atoms: C_6  and  C_7 
REMARK    5  A    between atoms: C_12  and  C_13 
REMARK    6  A    between atoms: C_20  and  C_21 
ROOT
HETATM    1  C   UNL     1      -8.079   3.786 -33.802  1.00  0.00     0.165 A 
HETATM    2  N   UNL     1      -9.005   2.794 -33.834  1.00  0.00    -0.163 NA
HETATM    3  N   UNL     1      -8.280   1.665 -33.757  1.00  0.00    -0.238 N 
HETATM    4  C   UNL     1      -6.927   1.877 -33.807  1.00  0.00     0.141 A 
HETATM    5  N   UNL     1      -6.057   0.837 -33.857  1.00  0.00    -0.365 N 
HETATM    6  C   UNL     1      -6.549  -0.481 -34.252  1.00  0.00     0.118 C 
HETATM    7  C   UNL     1      -7.869  -0.756 -33.521  1.00  0.00     0.066 C 
HETATM    8  C   UNL     1      -8.898   0.351 -33.825  1.00  0.00     0.221 C 
HETATM    9  C   UNL     1      -6.771   3.239 -33.787  1.00  0.00     0.092 A 
HETATM   10 BR   UNL     1      -5.146   4.170 -33.792  1.00  0.00    -0.044 Br
HETATM   11  H   UNL     1      -5.084   1.020 -34.106  1.00  0.00     0.162 HD
ENDROOT
BRANCH   1  12
HETATM   12  C   UNL     1      -8.494   5.200 -33.804  1.00  0.00     0.273 C 
HETATM   13  N   UNL     1      -8.236   5.844 -32.613  1.00  0.00    -0.353 N 
HETATM   14  H   UNL     1      -7.668   5.325 -31.945  1.00  0.00     0.162 HD
HETATM   15  O   UNL     1      -9.013   5.759 -34.766  1.00  0.00    -0.266 OA
BRANCH  13  16
HETATM   16  C   UNL     1      -8.358   7.277 -32.452  1.00  0.00     0.149 C 
BRANCH  16  17
HETATM   17  C   UNL     1      -7.207   7.846 -31.624  1.00  0.00     0.186 C 
BRANCH  17  18
HETATM   18  O   UNL     1      -5.973   7.281 -32.080  1.00  0.00    -0.394 OA
HETATM   19  C   UNL     1      -4.879   7.699 -31.273  1.00  0.00     0.201 C 
ENDBRANCH  17  18
ENDBRANCH  16  17
ENDBRANCH  13  16
ENDBRANCH   1  12
BRANCH   8  20
HETATM   20  C   UNL     1     -10.072   0.227 -32.879  1.00  0.00     0.409 C 
HETATM   21  F   UNL     1     -11.136   0.961 -33.275  1.00  0.00    -0.169 F 
HETATM   22  F   UNL     1     -10.480  -1.046 -32.697  1.00  0.00    -0.169 F 
HETATM   23  F   UNL     1      -9.718   0.688 -31.649  1.00  0.00    -0.169 F 
ENDBRANCH   8  20
BRANCH   6  24
HETATM   24  C   UNL     1      -5.520  -1.550 -33.942  1.00  0.00    -0.035 A 
HETATM   25  C   UNL     1      -4.592  -1.398 -32.897  1.00  0.00     0.009 A 
HETATM   26  C   UNL     1      -3.666  -2.404 -32.614  1.00  0.00     0.001 A 
HETATM   27  C   UNL     1      -3.662  -3.579 -33.361  1.00  0.00     0.000 A 
HETATM   28  C   UNL     1      -4.583  -3.750 -34.392  1.00  0.00     0.001 A 
HETATM   29  C   UNL     1      -5.506  -2.743 -34.681  1.00  0.00     0.009 A 
ENDBRANCH   6  24
TORSDOF 6
ENDMDL
MODEL 6
REMARK VINA RESULT:      -7.4      3.099      4.102
REMARK  6 active torsions:
REMARK  status: ('A' for Active; 'I' for Inactive)
REMARK    1  A    between atoms: O_2  and  C_3 
REMARK    2  A    between atoms: C_3  and  C_4 
REMARK    3  A    between atoms: C_4  and  N_5 
REMARK       I    between atoms: N_5  and  C_6 
REMARK    4  A    between atoms: C_6  and  C_7 
REMARK    5  A    between atoms: C_12  and  C_13 
REMARK    6  A    between atoms: C_20  and  C_21 
ROOT
HETATM    1  C   UNL     1      -8.162   3.847 -33.835  1.00  0.00     0.165 A 
HETATM    2  N   UNL     1      -9.091   2.857 -33.854  1.00  0.00    -0.163 NA
HETATM    3  N   UNL     1      -8.369   1.726 -33.781  1.00  0.00    -0.238 N 
HETATM    4  C   UNL     1      -7.016   1.934 -33.847  1.00  0.00     0.141 A 
HETATM    5  N   UNL     1      -6.150   0.891 -33.904  1.00  0.00    -0.365 N 
HETATM    6  C   UNL     1      -6.650  -0.426 -34.288  1.00  0.00     0.118 C 
HETATM    7  C   UNL     1      -7.963  -0.695 -33.542  1.00  0.00     0.066 C 
HETATM    8  C   UNL     1      -8.992   0.414 -33.838  1.00  0.00     0.221 C 
HETATM    9  C   UNL     1      -6.856   3.296 -33.833  1.00  0.00     0.092 A 
HETATM   10 BR   UNL     1      -5.228   4.222 -33.860  1.00  0.00    -0.044 Br
HETATM   11  H   UNL     1      -5.179   1.070 -34.165  1.00  0.00     0.162 HD
ENDROOT
BRANCH   1  12
HETATM   12  C   UNL     1      -8.573   5.262 -33.837  1.00  0.00     0.273 C 
HETATM   13  N   UNL     1      -9.531   5.548 -34.785  1.00  0.00    -0.353 N 
HETATM   14  H   UNL     1      -9.941   4.742 -35.255  1.00  0.00     0.162 HD
HETATM   15  O   UNL     1      -8.117   6.107 -33.073  1.00  0.00    -0.266 OA
BRANCH  13  16
HETATM   16  C   UNL     1     -10.239   6.810 -34.832  1.00  0.00     0.149 C 
BRANCH  16  17
HETATM   17  C   UNL     1     -11.669   6.669 -34.314  1.00  0.00     0.186 C 
BRANCH  17  18
HETATM   18  O   UNL     1     -12.547   6.423 -35.418  1.00  0.00    -0.394 OA
HETATM   19  C   UNL     1     -12.932   5.056 -35.483  1.00  0.00     0.201 C 
ENDBRANCH  17  18
ENDBRANCH  16  17
ENDBRANCH  13  16
ENDBRANCH   1  12
BRANCH   8  20
HETATM   20  C   UNL     1     -10.156   0.297 -32.878  1.00  0.00     0.409 C 
HETATM   21  F   UNL     1      -9.856   0.758 -31.643  1.00  0.00    -0.169 F 
HETATM   22  F   UNL     1     -11.268   0.927 -33.308  1.00  0.00    -0.169 F 
HETATM   23  F   UNL     1     -10.497  -1.012 -32.733  1.00  0.00    -0.169 F 
ENDBRANCH   8  20
BRANCH   6  24
HETATM   24  C   UNL     1      -5.621  -1.497 -33.986  1.00  0.00    -0.035 A 
HETATM   25  C   UNL     1      -5.548  -2.682 -34.739  1.00  0.00     0.009 A 
HETATM   26  C   UNL     1      -4.579  -3.647 -34.460  1.00  0.00     0.001 A 
HETATM   27  C   UNL     1      -3.662  -3.437 -33.432  1.00  0.00     0.000 A 
HETATM   28  C   UNL     1      -3.713  -2.263 -32.684  1.00  0.00     0.001 A 
HETATM   29  C   UNL     1      -4.686  -1.299 -32.959  1.00  0.00     0.009 A 
ENDBRANCH   6  24
TORSDOF 6
ENDMDL
MODEL 7
REMARK VINA RESULT:      -7.3      3.352      7.671
REMARK  6 active torsions:
REMARK  status: ('A' for Active; 'I' for Inactive)
REMARK    1  A    between atoms: O_2  and  C_3 
REMARK    2  A    between atoms: C_3  and  C_4 
REMARK    3  A    between atoms: C_4  and  N_5 
REMARK       I    between atoms: N_5  and  C_6 
REMARK    4  A    between atoms: C_6  and  C_7 
REMARK    5  A    between atoms: C_12  and  C_13 
REMARK    6  A    between atoms: C_20  and  C_21 
ROOT
HETATM    1  C   UNL     1      -6.026  -0.218 -32.882  1.00  0.00     0.165 A 
HETATM    2  N   UNL     1      -7.374  -0.329 -32.769  1.00  0.00    -0.163 NA
HETATM    3  N   UNL     1      -7.750   0.820 -32.182  1.00  0.00    -0.238 N 
HETATM    4  C   UNL     1      -6.698   1.608 -31.794  1.00  0.00     0.141 A 
HETATM    5  N   UNL     1      -6.901   2.747 -31.084  1.00  0.00    -0.365 N 
HETATM    6  C   UNL     1      -8.176   2.936 -30.397  1.00  0.00     0.118 C 
HETATM    7  C   UNL     1      -9.314   2.534 -31.343  1.00  0.00     0.066 C 
HETATM    8  C   UNL     1      -9.134   1.078 -31.820  1.00  0.00     0.221 C 
HETATM    9  C   UNL     1      -5.578   0.984 -32.278  1.00  0.00     0.092 A 
HETATM   10 BR   UNL     1      -3.813   1.588 -32.116  1.00  0.00    -0.044 Br
HETATM   11  H   UNL     1      -6.104   3.194 -30.631  1.00  0.00     0.162 HD
ENDROOT
BRANCH   1  12
HETATM   12  C   UNL     1      -5.239  -1.273 -33.545  1.00  0.00     0.273 C 
HETATM   13  N   UNL     1      -6.013  -2.150 -34.274  1.00  0.00    -0.353 N 
HETATM   14  H   UNL     1      -6.990  -1.884 -34.391  1.00  0.00     0.162 HD
HETATM   15  O   UNL     1      -4.018  -1.368 -33.466  1.00  0.00    -0.266 OA
BRANCH  13  16
HETATM   16  C   UNL     1      -5.450  -3.130 -35.178  1.00  0.00     0.149 C 
BRANCH  16  17
HETATM   17  C   UNL     1      -6.127  -4.490 -35.021  1.00  0.00     0.186 C 
BRANCH  17  18
HETATM   18  O   UNL     1      -5.140  -5.474 -34.691  1.00  0.00    -0.394 OA
HETATM   19  C   UNL     1      -4.021  -4.889 -34.037  1.00  0.00     0.201 C 
ENDBRANCH  17  18
ENDBRANCH  16  17
ENDBRANCH  13  16
ENDBRANCH   1  12
BRANCH   8  20
HETATM   20  C   UNL     1     -10.082   0.798 -32.965  1.00  0.00     0.409 C 
HETATM   21  F   UNL     1      -9.500   0.972 -34.173  1.00  0.00    -0.169 F 
HETATM   22  F   UNL     1     -10.616  -0.440 -32.926  1.00  0.00    -0.169 F 
HETATM   23  F   UNL     1     -11.131   1.663 -32.911  1.00  0.00    -0.169 F 
ENDBRANCH   8  20
BRANCH   6  24
HETATM   24  C   UNL     1      -8.328   4.373 -29.940  1.00  0.00    -0.035 A 
HETATM   25  C   UNL     1      -9.425   5.160 -30.333  1.00  0.00     0.009 A 
HETATM   26  C   UNL     1      -9.558   6.474 -29.883  1.00  0.00     0.001 A 
HETATM   27  C   UNL     1      -8.605   7.018 -29.026  1.00  0.00     0.000 A 
HETATM   28  C   UNL     1      -7.518   6.249 -28.618  1.00  0.00     0.001 A 
HETATM   29  C   UNL     1      -7.380   4.935 -29.071  1.00  0.00     0.009 A 
ENDBRANCH   6  24
TORSDOF 6
ENDMDL
MODEL 8
REMARK VINA RESULT:      -7.3      3.685      5.555
REMARK  6 active torsions:
REMARK  status: ('A' for Active; 'I' for Inactive)
REMARK    1  A    between atoms: O_2  and  C_3 
REMARK    2  A    between atoms: C_3  and  C_4 
REMARK    3  A    between atoms: C_4  and  N_5 
REMARK       I    between atoms: N_5  and  C_6 
REMARK    4  A    between atoms: C_6  and  C_7 
REMARK    5  A    between atoms: C_12  and  C_13 
REMARK    6  A    between atoms: C_20  and  C_21 
ROOT
HETATM    1  C   UNL     1      -9.537   2.914 -32.235  1.00  0.00     0.165 A 
HETATM    2  N   UNL     1      -8.232   3.139 -31.938  1.00  0.00    -0.163 NA
HETATM    3  N   UNL     1      -7.594   2.057 -32.415  1.00  0.00    -0.238 N 
HETATM    4  C   UNL     1      -8.439   1.087 -32.889  1.00  0.00     0.141 A 
HETATM    5  N   UNL     1      -7.963  -0.116 -33.299  1.00  0.00    -0.365 N 
HETATM    6  C   UNL     1      -6.627  -0.530 -32.879  1.00  0.00     0.118 C 
HETATM    7  C   UNL     1      -5.666   0.653 -33.044  1.00  0.00     0.066 C 
HETATM    8  C   UNL     1      -6.163   1.872 -32.241  1.00  0.00     0.221 C 
HETATM    9  C   UNL     1      -9.694   1.636 -32.829  1.00  0.00     0.092 A 
HETATM   10 BR   UNL     1     -11.288   0.823 -33.379  1.00  0.00    -0.044 Br
HETATM   11  H   UNL     1      -8.621  -0.883 -33.443  1.00  0.00     0.162 HD
ENDROOT
BRANCH   1  12
HETATM   12  C   UNL     1     -10.563   3.924 -31.921  1.00  0.00     0.273 C 
HETATM   13  N   UNL     1     -11.324   4.283 -33.012  1.00  0.00    -0.353 N 
HETATM   14  H   UNL     1     -11.193   3.715 -33.848  1.00  0.00     0.162 HD
HETATM   15  O   UNL     1     -10.735   4.399 -30.803  1.00  0.00    -0.266 OA
BRANCH  13  16
HETATM   16  C   UNL     1     -12.521   5.090 -32.905  1.00  0.00     0.149 C 
BRANCH  16  17
HETATM   17  C   UNL     1     -13.783   4.240 -33.044  1.00  0.00     0.186 C 
BRANCH  17  18
HETATM   18  O   UNL     1     -13.891   3.369 -31.913  1.00  0.00    -0.394 OA
HETATM   19  C   UNL     1     -14.918   2.403 -32.096  1.00  0.00     0.201 C 
ENDBRANCH  17  18
ENDBRANCH  16  17
ENDBRANCH  13  16
ENDBRANCH   1  12
BRANCH   8  20
HETATM   20  C   UNL     1      -5.379   3.101 -32.645  1.00  0.00     0.409 C 
HETATM   21  F   UNL     1      -5.855   3.670 -33.775  1.00  0.00    -0.169 F 
HETATM   22  F   UNL     1      -5.332   4.045 -31.683  1.00  0.00    -0.169 F 
HETATM   23  F   UNL     1      -4.088   2.756 -32.897  1.00  0.00    -0.169 F 
ENDBRANCH   8  20
BRANCH   6  24
HETATM   24  C   UNL     1      -6.162  -1.728 -33.684  1.00  0.00    -0.035 A 
HETATM   25  C   UNL     1      -4.799  -2.052 -33.802  1.00  0.00     0.009 A 
HETATM   26  C   UNL     1      -4.392  -3.172 -34.529  1.00  0.00     0.001 A 
HETATM   27  C   UNL     1      -5.341  -3.990 -35.139  1.00  0.00     0.000 A 
HETATM   28  C   UNL     1      -6.696  -3.689 -35.022  1.00  0.00     0.001 A 
HETATM   29  C   UNL     1      -7.105  -2.566 -34.299  1.00  0.00     0.009 A 
ENDBRANCH   6  24
TORSDOF 6
ENDMDL
MODEL 9
REMARK VINA RESULT:      -7.2      4.842      6.899
REMARK  6 active torsions:
REMARK  status: ('A' for Active; 'I' for Inactive)
REMARK    1  A    between atoms: O_2  and  C_3 
REMARK    2  A    between atoms: C_3  and  C_4 
REMARK    3  A    between atoms: C_4  and  N_5 
REMARK       I    between atoms: N_5  and  C_6 
REMARK    4  A    between atoms: C_6  and  C_7 
REMARK    5  A    between atoms: C_12  and  C_13 
REMARK    6  A    between atoms: C_20  and  C_21 
ROOT
HETATM    1  C   UNL     1      -2.579   7.735 -30.712  1.00  0.00     0.165 A 
HETATM    2  N   UNL     1      -1.843   7.282 -31.759  1.00  0.00    -0.163 NA
HETATM    3  N   UNL     1      -2.295   6.033 -31.963  1.00  0.00    -0.238 N 
HETATM    4  C   UNL     1      -3.194   5.614 -31.018  1.00  0.00     0.141 A 
HETATM    5  N   UNL     1      -3.658   4.338 -31.011  1.00  0.00    -0.365 N 
HETATM    6  C   UNL     1      -2.924   3.312 -31.748  1.00  0.00     0.118 C 
HETATM    7  C   UNL     1      -2.539   3.870 -33.123  1.00  0.00     0.066 C 
HETATM    8  C   UNL     1      -1.713   5.163 -32.972  1.00  0.00     0.221 C 
HETATM    9  C   UNL     1      -3.431   6.709 -30.229  1.00  0.00     0.092 A 
HETATM   10 BR   UNL     1      -4.608   6.797 -28.775  1.00  0.00    -0.044 Br
HETATM   11  H   UNL     1      -4.152   3.998 -30.185  1.00  0.00     0.162 HD
ENDROOT
BRANCH   1  12
HETATM   12  C   UNL     1      -2.417   9.115 -30.222  1.00  0.00     0.273 C 
HETATM   13  N   UNL     1      -1.983   9.180 -28.916  1.00  0.00    -0.353 N 
HETATM   14  H   UNL     1      -1.688   8.295 -28.505  1.00  0.00     0.162 HD
HETATM   15  O   UNL     1      -2.639  10.112 -30.902  1.00  0.00    -0.266 OA
BRANCH  13  16
HETATM   16  C   UNL     1      -1.549  10.412 -28.292  1.00  0.00     0.149 C 
BRANCH  16  17
HETATM   17  C   UNL     1      -0.442  10.162 -27.269  1.00  0.00     0.186 C 
BRANCH  17  18
HETATM   18  O   UNL     1       0.031   8.817 -27.406  1.00  0.00    -0.394 OA
HETATM   19  C   UNL     1       1.441   8.777 -27.589  1.00  0.00     0.201 C 
ENDBRANCH  17  18
ENDBRANCH  16  17
ENDBRANCH  13  16
ENDBRANCH   1  12
BRANCH   8  20
HETATM   20  C   UNL     1      -1.597   5.851 -34.315  1.00  0.00     0.409 C 
HETATM   21  F   UNL     1      -1.388   4.980 -35.327  1.00  0.00    -0.169 F 
HETATM   22  F   UNL     1      -2.672   6.608 -34.622  1.00  0.00    -0.169 F 
HETATM   23  F   UNL     1      -0.532   6.697 -34.304  1.00  0.00    -0.169 F 
ENDBRANCH   8  20
BRANCH   6  24
HETATM   24  C   UNL     1      -3.757   2.053 -31.882  1.00  0.00    -0.035 A 
HETATM   25  C   UNL     1      -3.351   0.836 -31.307  1.00  0.00     0.009 A 
HETATM   26  C   UNL     1      -4.143  -0.307 -31.423  1.00  0.00     0.001 A 
HETATM   27  C   UNL     1      -5.356  -0.249 -32.106  1.00  0.00     0.000 A 
HETATM   28  C   UNL     1      -5.778   0.951 -32.672  1.00  0.00     0.001 A 
HETATM   29  C   UNL     1      -4.985   2.095 -32.561  1.00  0.00     0.009 A 
ENDBRANCH   6  24
TORSDOF 6
ENDMDL
MODEL 10
REMARK VINA RESULT:      -7.1      2.342      3.117
REMARK  6 active torsions:
REMARK  status: ('A' for Active; 'I' for Inactive)
REMARK    1  A    between atoms: O_2  and  C_3 
REMARK    2  A    between atoms: C_3  and  C_4 
REMARK    3  A    between atoms: C_4  and  N_5 
REMARK       I    between atoms: N_5  and  C_6 
REMARK    4  A    between atoms: C_6  and  C_7 
REMARK    5  A    between atoms: C_12  and  C_13 
REMARK    6  A    between atoms: C_20  and  C_21 
ROOT
HETATM    1  C   UNL     1      -4.854   5.255 -31.203  1.00  0.00     0.165 A 
HETATM    2  N   UNL     1      -6.175   4.949 -31.138  1.00  0.00    -0.163 NA
HETATM    3  N   UNL     1      -6.251   3.708 -31.648  1.00  0.00    -0.238 N 
HETATM    4  C   UNL     1      -5.064   3.251 -32.158  1.00  0.00     0.141 A 
HETATM    5  N   UNL     1      -4.995   2.065 -32.815  1.00  0.00    -0.365 N 
HETATM    6  C   UNL     1      -6.225   1.463 -33.323  1.00  0.00     0.118 C 
HETATM    7  C   UNL     1      -7.307   1.559 -32.241  1.00  0.00     0.066 C 
HETATM    8  C   UNL     1      -7.524   3.027 -31.819  1.00  0.00     0.221 C 
HETATM    9  C   UNL     1      -4.138   4.210 -31.840  1.00  0.00     0.092 A 
HETATM   10 BR   UNL     1      -2.306   4.154 -32.224  1.00  0.00    -0.044 Br
HETATM   11  H   UNL     1      -4.160   1.853 -33.362  1.00  0.00     0.162 HD
ENDROOT
BRANCH   1  12
HETATM   12  C   UNL     1      -4.353   6.534 -30.670  1.00  0.00     0.273 C 
HETATM   13  N   UNL     1      -3.666   6.396 -29.484  1.00  0.00    -0.353 N 
HETATM   14  H   UNL     1      -3.460   5.438 -29.202  1.00  0.00     0.162 HD
HETATM   15  O   UNL     1      -4.520   7.617 -31.222  1.00  0.00    -0.266 OA
BRANCH  13  16
HETATM   16  C   UNL     1      -2.904   7.472 -28.887  1.00  0.00     0.149 C 
BRANCH  16  17
HETATM   17  C   UNL     1      -1.463   7.484 -29.392  1.00  0.00     0.186 C 
BRANCH  17  18
HETATM   18  O   UNL     1      -0.989   6.137 -29.499  1.00  0.00    -0.394 OA
HETATM   19  C   UNL     1       0.401   6.049 -29.211  1.00  0.00     0.201 C 
ENDBRANCH  17  18
ENDBRANCH  16  17
ENDBRANCH  13  16
ENDBRANCH   1  12
BRANCH   8  20
HETATM   20  C   UNL     1      -8.366   3.075 -30.563  1.00  0.00     0.409 C 
HETATM   21  F   UNL     1      -9.339   2.137 -30.556  1.00  0.00    -0.169 F 
HETATM   22  F   UNL     1      -7.643   2.945 -29.431  1.00  0.00    -0.169 F 
HETATM   23  F   UNL     1      -8.987   4.282 -30.476  1.00  0.00    -0.169 F 
ENDBRANCH   8  20
BRANCH   6  24
HETATM   24  C   UNL     1      -5.986   0.022 -33.729  1.00  0.00    -0.035 A 
HETATM   25  C   UNL     1      -4.754  -0.614 -33.498  1.00  0.00     0.009 A 
HETATM   26  C   UNL     1      -4.560  -1.948 -33.860  1.00  0.00     0.001 A 
HETATM   27  C   UNL     1      -5.597  -2.668 -34.448  1.00  0.00     0.000 A 
HETATM   28  C   UNL     1      -6.828  -2.056 -34.674  1.00  0.00     0.001 A 
HETATM   29  C   UNL     1      -7.022  -0.720 -34.317  1.00  0.00     0.009 A 
ENDBRANCH   6  24
TORSDOF 6
ENDMDL
