MODEL 1
REMARK VINA RESULT:      -8.4      0.000      0.000
REMARK  5 active torsions:
REMARK  status: ('A' for Active; 'I' for Inactive)
REMARK    1  A    between atoms: C_6  and  N_7 
REMARK       I    between atoms: N_7  and  C_8 
REMARK    2  A    between atoms: C_8  and  C_9 
REMARK    3  A    between atoms: C_9  and  N_10 
REMARK    4  A    between atoms: C_12  and  C_13 
REMARK    5  A    between atoms: C_14  and  O_15 
ROOT
HETATM    1  N   UNL     1      -5.562   0.392 -32.669  1.00  0.00    -0.325 N 
HETATM    2  C   UNL     1      -6.007   0.654 -31.389  1.00  0.00     0.239 C 
HETATM    3  O   UNL     1      -6.368  -0.156 -30.539  1.00  0.00    -0.271 OA
HETATM    4  H   UNL     1      -4.945   1.084 -33.076  1.00  0.00     0.169 HD
ENDROOT
BRANCH   2   5
HETATM    5  C   UNL     1      -5.987   2.134 -31.047  1.00  0.00     0.222 C 
BRANCH   5   6
HETATM    6  N   UNL     1      -4.871   2.743 -31.800  1.00  0.00    -0.389 N 
HETATM    7  H   UNL     1      -4.082   2.103 -32.007  1.00  0.00     0.159 HD
HETATM    8  C   UNL     1      -4.750   3.970 -32.161  1.00  0.00     0.097 C 
BRANCH   8   9
HETATM    9  C   UNL     1      -3.580   4.492 -32.891  1.00  0.00     0.012 A 
HETATM   10  C   UNL     1      -2.285   4.483 -32.357  1.00  0.00     0.077 A 
HETATM   11  C   UNL     1      -1.213   4.981 -33.095  1.00  0.00     0.037 A 
HETATM   12  C   UNL     1      -1.438   5.495 -34.374  1.00  0.00     0.003 A 
HETATM   13  C   UNL     1      -2.726   5.509 -34.911  1.00  0.00     0.001 A 
HETATM   14  C   UNL     1      -3.800   5.007 -34.173  1.00  0.00     0.016 A 
BRANCH  10  15
HETATM   15  O   UNL     1      -2.075   3.977 -31.100  1.00  0.00    -0.360 OA
HETATM   16  H   UNL     1      -2.834   3.401 -30.871  1.00  0.00     0.217 HD
ENDBRANCH  10  15
ENDBRANCH   8   9
ENDBRANCH   5   6
ENDBRANCH   2   5
BRANCH   1  17
HETATM   17  C   UNL     1      -5.594  -0.843 -33.370  1.00  0.00     0.046 A 
HETATM   18  C   UNL     1      -4.607  -1.846 -33.259  1.00  0.00    -0.034 A 
HETATM   19  C   UNL     1      -4.754  -3.041 -33.997  1.00  0.00     0.015 A 
HETATM   20  C   UNL     1      -3.400  -1.782 -32.362  1.00  0.00     0.050 C 
HETATM   21  C   UNL     1      -5.874  -3.283 -34.792  1.00  0.00    -0.061 A 
HETATM   22  C   UNL     1      -6.042  -4.584 -35.521  1.00  0.00     0.048 C 
HETATM   23  C   UNL     1      -6.870  -2.312 -34.855  1.00  0.00     0.015 A 
HETATM   24  C   UNL     1      -6.746  -1.095 -34.162  1.00  0.00    -0.034 A 
HETATM   25  C   UNL     1      -7.867  -0.097 -34.319  1.00  0.00     0.050 C 
ENDBRANCH   1  17
TORSDOF 5
ENDMDL
MODEL 2
REMARK VINA RESULT:      -8.4      0.420      1.886
REMARK  5 active torsions:
REMARK  status: ('A' for Active; 'I' for Inactive)
REMARK    1  A    between atoms: C_6  and  N_7 
REMARK       I    between atoms: N_7  and  C_8 
REMARK    2  A    between atoms: C_8  and  C_9 
REMARK    3  A    between atoms: C_9  and  N_10 
REMARK    4  A    between atoms: C_12  and  C_13 
REMARK    5  A    between atoms: C_14  and  O_15 
ROOT
HETATM    1  N   UNL     1      -5.651   0.509 -32.285  1.00  0.00    -0.325 N 
HETATM    2  C   UNL     1      -5.988   0.737 -30.966  1.00  0.00     0.239 C 
HETATM    3  O   UNL     1      -6.379  -0.082 -30.139  1.00  0.00    -0.271 OA
HETATM    4  H   UNL     1      -4.992   1.159 -32.696  1.00  0.00     0.169 HD
ENDROOT
BRANCH   2   5
HETATM    5  C   UNL     1      -5.795   2.186 -30.549  1.00  0.00     0.222 C 
BRANCH   5   6
HETATM    6  N   UNL     1      -4.787   2.772 -31.456  1.00  0.00    -0.389 N 
HETATM    7  H   UNL     1      -3.993   2.147 -31.691  1.00  0.00     0.159 HD
HETATM    8  C   UNL     1      -4.756   3.969 -31.921  1.00  0.00     0.097 C 
BRANCH   8   9
HETATM    9  C   UNL     1      -3.688   4.473 -32.803  1.00  0.00     0.012 A 
HETATM   10  C   UNL     1      -2.339   4.498 -32.426  1.00  0.00     0.077 A 
HETATM   11  C   UNL     1      -1.368   4.977 -33.304  1.00  0.00     0.037 A 
HETATM   12  C   UNL     1      -1.749   5.437 -34.565  1.00  0.00     0.003 A 
HETATM   13  C   UNL     1      -3.092   5.417 -34.947  1.00  0.00     0.001 A 
HETATM   14  C   UNL     1      -4.064   4.934 -34.069  1.00  0.00     0.016 A 
BRANCH  10  15
HETATM   15  O   UNL     1      -1.975   4.045 -31.184  1.00  0.00    -0.360 OA
HETATM   16  H   UNL     1      -2.234   4.721 -30.523  1.00  0.00     0.217 HD
ENDBRANCH  10  15
ENDBRANCH   8   9
ENDBRANCH   5   6
ENDBRANCH   2   5
BRANCH   1  17
HETATM   17  C   UNL     1      -5.853  -0.673 -33.047  1.00  0.00     0.046 A 
HETATM   18  C   UNL     1      -7.071  -1.018 -33.671  1.00  0.00    -0.034 A 
HETATM   19  C   UNL     1      -7.148  -2.215 -34.417  1.00  0.00     0.015 A 
HETATM   20  C   UNL     1      -8.322  -0.180 -33.660  1.00  0.00     0.050 C 
HETATM   21  C   UNL     1      -6.040  -3.042 -34.599  1.00  0.00    -0.061 A 
HETATM   22  C   UNL     1      -6.125  -4.278 -35.446  1.00  0.00     0.048 C 
HETATM   23  C   UNL     1      -4.827  -2.668 -34.027  1.00  0.00     0.015 A 
HETATM   24  C   UNL     1      -4.717  -1.502 -33.250  1.00  0.00    -0.034 A 
HETATM   25  C   UNL     1      -3.367  -1.200 -32.648  1.00  0.00     0.050 C 
ENDBRANCH   1  17
TORSDOF 5
ENDMDL
MODEL 3
REMARK VINA RESULT:      -8.3      1.060      1.475
REMARK  5 active torsions:
REMARK  status: ('A' for Active; 'I' for Inactive)
REMARK    1  A    between atoms: C_6  and  N_7 
REMARK       I    between atoms: N_7  and  C_8 
REMARK    2  A    between atoms: C_8  and  C_9 
REMARK    3  A    between atoms: C_9  and  N_10 
REMARK    4  A    between atoms: C_12  and  C_13 
REMARK    5  A    between atoms: C_14  and  O_15 
ROOT
HETATM    1  N   UNL     1      -5.700   0.453 -32.725  1.00  0.00    -0.325 N 
HETATM    2  C   UNL     1      -6.196   0.736 -31.468  1.00  0.00     0.239 C 
HETATM    3  O   UNL     1      -6.588  -0.060 -30.619  1.00  0.00    -0.271 OA
HETATM    4  H   UNL     1      -5.069   1.140 -33.120  1.00  0.00     0.169 HD
ENDROOT
BRANCH   2   5
HETATM    5  C   UNL     1      -6.194   2.223 -31.153  1.00  0.00     0.222 C 
BRANCH   5   6
HETATM    6  N   UNL     1      -5.266   2.870 -32.102  1.00  0.00    -0.389 N 
HETATM    7  H   UNL     1      -5.150   2.377 -33.007  1.00  0.00     0.159 HD
HETATM    8  C   UNL     1      -4.554   3.922 -31.905  1.00  0.00     0.097 C 
BRANCH   8   9
HETATM    9  C   UNL     1      -3.632   4.481 -32.910  1.00  0.00     0.012 A 
HETATM   10  C   UNL     1      -4.058   4.920 -34.171  1.00  0.00     0.077 A 
HETATM   11  C   UNL     1      -3.144   5.450 -35.080  1.00  0.00     0.037 A 
HETATM   12  C   UNL     1      -1.796   5.538 -34.729  1.00  0.00     0.003 A 
HETATM   13  C   UNL     1      -1.364   5.100 -33.475  1.00  0.00     0.001 A 
HETATM   14  C   UNL     1      -2.280   4.572 -32.563  1.00  0.00     0.016 A 
BRANCH  10  15
HETATM   15  O   UNL     1      -5.384   4.829 -34.507  1.00  0.00    -0.360 OA
HETATM   16  H   UNL     1      -5.527   3.971 -34.959  1.00  0.00     0.217 HD
ENDBRANCH  10  15
ENDBRANCH   8   9
ENDBRANCH   5   6
ENDBRANCH   2   5
BRANCH   1  17
HETATM   17  C   UNL     1      -5.701  -0.794 -33.405  1.00  0.00     0.046 A 
HETATM   18  C   UNL     1      -4.697  -1.776 -33.265  1.00  0.00    -0.034 A 
HETATM   19  C   UNL     1      -4.813  -2.987 -33.983  1.00  0.00     0.015 A 
HETATM   20  C   UNL     1      -3.501  -1.674 -32.357  1.00  0.00     0.050 C 
HETATM   21  C   UNL     1      -5.919  -3.263 -34.786  1.00  0.00    -0.061 A 
HETATM   22  C   UNL     1      -6.054  -4.580 -35.493  1.00  0.00     0.048 C 
HETATM   23  C   UNL     1      -6.932  -2.314 -34.877  1.00  0.00     0.015 A 
HETATM   24  C   UNL     1      -6.839  -1.083 -34.204  1.00  0.00    -0.034 A 
HETATM   25  C   UNL     1      -7.977  -0.109 -34.390  1.00  0.00     0.050 C 
ENDBRANCH   1  17
TORSDOF 5
ENDMDL
MODEL 4
REMARK VINA RESULT:      -8.2      3.466      6.068
REMARK  5 active torsions:
REMARK  status: ('A' for Active; 'I' for Inactive)
REMARK    1  A    between atoms: C_6  and  N_7 
REMARK       I    between atoms: N_7  and  C_8 
REMARK    2  A    between atoms: C_8  and  C_9 
REMARK    3  A    between atoms: C_9  and  N_10 
REMARK    4  A    between atoms: C_12  and  C_13 
REMARK    5  A    between atoms: C_14  and  O_15 
ROOT
HETATM    1  N   UNL     1      -5.885   0.683 -32.998  1.00  0.00    -0.325 N 
HETATM    2  C   UNL     1      -6.777   1.037 -32.006  1.00  0.00     0.239 C 
HETATM    3  O   UNL     1      -7.083   0.391 -31.007  1.00  0.00    -0.271 OA
HETATM    4  H   UNL     1      -5.452   1.448 -33.502  1.00  0.00     0.169 HD
ENDROOT
BRANCH   2   5
HETATM    5  C   UNL     1      -7.385   2.412 -32.221  1.00  0.00     0.222 C 
BRANCH   5   6
HETATM    6  N   UNL     1      -8.797   2.211 -32.608  1.00  0.00    -0.389 N 
HETATM    7  H   UNL     1      -9.456   2.092 -31.816  1.00  0.00     0.159 HD
HETATM    8  C   UNL     1      -9.274   2.106 -33.796  1.00  0.00     0.097 C 
BRANCH   8   9
HETATM    9  C   UNL     1     -10.702   1.879 -34.083  1.00  0.00     0.012 A 
HETATM   10  C   UNL     1     -11.418   0.792 -33.564  1.00  0.00     0.077 A 
HETATM   11  C   UNL     1     -12.770   0.630 -33.861  1.00  0.00     0.037 A 
HETATM   12  C   UNL     1     -13.409   1.559 -34.684  1.00  0.00     0.003 A 
HETATM   13  C   UNL     1     -12.701   2.643 -35.207  1.00  0.00     0.001 A 
HETATM   14  C   UNL     1     -11.348   2.807 -34.907  1.00  0.00     0.016 A 
BRANCH  10  15
HETATM   15  O   UNL     1     -10.781  -0.115 -32.758  1.00  0.00    -0.360 OA
HETATM   16  H   UNL     1     -10.657   0.293 -31.875  1.00  0.00     0.217 HD
ENDBRANCH  10  15
ENDBRANCH   8   9
ENDBRANCH   5   6
ENDBRANCH   2   5
BRANCH   1  17
HETATM   17  C   UNL     1      -5.258  -0.575 -33.203  1.00  0.00     0.046 A 
HETATM   18  C   UNL     1      -4.168  -1.052 -32.444  1.00  0.00    -0.034 A 
HETATM   19  C   UNL     1      -3.636  -2.329 -32.730  1.00  0.00     0.015 A 
HETATM   20  C   UNL     1      -3.530  -0.330 -31.288  1.00  0.00     0.050 C 
HETATM   21  C   UNL     1      -4.190  -3.155 -33.707  1.00  0.00    -0.061 A 
HETATM   22  C   UNL     1      -3.649  -4.533 -33.956  1.00  0.00     0.048 C 
HETATM   23  C   UNL     1      -5.299  -2.701 -34.415  1.00  0.00     0.015 A 
HETATM   24  C   UNL     1      -5.838  -1.424 -34.183  1.00  0.00    -0.034 A 
HETATM   25  C   UNL     1      -7.022  -1.013 -35.023  1.00  0.00     0.050 C 
ENDBRANCH   1  17
TORSDOF 5
ENDMDL
MODEL 5
REMARK VINA RESULT:      -7.8      3.770      6.964
REMARK  5 active torsions:
REMARK  status: ('A' for Active; 'I' for Inactive)
REMARK    1  A    between atoms: C_6  and  N_7 
REMARK       I    between atoms: N_7  and  C_8 
REMARK    2  A    between atoms: C_8  and  C_9 
REMARK    3  A    between atoms: C_9  and  N_10 
REMARK    4  A    between atoms: C_12  and  C_13 
REMARK    5  A    between atoms: C_14  and  O_15 
ROOT
HETATM    1  N   UNL     1      -9.425   2.040 -34.169  1.00  0.00    -0.325 N 
HETATM    2  C   UNL     1      -8.703   2.736 -33.221  1.00  0.00     0.239 C 
HETATM    3  O   UNL     1      -9.098   3.155 -32.136  1.00  0.00    -0.271 OA
HETATM    4  H   UNL     1      -8.889   1.439 -34.784  1.00  0.00     0.169 HD
ENDROOT
BRANCH   2   5
HETATM    5  C   UNL     1      -7.251   2.942 -33.616  1.00  0.00     0.222 C 
BRANCH   5   6
HETATM    6  N   UNL     1      -6.701   1.616 -33.966  1.00  0.00    -0.389 N 
HETATM    7  H   UNL     1      -6.249   1.561 -34.898  1.00  0.00     0.159 HD
HETATM    8  C   UNL     1      -6.779   0.532 -33.281  1.00  0.00     0.097 C 
BRANCH   8   9
HETATM    9  C   UNL     1      -6.218  -0.756 -33.728  1.00  0.00     0.012 A 
HETATM   10  C   UNL     1      -4.851  -1.056 -33.654  1.00  0.00     0.077 A 
HETATM   11  C   UNL     1      -4.375  -2.294 -34.083  1.00  0.00     0.037 A 
HETATM   12  C   UNL     1      -5.271  -3.236 -34.592  1.00  0.00     0.003 A 
HETATM   13  C   UNL     1      -6.634  -2.943 -34.671  1.00  0.00     0.001 A 
HETATM   14  C   UNL     1      -7.111  -1.704 -34.238  1.00  0.00     0.016 A 
BRANCH  10  15
HETATM   15  O   UNL     1      -3.980  -0.124 -33.154  1.00  0.00    -0.360 OA
HETATM   16  H   UNL     1      -3.459  -0.543 -32.437  1.00  0.00     0.217 HD
ENDBRANCH  10  15
ENDBRANCH   8   9
ENDBRANCH   5   6
ENDBRANCH   2   5
BRANCH   1  17
HETATM   17  C   UNL     1     -10.826   1.809 -34.206  1.00  0.00     0.046 A 
HETATM   18  C   UNL     1     -11.749   2.629 -34.889  1.00  0.00    -0.034 A 
HETATM   19  C   UNL     1     -13.120   2.290 -34.866  1.00  0.00     0.015 A 
HETATM   20  C   UNL     1     -11.396   3.842 -35.707  1.00  0.00     0.050 C 
HETATM   21  C   UNL     1     -13.583   1.136 -34.233  1.00  0.00    -0.061 A 
HETATM   22  C   UNL     1     -15.035   0.760 -34.272  1.00  0.00     0.048 C 
HETATM   23  C   UNL     1     -12.660   0.303 -33.608  1.00  0.00     0.015 A 
HETATM   24  C   UNL     1     -11.292   0.622 -33.580  1.00  0.00    -0.034 A 
HETATM   25  C   UNL     1     -10.377  -0.332 -32.851  1.00  0.00     0.050 C 
ENDBRANCH   1  17
TORSDOF 5
ENDMDL
MODEL 6
REMARK VINA RESULT:      -7.5      1.727      2.790
REMARK  5 active torsions:
REMARK  status: ('A' for Active; 'I' for Inactive)
REMARK    1  A    between atoms: C_6  and  N_7 
REMARK       I    between atoms: N_7  and  C_8 
REMARK    2  A    between atoms: C_8  and  C_9 
REMARK    3  A    between atoms: C_9  and  N_10 
REMARK    4  A    between atoms: C_12  and  C_13 
REMARK    5  A    between atoms: C_14  and  O_15 
ROOT
HETATM    1  N   UNL     1      -5.946   0.805 -31.931  1.00  0.00    -0.325 N 
HETATM    2  C   UNL     1      -5.809   2.124 -32.313  1.00  0.00     0.239 C 
HETATM    3  O   UNL     1      -5.852   2.583 -33.451  1.00  0.00    -0.271 OA
HETATM    4  H   UNL     1      -6.284   0.647 -30.989  1.00  0.00     0.169 HD
ENDROOT
BRANCH   2   5
HETATM    5  C   UNL     1      -5.621   3.065 -31.135  1.00  0.00     0.222 C 
BRANCH   5   6
HETATM    6  N   UNL     1      -4.310   3.724 -31.306  1.00  0.00    -0.389 N 
HETATM    7  H   UNL     1      -3.534   3.092 -31.581  1.00  0.00     0.159 HD
HETATM    8  C   UNL     1      -4.022   4.957 -31.091  1.00  0.00     0.097 C 
BRANCH   8   9
HETATM    9  C   UNL     1      -2.671   5.520 -31.266  1.00  0.00     0.012 A 
HETATM   10  C   UNL     1      -1.785   5.077 -32.257  1.00  0.00     0.077 A 
HETATM   11  C   UNL     1      -0.521   5.652 -32.384  1.00  0.00     0.037 A 
HETATM   12  C   UNL     1      -0.140   6.673 -31.511  1.00  0.00     0.003 A 
HETATM   13  C   UNL     1      -1.017   7.118 -30.520  1.00  0.00     0.001 A 
HETATM   14  C   UNL     1      -2.284   6.545 -30.396  1.00  0.00     0.016 A 
BRANCH  10  15
HETATM   15  O   UNL     1      -2.169   4.073 -33.108  1.00  0.00    -0.360 OA
HETATM   16  H   UNL     1      -1.393   3.497 -33.272  1.00  0.00     0.217 HD
ENDBRANCH  10  15
ENDBRANCH   8   9
ENDBRANCH   5   6
ENDBRANCH   2   5
BRANCH   1  17
HETATM   17  C   UNL     1      -5.979  -0.348 -32.760  1.00  0.00     0.046 A 
HETATM   18  C   UNL     1      -7.136  -0.823 -33.415  1.00  0.00    -0.034 A 
HETATM   19  C   UNL     1      -7.043  -1.974 -34.228  1.00  0.00     0.015 A 
HETATM   20  C   UNL     1      -8.491  -0.171 -33.368  1.00  0.00     0.050 C 
HETATM   21  C   UNL     1      -5.829  -2.626 -34.447  1.00  0.00    -0.061 A 
HETATM   22  C   UNL     1      -5.740  -3.811 -35.362  1.00  0.00     0.048 C 
HETATM   23  C   UNL     1      -4.682  -2.120 -33.842  1.00  0.00     0.015 A 
HETATM   24  C   UNL     1      -4.738  -0.996 -32.999  1.00  0.00    -0.034 A 
HETATM   25  C   UNL     1      -3.444  -0.544 -32.369  1.00  0.00     0.050 C 
ENDBRANCH   1  17
TORSDOF 5
ENDMDL
MODEL 7
REMARK VINA RESULT:      -7.4      1.904      7.151
REMARK  5 active torsions:
REMARK  status: ('A' for Active; 'I' for Inactive)
REMARK    1  A    between atoms: C_6  and  N_7 
REMARK       I    between atoms: N_7  and  C_8 
REMARK    2  A    between atoms: C_8  and  C_9 
REMARK    3  A    between atoms: C_9  and  N_10 
REMARK    4  A    between atoms: C_12  and  C_13 
REMARK    5  A    between atoms: C_14  and  O_15 
ROOT
HETATM    1  N   UNL     1      -5.150   3.241 -33.519  1.00  0.00    -0.325 N 
HETATM    2  C   UNL     1      -6.403   3.809 -33.629  1.00  0.00     0.239 C 
HETATM    3  O   UNL     1      -6.694   5.001 -33.568  1.00  0.00    -0.271 OA
HETATM    4  H   UNL     1      -5.025   2.346 -33.979  1.00  0.00     0.169 HD
ENDROOT
BRANCH   2   5
HETATM    5  C   UNL     1      -7.495   2.786 -33.890  1.00  0.00     0.222 C 
BRANCH   5   6
HETATM    6  N   UNL     1      -6.833   1.483 -34.105  1.00  0.00    -0.389 N 
HETATM    7  H   UNL     1      -5.982   1.517 -34.696  1.00  0.00     0.159 HD
HETATM    8  C   UNL     1      -7.229   0.330 -33.700  1.00  0.00     0.097 C 
BRANCH   8   9
HETATM    9  C   UNL     1      -6.510  -0.925 -33.988  1.00  0.00     0.012 A 
HETATM   10  C   UNL     1      -5.128  -1.068 -33.806  1.00  0.00     0.077 A 
HETATM   11  C   UNL     1      -4.501  -2.281 -34.085  1.00  0.00     0.037 A 
HETATM   12  C   UNL     1      -5.259  -3.355 -34.554  1.00  0.00     0.003 A 
HETATM   13  C   UNL     1      -6.636  -3.219 -34.740  1.00  0.00     0.001 A 
HETATM   14  C   UNL     1      -7.265  -2.005 -34.457  1.00  0.00     0.016 A 
BRANCH  10  15
HETATM   15  O   UNL     1      -4.393  -0.006 -33.347  1.00  0.00    -0.360 OA
HETATM   16  H   UNL     1      -3.461  -0.296 -33.252  1.00  0.00     0.217 HD
ENDBRANCH  10  15
ENDBRANCH   8   9
ENDBRANCH   5   6
ENDBRANCH   2   5
BRANCH   1  17
HETATM   17  C   UNL     1      -3.937   3.866 -33.125  1.00  0.00     0.046 A 
HETATM   18  C   UNL     1      -3.237   4.807 -33.909  1.00  0.00    -0.034 A 
HETATM   19  C   UNL     1      -2.046   5.374 -33.404  1.00  0.00     0.015 A 
HETATM   20  C   UNL     1      -3.679   5.319 -35.253  1.00  0.00     0.050 C 
HETATM   21  C   UNL     1      -1.568   5.071 -32.129  1.00  0.00    -0.061 A 
HETATM   22  C   UNL     1      -0.334   5.730 -31.587  1.00  0.00     0.048 C 
HETATM   23  C   UNL     1      -2.293   4.183 -31.339  1.00  0.00     0.015 A 
HETATM   24  C   UNL     1      -3.465   3.572 -31.818  1.00  0.00    -0.034 A 
HETATM   25  C   UNL     1      -4.161   2.602 -30.895  1.00  0.00     0.050 C 
ENDBRANCH   1  17
TORSDOF 5
ENDMDL
MODEL 8
REMARK VINA RESULT:      -7.4      3.638      9.003
REMARK  5 active torsions:
REMARK  status: ('A' for Active; 'I' for Inactive)
REMARK    1  A    between atoms: C_6  and  N_7 
REMARK       I    between atoms: N_7  and  C_8 
REMARK    2  A    between atoms: C_8  and  C_9 
REMARK    3  A    between atoms: C_9  and  N_10 
REMARK    4  A    between atoms: C_12  and  C_13 
REMARK    5  A    between atoms: C_14  and  O_15 
ROOT
HETATM    1  N   UNL     1      -1.961   6.518 -31.819  1.00  0.00    -0.325 N 
HETATM    2  C   UNL     1      -2.059   6.965 -33.121  1.00  0.00     0.239 C 
HETATM    3  O   UNL     1      -1.407   7.856 -33.659  1.00  0.00    -0.271 OA
HETATM    4  H   UNL     1      -2.250   5.561 -31.654  1.00  0.00     0.169 HD
ENDROOT
BRANCH   2   5
HETATM    5  C   UNL     1      -3.086   6.197 -33.935  1.00  0.00     0.222 C 
BRANCH   5   6
HETATM    6  N   UNL     1      -3.201   4.851 -33.337  1.00  0.00    -0.389 N 
HETATM    7  H   UNL     1      -2.298   4.382 -33.137  1.00  0.00     0.159 HD
HETATM    8  C   UNL     1      -4.277   4.188 -33.105  1.00  0.00     0.097 C 
BRANCH   8   9
HETATM    9  C   UNL     1      -4.289   2.832 -32.526  1.00  0.00     0.012 A 
HETATM   10  C   UNL     1      -3.344   2.398 -31.587  1.00  0.00     0.077 A 
HETATM   11  C   UNL     1      -3.408   1.107 -31.065  1.00  0.00     0.037 A 
HETATM   12  C   UNL     1      -4.421   0.245 -31.488  1.00  0.00     0.003 A 
HETATM   13  C   UNL     1      -5.364   0.670 -32.425  1.00  0.00     0.001 A 
HETATM   14  C   UNL     1      -5.303   1.964 -32.945  1.00  0.00     0.016 A 
BRANCH  10  15
HETATM   15  O   UNL     1      -2.353   3.253 -31.180  1.00  0.00    -0.360 OA
HETATM   16  H   UNL     1      -2.472   4.106 -31.649  1.00  0.00     0.217 HD
ENDBRANCH  10  15
ENDBRANCH   8   9
ENDBRANCH   5   6
ENDBRANCH   2   5
BRANCH   1  17
HETATM   17  C   UNL     1      -1.231   7.097 -30.747  1.00  0.00     0.046 A 
HETATM   18  C   UNL     1      -1.693   8.175 -29.961  1.00  0.00    -0.034 A 
HETATM   19  C   UNL     1      -0.882   8.658 -28.911  1.00  0.00     0.015 A 
HETATM   20  C   UNL     1      -3.032   8.846 -30.108  1.00  0.00     0.050 C 
HETATM   21  C   UNL     1       0.340   8.067 -28.592  1.00  0.00    -0.061 A 
HETATM   22  C   UNL     1       1.159   8.556 -27.433  1.00  0.00     0.048 C 
HETATM   23  C   UNL     1       0.765   6.971 -29.336  1.00  0.00     0.015 A 
HETATM   24  C   UNL     1       0.003   6.480 -30.411  1.00  0.00    -0.034 A 
HETATM   25  C   UNL     1       0.565   5.305 -31.173  1.00  0.00     0.050 C 
ENDBRANCH   1  17
TORSDOF 5
ENDMDL
MODEL 9
REMARK VINA RESULT:      -7.4      3.882      6.805
REMARK  5 active torsions:
REMARK  status: ('A' for Active; 'I' for Inactive)
REMARK    1  A    between atoms: C_6  and  N_7 
REMARK       I    between atoms: N_7  and  C_8 
REMARK    2  A    between atoms: C_8  and  C_9 
REMARK    3  A    between atoms: C_9  and  N_10 
REMARK    4  A    between atoms: C_12  and  C_13 
REMARK    5  A    between atoms: C_14  and  O_15 
ROOT
HETATM    1  N   UNL     1      -9.451   1.961 -34.180  1.00  0.00    -0.325 N 
HETATM    2  C   UNL     1      -8.850   2.930 -33.403  1.00  0.00     0.239 C 
HETATM    3  O   UNL     1      -9.344   3.554 -32.467  1.00  0.00    -0.271 OA
HETATM    4  H   UNL     1      -8.830   1.287 -34.611  1.00  0.00     0.169 HD
ENDROOT
BRANCH   2   5
HETATM    5  C   UNL     1      -7.400   3.178 -33.782  1.00  0.00     0.222 C 
BRANCH   5   6
HETATM    6  N   UNL     1      -6.794   1.863 -34.078  1.00  0.00    -0.389 N 
HETATM    7  H   UNL     1      -6.856   1.566 -35.070  1.00  0.00     0.159 HD
HETATM    8  C   UNL     1      -6.269   1.040 -33.244  1.00  0.00     0.097 C 
BRANCH   8   9
HETATM    9  C   UNL     1      -5.710  -0.268 -33.632  1.00  0.00     0.012 A 
HETATM   10  C   UNL     1      -6.334  -1.117 -34.557  1.00  0.00     0.077 A 
HETATM   11  C   UNL     1      -5.756  -2.339 -34.895  1.00  0.00     0.037 A 
HETATM   12  C   UNL     1      -4.550  -2.717 -34.302  1.00  0.00     0.003 A 
HETATM   13  C   UNL     1      -3.924  -1.877 -33.379  1.00  0.00     0.001 A 
HETATM   14  C   UNL     1      -4.501  -0.651 -33.042  1.00  0.00     0.016 A 
BRANCH  10  15
HETATM   15  O   UNL     1      -7.519  -0.737 -35.132  1.00  0.00    -0.360 OA
HETATM   16  H   UNL     1      -7.421  -0.797 -36.105  1.00  0.00     0.217 HD
ENDBRANCH  10  15
ENDBRANCH   8   9
ENDBRANCH   5   6
ENDBRANCH   2   5
BRANCH   1  17
HETATM   17  C   UNL     1     -10.822   1.590 -34.212  1.00  0.00     0.046 A 
HETATM   18  C   UNL     1     -11.354   0.458 -33.558  1.00  0.00    -0.034 A 
HETATM   19  C   UNL     1     -12.739   0.199 -33.649  1.00  0.00     0.015 A 
HETATM   20  C   UNL     1     -10.570  -0.501 -32.704  1.00  0.00     0.050 C 
HETATM   21  C   UNL     1     -13.607   1.058 -34.322  1.00  0.00    -0.061 A 
HETATM   22  C   UNL     1     -15.085   0.797 -34.356  1.00  0.00     0.048 C 
HETATM   23  C   UNL     1     -13.084   2.202 -34.919  1.00  0.00     0.015 A 
HETATM   24  C   UNL     1     -11.707   2.479 -34.879  1.00  0.00    -0.034 A 
HETATM   25  C   UNL     1     -11.236   3.729 -35.581  1.00  0.00     0.050 C 
ENDBRANCH   1  17
TORSDOF 5
ENDMDL
MODEL 10
REMARK VINA RESULT:      -7.2      2.875      4.662
REMARK  5 active torsions:
REMARK  status: ('A' for Active; 'I' for Inactive)
REMARK    1  A    between atoms: C_6  and  N_7 
REMARK       I    between atoms: N_7  and  C_8 
REMARK    2  A    between atoms: C_8  and  C_9 
REMARK    3  A    between atoms: C_9  and  N_10 
REMARK    4  A    between atoms: C_12  and  C_13 
REMARK    5  A    between atoms: C_14  and  O_15 
ROOT
HETATM    1  N   UNL     1      -5.237   0.465 -32.879  1.00  0.00    -0.325 N 
HETATM    2  C   UNL     1      -5.707   0.859 -31.642  1.00  0.00     0.239 C 
HETATM    3  O   UNL     1      -6.218   0.156 -30.775  1.00  0.00    -0.271 OA
HETATM    4  H   UNL     1      -4.511   1.044 -33.285  1.00  0.00     0.169 HD
ENDROOT
BRANCH   2   5
HETATM    5  C   UNL     1      -5.504   2.341 -31.378  1.00  0.00     0.222 C 
BRANCH   5   6
HETATM    6  N   UNL     1      -6.841   2.938 -31.179  1.00  0.00    -0.389 N 
HETATM    7  H   UNL     1      -7.238   2.817 -30.228  1.00  0.00     0.159 HD
HETATM    8  C   UNL     1      -7.575   3.521 -32.058  1.00  0.00     0.097 C 
BRANCH   8   9
HETATM    9  C   UNL     1      -8.914   4.065 -31.769  1.00  0.00     0.012 A 
HETATM   10  C   UNL     1      -9.840   3.409 -30.945  1.00  0.00     0.077 A 
HETATM   11  C   UNL     1     -11.090   3.974 -30.699  1.00  0.00     0.037 A 
HETATM   12  C   UNL     1     -11.418   5.199 -31.282  1.00  0.00     0.003 A 
HETATM   13  C   UNL     1     -10.502   5.856 -32.105  1.00  0.00     0.001 A 
HETATM   14  C   UNL     1      -9.248   5.293 -32.350  1.00  0.00     0.016 A 
BRANCH  10  15
HETATM   15  O   UNL     1      -9.507   2.206 -30.379  1.00  0.00    -0.360 OA
HETATM   16  H   UNL     1      -8.888   2.376 -29.638  1.00  0.00     0.217 HD
ENDBRANCH  10  15
ENDBRANCH   8   9
ENDBRANCH   5   6
ENDBRANCH   2   5
BRANCH   1  17
HETATM   17  C   UNL     1      -5.401  -0.794 -33.516  1.00  0.00     0.046 A 
HETATM   18  C   UNL     1      -4.563  -1.909 -33.300  1.00  0.00    -0.034 A 
HETATM   19  C   UNL     1      -4.834  -3.116 -33.982  1.00  0.00     0.015 A 
HETATM   20  C   UNL     1      -3.402  -1.951 -32.343  1.00  0.00     0.050 C 
HETATM   21  C   UNL     1      -5.937  -3.255 -34.823  1.00  0.00    -0.061 A 
HETATM   22  C   UNL     1      -6.243  -4.564 -35.491  1.00  0.00     0.048 C 
HETATM   23  C   UNL     1      -6.791  -2.168 -34.990  1.00  0.00     0.015 A 
HETATM   24  C   UNL     1      -6.538  -0.940 -34.355  1.00  0.00    -0.034 A 
HETATM   25  C   UNL     1      -7.507   0.186 -34.624  1.00  0.00     0.050 C 
ENDBRANCH   1  17
TORSDOF 5
ENDMDL
