MODEL 1
REMARK VINA RESULT:      -7.9      0.000      0.000
REMARK  8 active torsions:
REMARK  status: ('A' for Active; 'I' for Inactive)
REMARK    1  A    between atoms: C_2  and  C_3 
REMARK    2  A    between atoms: C_3  and  O_4 
REMARK    3  A    between atoms: O_4  and  C_5 
REMARK    4  A    between atoms: C_6  and  O_7 
REMARK    5  A    between atoms: C_10  and  C_11 
REMARK    6  A    between atoms: C_11  and  N_12 
REMARK    7  A    between atoms: N_12  and  C_13 
REMARK    8  A    between atoms: C_20  and  C_21 
REMARK       I    between atoms: C_21  and  N_22 
ROOT
HETATM    1  C   UNL     1      -9.316   2.967 -33.757  1.00  0.00     0.009 A 
HETATM    2  C   UNL     1     -10.227   1.915 -33.546  1.00  0.00     0.039 A 
HETATM    3  C   UNL     1     -11.510   1.949 -34.131  1.00  0.00     0.030 A 
HETATM    4  C   UNL     1     -11.869   3.056 -34.886  1.00  0.00     0.063 A 
HETATM    5  N   UNL     1     -13.147   2.813 -35.302  1.00  0.00    -0.277 N 
HETATM    6  H   UNL     1     -13.731   3.414 -35.872  1.00  0.00     0.189 HD
HETATM    7  N   UNL     1     -13.654   1.638 -34.889  1.00  0.00    -0.168 NA
HETATM    8  C   UNL     1     -12.652   1.095 -34.160  1.00  0.00     0.156 A 
HETATM    9  C   UNL     1     -11.016   4.141 -35.090  1.00  0.00     0.034 A 
HETATM   10  C   UNL     1      -9.744   4.075 -34.500  1.00  0.00     0.026 A 
ENDROOT
BRANCH   1  11
HETATM   11  N   UNL     1      -8.085   2.917 -33.092  1.00  0.00    -0.289 NA
HETATM   12  H   UNL     1      -8.101   2.271 -32.306  1.00  0.00     0.128 HD
BRANCH  11  13
HETATM   13  C   UNL     1      -6.852   2.825 -33.860  1.00  0.00     0.131 C 
BRANCH  13  14
HETATM   14  C   UNL     1      -6.425   1.378 -33.951  1.00  0.00    -0.042 A 
HETATM   15  C   UNL     1      -5.470   0.848 -33.071  1.00  0.00     0.048 A 
HETATM   16  C   UNL     1      -5.093  -0.499 -33.153  1.00  0.00     0.102 A 
HETATM   17  C   UNL     1      -5.693  -1.340 -34.108  1.00  0.00     0.102 A 
HETATM   18  C   UNL     1      -6.625  -0.807 -35.001  1.00  0.00     0.040 A 
HETATM   19  C   UNL     1      -6.985   0.541 -34.925  1.00  0.00     0.011 A 
BRANCH  16  20
HETATM   20  O   UNL     1      -4.185  -1.082 -32.302  1.00  0.00    -0.353 OA
HETATM   21  C   UNL     1      -3.570  -0.217 -31.356  1.00  0.00     0.210 C 
ENDBRANCH  16  20
BRANCH  17  22
HETATM   22  O   UNL     1      -5.284  -2.651 -34.102  1.00  0.00    -0.348 OA
BRANCH  22  23
HETATM   23  C   UNL     1      -6.029  -3.577 -34.890  1.00  0.00     0.175 C 
BRANCH  23  24
HETATM   24  C   UNL     1      -5.373  -4.948 -34.743  1.00  0.00     0.022 C 
HETATM   25  C   UNL     1      -4.093  -4.876 -33.929  1.00  0.00     0.007 C 
ENDBRANCH  23  24
ENDBRANCH  22  23
ENDBRANCH  17  22
ENDBRANCH  13  14
ENDBRANCH  11  13
ENDBRANCH   1  11
BRANCH   8  26
HETATM   26  C   UNL     1     -12.801  -0.218 -33.517  1.00  0.00     0.270 C 
HETATM   27  N   UNL     1     -14.093  -0.665 -33.451  1.00  0.00    -0.365 N 
HETATM   28  H   UNL     1     -14.827  -0.083 -33.836  1.00  0.00     0.159 HD
HETATM   29  H   UNL     1     -14.294  -1.557 -33.028  1.00  0.00     0.159 HD
HETATM   30  O   UNL     1     -11.873  -0.884 -33.069  1.00  0.00    -0.266 OA
ENDBRANCH   8  26
TORSDOF 8
ENDMDL
MODEL 2
REMARK VINA RESULT:      -7.7      4.323      7.813
REMARK  8 active torsions:
REMARK  status: ('A' for Active; 'I' for Inactive)
REMARK    1  A    between atoms: C_2  and  C_3 
REMARK    2  A    between atoms: C_3  and  O_4 
REMARK    3  A    between atoms: O_4  and  C_5 
REMARK    4  A    between atoms: C_6  and  O_7 
REMARK    5  A    between atoms: C_10  and  C_11 
REMARK    6  A    between atoms: C_11  and  N_12 
REMARK    7  A    between atoms: N_12  and  C_13 
REMARK    8  A    between atoms: C_20  and  C_21 
REMARK       I    between atoms: C_21  and  N_22 
ROOT
HETATM    1  C   UNL     1      -6.635   0.301 -32.817  1.00  0.00     0.009 A 
HETATM    2  C   UNL     1      -5.574  -0.515 -32.382  1.00  0.00     0.039 A 
HETATM    3  C   UNL     1      -5.095  -1.563 -33.195  1.00  0.00     0.030 A 
HETATM    4  C   UNL     1      -5.715  -1.797 -34.414  1.00  0.00     0.063 A 
HETATM    5  N   UNL     1      -5.054  -2.860 -34.959  1.00  0.00    -0.277 N 
HETATM    6  H   UNL     1      -5.243  -3.309 -35.848  1.00  0.00     0.189 HD
HETATM    7  N   UNL     1      -4.051  -3.340 -34.204  1.00  0.00    -0.168 NA
HETATM    8  C   UNL     1      -4.067  -2.548 -33.108  1.00  0.00     0.156 A 
HETATM    9  C   UNL     1      -6.795  -1.041 -34.871  1.00  0.00     0.034 A 
HETATM   10  C   UNL     1      -7.245  -0.001 -34.041  1.00  0.00     0.026 A 
ENDROOT
BRANCH   1  11
HETATM   11  N   UNL     1      -7.119   1.278 -31.938  1.00  0.00    -0.289 NA
HETATM   12  H   UNL     1      -6.851   1.092 -30.974  1.00  0.00     0.128 HD
BRANCH  11  13
HETATM   13  C   UNL     1      -6.998   2.686 -32.284  1.00  0.00     0.131 C 
BRANCH  13  14
HETATM   14  C   UNL     1      -5.542   3.091 -32.233  1.00  0.00    -0.042 A 
HETATM   15  C   UNL     1      -4.986   3.917 -33.222  1.00  0.00     0.048 A 
HETATM   16  C   UNL     1      -3.640   4.300 -33.157  1.00  0.00     0.102 A 
HETATM   17  C   UNL     1      -2.840   3.879 -32.078  1.00  0.00     0.102 A 
HETATM   18  C   UNL     1      -3.387   3.037 -31.107  1.00  0.00     0.040 A 
HETATM   19  C   UNL     1      -4.725   2.644 -31.186  1.00  0.00     0.011 A 
BRANCH  16  20
HETATM   20  O   UNL     1      -3.046   5.129 -34.078  1.00  0.00    -0.353 OA
HETATM   21  C   UNL     1      -3.718   5.264 -35.323  1.00  0.00     0.210 C 
ENDBRANCH  16  20
BRANCH  17  22
HETATM   22  O   UNL     1      -1.540   4.323 -32.080  1.00  0.00    -0.348 OA
BRANCH  22  23
HETATM   23  C   UNL     1      -1.181   5.313 -31.118  1.00  0.00     0.175 C 
BRANCH  23  24
HETATM   24  C   UNL     1       0.312   5.166 -30.833  1.00  0.00     0.022 C 
HETATM   25  C   UNL     1       0.620   5.308 -29.354  1.00  0.00     0.007 C 
ENDBRANCH  23  24
ENDBRANCH  22  23
ENDBRANCH  17  22
ENDBRANCH  13  14
ENDBRANCH  11  13
ENDBRANCH   1  11
BRANCH   8  26
HETATM   26  C   UNL     1      -3.108  -2.741 -32.011  1.00  0.00     0.270 C 
HETATM   27  N   UNL     1      -2.438  -1.605 -31.648  1.00  0.00    -0.365 N 
HETATM   28  H   UNL     1      -2.642  -0.744 -32.141  1.00  0.00     0.159 HD
HETATM   29  H   UNL     1      -1.761  -1.638 -30.903  1.00  0.00     0.159 HD
HETATM   30  O   UNL     1      -2.903  -3.810 -31.444  1.00  0.00    -0.266 OA
ENDBRANCH   8  26
TORSDOF 8
ENDMDL
MODEL 3
REMARK VINA RESULT:      -7.7      3.984      7.207
REMARK  8 active torsions:
REMARK  status: ('A' for Active; 'I' for Inactive)
REMARK    1  A    between atoms: C_2  and  C_3 
REMARK    2  A    between atoms: C_3  and  O_4 
REMARK    3  A    between atoms: O_4  and  C_5 
REMARK    4  A    between atoms: C_6  and  O_7 
REMARK    5  A    between atoms: C_10  and  C_11 
REMARK    6  A    between atoms: C_11  and  N_12 
REMARK    7  A    between atoms: N_12  and  C_13 
REMARK    8  A    between atoms: C_20  and  C_21 
REMARK       I    between atoms: C_21  and  N_22 
ROOT
HETATM    1  C   UNL     1      -5.117   4.175 -33.119  1.00  0.00     0.009 A 
HETATM    2  C   UNL     1      -3.983   4.385 -32.314  1.00  0.00     0.039 A 
HETATM    3  C   UNL     1      -2.857   5.066 -32.823  1.00  0.00     0.030 A 
HETATM    4  C   UNL     1      -2.877   5.490 -34.144  1.00  0.00     0.063 A 
HETATM    5  N   UNL     1      -1.669   6.093 -34.349  1.00  0.00    -0.277 N 
HETATM    6  H   UNL     1      -1.333   6.517 -35.207  1.00  0.00     0.189 HD
HETATM    7  N   UNL     1      -0.862   6.105 -33.274  1.00  0.00    -0.168 NA
HETATM    8  C   UNL     1      -1.584   5.470 -32.323  1.00  0.00     0.156 A 
HETATM    9  C   UNL     1      -3.962   5.271 -34.993  1.00  0.00     0.034 A 
HETATM   10  C   UNL     1      -5.069   4.596 -34.455  1.00  0.00     0.026 A 
ENDROOT
BRANCH   1  11
HETATM   11  N   UNL     1      -6.175   3.429 -32.587  1.00  0.00    -0.289 NA
HETATM   12  H   UNL     1      -6.664   3.930 -31.848  1.00  0.00     0.128 HD
BRANCH  11  13
HETATM   13  C   UNL     1      -7.089   2.730 -33.479  1.00  0.00     0.131 C 
BRANCH  13  14
HETATM   14  C   UNL     1      -6.608   1.311 -33.676  1.00  0.00    -0.042 A 
HETATM   15  C   UNL     1      -5.759   0.698 -32.743  1.00  0.00     0.048 A 
HETATM   16  C   UNL     1      -5.332  -0.624 -32.927  1.00  0.00     0.102 A 
HETATM   17  C   UNL     1      -5.777  -1.359 -34.042  1.00  0.00     0.102 A 
HETATM   18  C   UNL     1      -6.602  -0.740 -34.984  1.00  0.00     0.040 A 
HETATM   19  C   UNL     1      -7.011   0.584 -34.804  1.00  0.00     0.011 A 
BRANCH  16  20
HETATM   20  O   UNL     1      -4.524  -1.287 -32.034  1.00  0.00    -0.353 OA
HETATM   21  C   UNL     1      -3.450  -0.536 -31.485  1.00  0.00     0.210 C 
ENDBRANCH  16  20
BRANCH  17  22
HETATM   22  O   UNL     1      -5.331  -2.654 -34.130  1.00  0.00    -0.348 OA
BRANCH  22  23
HETATM   23  C   UNL     1      -6.076  -3.553 -34.949  1.00  0.00     0.175 C 
BRANCH  23  24
HETATM   24  C   UNL     1      -5.479  -4.947 -34.774  1.00  0.00     0.022 C 
HETATM   25  C   UNL     1      -4.180  -4.910 -33.989  1.00  0.00     0.007 C 
ENDBRANCH  23  24
ENDBRANCH  22  23
ENDBRANCH  17  22
ENDBRANCH  13  14
ENDBRANCH  11  13
ENDBRANCH   1  11
BRANCH   8  26
HETATM   26  C   UNL     1      -1.052   5.266 -30.969  1.00  0.00     0.270 C 
HETATM   27  N   UNL     1      -1.689   5.996 -30.002  1.00  0.00    -0.365 N 
HETATM   28  H   UNL     1      -2.453   6.602 -30.278  1.00  0.00     0.159 HD
HETATM   29  H   UNL     1      -1.396   5.921 -29.042  1.00  0.00     0.159 HD
HETATM   30  O   UNL     1      -0.124   4.514 -30.690  1.00  0.00    -0.266 OA
ENDBRANCH   8  26
TORSDOF 8
ENDMDL
MODEL 4
REMARK VINA RESULT:      -7.7      5.357      8.125
REMARK  8 active torsions:
REMARK  status: ('A' for Active; 'I' for Inactive)
REMARK    1  A    between atoms: C_2  and  C_3 
REMARK    2  A    between atoms: C_3  and  O_4 
REMARK    3  A    between atoms: O_4  and  C_5 
REMARK    4  A    between atoms: C_6  and  O_7 
REMARK    5  A    between atoms: C_10  and  C_11 
REMARK    6  A    between atoms: C_11  and  N_12 
REMARK    7  A    between atoms: N_12  and  C_13 
REMARK    8  A    between atoms: C_20  and  C_21 
REMARK       I    between atoms: C_21  and  N_22 
ROOT
HETATM    1  C   UNL     1      -2.739   3.869 -31.999  1.00  0.00     0.009 A 
HETATM    2  C   UNL     1      -2.483   5.071 -31.313  1.00  0.00     0.039 A 
HETATM    3  C   UNL     1      -2.196   6.256 -32.022  1.00  0.00     0.030 A 
HETATM    4  C   UNL     1      -2.135   6.204 -33.407  1.00  0.00     0.063 A 
HETATM    5  N   UNL     1      -1.832   7.475 -33.805  1.00  0.00    -0.277 N 
HETATM    6  H   UNL     1      -1.703   7.807 -34.754  1.00  0.00     0.189 HD
HETATM    7  N   UNL     1      -1.696   8.356 -32.798  1.00  0.00    -0.168 NA
HETATM    8  C   UNL     1      -1.916   7.614 -31.689  1.00  0.00     0.156 A 
HETATM    9  C   UNL     1      -2.342   5.029 -34.131  1.00  0.00     0.034 A 
HETATM   10  C   UNL     1      -2.631   3.868 -33.396  1.00  0.00     0.026 A 
ENDROOT
BRANCH   1  11
HETATM   11  N   UNL     1      -2.944   2.709 -31.244  1.00  0.00    -0.289 NA
HETATM   12  H   UNL     1      -2.368   2.691 -30.405  1.00  0.00     0.128 HD
BRANCH  11  13
HETATM   13  C   UNL     1      -4.298   2.237 -30.995  1.00  0.00     0.131 C 
BRANCH  13  14
HETATM   14  C   UNL     1      -4.644   1.156 -31.993  1.00  0.00    -0.042 A 
HETATM   15  C   UNL     1      -3.869  -0.009 -32.095  1.00  0.00     0.048 A 
HETATM   16  C   UNL     1      -4.206  -1.013 -33.012  1.00  0.00     0.102 A 
HETATM   17  C   UNL     1      -5.347  -0.870 -33.824  1.00  0.00     0.102 A 
HETATM   18  C   UNL     1      -6.104   0.301 -33.740  1.00  0.00     0.040 A 
HETATM   19  C   UNL     1      -5.753   1.306 -32.835  1.00  0.00     0.011 A 
BRANCH  16  20
HETATM   20  O   UNL     1      -3.504  -2.187 -33.138  1.00  0.00    -0.353 OA
HETATM   21  C   UNL     1      -3.185  -2.858 -31.927  1.00  0.00     0.210 C 
ENDBRANCH  16  20
BRANCH  17  22
HETATM   22  O   UNL     1      -5.619  -1.912 -34.675  1.00  0.00    -0.348 OA
BRANCH  22  23
HETATM   23  C   UNL     1      -6.796  -2.678 -34.424  1.00  0.00     0.175 C 
BRANCH  23  24
HETATM   24  C   UNL     1      -6.629  -4.028 -35.116  1.00  0.00     0.022 C 
HETATM   25  C   UNL     1      -5.402  -4.770 -34.619  1.00  0.00     0.007 C 
ENDBRANCH  23  24
ENDBRANCH  22  23
ENDBRANCH  17  22
ENDBRANCH  13  14
ENDBRANCH  11  13
ENDBRANCH   1  11
BRANCH   8  26
HETATM   26  C   UNL     1      -1.858   8.210 -30.347  1.00  0.00     0.270 C 
HETATM   27  N   UNL     1      -0.851   7.719 -29.561  1.00  0.00    -0.365 N 
HETATM   28  H   UNL     1      -0.239   7.009 -29.945  1.00  0.00     0.159 HD
HETATM   29  H   UNL     1      -0.731   8.068 -28.624  1.00  0.00     0.159 HD
HETATM   30  O   UNL     1      -2.626   9.073 -29.934  1.00  0.00    -0.266 OA
ENDBRANCH   8  26
TORSDOF 8
ENDMDL
MODEL 5
REMARK VINA RESULT:      -7.6      4.229      7.632
REMARK  8 active torsions:
REMARK  status: ('A' for Active; 'I' for Inactive)
REMARK    1  A    between atoms: C_2  and  C_3 
REMARK    2  A    between atoms: C_3  and  O_4 
REMARK    3  A    between atoms: O_4  and  C_5 
REMARK    4  A    between atoms: C_6  and  O_7 
REMARK    5  A    between atoms: C_10  and  C_11 
REMARK    6  A    between atoms: C_11  and  N_12 
REMARK    7  A    between atoms: N_12  and  C_13 
REMARK    8  A    between atoms: C_20  and  C_21 
REMARK       I    between atoms: C_21  and  N_22 
ROOT
HETATM    1  C   UNL     1      -4.741   3.938 -32.333  1.00  0.00     0.009 A 
HETATM    2  C   UNL     1      -3.446   4.394 -32.027  1.00  0.00     0.039 A 
HETATM    3  C   UNL     1      -2.720   5.170 -32.956  1.00  0.00     0.030 A 
HETATM    4  C   UNL     1      -3.294   5.441 -34.189  1.00  0.00     0.063 A 
HETATM    5  N   UNL     1      -2.369   6.185 -34.864  1.00  0.00    -0.277 N 
HETATM    6  H   UNL     1      -2.448   6.557 -35.804  1.00  0.00     0.189 HD
HETATM    7  N   UNL     1      -1.240   6.429 -34.176  1.00  0.00    -0.168 NA
HETATM    8  C   UNL     1      -1.443   5.804 -32.994  1.00  0.00     0.156 A 
HETATM    9  C   UNL     1      -4.559   4.978 -34.553  1.00  0.00     0.034 A 
HETATM   10  C   UNL     1      -5.258   4.214 -33.606  1.00  0.00     0.026 A 
ENDROOT
BRANCH   1  11
HETATM   11  N   UNL     1      -5.385   3.111 -31.405  1.00  0.00    -0.289 NA
HETATM   12  H   UNL     1      -6.331   2.874 -31.695  1.00  0.00     0.128 HD
BRANCH  11  13
HETATM   13  C   UNL     1      -4.679   1.970 -30.841  1.00  0.00     0.131 C 
BRANCH  13  14
HETATM   14  C   UNL     1      -4.783   0.797 -31.789  1.00  0.00    -0.042 A 
HETATM   15  C   UNL     1      -6.023   0.392 -32.304  1.00  0.00     0.048 A 
HETATM   16  C   UNL     1      -6.107  -0.687 -33.195  1.00  0.00     0.102 A 
HETATM   17  C   UNL     1      -4.938  -1.358 -33.601  1.00  0.00     0.102 A 
HETATM   18  C   UNL     1      -3.706  -0.970 -33.067  1.00  0.00     0.040 A 
HETATM   19  C   UNL     1      -3.630   0.096 -32.167  1.00  0.00     0.011 A 
BRANCH  16  20
HETATM   20  O   UNL     1      -7.287  -1.112 -33.755  1.00  0.00    -0.353 OA
HETATM   21  C   UNL     1      -8.435  -0.324 -33.471  1.00  0.00     0.210 C 
ENDBRANCH  16  20
BRANCH  17  22
HETATM   22  O   UNL     1      -5.109  -2.385 -34.495  1.00  0.00    -0.348 OA
BRANCH  22  23
HETATM   23  C   UNL     1      -4.439  -3.614 -34.223  1.00  0.00     0.175 C 
BRANCH  23  24
HETATM   24  C   UNL     1      -5.257  -4.740 -34.850  1.00  0.00     0.022 C 
HETATM   25  C   UNL     1      -6.725  -4.372 -34.970  1.00  0.00     0.007 C 
ENDBRANCH  23  24
ENDBRANCH  22  23
ENDBRANCH  17  22
ENDBRANCH  13  14
ENDBRANCH  11  13
ENDBRANCH   1  11
BRANCH   8  26
HETATM   26  C   UNL     1      -0.426   5.826 -31.933  1.00  0.00     0.270 C 
HETATM   27  N   UNL     1      -0.024   7.083 -31.571  1.00  0.00    -0.365 N 
HETATM   28  H   UNL     1      -0.440   7.878 -32.041  1.00  0.00     0.159 HD
HETATM   29  H   UNL     1       0.669   7.200 -30.850  1.00  0.00     0.159 HD
HETATM   30  O   UNL     1       0.041   4.828 -31.394  1.00  0.00    -0.266 OA
ENDBRANCH   8  26
TORSDOF 8
ENDMDL
MODEL 6
REMARK VINA RESULT:      -7.6      5.064      8.246
REMARK  8 active torsions:
REMARK  status: ('A' for Active; 'I' for Inactive)
REMARK    1  A    between atoms: C_2  and  C_3 
REMARK    2  A    between atoms: C_3  and  O_4 
REMARK    3  A    between atoms: O_4  and  C_5 
REMARK    4  A    between atoms: C_6  and  O_7 
REMARK    5  A    between atoms: C_10  and  C_11 
REMARK    6  A    between atoms: C_11  and  N_12 
REMARK    7  A    between atoms: N_12  and  C_13 
REMARK    8  A    between atoms: C_20  and  C_21 
REMARK       I    between atoms: C_21  and  N_22 
ROOT
HETATM    1  C   UNL     1      -2.711   3.879 -31.934  1.00  0.00     0.009 A 
HETATM    2  C   UNL     1      -2.500   5.102 -31.270  1.00  0.00     0.039 A 
HETATM    3  C   UNL     1      -2.212   6.275 -32.000  1.00  0.00     0.030 A 
HETATM    4  C   UNL     1      -2.106   6.190 -33.381  1.00  0.00     0.063 A 
HETATM    5  N   UNL     1      -1.815   7.456 -33.801  1.00  0.00    -0.277 N 
HETATM    6  H   UNL     1      -1.661   7.766 -34.754  1.00  0.00     0.189 HD
HETATM    7  N   UNL     1      -1.727   8.364 -32.814  1.00  0.00    -0.168 NA
HETATM    8  C   UNL     1      -1.968   7.646 -31.694  1.00  0.00     0.156 A 
HETATM    9  C   UNL     1      -2.267   4.993 -34.080  1.00  0.00     0.034 A 
HETATM   10  C   UNL     1      -2.558   3.845 -33.326  1.00  0.00     0.026 A 
ENDROOT
BRANCH   1  11
HETATM   11  N   UNL     1      -2.918   2.734 -31.155  1.00  0.00    -0.289 NA
HETATM   12  H   UNL     1      -2.444   2.791 -30.257  1.00  0.00     0.128 HD
BRANCH  11  13
HETATM   13  C   UNL     1      -4.254   2.169 -31.041  1.00  0.00     0.131 C 
BRANCH  13  14
HETATM   14  C   UNL     1      -4.354   0.938 -31.913  1.00  0.00    -0.042 A 
HETATM   15  C   UNL     1      -5.330   0.838 -32.915  1.00  0.00     0.048 A 
HETATM   16  C   UNL     1      -5.404  -0.301 -33.728  1.00  0.00     0.102 A 
HETATM   17  C   UNL     1      -4.477  -1.346 -33.561  1.00  0.00     0.102 A 
HETATM   18  C   UNL     1      -3.521  -1.258 -32.546  1.00  0.00     0.040 A 
HETATM   19  C   UNL     1      -3.463  -0.127 -31.727  1.00  0.00     0.011 A 
BRANCH  16  20
HETATM   20  O   UNL     1      -6.318  -0.445 -34.744  1.00  0.00    -0.353 OA
HETATM   21  C   UNL     1      -7.686  -0.337 -34.375  1.00  0.00     0.210 C 
ENDBRANCH  16  20
BRANCH  17  22
HETATM   22  O   UNL     1      -4.605  -2.412 -34.417  1.00  0.00    -0.348 OA
BRANCH  22  23
HETATM   23  C   UNL     1      -4.177  -3.689 -33.948  1.00  0.00     0.175 C 
BRANCH  23  24
HETATM   24  C   UNL     1      -5.070  -4.746 -34.594  1.00  0.00     0.022 C 
HETATM   25  C   UNL     1      -6.465  -4.214 -34.870  1.00  0.00     0.007 C 
ENDBRANCH  23  24
ENDBRANCH  22  23
ENDBRANCH  17  22
ENDBRANCH  13  14
ENDBRANCH  11  13
ENDBRANCH   1  11
BRANCH   8  26
HETATM   26  C   UNL     1      -1.965   8.276 -30.366  1.00  0.00     0.270 C 
HETATM   27  N   UNL     1      -2.292   9.605 -30.377  1.00  0.00    -0.365 N 
HETATM   28  H   UNL     1      -2.505  10.043 -31.265  1.00  0.00     0.159 HD
HETATM   29  H   UNL     1      -2.318  10.122 -29.514  1.00  0.00     0.159 HD
HETATM   30  O   UNL     1      -1.701   7.694 -29.319  1.00  0.00    -0.266 OA
ENDBRANCH   8  26
TORSDOF 8
ENDMDL
MODEL 7
REMARK VINA RESULT:      -7.5      2.211      3.354
REMARK  8 active torsions:
REMARK  status: ('A' for Active; 'I' for Inactive)
REMARK    1  A    between atoms: C_2  and  C_3 
REMARK    2  A    between atoms: C_3  and  O_4 
REMARK    3  A    between atoms: O_4  and  C_5 
REMARK    4  A    between atoms: C_6  and  O_7 
REMARK    5  A    between atoms: C_10  and  C_11 
REMARK    6  A    between atoms: C_11  and  N_12 
REMARK    7  A    between atoms: N_12  and  C_13 
REMARK    8  A    between atoms: C_20  and  C_21 
REMARK       I    between atoms: C_21  and  N_22 
ROOT
HETATM    1  C   UNL     1     -11.097   1.330 -33.411  1.00  0.00     0.009 A 
HETATM    2  C   UNL     1     -10.537   2.561 -33.798  1.00  0.00     0.039 A 
HETATM    3  C   UNL     1     -11.318   3.526 -34.468  1.00  0.00     0.030 A 
HETATM    4  C   UNL     1     -12.637   3.221 -34.770  1.00  0.00     0.063 A 
HETATM    5  N   UNL     1     -13.124   4.321 -35.417  1.00  0.00    -0.277 N 
HETATM    6  H   UNL     1     -14.058   4.450 -35.790  1.00  0.00     0.189 HD
HETATM    7  N   UNL     1     -12.238   5.322 -35.560  1.00  0.00    -0.168 NA
HETATM    8  C   UNL     1     -11.115   4.842 -34.979  1.00  0.00     0.156 A 
HETATM    9  C   UNL     1     -13.226   2.000 -34.443  1.00  0.00     0.034 A 
HETATM   10  C   UNL     1     -12.425   1.063 -33.771  1.00  0.00     0.026 A 
ENDROOT
BRANCH   1  11
HETATM   11  N   UNL     1     -10.257   0.381 -32.816  1.00  0.00    -0.289 NA
HETATM   12  H   UNL     1     -10.052  -0.394 -33.442  1.00  0.00     0.128 HD
BRANCH  11  13
HETATM   13  C   UNL     1      -9.084   0.818 -32.073  1.00  0.00     0.131 C 
BRANCH  13  14
HETATM   14  C   UNL     1      -7.861   0.106 -32.605  1.00  0.00    -0.042 A 
HETATM   15  C   UNL     1      -6.745  -0.122 -31.786  1.00  0.00     0.048 A 
HETATM   16  C   UNL     1      -5.622  -0.798 -32.283  1.00  0.00     0.102 A 
HETATM   17  C   UNL     1      -5.618  -1.278 -33.606  1.00  0.00     0.102 A 
HETATM   18  C   UNL     1      -6.720  -1.028 -34.428  1.00  0.00     0.040 A 
HETATM   19  C   UNL     1      -7.830  -0.340 -33.932  1.00  0.00     0.011 A 
BRANCH  16  20
HETATM   20  O   UNL     1      -4.511  -1.076 -31.524  1.00  0.00    -0.353 OA
HETATM   21  C   UNL     1      -3.598  -0.004 -31.334  1.00  0.00     0.210 C 
ENDBRANCH  16  20
BRANCH  17  22
HETATM   22  O   UNL     1      -4.489  -1.951 -34.002  1.00  0.00    -0.348 OA
BRANCH  22  23
HETATM   23  C   UNL     1      -4.619  -2.883 -35.074  1.00  0.00     0.175 C 
BRANCH  23  24
HETATM   24  C   UNL     1      -5.060  -4.218 -34.479  1.00  0.00     0.022 C 
HETATM   25  C   UNL     1      -6.472  -4.584 -34.900  1.00  0.00     0.007 C 
ENDBRANCH  23  24
ENDBRANCH  22  23
ENDBRANCH  17  22
ENDBRANCH  13  14
ENDBRANCH  11  13
ENDBRANCH   1  11
BRANCH   8  26
HETATM   26  C   UNL     1      -9.884   5.642 -34.920  1.00  0.00     0.270 C 
HETATM   27  N   UNL     1     -10.032   6.930 -35.358  1.00  0.00    -0.365 N 
HETATM   28  H   UNL     1     -10.945   7.230 -35.678  1.00  0.00     0.159 HD
HETATM   29  H   UNL     1      -9.243   7.556 -35.353  1.00  0.00     0.159 HD
HETATM   30  O   UNL     1      -8.802   5.227 -34.517  1.00  0.00    -0.266 OA
ENDBRANCH   8  26
TORSDOF 8
ENDMDL
MODEL 8
REMARK VINA RESULT:      -7.4      2.674      3.159
REMARK  8 active torsions:
REMARK  status: ('A' for Active; 'I' for Inactive)
REMARK    1  A    between atoms: C_2  and  C_3 
REMARK    2  A    between atoms: C_3  and  O_4 
REMARK    3  A    between atoms: O_4  and  C_5 
REMARK    4  A    between atoms: C_6  and  O_7 
REMARK    5  A    between atoms: C_10  and  C_11 
REMARK    6  A    between atoms: C_11  and  N_12 
REMARK    7  A    between atoms: N_12  and  C_13 
REMARK    8  A    between atoms: C_20  and  C_21 
REMARK       I    between atoms: C_21  and  N_22 
ROOT
HETATM    1  C   UNL     1     -11.628   1.808 -34.362  1.00  0.00     0.009 A 
HETATM    2  C   UNL     1     -11.970   2.651 -33.289  1.00  0.00     0.039 A 
HETATM    3  C   UNL     1     -13.297   2.707 -32.814  1.00  0.00     0.030 A 
HETATM    4  C   UNL     1     -14.264   1.941 -33.449  1.00  0.00     0.063 A 
HETATM    5  N   UNL     1     -15.429   2.206 -32.788  1.00  0.00    -0.277 N 
HETATM    6  H   UNL     1     -16.347   1.825 -32.986  1.00  0.00     0.189 HD
HETATM    7  N   UNL     1     -15.307   3.077 -31.771  1.00  0.00    -0.168 NA
HETATM    8  C   UNL     1     -13.993   3.396 -31.777  1.00  0.00     0.156 A 
HETATM    9  C   UNL     1     -13.982   1.119 -34.541  1.00  0.00     0.034 A 
HETATM   10  C   UNL     1     -12.651   1.082 -34.986  1.00  0.00     0.026 A 
ENDROOT
BRANCH   1  11
HETATM   11  N   UNL     1     -10.313   1.849 -34.840  1.00  0.00    -0.289 NA
HETATM   12  H   UNL     1     -10.255   2.273 -35.763  1.00  0.00     0.128 HD
BRANCH  11  13
HETATM   13  C   UNL     1      -9.238   2.286 -33.963  1.00  0.00     0.131 C 
BRANCH  13  14
HETATM   14  C   UNL     1      -8.198   1.192 -33.862  1.00  0.00    -0.042 A 
HETATM   15  C   UNL     1      -7.554   0.917 -32.647  1.00  0.00     0.048 A 
HETATM   16  C   UNL     1      -6.603  -0.109 -32.560  1.00  0.00     0.102 A 
HETATM   17  C   UNL     1      -6.307  -0.892 -33.691  1.00  0.00     0.102 A 
HETATM   18  C   UNL     1      -6.931  -0.601 -34.907  1.00  0.00     0.040 A 
HETATM   19  C   UNL     1      -7.866   0.434 -34.992  1.00  0.00     0.011 A 
BRANCH  16  20
HETATM   20  O   UNL     1      -5.959  -0.444 -31.393  1.00  0.00    -0.353 OA
HETATM   21  C   UNL     1      -6.237   0.377 -30.267  1.00  0.00     0.210 C 
ENDBRANCH  16  20
BRANCH  17  22
HETATM   22  O   UNL     1      -5.384  -1.892 -33.511  1.00  0.00    -0.348 OA
BRANCH  22  23
HETATM   23  C   UNL     1      -5.198  -2.818 -34.580  1.00  0.00     0.175 C 
BRANCH  23  24
HETATM   24  C   UNL     1      -4.091  -3.786 -34.170  1.00  0.00     0.022 C 
HETATM   25  C   UNL     1      -4.562  -5.229 -34.210  1.00  0.00     0.007 C 
ENDBRANCH  23  24
ENDBRANCH  22  23
ENDBRANCH  17  22
ENDBRANCH  13  14
ENDBRANCH  11  13
ENDBRANCH   1  11
BRANCH   8  26
HETATM   26  C   UNL     1     -13.431   4.342 -30.802  1.00  0.00     0.270 C 
HETATM   27  N   UNL     1     -12.647   3.756 -29.845  1.00  0.00    -0.365 N 
HETATM   28  H   UNL     1     -12.513   2.753 -29.876  1.00  0.00     0.159 HD
HETATM   29  H   UNL     1     -12.216   4.324 -29.134  1.00  0.00     0.159 HD
HETATM   30  O   UNL     1     -13.624   5.553 -30.815  1.00  0.00    -0.266 OA
ENDBRANCH   8  26
TORSDOF 8
ENDMDL
MODEL 9
REMARK VINA RESULT:      -7.1     14.689     17.424
REMARK  8 active torsions:
REMARK  status: ('A' for Active; 'I' for Inactive)
REMARK    1  A    between atoms: C_2  and  C_3 
REMARK    2  A    between atoms: C_3  and  O_4 
REMARK    3  A    between atoms: O_4  and  C_5 
REMARK    4  A    between atoms: C_6  and  O_7 
REMARK    5  A    between atoms: C_10  and  C_11 
REMARK    6  A    between atoms: C_11  and  N_12 
REMARK    7  A    between atoms: N_12  and  C_13 
REMARK    8  A    between atoms: C_20  and  C_21 
REMARK       I    between atoms: C_21  and  N_22 
ROOT
HETATM    1  C   UNL     1      -2.706 -13.196 -37.450  1.00  0.00     0.009 A 
HETATM    2  C   UNL     1      -1.447 -13.470 -38.014  1.00  0.00     0.039 A 
HETATM    3  C   UNL     1      -0.628 -14.489 -37.483  1.00  0.00     0.030 A 
HETATM    4  C   UNL     1      -1.074 -15.189 -36.371  1.00  0.00     0.063 A 
HETATM    5  N   UNL     1      -0.083 -16.084 -36.085  1.00  0.00    -0.277 N 
HETATM    6  H   UNL     1      -0.066 -16.759 -35.328  1.00  0.00     0.189 HD
HETATM    7  N   UNL     1       0.972 -16.033 -36.917  1.00  0.00    -0.168 NA
HETATM    8  C   UNL     1       0.649 -15.048 -37.786  1.00  0.00     0.156 A 
HETATM    9  C   UNL     1      -2.297 -14.928 -35.753  1.00  0.00     0.034 A 
HETATM   10  C   UNL     1      -3.091 -13.912 -36.308  1.00  0.00     0.026 A 
ENDROOT
BRANCH   1  11
HETATM   11  N   UNL     1      -3.443 -12.125 -37.969  1.00  0.00    -0.289 NA
HETATM   12  H   UNL     1      -3.013 -11.227 -37.760  1.00  0.00     0.128 HD
BRANCH  11  13
HETATM   13  C   UNL     1      -3.951 -12.190 -39.332  1.00  0.00     0.131 C 
BRANCH  13  14
HETATM   14  C   UNL     1      -5.449 -12.390 -39.299  1.00  0.00    -0.042 A 
HETATM   15  C   UNL     1      -6.093 -12.841 -38.138  1.00  0.00     0.048 A 
HETATM   16  C   UNL     1      -7.484 -13.008 -38.112  1.00  0.00     0.102 A 
HETATM   17  C   UNL     1      -8.251 -12.696 -39.250  1.00  0.00     0.102 A 
HETATM   18  C   UNL     1      -7.607 -12.270 -40.414  1.00  0.00     0.040 A 
HETATM   19  C   UNL     1      -6.218 -12.122 -40.439  1.00  0.00     0.011 A 
BRANCH  16  20
HETATM   20  O   UNL     1      -8.175 -13.419 -36.998  1.00  0.00    -0.353 OA
HETATM   21  C   UNL     1      -7.416 -13.547 -35.803  1.00  0.00     0.210 C 
ENDBRANCH  16  20
BRANCH  17  22
HETATM   22  O   UNL     1      -9.608 -12.863 -39.129  1.00  0.00    -0.348 OA
BRANCH  22  23
HETATM   23  C   UNL     1     -10.341 -13.177 -40.312  1.00  0.00     0.175 C 
BRANCH  23  24
HETATM   24  C   UNL     1     -10.340 -14.695 -40.472  1.00  0.00     0.022 C 
HETATM   25  C   UNL     1     -11.289 -15.148 -41.566  1.00  0.00     0.007 C 
ENDBRANCH  23  24
ENDBRANCH  22  23
ENDBRANCH  17  22
ENDBRANCH  13  14
ENDBRANCH  11  13
ENDBRANCH   1  11
BRANCH   8  26
HETATM   26  C   UNL     1       1.553 -14.666 -38.879  1.00  0.00     0.270 C 
HETATM   27  N   UNL     1       1.071 -14.951 -40.128  1.00  0.00    -0.365 N 
HETATM   28  H   UNL     1       0.160 -15.387 -40.208  1.00  0.00     0.159 HD
HETATM   29  H   UNL     1       1.620 -14.723 -40.941  1.00  0.00     0.159 HD
HETATM   30  O   UNL     1       2.648 -14.135 -38.725  1.00  0.00    -0.266 OA
ENDBRANCH   8  26
TORSDOF 8
ENDMDL
MODEL 10
REMARK VINA RESULT:      -7.0      3.349      7.929
REMARK  8 active torsions:
REMARK  status: ('A' for Active; 'I' for Inactive)
REMARK    1  A    between atoms: C_2  and  C_3 
REMARK    2  A    between atoms: C_3  and  O_4 
REMARK    3  A    between atoms: O_4  and  C_5 
REMARK    4  A    between atoms: C_6  and  O_7 
REMARK    5  A    between atoms: C_10  and  C_11 
REMARK    6  A    between atoms: C_11  and  N_12 
REMARK    7  A    between atoms: N_12  and  C_13 
REMARK    8  A    between atoms: C_20  and  C_21 
REMARK       I    between atoms: C_21  and  N_22 
ROOT
HETATM    1  C   UNL     1      -4.809   0.879 -32.626  1.00  0.00     0.009 A 
HETATM    2  C   UNL     1      -4.940  -0.359 -33.282  1.00  0.00     0.039 A 
HETATM    3  C   UNL     1      -4.193  -1.479 -32.859  1.00  0.00     0.030 A 
HETATM    4  C   UNL     1      -3.301  -1.324 -31.807  1.00  0.00     0.063 A 
HETATM    5  N   UNL     1      -2.727  -2.551 -31.636  1.00  0.00    -0.277 N 
HETATM    6  H   UNL     1      -2.020  -2.808 -30.956  1.00  0.00     0.189 HD
HETATM    7  N   UNL     1      -3.170  -3.498 -32.482  1.00  0.00    -0.168 NA
HETATM    8  C   UNL     1      -4.076  -2.846 -33.246  1.00  0.00     0.156 A 
HETATM    9  C   UNL     1      -3.108  -0.109 -31.151  1.00  0.00     0.034 A 
HETATM   10  C   UNL     1      -3.870   0.985 -31.592  1.00  0.00     0.026 A 
ENDROOT
BRANCH   1  11
HETATM   11  N   UNL     1      -5.518   1.973 -33.136  1.00  0.00    -0.289 NA
HETATM   12  H   UNL     1      -5.830   1.816 -34.091  1.00  0.00     0.128 HD
BRANCH  11  13
HETATM   13  C   UNL     1      -6.535   2.619 -32.321  1.00  0.00     0.131 C 
BRANCH  13  14
HETATM   14  C   UNL     1      -7.905   2.251 -32.844  1.00  0.00    -0.042 A 
HETATM   15  C   UNL     1      -8.570   3.069 -33.769  1.00  0.00     0.048 A 
HETATM   16  C   UNL     1      -9.832   2.712 -34.260  1.00  0.00     0.102 A 
HETATM   17  C   UNL     1     -10.433   1.508 -33.846  1.00  0.00     0.102 A 
HETATM   18  C   UNL     1      -9.782   0.706 -32.906  1.00  0.00     0.040 A 
HETATM   19  C   UNL     1      -8.531   1.077 -32.407  1.00  0.00     0.011 A 
BRANCH  16  20
HETATM   20  O   UNL     1     -10.520   3.456 -35.189  1.00  0.00    -0.353 OA
HETATM   21  C   UNL     1     -10.564   4.858 -34.958  1.00  0.00     0.210 C 
ENDBRANCH  16  20
BRANCH  17  22
HETATM   22  O   UNL     1     -11.658   1.222 -34.397  1.00  0.00    -0.348 OA
BRANCH  22  23
HETATM   23  C   UNL     1     -12.806   1.374 -33.565  1.00  0.00     0.175 C 
BRANCH  23  24
HETATM   24  C   UNL     1     -13.722   0.178 -33.811  1.00  0.00     0.022 C 
HETATM   25  C   UNL     1     -15.079   0.606 -34.341  1.00  0.00     0.007 C 
ENDBRANCH  23  24
ENDBRANCH  22  23
ENDBRANCH  17  22
ENDBRANCH  13  14
ENDBRANCH  11  13
ENDBRANCH   1  11
BRANCH   8  26
HETATM   26  C   UNL     1      -4.809  -3.535 -34.318  1.00  0.00     0.270 C 
HETATM   27  N   UNL     1      -5.487  -2.696 -35.160  1.00  0.00    -0.365 N 
HETATM   28  H   UNL     1      -5.438  -1.698 -34.991  1.00  0.00     0.159 HD
HETATM   29  H   UNL     1      -6.018  -3.076 -35.927  1.00  0.00     0.159 HD
HETATM   30  O   UNL     1      -4.831  -4.751 -34.478  1.00  0.00    -0.266 OA
ENDBRANCH   8  26
TORSDOF 8
ENDMDL
