MODEL 1
REMARK VINA RESULT:      -9.7      0.000      0.000
REMARK  3 active torsions:
REMARK  status: ('A' for Active; 'I' for Inactive)
REMARK    1  A    between atoms: C_7  and  C_8 
REMARK       I    between atoms: C_8  and  N_9 
REMARK    2  A    between atoms: N_9  and  N_10 
REMARK    3  A    between atoms: N_10  and  C_11 
ROOT
HETATM    1  C   UNL     1      -2.466   4.188 -31.627  1.00  0.00     0.124 A 
HETATM    2  N   UNL     1      -2.328   4.293 -32.962  1.00  0.00    -0.223 NA
HETATM    3  C   UNL     1      -1.421   5.171 -33.430  1.00  0.00     0.129 A 
HETATM    4 CL   UNL     1      -1.307   5.235 -35.140  1.00  0.00    -0.062 Cl
HETATM    5  C   UNL     1      -0.633   5.981 -32.642  1.00  0.00     0.067 A 
HETATM    6  C   UNL     1      -0.797   5.875 -31.266  1.00  0.00     0.051 A 
HETATM    7  C   UNL     1      -0.020   6.692 -30.384  1.00  0.00     0.099 C 
HETATM    8  N   UNL     1       0.613   7.356 -29.675  1.00  0.00    -0.191 NA
HETATM    9  C   UNL     1      -1.728   4.974 -30.748  1.00  0.00     0.068 A 
ENDROOT
BRANCH   1  10
HETATM   10  N   UNL     1      -3.453   3.296 -31.163  1.00  0.00    -0.186 NA
HETATM   11  H   UNL     1      -4.346   3.802 -31.248  1.00  0.00     0.154 HD
BRANCH  10  12
HETATM   12  N   UNL     1      -3.484   2.077 -31.870  1.00  0.00    -0.281 N 
HETATM   13  C   UNL     1      -4.722   1.561 -32.199  1.00  0.00     0.271 C 
HETATM   14  O   UNL     1      -5.763   2.211 -32.108  1.00  0.00    -0.266 OA
HETATM   15  H   UNL     1      -2.678   1.452 -31.764  1.00  0.00     0.184 HD
BRANCH  13  16
HETATM   16  C   UNL     1      -4.710   0.140 -32.644  1.00  0.00     0.099 A 
HETATM   17  C   UNL     1      -5.773  -0.481 -33.480  1.00  0.00     0.201 A 
HETATM   18  C   UNL     1      -5.601  -1.899 -33.895  1.00  0.00     0.045 A 
HETATM   19  O   UNL     1      -6.760   0.161 -33.833  1.00  0.00    -0.286 OA
HETATM   20  C   UNL     1      -4.451  -2.604 -33.478  1.00  0.00     0.052 A 
HETATM   21  C   UNL     1      -6.569  -2.503 -34.700  1.00  0.00     0.060 A 
HETATM   22  C   UNL     1      -4.299  -3.953 -33.854  1.00  0.00    -0.031 A 
HETATM   23  N   UNL     1      -3.524  -1.958 -32.645  1.00  0.00    -0.364 N 
HETATM   24  C   UNL     1      -3.107  -4.766 -33.435  1.00  0.00     0.050 C 
HETATM   25  C   UNL     1      -5.274  -4.546 -34.672  1.00  0.00     0.051 A 
HETATM   26  C   UNL     1      -6.390  -3.822 -35.083  1.00  0.00     0.117 A 
HETATM   27  F   UNL     1      -7.306  -4.413 -35.861  1.00  0.00    -0.206 F 
HETATM   28  C   UNL     1      -3.672  -0.639 -32.302  1.00  0.00     0.109 A 
HETATM   29  H   UNL     1      -2.630  -2.399 -32.460  1.00  0.00     0.165 HD
ENDBRANCH  13  16
ENDBRANCH  10  12
ENDBRANCH   1  10
TORSDOF 3
ENDMDL
MODEL 2
REMARK VINA RESULT:      -9.6      5.215      8.254
REMARK  3 active torsions:
REMARK  status: ('A' for Active; 'I' for Inactive)
REMARK    1  A    between atoms: C_7  and  C_8 
REMARK       I    between atoms: C_8  and  N_9 
REMARK    2  A    between atoms: N_9  and  N_10 
REMARK    3  A    between atoms: N_10  and  C_11 
ROOT
HETATM    1  C   UNL     1      -4.608  -1.186 -33.271  1.00  0.00     0.124 A 
HETATM    2  N   UNL     1      -3.674  -1.714 -32.459  1.00  0.00    -0.223 NA
HETATM    3  C   UNL     1      -3.467  -3.043 -32.523  1.00  0.00     0.129 A 
HETATM    4 CL   UNL     1      -2.257  -3.629 -31.459  1.00  0.00    -0.062 Cl
HETATM    5  C   UNL     1      -4.152  -3.904 -33.353  1.00  0.00     0.067 A 
HETATM    6  C   UNL     1      -5.125  -3.349 -34.174  1.00  0.00     0.051 A 
HETATM    7  C   UNL     1      -5.884  -4.184 -35.055  1.00  0.00     0.099 C 
HETATM    8  N   UNL     1      -6.495  -4.865 -35.767  1.00  0.00    -0.191 NA
HETATM    9  C   UNL     1      -5.364  -1.975 -34.133  1.00  0.00     0.068 A 
ENDROOT
BRANCH   1  10
HETATM   10  N   UNL     1      -4.838   0.200 -33.153  1.00  0.00    -0.186 NA
HETATM   11  H   UNL     1      -4.130   0.650 -33.749  1.00  0.00     0.154 HD
BRANCH  10  12
HETATM   12  N   UNL     1      -6.143   0.585 -33.523  1.00  0.00    -0.281 N 
HETATM   13  C   UNL     1      -7.004   0.970 -32.517  1.00  0.00     0.271 C 
HETATM   14  O   UNL     1      -6.629   1.206 -31.368  1.00  0.00    -0.266 OA
HETATM   15  H   UNL     1      -6.513   0.205 -34.400  1.00  0.00     0.184 HD
BRANCH  13  16
HETATM   16  C   UNL     1      -8.437   1.050 -32.915  1.00  0.00     0.099 A 
HETATM   17  C   UNL     1      -9.028   2.180 -33.683  1.00  0.00     0.201 A 
HETATM   18  C   UNL     1     -10.465   2.098 -34.058  1.00  0.00     0.045 A 
HETATM   19  O   UNL     1      -8.347   3.148 -34.014  1.00  0.00    -0.286 OA
HETATM   20  C   UNL     1     -11.215   0.967 -33.668  1.00  0.00     0.052 A 
HETATM   21  C   UNL     1     -11.043   3.131 -34.800  1.00  0.00     0.060 A 
HETATM   22  C   UNL     1     -12.581   0.900 -34.006  1.00  0.00    -0.031 A 
HETATM   23  N   UNL     1     -10.593  -0.028 -32.898  1.00  0.00    -0.364 N 
HETATM   24  C   UNL     1     -13.442  -0.267 -33.612  1.00  0.00     0.050 C 
HETATM   25  C   UNL     1     -13.148   1.940 -34.761  1.00  0.00     0.051 A 
HETATM   26  C   UNL     1     -12.380   3.035 -35.147  1.00  0.00     0.117 A 
HETATM   27  F   UNL     1     -12.946   4.013 -35.865  1.00  0.00    -0.206 F 
HETATM   28  C   UNL     1      -9.258   0.038 -32.593  1.00  0.00     0.109 A 
HETATM   29  H   UNL     1     -11.074  -0.905 -32.737  1.00  0.00     0.165 HD
ENDBRANCH  13  16
ENDBRANCH  10  12
ENDBRANCH   1  10
TORSDOF 3
ENDMDL
MODEL 3
REMARK VINA RESULT:      -9.6      5.056      7.427
REMARK  3 active torsions:
REMARK  status: ('A' for Active; 'I' for Inactive)
REMARK    1  A    between atoms: C_7  and  C_8 
REMARK       I    between atoms: C_8  and  N_9 
REMARK    2  A    between atoms: N_9  and  N_10 
REMARK    3  A    between atoms: N_10  and  C_11 
ROOT
HETATM    1  C   UNL     1     -10.192   2.679 -34.328  1.00  0.00     0.124 A 
HETATM    2  N   UNL     1     -10.880   3.701 -34.870  1.00  0.00    -0.223 NA
HETATM    3  C   UNL     1     -12.210   3.551 -35.016  1.00  0.00     0.129 A 
HETATM    4 CL   UNL     1     -13.007   4.902 -35.709  1.00  0.00    -0.062 Cl
HETATM    5  C   UNL     1     -12.917   2.422 -34.662  1.00  0.00     0.067 A 
HETATM    6  C   UNL     1     -12.192   1.369 -34.120  1.00  0.00     0.051 A 
HETATM    7  C   UNL     1     -12.857   0.160 -33.738  1.00  0.00     0.099 C 
HETATM    8  N   UNL     1     -13.402  -0.816 -33.430  1.00  0.00    -0.191 NA
HETATM    9  C   UNL     1     -10.813   1.491 -33.954  1.00  0.00     0.068 A 
ENDROOT
BRANCH   1  10
HETATM   10  N   UNL     1      -8.795   2.841 -34.227  1.00  0.00    -0.186 NA
HETATM   11  H   UNL     1      -8.654   3.626 -33.576  1.00  0.00     0.154 HD
BRANCH  10  12
HETATM   12  N   UNL     1      -8.127   1.681 -33.787  1.00  0.00    -0.281 N 
HETATM   13  C   UNL     1      -6.750   1.734 -33.693  1.00  0.00     0.271 C 
HETATM   14  O   UNL     1      -6.116   2.787 -33.754  1.00  0.00    -0.266 OA
HETATM   15  H   UNL     1      -8.598   0.783 -33.935  1.00  0.00     0.184 HD
BRANCH  13  16
HETATM   16  C   UNL     1      -6.081   0.412 -33.543  1.00  0.00     0.099 A 
HETATM   17  C   UNL     1      -6.406  -0.786 -34.365  1.00  0.00     0.201 A 
HETATM   18  C   UNL     1      -5.617  -2.026 -34.140  1.00  0.00     0.045 A 
HETATM   19  O   UNL     1      -7.291  -0.750 -35.217  1.00  0.00    -0.286 OA
HETATM   20  C   UNL     1      -4.603  -2.029 -33.158  1.00  0.00     0.052 A 
HETATM   21  C   UNL     1      -5.882  -3.160 -34.913  1.00  0.00     0.060 A 
HETATM   22  C   UNL     1      -3.870  -3.210 -32.931  1.00  0.00    -0.031 A 
HETATM   23  N   UNL     1      -4.399  -0.872 -32.390  1.00  0.00    -0.364 N 
HETATM   24  C   UNL     1      -2.787  -3.288 -31.893  1.00  0.00     0.050 C 
HETATM   25  C   UNL     1      -4.138  -4.340 -33.722  1.00  0.00     0.051 A 
HETATM   26  C   UNL     1      -5.133  -4.304 -34.695  1.00  0.00     0.117 A 
HETATM   27  F   UNL     1      -5.369  -5.396 -35.433  1.00  0.00    -0.206 F 
HETATM   28  C   UNL     1      -5.105   0.279 -32.633  1.00  0.00     0.109 A 
HETATM   29  H   UNL     1      -3.586  -0.812 -31.788  1.00  0.00     0.165 HD
ENDBRANCH  13  16
ENDBRANCH  10  12
ENDBRANCH   1  10
TORSDOF 3
ENDMDL
MODEL 4
REMARK VINA RESULT:      -9.4      1.993      2.526
REMARK  3 active torsions:
REMARK  status: ('A' for Active; 'I' for Inactive)
REMARK    1  A    between atoms: C_7  and  C_8 
REMARK       I    between atoms: C_8  and  N_9 
REMARK    2  A    between atoms: N_9  and  N_10 
REMARK    3  A    between atoms: N_10  and  C_11 
ROOT
HETATM    1  C   UNL     1      -2.739   4.584 -31.809  1.00  0.00     0.124 A 
HETATM    2  N   UNL     1      -2.143   4.408 -33.003  1.00  0.00    -0.223 NA
HETATM    3  C   UNL     1      -1.809   5.508 -33.704  1.00  0.00     0.129 A 
HETATM    4 CL   UNL     1      -1.051   5.191 -35.209  1.00  0.00    -0.062 Cl
HETATM    5  C   UNL     1      -2.045   6.802 -33.293  1.00  0.00     0.067 A 
HETATM    6  C   UNL     1      -2.675   6.970 -32.067  1.00  0.00     0.051 A 
HETATM    7  C   UNL     1      -2.962   8.285 -31.580  1.00  0.00     0.099 C 
HETATM    8  N   UNL     1      -3.190   9.353 -31.190  1.00  0.00    -0.191 NA
HETATM    9  C   UNL     1      -3.033   5.851 -31.315  1.00  0.00     0.068 A 
ENDROOT
BRANCH   1  10
HETATM   10  N   UNL     1      -3.120   3.418 -31.114  1.00  0.00    -0.186 NA
HETATM   11  H   UNL     1      -3.959   3.678 -30.577  1.00  0.00     0.154 HD
BRANCH  10  12
HETATM   12  N   UNL     1      -3.371   2.319 -31.960  1.00  0.00    -0.281 N 
HETATM   13  C   UNL     1      -4.659   1.826 -32.001  1.00  0.00     0.271 C 
HETATM   14  O   UNL     1      -5.621   2.427 -31.522  1.00  0.00    -0.266 OA
HETATM   15  H   UNL     1      -2.579   1.707 -32.183  1.00  0.00     0.184 HD
BRANCH  13  16
HETATM   16  C   UNL     1      -4.799   0.489 -32.642  1.00  0.00     0.099 A 
HETATM   17  C   UNL     1      -3.888  -0.660 -32.383  1.00  0.00     0.201 A 
HETATM   18  C   UNL     1      -4.182  -1.953 -33.056  1.00  0.00     0.045 A 
HETATM   19  O   UNL     1      -2.929  -0.551 -31.623  1.00  0.00    -0.286 OA
HETATM   20  C   UNL     1      -5.297  -2.044 -33.917  1.00  0.00     0.052 A 
HETATM   21  C   UNL     1      -3.361  -3.057 -32.814  1.00  0.00     0.060 A 
HETATM   22  C   UNL     1      -5.562  -3.264 -34.569  1.00  0.00    -0.031 A 
HETATM   23  N   UNL     1      -6.072  -0.897 -34.147  1.00  0.00    -0.364 N 
HETATM   24  C   UNL     1      -6.724  -3.428 -35.508  1.00  0.00     0.050 C 
HETATM   25  C   UNL     1      -4.736  -4.370 -34.309  1.00  0.00     0.051 A 
HETATM   26  C   UNL     1      -3.652  -4.256 -33.442  1.00  0.00     0.117 A 
HETATM   27  F   UNL     1      -2.879  -5.325 -33.215  1.00  0.00    -0.206 F 
HETATM   28  C   UNL     1      -5.816   0.279 -33.491  1.00  0.00     0.109 A 
HETATM   29  H   UNL     1      -6.952  -0.983 -34.643  1.00  0.00     0.165 HD
ENDBRANCH  13  16
ENDBRANCH  10  12
ENDBRANCH   1  10
TORSDOF 3
ENDMDL
MODEL 5
REMARK VINA RESULT:      -9.3      3.907      8.562
REMARK  3 active torsions:
REMARK  status: ('A' for Active; 'I' for Inactive)
REMARK    1  A    between atoms: C_7  and  C_8 
REMARK       I    between atoms: C_8  and  N_9 
REMARK    2  A    between atoms: N_9  and  N_10 
REMARK    3  A    between atoms: N_10  and  C_11 
ROOT
HETATM    1  C   UNL     1      -6.847   0.344 -31.193  1.00  0.00     0.124 A 
HETATM    2  N   UNL     1      -8.115   0.595 -31.567  1.00  0.00    -0.223 NA
HETATM    3  C   UNL     1      -8.555   0.025 -32.706  1.00  0.00     0.129 A 
HETATM    4 CL   UNL     1     -10.182   0.393 -33.104  1.00  0.00    -0.062 Cl
HETATM    5  C   UNL     1      -7.797  -0.787 -33.521  1.00  0.00     0.067 A 
HETATM    6  C   UNL     1      -6.485  -1.024 -33.132  1.00  0.00     0.051 A 
HETATM    7  C   UNL     1      -5.634  -1.849 -33.935  1.00  0.00     0.099 C 
HETATM    8  N   UNL     1      -4.951  -2.519 -34.589  1.00  0.00    -0.191 NA
HETATM    9  C   UNL     1      -5.997  -0.449 -31.958  1.00  0.00     0.068 A 
ENDROOT
BRANCH   1  10
HETATM   10  N   UNL     1      -6.395   0.988 -30.023  1.00  0.00    -0.186 NA
HETATM   11  H   UNL     1      -6.034   0.239 -29.416  1.00  0.00     0.154 HD
BRANCH  10  12
HETATM   12  N   UNL     1      -5.413   1.970 -30.267  1.00  0.00    -0.281 N 
HETATM   13  C   UNL     1      -5.834   3.280 -30.378  1.00  0.00     0.271 C 
HETATM   14  O   UNL     1      -6.963   3.649 -30.054  1.00  0.00    -0.266 OA
HETATM   15  H   UNL     1      -4.551   1.666 -30.730  1.00  0.00     0.184 HD
BRANCH  13  16
HETATM   16  C   UNL     1      -4.827   4.215 -30.950  1.00  0.00     0.099 A 
HETATM   17  C   UNL     1      -3.979   3.906 -32.135  1.00  0.00     0.201 A 
HETATM   18  C   UNL     1      -3.053   4.959 -32.629  1.00  0.00     0.045 A 
HETATM   19  O   UNL     1      -4.052   2.818 -32.701  1.00  0.00    -0.286 OA
HETATM   20  C   UNL     1      -3.001   6.201 -31.958  1.00  0.00     0.052 A 
HETATM   21  C   UNL     1      -2.263   4.709 -33.753  1.00  0.00     0.060 A 
HETATM   22  C   UNL     1      -2.108   7.190 -32.415  1.00  0.00    -0.031 A 
HETATM   23  N   UNL     1      -3.795   6.389 -30.817  1.00  0.00    -0.364 N 
HETATM   24  C   UNL     1      -1.992   8.529 -31.741  1.00  0.00     0.050 C 
HETATM   25  C   UNL     1      -1.327   6.930 -33.552  1.00  0.00     0.051 A 
HETATM   26  C   UNL     1      -1.410   5.703 -34.204  1.00  0.00     0.117 A 
HETATM   27  F   UNL     1      -0.652   5.481 -35.285  1.00  0.00    -0.206 F 
HETATM   28  C   UNL     1      -4.675   5.427 -30.394  1.00  0.00     0.109 A 
HETATM   29  H   UNL     1      -3.877   7.317 -30.415  1.00  0.00     0.165 HD
ENDBRANCH  13  16
ENDBRANCH  10  12
ENDBRANCH   1  10
TORSDOF 3
ENDMDL
MODEL 6
REMARK VINA RESULT:      -9.3     16.454     17.637
REMARK  3 active torsions:
REMARK  status: ('A' for Active; 'I' for Inactive)
REMARK    1  A    between atoms: C_7  and  C_8 
REMARK       I    between atoms: C_8  and  N_9 
REMARK    2  A    between atoms: N_9  and  N_10 
REMARK    3  A    between atoms: N_10  and  C_11 
ROOT
HETATM    1  C   UNL     1      -1.268 -13.840 -39.364  1.00  0.00     0.124 A 
HETATM    2  N   UNL     1      -1.659 -13.986 -38.084  1.00  0.00    -0.223 NA
HETATM    3  C   UNL     1      -0.842 -14.663 -37.254  1.00  0.00     0.129 A 
HETATM    4 CL   UNL     1      -1.415 -14.796 -35.643  1.00  0.00    -0.062 Cl
HETATM    5  C   UNL     1       0.360 -15.227 -37.622  1.00  0.00     0.067 A 
HETATM    6  C   UNL     1       0.744 -15.083 -38.949  1.00  0.00     0.051 A 
HETATM    7  C   UNL     1       1.975 -15.651 -39.408  1.00  0.00     0.099 C 
HETATM    8  N   UNL     1       2.974 -16.113 -39.772  1.00  0.00    -0.191 NA
HETATM    9  C   UNL     1      -0.079 -14.388 -39.836  1.00  0.00     0.068 A 
ENDROOT
BRANCH   1  10
HETATM   10  N   UNL     1      -2.160 -13.169 -40.224  1.00  0.00    -0.186 NA
HETATM   11  H   UNL     1      -1.817 -13.354 -41.177  1.00  0.00     0.154 HD
BRANCH  10  12
HETATM   12  N   UNL     1      -3.501 -13.579 -40.071  1.00  0.00    -0.281 N 
HETATM   13  C   UNL     1      -4.220 -13.847 -41.219  1.00  0.00     0.271 C 
HETATM   14  O   UNL     1      -3.695 -13.965 -42.325  1.00  0.00    -0.266 OA
HETATM   15  H   UNL     1      -3.985 -13.290 -39.216  1.00  0.00     0.184 HD
BRANCH  13  16
HETATM   16  C   UNL     1      -5.692 -13.954 -41.023  1.00  0.00     0.099 A 
HETATM   17  C   UNL     1      -6.584 -12.795 -40.746  1.00  0.00     0.201 A 
HETATM   18  C   UNL     1      -8.045 -13.046 -40.627  1.00  0.00     0.045 A 
HETATM   19  O   UNL     1      -6.131 -11.658 -40.634  1.00  0.00    -0.286 OA
HETATM   20  C   UNL     1      -8.531 -14.365 -40.769  1.00  0.00     0.052 A 
HETATM   21  C   UNL     1      -8.911 -11.976 -40.391  1.00  0.00     0.060 A 
HETATM   22  C   UNL     1      -9.913 -14.604 -40.635  1.00  0.00    -0.031 A 
HETATM   23  N   UNL     1      -7.615 -15.407 -40.975  1.00  0.00    -0.364 N 
HETATM   24  C   UNL     1     -10.498 -15.983 -40.762  1.00  0.00     0.050 C 
HETATM   25  C   UNL     1     -10.774 -13.518 -40.410  1.00  0.00     0.051 A 
HETATM   26  C   UNL     1     -10.269 -12.226 -40.290  1.00  0.00     0.117 A 
HETATM   27  F   UNL     1     -11.112 -11.209 -40.072  1.00  0.00    -0.206 F 
HETATM   28  C   UNL     1      -6.275 -15.159 -41.124  1.00  0.00     0.109 A 
HETATM   29  H   UNL     1      -7.958 -16.329 -41.223  1.00  0.00     0.165 HD
ENDBRANCH  13  16
ENDBRANCH  10  12
ENDBRANCH   1  10
TORSDOF 3
ENDMDL
MODEL 7
REMARK VINA RESULT:      -9.2      6.354      8.383
REMARK  3 active torsions:
REMARK  status: ('A' for Active; 'I' for Inactive)
REMARK    1  A    between atoms: C_7  and  C_8 
REMARK       I    between atoms: C_8  and  N_9 
REMARK    2  A    between atoms: N_9  and  N_10 
REMARK    3  A    between atoms: N_10  and  C_11 
ROOT
HETATM    1  C   UNL     1     -12.187   2.266 -34.358  1.00  0.00     0.124 A 
HETATM    2  N   UNL     1     -13.211   1.487 -34.753  1.00  0.00    -0.223 NA
HETATM    3  C   UNL     1     -14.345   1.530 -34.028  1.00  0.00     0.129 A 
HETATM    4 CL   UNL     1     -15.599   0.512 -34.606  1.00  0.00    -0.062 Cl
HETATM    5  C   UNL     1     -14.530   2.304 -32.903  1.00  0.00     0.067 A 
HETATM    6  C   UNL     1     -13.459   3.090 -32.496  1.00  0.00     0.051 A 
HETATM    7  C   UNL     1     -13.573   3.913 -31.331  1.00  0.00     0.099 C 
HETATM    8  N   UNL     1     -13.672   4.578 -30.386  1.00  0.00    -0.191 NA
HETATM    9  C   UNL     1     -12.270   3.070 -33.225  1.00  0.00     0.068 A 
ENDROOT
BRANCH   1  10
HETATM   10  N   UNL     1     -10.995   2.169 -35.104  1.00  0.00    -0.186 NA
HETATM   11  H   UNL     1     -10.710   3.140 -35.296  1.00  0.00     0.154 HD
BRANCH  10  12
HETATM   12  N   UNL     1      -9.976   1.454 -34.444  1.00  0.00    -0.281 N 
HETATM   13  C   UNL     1      -8.844   2.152 -34.074  1.00  0.00     0.271 C 
HETATM   14  O   UNL     1      -8.781   3.381 -34.088  1.00  0.00    -0.266 OA
HETATM   15  H   UNL     1      -9.926   0.445 -34.613  1.00  0.00     0.184 HD
BRANCH  13  16
HETATM   16  C   UNL     1      -7.685   1.303 -33.684  1.00  0.00     0.099 A 
HETATM   17  C   UNL     1      -7.306   0.039 -34.373  1.00  0.00     0.201 A 
HETATM   18  C   UNL     1      -6.090  -0.678 -33.907  1.00  0.00     0.045 A 
HETATM   19  O   UNL     1      -7.970  -0.395 -35.312  1.00  0.00    -0.286 OA
HETATM   20  C   UNL     1      -5.347  -0.145 -32.830  1.00  0.00     0.052 A 
HETATM   21  C   UNL     1      -5.694  -1.854 -34.549  1.00  0.00     0.060 A 
HETATM   22  C   UNL     1      -4.206  -0.836 -32.376  1.00  0.00    -0.031 A 
HETATM   23  N   UNL     1      -5.805   1.023 -32.202  1.00  0.00    -0.364 N 
HETATM   24  C   UNL     1      -3.377  -0.334 -31.228  1.00  0.00     0.050 C 
HETATM   25  C   UNL     1      -3.813  -2.011 -33.037  1.00  0.00     0.051 A 
HETATM   26  C   UNL     1      -4.555  -2.504 -34.107  1.00  0.00     0.117 A 
HETATM   27  F   UNL     1      -4.159  -3.628 -34.718  1.00  0.00    -0.206 F 
HETATM   28  C   UNL     1      -6.905   1.697 -32.665  1.00  0.00     0.109 A 
HETATM   29  H   UNL     1      -5.208   1.492 -31.530  1.00  0.00     0.165 HD
ENDBRANCH  13  16
ENDBRANCH  10  12
ENDBRANCH   1  10
TORSDOF 3
ENDMDL
MODEL 8
REMARK VINA RESULT:      -9.2      2.345      2.514
REMARK  3 active torsions:
REMARK  status: ('A' for Active; 'I' for Inactive)
REMARK    1  A    between atoms: C_7  and  C_8 
REMARK       I    between atoms: C_8  and  N_9 
REMARK    2  A    between atoms: N_9  and  N_10 
REMARK    3  A    between atoms: N_10  and  C_11 
ROOT
HETATM    1  C   UNL     1      -5.186   5.213 -33.774  1.00  0.00     0.124 A 
HETATM    2  N   UNL     1      -4.048   4.993 -34.459  1.00  0.00    -0.223 NA
HETATM    3  C   UNL     1      -2.952   5.681 -34.088  1.00  0.00     0.129 A 
HETATM    4 CL   UNL     1      -1.548   5.335 -35.010  1.00  0.00    -0.062 Cl
HETATM    5  C   UNL     1      -2.912   6.603 -33.065  1.00  0.00     0.067 A 
HETATM    6  C   UNL     1      -4.097   6.833 -32.377  1.00  0.00     0.051 A 
HETATM    7  C   UNL     1      -4.135   7.785 -31.309  1.00  0.00     0.099 C 
HETATM    8  N   UNL     1      -4.159   8.557 -30.444  1.00  0.00    -0.191 NA
HETATM    9  C   UNL     1      -5.252   6.137 -32.736  1.00  0.00     0.068 A 
ENDROOT
BRANCH   1  10
HETATM   10  N   UNL     1      -6.330   4.515 -34.210  1.00  0.00    -0.186 NA
HETATM   11  H   UNL     1      -6.553   4.902 -35.138  1.00  0.00     0.154 HD
BRANCH  10  12
HETATM   12  N   UNL     1      -6.149   3.118 -34.265  1.00  0.00    -0.281 N 
HETATM   13  C   UNL     1      -6.334   2.405 -33.099  1.00  0.00     0.271 C 
HETATM   14  O   UNL     1      -6.859   2.887 -32.095  1.00  0.00    -0.266 OA
HETATM   15  H   UNL     1      -5.534   2.754 -35.000  1.00  0.00     0.184 HD
BRANCH  13  16
HETATM   16  C   UNL     1      -5.820   1.007 -33.132  1.00  0.00     0.099 A 
HETATM   17  C   UNL     1      -6.279  -0.028 -34.098  1.00  0.00     0.201 A 
HETATM   18  C   UNL     1      -5.637  -1.369 -34.048  1.00  0.00     0.045 A 
HETATM   19  O   UNL     1      -7.153   0.219 -34.926  1.00  0.00    -0.286 OA
HETATM   20  C   UNL     1      -4.631  -1.615 -33.088  1.00  0.00     0.052 A 
HETATM   21  C   UNL     1      -6.028  -2.354 -34.958  1.00  0.00     0.060 A 
HETATM   22  C   UNL     1      -4.038  -2.892 -33.028  1.00  0.00    -0.031 A 
HETATM   23  N   UNL     1      -4.297  -0.600 -32.179  1.00  0.00    -0.364 N 
HETATM   24  C   UNL     1      -2.972  -3.227 -32.023  1.00  0.00     0.050 C 
HETATM   25  C   UNL     1      -4.433  -3.870 -33.955  1.00  0.00     0.051 A 
HETATM   26  C   UNL     1      -5.415  -3.594 -34.902  1.00  0.00     0.117 A 
HETATM   27  F   UNL     1      -5.774  -4.546 -35.772  1.00  0.00    -0.206 F 
HETATM   28  C   UNL     1      -4.867   0.645 -32.260  1.00  0.00     0.109 A 
HETATM   29  H   UNL     1      -3.483  -0.711 -31.585  1.00  0.00     0.165 HD
ENDBRANCH  13  16
ENDBRANCH  10  12
ENDBRANCH   1  10
TORSDOF 3
ENDMDL
MODEL 9
REMARK VINA RESULT:      -9.2      3.803      9.044
REMARK  3 active torsions:
REMARK  status: ('A' for Active; 'I' for Inactive)
REMARK    1  A    between atoms: C_7  and  C_8 
REMARK       I    between atoms: C_8  and  N_9 
REMARK    2  A    between atoms: N_9  and  N_10 
REMARK    3  A    between atoms: N_10  and  C_11 
ROOT
HETATM    1  C   UNL     1      -5.661   0.208 -33.655  1.00  0.00     0.124 A 
HETATM    2  N   UNL     1      -4.523   0.123 -32.941  1.00  0.00    -0.223 NA
HETATM    3  C   UNL     1      -3.923  -1.080 -32.864  1.00  0.00     0.129 A 
HETATM    4 CL   UNL     1      -2.478  -1.097 -31.940  1.00  0.00    -0.062 Cl
HETATM    5  C   UNL     1      -4.394  -2.233 -33.453  1.00  0.00     0.067 A 
HETATM    6  C   UNL     1      -5.578  -2.134 -34.173  1.00  0.00     0.051 A 
HETATM    7  C   UNL     1      -6.135  -3.292 -34.805  1.00  0.00     0.099 C 
HETATM    8  N   UNL     1      -6.580  -4.234 -35.315  1.00  0.00    -0.191 NA
HETATM    9  C   UNL     1      -6.226  -0.903 -34.274  1.00  0.00     0.068 A 
ENDROOT
BRANCH   1  10
HETATM   10  N   UNL     1      -6.296   1.466 -33.683  1.00  0.00    -0.186 NA
HETATM   11  H   UNL     1      -7.231   1.314 -33.277  1.00  0.00     0.154 HD
BRANCH  10  12
HETATM   12  N   UNL     1      -5.589   2.467 -32.984  1.00  0.00    -0.281 N 
HETATM   13  C   UNL     1      -5.585   3.738 -33.522  1.00  0.00     0.271 C 
HETATM   14  O   UNL     1      -6.338   4.082 -34.433  1.00  0.00    -0.266 OA
HETATM   15  H   UNL     1      -4.822   2.162 -32.378  1.00  0.00     0.184 HD
BRANCH  13  16
HETATM   16  C   UNL     1      -4.575   4.662 -32.936  1.00  0.00     0.099 A 
HETATM   17  C   UNL     1      -3.174   4.273 -32.618  1.00  0.00     0.201 A 
HETATM   18  C   UNL     1      -2.259   5.318 -32.085  1.00  0.00     0.045 A 
HETATM   19  O   UNL     1      -2.775   3.125 -32.804  1.00  0.00    -0.286 OA
HETATM   20  C   UNL     1      -2.749   6.628 -31.892  1.00  0.00     0.052 A 
HETATM   21  C   UNL     1      -0.931   4.990 -31.800  1.00  0.00     0.060 A 
HETATM   22  C   UNL     1      -1.887   7.612 -31.367  1.00  0.00    -0.031 A 
HETATM   23  N   UNL     1      -4.098   6.895 -32.166  1.00  0.00    -0.364 N 
HETATM   24  C   UNL     1      -2.345   9.022 -31.124  1.00  0.00     0.050 C 
HETATM   25  C   UNL     1      -0.551   7.273 -31.095  1.00  0.00     0.051 A 
HETATM   26  C   UNL     1      -0.091   5.977 -31.312  1.00  0.00     0.117 A 
HETATM   27  F   UNL     1       1.186   5.680 -31.041  1.00  0.00    -0.206 F 
HETATM   28  C   UNL     1      -4.922   5.935 -32.695  1.00  0.00     0.109 A 
HETATM   29  H   UNL     1      -4.424   7.856 -32.171  1.00  0.00     0.165 HD
ENDBRANCH  13  16
ENDBRANCH  10  12
ENDBRANCH   1  10
TORSDOF 3
ENDMDL
MODEL 10
REMARK VINA RESULT:      -9.1      2.834      3.342
REMARK  3 active torsions:
REMARK  status: ('A' for Active; 'I' for Inactive)
REMARK    1  A    between atoms: C_7  and  C_8 
REMARK       I    between atoms: C_8  and  N_9 
REMARK    2  A    between atoms: N_9  and  N_10 
REMARK    3  A    between atoms: N_10  and  C_11 
ROOT
HETATM    1  C   UNL     1      -5.132   5.438 -33.552  1.00  0.00     0.124 A 
HETATM    2  N   UNL     1      -3.960   5.376 -34.210  1.00  0.00    -0.223 NA
HETATM    3  C   UNL     1      -2.921   6.068 -33.705  1.00  0.00     0.129 A 
HETATM    4 CL   UNL     1      -1.468   5.927 -34.604  1.00  0.00    -0.062 Cl
HETATM    5  C   UNL     1      -2.974   6.845 -32.569  1.00  0.00     0.067 A 
HETATM    6  C   UNL     1      -4.194   6.915 -31.908  1.00  0.00     0.051 A 
HETATM    7  C   UNL     1      -4.327   7.711 -30.727  1.00  0.00     0.099 C 
HETATM    8  N   UNL     1      -4.429   8.358 -29.769  1.00  0.00    -0.191 NA
HETATM    9  C   UNL     1      -5.291   6.209 -32.404  1.00  0.00     0.068 A 
ENDROOT
BRANCH   1  10
HETATM   10  N   UNL     1      -6.217   4.743 -34.125  1.00  0.00    -0.186 NA
HETATM   11  H   UNL     1      -6.464   5.268 -34.976  1.00  0.00     0.154 HD
BRANCH  10  12
HETATM   12  N   UNL     1      -5.926   3.395 -34.419  1.00  0.00    -0.281 N 
HETATM   13  C   UNL     1      -6.839   2.443 -34.014  1.00  0.00     0.271 C 
HETATM   14  O   UNL     1      -7.972   2.725 -33.624  1.00  0.00    -0.266 OA
HETATM   15  H   UNL     1      -4.940   3.144 -34.541  1.00  0.00     0.184 HD
BRANCH  13  16
HETATM   16  C   UNL     1      -6.341   1.041 -34.054  1.00  0.00     0.099 A 
HETATM   17  C   UNL     1      -5.245   0.519 -33.192  1.00  0.00     0.201 A 
HETATM   18  C   UNL     1      -4.888  -0.920 -33.304  1.00  0.00     0.045 A 
HETATM   19  O   UNL     1      -4.660   1.251 -32.396  1.00  0.00    -0.286 OA
HETATM   20  C   UNL     1      -5.587  -1.734 -34.223  1.00  0.00     0.052 A 
HETATM   21  C   UNL     1      -3.882  -1.446 -32.490  1.00  0.00     0.060 A 
HETATM   22  C   UNL     1      -5.234  -3.092 -34.343  1.00  0.00    -0.031 A 
HETATM   23  N   UNL     1      -6.569  -1.149 -35.037  1.00  0.00    -0.364 N 
HETATM   24  C   UNL     1      -5.926  -4.012 -35.310  1.00  0.00     0.050 C 
HETATM   25  C   UNL     1      -4.227  -3.610 -33.512  1.00  0.00     0.051 A 
HETATM   26  C   UNL     1      -3.567  -2.789 -32.602  1.00  0.00     0.117 A 
HETATM   27  F   UNL     1      -2.609  -3.309 -31.824  1.00  0.00    -0.206 F 
HETATM   28  C   UNL     1      -6.918   0.170 -34.897  1.00  0.00     0.109 A 
HETATM   29  H   UNL     1      -7.174  -1.743 -35.592  1.00  0.00     0.165 HD
ENDBRANCH  13  16
ENDBRANCH  10  12
ENDBRANCH   1  10
TORSDOF 3
ENDMDL
