MODEL 1
REMARK VINA RESULT:      -8.5      0.000      0.000
REMARK  6 active torsions:
REMARK  status: ('A' for Active; 'I' for Inactive)
REMARK    1  A    between atoms: C_4  and  N_5 
REMARK       I    between atoms: N_5  and  C_6 
REMARK       I    between atoms: C_6  and  N_7 
REMARK    2  A    between atoms: N_7  and  C_8 
REMARK    3  A    between atoms: N_11  and  C_13 
REMARK    4  A    between atoms: C_13  and  C_14 
REMARK       I    between atoms: C_14  and  N_15 
REMARK    5  A    between atoms: N_15  and  C_16 
REMARK    6  A    between atoms: C_16  and  C_17 
ROOT
HETATM    1  C   UNL     1      -4.240   3.422 -32.509  1.00  0.00     0.090 C 
HETATM    2  C   UNL     1      -5.080   4.280 -33.469  1.00  0.00     0.058 C 
HETATM    3  C   UNL     1      -4.409   5.567 -33.964  1.00  0.00     0.191 C 
HETATM    4  N   UNL     1      -3.340   6.018 -33.008  1.00  0.00    -0.054 N 
HETATM    5  H   UNL     1      -2.979   6.908 -33.406  1.00  0.00     0.281 HD
HETATM    6  C   UNL     1      -2.276   4.981 -33.198  1.00  0.00     0.191 C 
HETATM    7  C   UNL     1      -2.717   3.644 -32.602  1.00  0.00     0.058 C 
HETATM    8  C   UNL     1      -3.581   5.309 -35.228  1.00  0.00     0.035 C 
HETATM    9  C   UNL     1      -2.191   4.914 -34.727  1.00  0.00     0.035 C 
ENDROOT
BRANCH   1  10
HETATM   10  N   UNL     1      -4.618   2.012 -32.597  1.00  0.00    -0.338 N 
HETATM   11  C   UNL     1      -5.064   1.352 -31.485  1.00  0.00     0.321 C 
HETATM   12  N   UNL     1      -5.567   0.102 -31.647  1.00  0.00    -0.309 N 
HETATM   13  O   UNL     1      -5.085   1.878 -30.375  1.00  0.00    -0.247 OA
HETATM   14  H   UNL     1      -6.036  -0.208 -30.803  1.00  0.00     0.170 HD
HETATM   15  H   UNL     1      -5.164   1.741 -33.407  1.00  0.00     0.164 HD
BRANCH  12  16
HETATM   16  C   UNL     1      -5.546  -0.823 -32.707  1.00  0.00     0.036 A 
HETATM   17  C   UNL     1      -4.442  -1.603 -33.060  1.00  0.00     0.029 A 
HETATM   18  C   UNL     1      -4.524  -2.497 -34.134  1.00  0.00     0.002 A 
HETATM   19  C   UNL     1      -5.710  -2.630 -34.852  1.00  0.00     0.000 A 
HETATM   20  C   UNL     1      -6.824  -1.880 -34.489  1.00  0.00     0.002 A 
HETATM   21  C   UNL     1      -6.742  -0.987 -33.418  1.00  0.00     0.029 A 
ENDBRANCH  12  16
ENDBRANCH   1  10
BRANCH   4  22
HETATM   22  C   UNL     1      -3.728   6.460 -31.609  1.00  0.00     0.338 C 
BRANCH  22  23
HETATM   23  C   UNL     1      -2.833   7.619 -31.168  1.00  0.00     0.243 C 
HETATM   24  N   UNL     1      -2.254   7.492 -29.939  1.00  0.00    -0.354 N 
HETATM   25  H   UNL     1      -2.423   6.692 -29.336  1.00  0.00     0.162 HD
HETATM   26  O   UNL     1      -2.706   8.600 -31.900  1.00  0.00    -0.272 OA
BRANCH  24  27
HETATM   27  C   UNL     1      -1.454   8.552 -29.357  1.00  0.00     0.187 C 
BRANCH  27  28
HETATM   28  C   UNL     1      -0.479   7.964 -28.403  1.00  0.00     0.070 A 
HETATM   29  O   UNL     1      -0.955   7.040 -27.509  1.00  0.00    -0.325 OA
HETATM   30  C   UNL     1       0.096   6.655 -26.740  1.00  0.00     0.142 A 
HETATM   31  C   UNL     1       1.240   7.312 -27.126  1.00  0.00     0.027 A 
HETATM   32  C   UNL     1       0.871   8.157 -28.199  1.00  0.00     0.036 A 
ENDBRANCH  27  28
ENDBRANCH  24  27
ENDBRANCH  22  23
ENDBRANCH   4  22
TORSDOF 6
ENDMDL
MODEL 2
REMARK VINA RESULT:      -8.4      2.611      9.399
REMARK  6 active torsions:
REMARK  status: ('A' for Active; 'I' for Inactive)
REMARK    1  A    between atoms: C_4  and  N_5 
REMARK       I    between atoms: N_5  and  C_6 
REMARK       I    between atoms: C_6  and  N_7 
REMARK    2  A    between atoms: N_7  and  C_8 
REMARK    3  A    between atoms: N_11  and  C_13 
REMARK    4  A    between atoms: C_13  and  C_14 
REMARK       I    between atoms: C_14  and  N_15 
REMARK    5  A    between atoms: N_15  and  C_16 
REMARK    6  A    between atoms: C_16  and  C_17 
ROOT
HETATM    1  C   UNL     1      -3.857   3.381 -32.157  1.00  0.00     0.090 C 
HETATM    2  C   UNL     1      -5.158   4.150 -31.872  1.00  0.00     0.058 C 
HETATM    3  C   UNL     1      -6.403   3.284 -31.647  1.00  0.00     0.191 C 
HETATM    4  N   UNL     1      -6.244   1.936 -32.292  1.00  0.00    -0.054 N 
HETATM    5  H   UNL     1      -7.144   1.445 -32.120  1.00  0.00     0.281 HD
HETATM    6  C   UNL     1      -5.209   1.282 -31.427  1.00  0.00     0.191 C 
HETATM    7  C   UNL     1      -3.840   1.924 -31.651  1.00  0.00     0.058 C 
HETATM    8  C   UNL     1      -6.542   2.888 -30.172  1.00  0.00     0.035 C 
HETATM    9  C   UNL     1      -5.751   1.587 -30.027  1.00  0.00     0.035 C 
ENDROOT
BRANCH   1  10
HETATM   10  N   UNL     1      -2.689   4.148 -31.732  1.00  0.00    -0.338 N 
HETATM   11  C   UNL     1      -1.829   4.662 -32.664  1.00  0.00     0.321 C 
HETATM   12  N   UNL     1      -0.860   5.510 -32.236  1.00  0.00    -0.309 N 
HETATM   13  O   UNL     1      -1.953   4.434 -33.865  1.00  0.00    -0.247 OA
HETATM   14  H   UNL     1      -0.413   5.970 -33.021  1.00  0.00     0.170 HD
HETATM   15  H   UNL     1      -2.836   4.819 -30.986  1.00  0.00     0.164 HD
BRANCH  12  16
HETATM   16  C   UNL     1      -0.355   5.845 -30.966  1.00  0.00     0.036 A 
HETATM   17  C   UNL     1       0.383   4.985 -30.151  1.00  0.00     0.029 A 
HETATM   18  C   UNL     1       0.842   5.416 -28.901  1.00  0.00     0.002 A 
HETATM   19  C   UNL     1       0.581   6.713 -28.463  1.00  0.00     0.000 A 
HETATM   20  C   UNL     1      -0.126   7.588 -29.281  1.00  0.00     0.002 A 
HETATM   21  C   UNL     1      -0.586   7.157 -30.528  1.00  0.00     0.029 A 
ENDBRANCH  12  16
ENDBRANCH   1  10
BRANCH   4  22
HETATM   22  C   UNL     1      -6.141   1.839 -33.803  1.00  0.00     0.338 C 
BRANCH  22  23
HETATM   23  C   UNL     1      -6.990   0.668 -34.302  1.00  0.00     0.243 C 
HETATM   24  N   UNL     1      -6.413  -0.566 -34.218  1.00  0.00    -0.354 N 
HETATM   25  H   UNL     1      -5.469  -0.704 -33.870  1.00  0.00     0.162 HD
HETATM   26  O   UNL     1      -8.104   0.885 -34.777  1.00  0.00    -0.272 OA
BRANCH  24  27
HETATM   27  C   UNL     1      -7.066  -1.752 -34.736  1.00  0.00     0.187 C 
BRANCH  27  28
HETATM   28  C   UNL     1      -6.143  -2.910 -34.621  1.00  0.00     0.070 A 
HETATM   29  O   UNL     1      -4.870  -2.657 -34.182  1.00  0.00    -0.325 OA
HETATM   30  C   UNL     1      -4.211  -3.845 -34.168  1.00  0.00     0.142 A 
HETATM   31  C   UNL     1      -5.040  -4.858 -34.589  1.00  0.00     0.027 A 
HETATM   32  C   UNL     1      -6.287  -4.257 -34.881  1.00  0.00     0.036 A 
ENDBRANCH  27  28
ENDBRANCH  24  27
ENDBRANCH  22  23
ENDBRANCH   4  22
TORSDOF 6
ENDMDL
MODEL 3
REMARK VINA RESULT:      -8.1      2.553      3.925
REMARK  6 active torsions:
REMARK  status: ('A' for Active; 'I' for Inactive)
REMARK    1  A    between atoms: C_4  and  N_5 
REMARK       I    between atoms: N_5  and  C_6 
REMARK       I    between atoms: C_6  and  N_7 
REMARK    2  A    between atoms: N_7  and  C_8 
REMARK    3  A    between atoms: N_11  and  C_13 
REMARK    4  A    between atoms: C_13  and  C_14 
REMARK       I    between atoms: C_14  and  N_15 
REMARK    5  A    between atoms: N_15  and  C_16 
REMARK    6  A    between atoms: C_16  and  C_17 
ROOT
HETATM    1  C   UNL     1      -5.418   1.165 -32.047  1.00  0.00     0.090 C 
HETATM    2  C   UNL     1      -6.353   0.978 -30.840  1.00  0.00     0.058 C 
HETATM    3  C   UNL     1      -7.168   2.213 -30.438  1.00  0.00     0.191 C 
HETATM    4  N   UNL     1      -6.501   3.475 -30.909  1.00  0.00    -0.054 N 
HETATM    5  H   UNL     1      -7.102   4.247 -30.557  1.00  0.00     0.281 HD
HETATM    6  C   UNL     1      -6.691   3.407 -32.394  1.00  0.00     0.191 C 
HETATM    7  C   UNL     1      -5.808   2.315 -32.998  1.00  0.00     0.058 C 
HETATM    8  C   UNL     1      -8.493   2.277 -31.207  1.00  0.00     0.035 C 
HETATM    9  C   UNL     1      -8.177   3.046 -32.491  1.00  0.00     0.035 C 
ENDROOT
BRANCH   1  10
HETATM   10  N   UNL     1      -5.197  -0.101 -32.742  1.00  0.00    -0.338 N 
HETATM   11  C   UNL     1      -3.926  -0.500 -33.053  1.00  0.00     0.321 C 
HETATM   12  N   UNL     1      -3.754  -1.755 -33.538  1.00  0.00    -0.309 N 
HETATM   13  O   UNL     1      -2.947   0.212 -32.843  1.00  0.00    -0.247 OA
HETATM   14  H   UNL     1      -2.771  -2.004 -33.550  1.00  0.00     0.170 HD
HETATM   15  H   UNL     1      -5.743  -0.893 -32.420  1.00  0.00     0.164 HD
BRANCH  12  16
HETATM   16  C   UNL     1      -4.636  -2.734 -34.032  1.00  0.00     0.036 A 
HETATM   17  C   UNL     1      -4.341  -4.096 -34.127  1.00  0.00     0.029 A 
HETATM   18  C   UNL     1      -5.290  -4.991 -34.633  1.00  0.00     0.002 A 
HETATM   19  C   UNL     1      -6.546  -4.537 -35.033  1.00  0.00     0.000 A 
HETATM   20  C   UNL     1      -6.860  -3.187 -34.913  1.00  0.00     0.002 A 
HETATM   21  C   UNL     1      -5.912  -2.293 -34.409  1.00  0.00     0.029 A 
ENDBRANCH  12  16
ENDBRANCH   1  10
BRANCH   4  22
HETATM   22  C   UNL     1      -5.153   3.867 -30.334  1.00  0.00     0.338 C 
BRANCH  22  23
HETATM   23  C   UNL     1      -4.531   4.974 -31.187  1.00  0.00     0.243 C 
HETATM   24  N   UNL     1      -3.423   4.625 -31.902  1.00  0.00    -0.354 N 
HETATM   25  H   UNL     1      -3.014   3.697 -31.857  1.00  0.00     0.162 HD
HETATM   26  O   UNL     1      -5.019   6.104 -31.164  1.00  0.00    -0.272 OA
BRANCH  24  27
HETATM   27  C   UNL     1      -2.680   5.595 -32.683  1.00  0.00     0.187 C 
BRANCH  27  28
HETATM   28  C   UNL     1      -1.381   5.871 -32.017  1.00  0.00     0.070 A 
HETATM   29  O   UNL     1      -0.705   4.801 -31.493  1.00  0.00    -0.325 OA
HETATM   30  C   UNL     1       0.432   5.287 -30.931  1.00  0.00     0.142 A 
HETATM   31  C   UNL     1       0.500   6.651 -31.087  1.00  0.00     0.027 A 
HETATM   32  C   UNL     1      -0.669   7.029 -31.787  1.00  0.00     0.036 A 
ENDBRANCH  27  28
ENDBRANCH  24  27
ENDBRANCH  22  23
ENDBRANCH   4  22
TORSDOF 6
ENDMDL
MODEL 4
REMARK VINA RESULT:      -8.0      3.573      5.206
REMARK  6 active torsions:
REMARK  status: ('A' for Active; 'I' for Inactive)
REMARK    1  A    between atoms: C_4  and  N_5 
REMARK       I    between atoms: N_5  and  C_6 
REMARK       I    between atoms: C_6  and  N_7 
REMARK    2  A    between atoms: N_7  and  C_8 
REMARK    3  A    between atoms: N_11  and  C_13 
REMARK    4  A    between atoms: C_13  and  C_14 
REMARK       I    between atoms: C_14  and  N_15 
REMARK    5  A    between atoms: N_15  and  C_16 
REMARK    6  A    between atoms: C_16  and  C_17 
ROOT
HETATM    1  C   UNL     1      -6.442   1.003 -32.501  1.00  0.00     0.090 C 
HETATM    2  C   UNL     1      -7.654   0.679 -31.611  1.00  0.00     0.058 C 
HETATM    3  C   UNL     1      -8.745   1.755 -31.562  1.00  0.00     0.191 C 
HETATM    4  N   UNL     1      -8.185   3.105 -31.913  1.00  0.00    -0.054 N 
HETATM    5  H   UNL     1      -8.983   3.764 -31.813  1.00  0.00     0.281 HD
HETATM    6  C   UNL     1      -7.902   2.968 -33.378  1.00  0.00     0.191 C 
HETATM    7  C   UNL     1      -6.710   2.040 -33.610  1.00  0.00     0.058 C 
HETATM    8  C   UNL     1      -9.766   1.560 -32.690  1.00  0.00     0.035 C 
HETATM    9  C   UNL     1      -9.208   2.342 -33.880  1.00  0.00     0.035 C 
ENDROOT
BRANCH   1  10
HETATM   10  N   UNL     1      -5.815  -0.219 -33.000  1.00  0.00    -0.338 N 
HETATM   11  C   UNL     1      -4.451  -0.324 -33.038  1.00  0.00     0.321 C 
HETATM   12  N   UNL     1      -3.915  -1.532 -33.342  1.00  0.00    -0.309 N 
HETATM   13  O   UNL     1      -3.714   0.613 -32.741  1.00  0.00    -0.247 OA
HETATM   14  H   UNL     1      -2.918  -1.540 -33.155  1.00  0.00     0.170 HD
HETATM   15  H   UNL     1      -6.224  -1.095 -32.693  1.00  0.00     0.164 HD
BRANCH  12  16
HETATM   16  C   UNL     1      -4.444  -2.725 -33.870  1.00  0.00     0.036 A 
HETATM   17  C   UNL     1      -5.519  -2.792 -34.759  1.00  0.00     0.029 A 
HETATM   18  C   UNL     1      -5.971  -4.031 -35.228  1.00  0.00     0.002 A 
HETATM   19  C   UNL     1      -5.344  -5.209 -34.826  1.00  0.00     0.000 A 
HETATM   20  C   UNL     1      -4.253  -5.150 -33.965  1.00  0.00     0.002 A 
HETATM   21  C   UNL     1      -3.803  -3.913 -33.495  1.00  0.00     0.029 A 
ENDBRANCH  12  16
ENDBRANCH   1  10
BRANCH   4  22
HETATM   22  C   UNL     1      -7.158   3.747 -30.999  1.00  0.00     0.338 C 
BRANCH  22  23
HETATM   23  C   UNL     1      -6.712   5.088 -31.587  1.00  0.00     0.243 C 
HETATM   24  N   UNL     1      -5.459   5.116 -32.124  1.00  0.00    -0.354 N 
HETATM   25  H   UNL     1      -4.843   4.309 -32.116  1.00  0.00     0.162 HD
HETATM   26  O   UNL     1      -7.464   6.060 -31.519  1.00  0.00    -0.272 OA
BRANCH  24  27
HETATM   27  C   UNL     1      -4.873   6.340 -32.636  1.00  0.00     0.187 C 
BRANCH  27  28
HETATM   28  C   UNL     1      -3.680   6.008 -33.456  1.00  0.00     0.070 A 
HETATM   29  O   UNL     1      -2.576   6.807 -33.309  1.00  0.00    -0.325 OA
HETATM   30  C   UNL     1      -1.626   6.329 -34.153  1.00  0.00     0.142 A 
HETATM   31  C   UNL     1      -2.099   5.236 -34.840  1.00  0.00     0.027 A 
HETATM   32  C   UNL     1      -3.424   5.028 -34.390  1.00  0.00     0.036 A 
ENDBRANCH  27  28
ENDBRANCH  24  27
ENDBRANCH  22  23
ENDBRANCH   4  22
TORSDOF 6
ENDMDL
MODEL 5
REMARK VINA RESULT:      -7.9      4.785      8.531
REMARK  6 active torsions:
REMARK  status: ('A' for Active; 'I' for Inactive)
REMARK    1  A    between atoms: C_4  and  N_5 
REMARK       I    between atoms: N_5  and  C_6 
REMARK       I    between atoms: C_6  and  N_7 
REMARK    2  A    between atoms: N_7  and  C_8 
REMARK    3  A    between atoms: N_11  and  C_13 
REMARK    4  A    between atoms: C_13  and  C_14 
REMARK       I    between atoms: C_14  and  N_15 
REMARK    5  A    between atoms: N_15  and  C_16 
REMARK    6  A    between atoms: C_16  and  C_17 
ROOT
HETATM    1  C   UNL     1      -6.853   0.786 -31.972  1.00  0.00     0.090 C 
HETATM    2  C   UNL     1      -7.058   1.955 -32.948  1.00  0.00     0.058 C 
HETATM    3  C   UNL     1      -7.219   3.336 -32.301  1.00  0.00     0.191 C 
HETATM    4  N   UNL     1      -7.706   3.213 -30.884  1.00  0.00    -0.054 N 
HETATM    5  H   UNL     1      -7.821   4.190 -30.551  1.00  0.00     0.281 HD
HETATM    6  C   UNL     1      -6.514   2.640 -30.180  1.00  0.00     0.191 C 
HETATM    7  C   UNL     1      -6.298   1.183 -30.589  1.00  0.00     0.058 C 
HETATM    8  C   UNL     1      -5.858   4.009 -32.085  1.00  0.00     0.035 C 
HETATM    9  C   UNL     1      -5.392   3.543 -30.705  1.00  0.00     0.035 C 
ENDROOT
BRANCH   1  10
HETATM   10  N   UNL     1      -6.099  -0.298 -32.601  1.00  0.00    -0.338 N 
HETATM   11  C   UNL     1      -4.774  -0.129 -32.898  1.00  0.00     0.321 C 
HETATM   12  N   UNL     1      -4.073  -1.212 -33.317  1.00  0.00    -0.309 N 
HETATM   13  O   UNL     1      -4.197   0.943 -32.731  1.00  0.00    -0.247 OA
HETATM   14  H   UNL     1      -3.078  -1.017 -33.321  1.00  0.00     0.170 HD
HETATM   15  H   UNL     1      -6.259  -1.230 -32.235  1.00  0.00     0.164 HD
BRANCH  12  16
HETATM   16  C   UNL     1      -4.443  -2.498 -33.754  1.00  0.00     0.036 A 
HETATM   17  C   UNL     1      -5.483  -2.766 -34.647  1.00  0.00     0.029 A 
HETATM   18  C   UNL     1      -5.771  -4.084 -35.021  1.00  0.00     0.002 A 
HETATM   19  C   UNL     1      -5.015  -5.141 -34.517  1.00  0.00     0.000 A 
HETATM   20  C   UNL     1      -3.958  -4.881 -33.651  1.00  0.00     0.002 A 
HETATM   21  C   UNL     1      -3.671  -3.566 -33.277  1.00  0.00     0.029 A 
ENDBRANCH  12  16
ENDBRANCH   1  10
BRANCH   4  22
HETATM   22  C   UNL     1      -9.089   2.647 -30.617  1.00  0.00     0.338 C 
BRANCH  22  23
HETATM   23  C   UNL     1     -10.087   3.237 -31.615  1.00  0.00     0.243 C 
HETATM   24  N   UNL     1     -10.687   2.345 -32.456  1.00  0.00    -0.354 N 
HETATM   25  H   UNL     1     -10.471   1.353 -32.444  1.00  0.00     0.162 HD
HETATM   26  O   UNL     1     -10.273   4.453 -31.641  1.00  0.00    -0.272 OA
BRANCH  24  27
HETATM   27  C   UNL     1     -11.586   2.774 -33.510  1.00  0.00     0.187 C 
BRANCH  27  28
HETATM   28  C   UNL     1     -12.622   1.731 -33.725  1.00  0.00     0.070 A 
HETATM   29  O   UNL     1     -12.282   0.438 -33.426  1.00  0.00    -0.325 OA
HETATM   30  C   UNL     1     -13.364  -0.333 -33.709  1.00  0.00     0.142 A 
HETATM   31  C   UNL     1     -14.395   0.443 -34.184  1.00  0.00     0.027 A 
HETATM   32  C   UNL     1     -13.917   1.775 -34.195  1.00  0.00     0.036 A 
ENDBRANCH  27  28
ENDBRANCH  24  27
ENDBRANCH  22  23
ENDBRANCH   4  22
TORSDOF 6
ENDMDL
MODEL 6
REMARK VINA RESULT:      -7.8      4.411      6.548
REMARK  6 active torsions:
REMARK  status: ('A' for Active; 'I' for Inactive)
REMARK    1  A    between atoms: C_4  and  N_5 
REMARK       I    between atoms: N_5  and  C_6 
REMARK       I    between atoms: C_6  and  N_7 
REMARK    2  A    between atoms: N_7  and  C_8 
REMARK    3  A    between atoms: N_11  and  C_13 
REMARK    4  A    between atoms: C_13  and  C_14 
REMARK       I    between atoms: C_14  and  N_15 
REMARK    5  A    between atoms: N_15  and  C_16 
REMARK    6  A    between atoms: C_16  and  C_17 
ROOT
HETATM    1  C   UNL     1      -8.265   2.084 -32.332  1.00  0.00     0.090 C 
HETATM    2  C   UNL     1      -7.376   2.234 -33.577  1.00  0.00     0.058 C 
HETATM    3  C   UNL     1      -6.032   1.497 -33.521  1.00  0.00     0.191 C 
HETATM    4  N   UNL     1      -5.607   1.260 -32.099  1.00  0.00    -0.054 N 
HETATM    5  H   UNL     1      -4.678   0.798 -32.168  1.00  0.00     0.281 HD
HETATM    6  C   UNL     1      -6.586   0.224 -31.637  1.00  0.00     0.191 C 
HETATM    7  C   UNL     1      -7.977   0.835 -31.473  1.00  0.00     0.058 C 
HETATM    8  C   UNL     1      -6.168   0.057 -34.031  1.00  0.00     0.035 C 
HETATM    9  C   UNL     1      -6.542  -0.772 -32.801  1.00  0.00     0.035 C 
ENDROOT
BRANCH   1  10
HETATM   10  N   UNL     1      -9.679   2.227 -32.675  1.00  0.00    -0.338 N 
HETATM   11  C   UNL     1     -10.230   3.473 -32.805  1.00  0.00     0.321 C 
HETATM   12  N   UNL     1     -11.493   3.561 -33.293  1.00  0.00    -0.309 N 
HETATM   13  O   UNL     1      -9.597   4.497 -32.561  1.00  0.00    -0.247 OA
HETATM   14  H   UNL     1     -11.722   4.522 -33.524  1.00  0.00     0.170 HD
HETATM   15  H   UNL     1     -10.032   1.612 -33.400  1.00  0.00     0.164 HD
BRANCH  12  16
HETATM   16  C   UNL     1     -12.517   2.621 -33.511  1.00  0.00     0.036 A 
HETATM   17  C   UNL     1     -12.468   1.596 -34.458  1.00  0.00     0.029 A 
HETATM   18  C   UNL     1     -13.542   0.709 -34.597  1.00  0.00     0.002 A 
HETATM   19  C   UNL     1     -14.665   0.830 -33.782  1.00  0.00     0.000 A 
HETATM   20  C   UNL     1     -14.711   1.829 -32.815  1.00  0.00     0.002 A 
HETATM   21  C   UNL     1     -13.640   2.715 -32.677  1.00  0.00     0.029 A 
ENDBRANCH  12  16
ENDBRANCH   1  10
BRANCH   4  22
HETATM   22  C   UNL     1      -5.280   2.445 -31.210  1.00  0.00     0.338 C 
BRANCH  22  23
HETATM   23  C   UNL     1      -3.774   2.711 -31.240  1.00  0.00     0.243 C 
HETATM   24  N   UNL     1      -3.396   4.018 -31.128  1.00  0.00    -0.354 N 
HETATM   25  H   UNL     1      -4.068   4.776 -31.055  1.00  0.00     0.162 HD
HETATM   26  O   UNL     1      -2.995   1.772 -31.396  1.00  0.00    -0.272 OA
BRANCH  24  27
HETATM   27  C   UNL     1      -2.008   4.424 -31.230  1.00  0.00     0.187 C 
BRANCH  27  28
HETATM   28  C   UNL     1      -1.785   5.085 -32.542  1.00  0.00     0.070 A 
HETATM   29  O   UNL     1      -1.364   6.388 -32.524  1.00  0.00    -0.325 OA
HETATM   30  C   UNL     1      -1.240   6.782 -33.818  1.00  0.00     0.142 A 
HETATM   31  C   UNL     1      -1.572   5.753 -34.668  1.00  0.00     0.027 A 
HETATM   32  C   UNL     1      -1.924   4.657 -33.845  1.00  0.00     0.036 A 
ENDBRANCH  27  28
ENDBRANCH  24  27
ENDBRANCH  22  23
ENDBRANCH   4  22
TORSDOF 6
ENDMDL
MODEL 7
REMARK VINA RESULT:      -7.5      1.459      2.027
REMARK  6 active torsions:
REMARK  status: ('A' for Active; 'I' for Inactive)
REMARK    1  A    between atoms: C_4  and  N_5 
REMARK       I    between atoms: N_5  and  C_6 
REMARK       I    between atoms: C_6  and  N_7 
REMARK    2  A    between atoms: N_7  and  C_8 
REMARK    3  A    between atoms: N_11  and  C_13 
REMARK    4  A    between atoms: C_13  and  C_14 
REMARK       I    between atoms: C_14  and  N_15 
REMARK    5  A    between atoms: N_15  and  C_16 
REMARK    6  A    between atoms: C_16  and  C_17 
ROOT
HETATM    1  C   UNL     1      -4.269   3.157 -32.093  1.00  0.00     0.090 C 
HETATM    2  C   UNL     1      -5.150   3.565 -30.900  1.00  0.00     0.058 C 
HETATM    3  C   UNL     1      -5.523   5.051 -30.832  1.00  0.00     0.191 C 
HETATM    4  N   UNL     1      -4.527   5.891 -31.582  1.00  0.00    -0.054 N 
HETATM    5  H   UNL     1      -4.841   6.872 -31.444  1.00  0.00     0.281 HD
HETATM    6  C   UNL     1      -4.808   5.530 -33.009  1.00  0.00     0.191 C 
HETATM    7  C   UNL     1      -4.337   4.106 -33.306  1.00  0.00     0.058 C 
HETATM    8  C   UNL     1      -6.803   5.336 -31.626  1.00  0.00     0.035 C 
HETATM    9  C   UNL     1      -6.337   5.637 -33.051  1.00  0.00     0.035 C 
ENDROOT
BRANCH   1  10
HETATM   10  N   UNL     1      -4.486   1.756 -32.450  1.00  0.00    -0.338 N 
HETATM   11  C   UNL     1      -3.735   0.774 -31.863  1.00  0.00     0.321 C 
HETATM   12  N   UNL     1      -4.086  -0.516 -32.092  1.00  0.00    -0.309 N 
HETATM   13  O   UNL     1      -2.812   1.028 -31.093  1.00  0.00    -0.247 OA
HETATM   14  H   UNL     1      -3.590  -1.140 -31.464  1.00  0.00     0.170 HD
HETATM   15  H   UNL     1      -5.451   1.456 -32.533  1.00  0.00     0.164 HD
BRANCH  12  16
HETATM   16  C   UNL     1      -4.951  -1.139 -33.011  1.00  0.00     0.036 A 
HETATM   17  C   UNL     1      -4.544  -2.017 -34.017  1.00  0.00     0.029 A 
HETATM   18  C   UNL     1      -5.486  -2.587 -34.882  1.00  0.00     0.002 A 
HETATM   19  C   UNL     1      -6.841  -2.295 -34.739  1.00  0.00     0.000 A 
HETATM   20  C   UNL     1      -7.259  -1.446 -33.720  1.00  0.00     0.002 A 
HETATM   21  C   UNL     1      -6.319  -0.877 -32.858  1.00  0.00     0.029 A 
ENDBRANCH  12  16
ENDBRANCH   1  10
BRANCH   4  22
HETATM   22  C   UNL     1      -3.094   5.969 -31.088  1.00  0.00     0.338 C 
BRANCH  22  23
HETATM   23  C   UNL     1      -2.999   6.985 -29.948  1.00  0.00     0.243 C 
HETATM   24  N   UNL     1      -2.114   6.685 -28.954  1.00  0.00    -0.354 N 
HETATM   25  H   UNL     1      -1.566   5.830 -28.950  1.00  0.00     0.162 HD
HETATM   26  O   UNL     1      -3.726   7.978 -29.957  1.00  0.00    -0.272 OA
BRANCH  24  27
HETATM   27  C   UNL     1      -1.984   7.512 -27.770  1.00  0.00     0.187 C 
BRANCH  27  28
HETATM   28  C   UNL     1      -0.548   7.816 -27.539  1.00  0.00     0.070 A 
HETATM   29  O   UNL     1       0.213   6.838 -26.955  1.00  0.00    -0.325 OA
HETATM   30  C   UNL     1       1.471   7.336 -26.832  1.00  0.00     0.142 A 
HETATM   31  C   UNL     1       1.532   8.616 -27.329  1.00  0.00     0.027 A 
HETATM   32  C   UNL     1       0.229   8.928 -27.785  1.00  0.00     0.036 A 
ENDBRANCH  27  28
ENDBRANCH  24  27
ENDBRANCH  22  23
ENDBRANCH   4  22
TORSDOF 6
ENDMDL
MODEL 8
REMARK VINA RESULT:      -7.5      4.426      9.791
REMARK  6 active torsions:
REMARK  status: ('A' for Active; 'I' for Inactive)
REMARK    1  A    between atoms: C_4  and  N_5 
REMARK       I    between atoms: N_5  and  C_6 
REMARK       I    between atoms: C_6  and  N_7 
REMARK    2  A    between atoms: N_7  and  C_8 
REMARK    3  A    between atoms: N_11  and  C_13 
REMARK    4  A    between atoms: C_13  and  C_14 
REMARK       I    between atoms: C_14  and  N_15 
REMARK    5  A    between atoms: N_15  and  C_16 
REMARK    6  A    between atoms: C_16  and  C_17 
ROOT
HETATM    1  C   UNL     1      -5.982   2.917 -32.115  1.00  0.00     0.090 C 
HETATM    2  C   UNL     1      -5.924   1.888 -30.974  1.00  0.00     0.058 C 
HETATM    3  C   UNL     1      -6.850   0.675 -31.130  1.00  0.00     0.191 C 
HETATM    4  N   UNL     1      -8.007   0.995 -32.034  1.00  0.00    -0.054 N 
HETATM    5  H   UNL     1      -8.590   0.134 -32.043  1.00  0.00     0.281 HD
HETATM    6  C   UNL     1      -7.350   1.101 -33.377  1.00  0.00     0.191 C 
HETATM    7  C   UNL     1      -6.500   2.368 -33.460  1.00  0.00     0.058 C 
HETATM    8  C   UNL     1      -6.164  -0.447 -31.918  1.00  0.00     0.035 C 
HETATM    9  C   UNL     1      -6.481  -0.162 -33.386  1.00  0.00     0.035 C 
ENDROOT
BRANCH   1  10
HETATM   10  N   UNL     1      -4.715   3.635 -32.240  1.00  0.00    -0.338 N 
HETATM   11  C   UNL     1      -3.559   2.947 -32.487  1.00  0.00     0.321 C 
HETATM   12  N   UNL     1      -2.441   3.663 -32.768  1.00  0.00    -0.309 N 
HETATM   13  O   UNL     1      -3.523   1.719 -32.527  1.00  0.00    -0.247 OA
HETATM   14  H   UNL     1      -1.706   3.058 -33.117  1.00  0.00     0.170 HD
HETATM   15  H   UNL     1      -4.734   4.492 -32.782  1.00  0.00     0.164 HD
BRANCH  12  16
HETATM   16  C   UNL     1      -2.106   5.025 -32.652  1.00  0.00     0.036 A 
HETATM   17  C   UNL     1      -1.631   5.631 -31.488  1.00  0.00     0.029 A 
HETATM   18  C   UNL     1      -1.323   6.996 -31.476  1.00  0.00     0.002 A 
HETATM   19  C   UNL     1      -1.474   7.762 -32.630  1.00  0.00     0.000 A 
HETATM   20  C   UNL     1      -1.917   7.161 -33.804  1.00  0.00     0.002 A 
HETATM   21  C   UNL     1      -2.225   5.798 -33.815  1.00  0.00     0.029 A 
ENDBRANCH  12  16
ENDBRANCH   1  10
BRANCH   4  22
HETATM   22  C   UNL     1      -9.025   2.034 -31.604  1.00  0.00     0.338 C 
BRANCH  22  23
HETATM   23  C   UNL     1     -10.051   2.243 -32.720  1.00  0.00     0.243 C 
HETATM   24  N   UNL     1     -10.955   1.237 -32.895  1.00  0.00    -0.354 N 
HETATM   25  H   UNL     1     -10.941   0.387 -32.340  1.00  0.00     0.162 HD
HETATM   26  O   UNL     1      -9.994   3.259 -33.413  1.00  0.00    -0.272 OA
BRANCH  24  27
HETATM   27  C   UNL     1     -11.926   1.260 -33.972  1.00  0.00     0.187 C 
BRANCH  27  28
HETATM   28  C   UNL     1     -13.264   1.593 -33.419  1.00  0.00     0.070 A 
HETATM   29  O   UNL     1     -13.370   2.742 -32.680  1.00  0.00    -0.325 OA
HETATM   30  C   UNL     1     -14.662   2.834 -32.272  1.00  0.00     0.142 A 
HETATM   31  C   UNL     1     -15.390   1.766 -32.738  1.00  0.00     0.027 A 
HETATM   32  C   UNL     1     -14.490   0.964 -33.479  1.00  0.00     0.036 A 
ENDBRANCH  27  28
ENDBRANCH  24  27
ENDBRANCH  22  23
ENDBRANCH   4  22
TORSDOF 6
ENDMDL
MODEL 9
REMARK VINA RESULT:      -7.4      2.977      4.885
REMARK  6 active torsions:
REMARK  status: ('A' for Active; 'I' for Inactive)
REMARK    1  A    between atoms: C_4  and  N_5 
REMARK       I    between atoms: N_5  and  C_6 
REMARK       I    between atoms: C_6  and  N_7 
REMARK    2  A    between atoms: N_7  and  C_8 
REMARK    3  A    between atoms: N_11  and  C_13 
REMARK    4  A    between atoms: C_13  and  C_14 
REMARK       I    between atoms: C_14  and  N_15 
REMARK    5  A    between atoms: N_15  and  C_16 
REMARK    6  A    between atoms: C_16  and  C_17 
ROOT
HETATM    1  C   UNL     1      -4.442   3.208 -32.459  1.00  0.00     0.090 C 
HETATM    2  C   UNL     1      -5.315   4.049 -33.404  1.00  0.00     0.058 C 
HETATM    3  C   UNL     1      -4.711   5.388 -33.845  1.00  0.00     0.191 C 
HETATM    4  N   UNL     1      -3.683   5.866 -32.858  1.00  0.00    -0.054 N 
HETATM    5  H   UNL     1      -3.367   6.787 -33.222  1.00  0.00     0.281 HD
HETATM    6  C   UNL     1      -2.560   4.896 -33.065  1.00  0.00     0.191 C 
HETATM    7  C   UNL     1      -2.933   3.518 -32.519  1.00  0.00     0.058 C 
HETATM    8  C   UNL     1      -3.852   5.219 -35.104  1.00  0.00     0.035 C 
HETATM    9  C   UNL     1      -2.449   4.885 -34.594  1.00  0.00     0.035 C 
ENDROOT
BRANCH   1  10
HETATM   10  N   UNL     1      -4.739   1.784 -32.598  1.00  0.00    -0.338 N 
HETATM   11  C   UNL     1      -5.124   1.053 -31.507  1.00  0.00     0.321 C 
HETATM   12  N   UNL     1      -5.556  -0.216 -31.711  1.00  0.00    -0.309 N 
HETATM   13  O   UNL     1      -5.154   1.533 -30.376  1.00  0.00    -0.247 OA
HETATM   14  H   UNL     1      -5.990  -0.588 -30.874  1.00  0.00     0.170 HD
HETATM   15  H   UNL     1      -5.284   1.513 -33.409  1.00  0.00     0.164 HD
BRANCH  12  16
HETATM   16  C   UNL     1      -5.501  -1.095 -32.809  1.00  0.00     0.036 A 
HETATM   17  C   UNL     1      -4.370  -1.818 -33.193  1.00  0.00     0.029 A 
HETATM   18  C   UNL     1      -4.418  -2.670 -34.303  1.00  0.00     0.002 A 
HETATM   19  C   UNL     1      -5.599  -2.816 -35.028  1.00  0.00     0.000 A 
HETATM   20  C   UNL     1      -6.740  -2.124 -34.635  1.00  0.00     0.002 A 
HETATM   21  C   UNL     1      -6.691  -1.273 -33.528  1.00  0.00     0.029 A 
ENDBRANCH  12  16
ENDBRANCH   1  10
BRANCH   4  22
HETATM   22  C   UNL     1      -4.115   6.238 -31.452  1.00  0.00     0.338 C 
BRANCH  22  23
HETATM   23  C   UNL     1      -5.609   6.569 -31.444  1.00  0.00     0.243 C 
HETATM   24  N   UNL     1      -6.402   5.729 -30.719  1.00  0.00    -0.354 N 
HETATM   25  H   UNL     1      -6.036   4.916 -30.232  1.00  0.00     0.162 HD
HETATM   26  O   UNL     1      -6.022   7.525 -32.099  1.00  0.00    -0.272 OA
BRANCH  24  27
HETATM   27  C   UNL     1      -7.845   5.870 -30.694  1.00  0.00     0.187 C 
BRANCH  27  28
HETATM   28  C   UNL     1      -8.467   4.655 -31.281  1.00  0.00     0.070 A 
HETATM   29  O   UNL     1      -7.879   3.451 -30.999  1.00  0.00    -0.325 OA
HETATM   30  C   UNL     1      -8.601   2.496 -31.642  1.00  0.00     0.142 A 
HETATM   31  C   UNL     1      -9.645   3.067 -32.330  1.00  0.00     0.027 A 
HETATM   32  C   UNL     1      -9.560   4.460 -32.098  1.00  0.00     0.036 A 
ENDBRANCH  27  28
ENDBRANCH  24  27
ENDBRANCH  22  23
ENDBRANCH   4  22
TORSDOF 6
ENDMDL
MODEL 10
REMARK VINA RESULT:      -7.3      2.292      9.402
REMARK  6 active torsions:
REMARK  status: ('A' for Active; 'I' for Inactive)
REMARK    1  A    between atoms: C_4  and  N_5 
REMARK       I    between atoms: N_5  and  C_6 
REMARK       I    between atoms: C_6  and  N_7 
REMARK    2  A    between atoms: N_7  and  C_8 
REMARK    3  A    between atoms: N_11  and  C_13 
REMARK    4  A    between atoms: C_13  and  C_14 
REMARK       I    between atoms: C_14  and  N_15 
REMARK    5  A    between atoms: N_15  and  C_16 
REMARK    6  A    between atoms: C_16  and  C_17 
ROOT
HETATM    1  C   UNL     1      -3.539   4.452 -31.437  1.00  0.00     0.090 C 
HETATM    2  C   UNL     1      -3.851   5.116 -32.788  1.00  0.00     0.058 C 
HETATM    3  C   UNL     1      -5.282   4.925 -33.304  1.00  0.00     0.191 C 
HETATM    4  N   UNL     1      -5.910   3.697 -32.705  1.00  0.00    -0.054 N 
HETATM    5  H   UNL     1      -6.851   3.634 -33.143  1.00  0.00     0.281 HD
HETATM    6  C   UNL     1      -6.110   4.099 -31.276  1.00  0.00     0.191 C 
HETATM    7  C   UNL     1      -4.769   4.179 -30.548  1.00  0.00     0.058 C 
HETATM    8  C   UNL     1      -6.214   6.020 -32.770  1.00  0.00     0.035 C 
HETATM    9  C   UNL     1      -6.744   5.485 -31.439  1.00  0.00     0.035 C 
ENDROOT
BRANCH   1  10
HETATM   10  N   UNL     1      -2.473   5.164 -30.735  1.00  0.00    -0.338 N 
HETATM   11  C   UNL     1      -1.218   5.227 -31.276  1.00  0.00     0.321 C 
HETATM   12  N   UNL     1      -0.309   6.040 -30.682  1.00  0.00    -0.309 N 
HETATM   13  O   UNL     1      -0.919   4.630 -32.308  1.00  0.00    -0.247 OA
HETATM   14  H   UNL     1       0.510   6.153 -31.269  1.00  0.00     0.170 HD
HETATM   15  H   UNL     1      -2.721   6.057 -30.325  1.00  0.00     0.164 HD
BRANCH  12  16
HETATM   16  C   UNL     1      -0.270   6.713 -29.446  1.00  0.00     0.036 A 
HETATM   17  C   UNL     1       0.307   6.203 -28.281  1.00  0.00     0.029 A 
HETATM   18  C   UNL     1       0.295   6.953 -27.100  1.00  0.00     0.002 A 
HETATM   19  C   UNL     1      -0.278   8.223 -27.077  1.00  0.00     0.000 A 
HETATM   20  C   UNL     1      -0.827   8.752 -28.240  1.00  0.00     0.002 A 
HETATM   21  C   UNL     1      -0.817   8.002 -29.419  1.00  0.00     0.029 A 
ENDBRANCH  12  16
ENDBRANCH   1  10
BRANCH   4  22
HETATM   22  C   UNL     1      -5.340   2.331 -33.036  1.00  0.00     0.338 C 
BRANCH  22  23
HETATM   23  C   UNL     1      -6.442   1.438 -33.609  1.00  0.00     0.243 C 
HETATM   24  N   UNL     1      -6.332   0.105 -33.337  1.00  0.00    -0.354 N 
HETATM   25  H   UNL     1      -5.556  -0.282 -32.809  1.00  0.00     0.162 HD
HETATM   26  O   UNL     1      -7.331   1.937 -34.299  1.00  0.00    -0.272 OA
BRANCH  24  27
HETATM   27  C   UNL     1      -7.255  -0.867 -33.890  1.00  0.00     0.187 C 
BRANCH  27  28
HETATM   28  C   UNL     1      -6.503  -2.083 -34.295  1.00  0.00     0.070 A 
HETATM   29  O   UNL     1      -5.136  -1.999 -34.309  1.00  0.00    -0.325 OA
HETATM   30  C   UNL     1      -4.669  -3.208 -34.716  1.00  0.00     0.142 A 
HETATM   31  C   UNL     1      -5.713  -4.068 -34.962  1.00  0.00     0.027 A 
HETATM   32  C   UNL     1      -6.897  -3.343 -34.690  1.00  0.00     0.036 A 
ENDBRANCH  27  28
ENDBRANCH  24  27
ENDBRANCH  22  23
ENDBRANCH   4  22
TORSDOF 6
ENDMDL
