MODEL 1
REMARK VINA RESULT:      -9.0      0.000      0.000
REMARK  10 active torsions:
REMARK  status: ('A' for Active; 'I' for Inactive)
REMARK    1  A    between atoms: C_2  and  O_3 
REMARK    2  A    between atoms: O_3  and  C_4 
REMARK    3  A    between atoms: C_4  and  C_5 
REMARK    4  A    between atoms: C_6  and  C_7 
REMARK    5  A    between atoms: C_7  and  O_8 
REMARK    6  A    between atoms: O_8  and  C_9 
REMARK    7  A    between atoms: C_9  and  C_10 
REMARK       I    between atoms: C_10  and  N_11 
REMARK    8  A    between atoms: N_11  and  C_12 
REMARK    9  A    between atoms: C_13  and  C_14 
REMARK       I    between atoms: C_14  and  N_15 
REMARK   10  A    between atoms: N_15  and  C_16 
ROOT
HETATM    1  C   UNL     1      -3.274   0.407 -32.045  1.00  0.00     0.282 C 
ENDROOT
BRANCH   1   2
HETATM    2  O   UNL     1      -3.773   1.707 -32.379  1.00  0.00    -0.307 OA
BRANCH   2   3
HETATM    3  C   UNL     1      -4.084   2.544 -31.350  1.00  0.00     0.318 C 
HETATM    4  O   UNL     1      -4.936   2.320 -30.499  1.00  0.00    -0.257 OA
BRANCH   3   5
HETATM    5  C   UNL     1      -3.295   3.749 -31.461  1.00  0.00     0.160 A 
HETATM    6  C   UNL     1      -3.648   5.047 -31.813  1.00  0.00     0.018 A 
HETATM    7  C   UNL     1      -2.442   5.814 -31.769  1.00  0.00     0.009 A 
HETATM    8  C   UNL     1      -1.438   4.927 -31.407  1.00  0.00     0.087 A 
HETATM    9  C   UNL     1      -2.091   7.160 -31.992  1.00  0.00     0.015 A 
HETATM   10  O   UNL     1      -1.946   3.682 -31.226  1.00  0.00    -0.303 OA
HETATM   11  C   UNL     1      -0.097   5.276 -31.254  1.00  0.00     0.038 A 
HETATM   12  C   UNL     1       0.229   6.615 -31.482  1.00  0.00     0.003 A 
HETATM   13  C   UNL     1      -0.750   7.543 -31.845  1.00  0.00     0.001 A 
BRANCH   6  14
HETATM   14  C   UNL     1      -5.019   5.526 -32.133  1.00  0.00     0.210 C 
BRANCH  14  15
HETATM   15  O   UNL     1      -5.068   6.009 -33.476  1.00  0.00    -0.387 OA
BRANCH  15  16
HETATM   16  C   UNL     1      -4.918   4.955 -34.421  1.00  0.00     0.163 C 
HETATM   17  C   UNL     1      -3.703   5.249 -35.277  1.00  0.00     0.033 C 
ENDBRANCH  15  16
ENDBRANCH  14  15
ENDBRANCH   6  14
ENDBRANCH   3   5
ENDBRANCH   2   3
ENDBRANCH   1   2
BRANCH   1  18
HETATM   18  C   UNL     1      -4.309  -0.671 -32.360  1.00  0.00     0.246 C 
HETATM   19  N   UNL     1      -4.066  -1.322 -33.561  1.00  0.00    -0.324 N 
HETATM   20  H   UNL     1      -3.476  -0.818 -34.215  1.00  0.00     0.169 HD
HETATM   21  O   UNL     1      -5.265  -0.888 -31.618  1.00  0.00    -0.271 OA
BRANCH  19  22
HETATM   22  C   UNL     1      -4.810  -2.414 -34.050  1.00  0.00     0.050 A 
HETATM   23  C   UNL     1      -6.067  -2.315 -34.672  1.00  0.00     0.058 A 
HETATM   24  C   UNL     1      -6.689  -3.469 -35.183  1.00  0.00     0.019 A 
HETATM   25  C   UNL     1      -6.071  -4.714 -35.065  1.00  0.00     0.001 A 
HETATM   26  C   UNL     1      -4.850  -4.821 -34.404  1.00  0.00     0.002 A 
HETATM   27  C   UNL     1      -4.231  -3.681 -33.888  1.00  0.00     0.030 A 
BRANCH  23  28
HETATM   28  C   UNL     1      -6.895  -1.083 -34.600  1.00  0.00     0.254 C 
HETATM   29  N   UNL     1      -7.865  -1.084 -33.614  1.00  0.00    -0.352 N 
HETATM   30  H   UNL     1      -8.115  -1.974 -33.202  1.00  0.00     0.163 HD
HETATM   31  O   UNL     1      -6.655  -0.136 -35.342  1.00  0.00    -0.268 OA
BRANCH  29  32
HETATM   32  C   UNL     1      -8.726   0.035 -33.398  1.00  0.00     0.084 A 
HETATM   33  C   UNL     1     -10.042  -0.137 -32.695  1.00  0.00     0.027 A 
HETATM   34  C   UNL     1      -8.922   0.594 -32.015  1.00  0.00     0.027 A 
ENDBRANCH  29  32
ENDBRANCH  23  28
ENDBRANCH  19  22
ENDBRANCH   1  18
TORSDOF 10
ENDMDL
MODEL 2
REMARK VINA RESULT:      -8.5      2.647      8.574
REMARK  10 active torsions:
REMARK  status: ('A' for Active; 'I' for Inactive)
REMARK    1  A    between atoms: C_2  and  O_3 
REMARK    2  A    between atoms: O_3  and  C_4 
REMARK    3  A    between atoms: C_4  and  C_5 
REMARK    4  A    between atoms: C_6  and  C_7 
REMARK    5  A    between atoms: C_7  and  O_8 
REMARK    6  A    between atoms: O_8  and  C_9 
REMARK    7  A    between atoms: C_9  and  C_10 
REMARK       I    between atoms: C_10  and  N_11 
REMARK    8  A    between atoms: N_11  and  C_12 
REMARK    9  A    between atoms: C_13  and  C_14 
REMARK       I    between atoms: C_14  and  N_15 
REMARK   10  A    between atoms: N_15  and  C_16 
ROOT
HETATM    1  C   UNL     1      -5.170   2.842 -30.190  1.00  0.00     0.282 C 
ENDROOT
BRANCH   1   2
HETATM    2  O   UNL     1      -5.710   1.545 -30.467  1.00  0.00    -0.307 OA
BRANCH   2   3
HETATM    3  C   UNL     1      -6.737   1.469 -31.359  1.00  0.00     0.318 C 
HETATM    4  O   UNL     1      -7.713   2.207 -31.366  1.00  0.00    -0.257 OA
BRANCH   3   5
HETATM    5  C   UNL     1      -6.515   0.351 -32.247  1.00  0.00     0.160 A 
HETATM    6  C   UNL     1      -7.383  -0.338 -33.087  1.00  0.00     0.018 A 
HETATM    7  C   UNL     1      -6.605  -1.365 -33.707  1.00  0.00     0.009 A 
HETATM    8  C   UNL     1      -5.323  -1.239 -33.191  1.00  0.00     0.087 A 
HETATM    9  C   UNL     1      -6.844  -2.385 -34.650  1.00  0.00     0.015 A 
HETATM   10  O   UNL     1      -5.267  -0.210 -32.308  1.00  0.00    -0.303 OA
HETATM   11  C   UNL     1      -4.250  -2.058 -33.538  1.00  0.00     0.038 A 
HETATM   12  C   UNL     1      -4.510  -3.064 -34.473  1.00  0.00     0.003 A 
HETATM   13  C   UNL     1      -5.785  -3.226 -35.021  1.00  0.00     0.001 A 
BRANCH   6  14
HETATM   14  C   UNL     1      -8.821  -0.028 -33.308  1.00  0.00     0.210 C 
BRANCH  14  15
HETATM   15  O   UNL     1      -8.964   0.896 -34.386  1.00  0.00    -0.387 OA
BRANCH  15  16
HETATM   16  C   UNL     1     -10.051   1.790 -34.174  1.00  0.00     0.163 C 
HETATM   17  C   UNL     1     -11.219   1.001 -33.618  1.00  0.00     0.033 C 
ENDBRANCH  15  16
ENDBRANCH  14  15
ENDBRANCH   6  14
ENDBRANCH   3   5
ENDBRANCH   2   3
ENDBRANCH   1   2
BRANCH   1  18
HETATM   18  C   UNL     1      -3.988   3.147 -31.108  1.00  0.00     0.246 C 
HETATM   19  N   UNL     1      -4.112   4.362 -31.767  1.00  0.00    -0.324 N 
HETATM   20  H   UNL     1      -5.058   4.725 -31.831  1.00  0.00     0.169 HD
HETATM   21  O   UNL     1      -3.057   2.358 -31.249  1.00  0.00    -0.271 OA
BRANCH  19  22
HETATM   22  C   UNL     1      -3.130   4.930 -32.603  1.00  0.00     0.050 A 
HETATM   23  C   UNL     1      -2.042   5.699 -32.154  1.00  0.00     0.058 A 
HETATM   24  C   UNL     1      -1.083   6.161 -33.074  1.00  0.00     0.019 A 
HETATM   25  C   UNL     1      -1.213   5.871 -34.433  1.00  0.00     0.001 A 
HETATM   26  C   UNL     1      -2.317   5.153 -34.885  1.00  0.00     0.002 A 
HETATM   27  C   UNL     1      -3.276   4.698 -33.978  1.00  0.00     0.030 A 
BRANCH  23  28
HETATM   28  C   UNL     1      -1.980   6.264 -30.781  1.00  0.00     0.254 C 
HETATM   29  N   UNL     1      -0.738   6.198 -30.175  1.00  0.00    -0.352 N 
HETATM   30  H   UNL     1      -0.054   5.566 -30.573  1.00  0.00     0.163 HD
HETATM   31  O   UNL     1      -2.969   6.796 -30.288  1.00  0.00    -0.268 OA
BRANCH  29  32
HETATM   32  C   UNL     1      -0.506   6.719 -28.866  1.00  0.00     0.084 A 
HETATM   33  C   UNL     1       0.758   6.389 -28.124  1.00  0.00     0.027 A 
HETATM   34  C   UNL     1       0.535   7.781 -28.639  1.00  0.00     0.027 A 
ENDBRANCH  29  32
ENDBRANCH  23  28
ENDBRANCH  19  22
ENDBRANCH   1  18
TORSDOF 10
ENDMDL
MODEL 3
REMARK VINA RESULT:      -8.1      2.071      8.145
REMARK  10 active torsions:
REMARK  status: ('A' for Active; 'I' for Inactive)
REMARK    1  A    between atoms: C_2  and  O_3 
REMARK    2  A    between atoms: O_3  and  C_4 
REMARK    3  A    between atoms: C_4  and  C_5 
REMARK    4  A    between atoms: C_6  and  C_7 
REMARK    5  A    between atoms: C_7  and  O_8 
REMARK    6  A    between atoms: O_8  and  C_9 
REMARK    7  A    between atoms: C_9  and  C_10 
REMARK       I    between atoms: C_10  and  N_11 
REMARK    8  A    between atoms: N_11  and  C_12 
REMARK    9  A    between atoms: C_13  and  C_14 
REMARK       I    between atoms: C_14  and  N_15 
REMARK   10  A    between atoms: N_15  and  C_16 
ROOT
HETATM    1  C   UNL     1      -3.382   1.602 -31.800  1.00  0.00     0.282 C 
ENDROOT
BRANCH   1   2
HETATM    2  O   UNL     1      -4.361   1.275 -32.794  1.00  0.00    -0.307 OA
BRANCH   2   3
HETATM    3  C   UNL     1      -5.485   0.629 -32.378  1.00  0.00     0.318 C 
HETATM    4  O   UNL     1      -6.246   1.035 -31.510  1.00  0.00    -0.257 OA
BRANCH   3   5
HETATM    5  C   UNL     1      -5.599  -0.628 -33.081  1.00  0.00     0.160 A 
HETATM    6  C   UNL     1      -6.596  -1.128 -33.912  1.00  0.00     0.018 A 
HETATM    7  C   UNL     1      -6.171  -2.436 -34.302  1.00  0.00     0.009 A 
HETATM    8  C   UNL     1      -4.953  -2.647 -33.672  1.00  0.00     0.087 A 
HETATM    9  C   UNL     1      -6.682  -3.462 -35.122  1.00  0.00     0.015 A 
HETATM   10  O   UNL     1      -4.608  -1.564 -32.932  1.00  0.00    -0.303 OA
HETATM   11  C   UNL     1      -4.198  -3.813 -33.789  1.00  0.00     0.038 A 
HETATM   12  C   UNL     1      -4.724  -4.818 -34.605  1.00  0.00     0.003 A 
HETATM   13  C   UNL     1      -5.945  -4.647 -35.261  1.00  0.00     0.001 A 
BRANCH   6  14
HETATM   14  C   UNL     1      -7.833  -0.412 -34.325  1.00  0.00     0.210 C 
BRANCH  14  15
HETATM   15  O   UNL     1      -8.758  -0.366 -33.240  1.00  0.00    -0.387 OA
BRANCH  15  16
HETATM   16  C   UNL     1      -9.670   0.720 -33.370  1.00  0.00     0.163 C 
HETATM   17  C   UNL     1      -9.557   1.591 -32.134  1.00  0.00     0.033 C 
ENDBRANCH  15  16
ENDBRANCH  14  15
ENDBRANCH   6  14
ENDBRANCH   3   5
ENDBRANCH   2   3
ENDBRANCH   1   2
BRANCH   1  18
HETATM   18  C   UNL     1      -3.265   3.115 -31.628  1.00  0.00     0.246 C 
HETATM   19  N   UNL     1      -2.233   3.668 -32.371  1.00  0.00    -0.324 N 
HETATM   20  H   UNL     1      -1.507   3.018 -32.654  1.00  0.00     0.169 HD
HETATM   21  O   UNL     1      -4.007   3.739 -30.872  1.00  0.00    -0.271 OA
BRANCH  19  22
HETATM   22  C   UNL     1      -1.958   5.047 -32.467  1.00  0.00     0.050 A 
HETATM   23  C   UNL     1      -2.796   5.991 -33.087  1.00  0.00     0.058 A 
HETATM   24  C   UNL     1      -2.451   7.355 -33.065  1.00  0.00     0.019 A 
HETATM   25  C   UNL     1      -1.275   7.775 -32.443  1.00  0.00     0.001 A 
HETATM   26  C   UNL     1      -0.419   6.836 -31.875  1.00  0.00     0.002 A 
HETATM   27  C   UNL     1      -0.752   5.479 -31.899  1.00  0.00     0.030 A 
BRANCH  23  28
HETATM   28  C   UNL     1      -3.913   5.596 -33.984  1.00  0.00     0.254 C 
HETATM   29  N   UNL     1      -5.112   5.332 -33.347  1.00  0.00    -0.352 N 
HETATM   30  H   UNL     1      -5.088   5.172 -32.347  1.00  0.00     0.163 HD
HETATM   31  O   UNL     1      -3.751   5.581 -35.200  1.00  0.00    -0.268 OA
BRANCH  29  32
HETATM   32  C   UNL     1      -6.288   4.964 -34.069  1.00  0.00     0.084 A 
HETATM   33  C   UNL     1      -7.012   3.687 -33.753  1.00  0.00     0.027 A 
HETATM   34  C   UNL     1      -7.637   5.006 -33.405  1.00  0.00     0.027 A 
ENDBRANCH  29  32
ENDBRANCH  23  28
ENDBRANCH  19  22
ENDBRANCH   1  18
TORSDOF 10
ENDMDL
MODEL 4
REMARK VINA RESULT:      -8.0      1.980      3.839
REMARK  10 active torsions:
REMARK  status: ('A' for Active; 'I' for Inactive)
REMARK    1  A    between atoms: C_2  and  O_3 
REMARK    2  A    between atoms: O_3  and  C_4 
REMARK    3  A    between atoms: C_4  and  C_5 
REMARK    4  A    between atoms: C_6  and  C_7 
REMARK    5  A    between atoms: C_7  and  O_8 
REMARK    6  A    between atoms: O_8  and  C_9 
REMARK    7  A    between atoms: C_9  and  C_10 
REMARK       I    between atoms: C_10  and  N_11 
REMARK    8  A    between atoms: N_11  and  C_12 
REMARK    9  A    between atoms: C_13  and  C_14 
REMARK       I    between atoms: C_14  and  N_15 
REMARK   10  A    between atoms: N_15  and  C_16 
ROOT
HETATM    1  C   UNL     1      -5.055   2.799 -30.185  1.00  0.00     0.282 C 
ENDROOT
BRANCH   1   2
HETATM    2  O   UNL     1      -5.368   4.196 -30.165  1.00  0.00    -0.307 OA
BRANCH   2   3
HETATM    3  C   UNL     1      -5.020   4.933 -31.256  1.00  0.00     0.318 C 
HETATM    4  O   UNL     1      -5.752   5.160 -32.211  1.00  0.00    -0.257 OA
BRANCH   3   5
HETATM    5  C   UNL     1      -3.642   5.349 -31.130  1.00  0.00     0.160 A 
HETATM    6  C   UNL     1      -2.501   4.964 -31.825  1.00  0.00     0.018 A 
HETATM    7  C   UNL     1      -1.416   5.697 -31.248  1.00  0.00     0.009 A 
HETATM    8  C   UNL     1      -1.971   6.466 -30.234  1.00  0.00     0.087 A 
HETATM    9  C   UNL     1      -0.030   5.797 -31.474  1.00  0.00     0.015 A 
HETATM   10  O   UNL     1      -3.309   6.255 -30.157  1.00  0.00    -0.303 OA
HETATM   11  C   UNL     1      -1.246   7.331 -29.416  1.00  0.00     0.038 A 
HETATM   12  C   UNL     1       0.128   7.412 -29.657  1.00  0.00     0.003 A 
HETATM   13  C   UNL     1       0.728   6.659 -30.669  1.00  0.00     0.001 A 
BRANCH   6  14
HETATM   14  C   UNL     1      -2.447   4.005 -32.961  1.00  0.00     0.210 C 
BRANCH  14  15
HETATM   15  O   UNL     1      -1.939   4.654 -34.126  1.00  0.00    -0.387 OA
BRANCH  15  16
HETATM   16  C   UNL     1      -2.801   5.698 -34.567  1.00  0.00     0.163 C 
HETATM   17  C   UNL     1      -3.985   5.073 -35.277  1.00  0.00     0.033 C 
ENDBRANCH  15  16
ENDBRANCH  14  15
ENDBRANCH   6  14
ENDBRANCH   3   5
ENDBRANCH   2   3
ENDBRANCH   1   2
BRANCH   1  18
HETATM   18  C   UNL     1      -6.049   2.030 -31.054  1.00  0.00     0.246 C 
HETATM   19  N   UNL     1      -5.599   1.838 -32.352  1.00  0.00    -0.324 N 
HETATM   20  H   UNL     1      -4.872   2.477 -32.657  1.00  0.00     0.169 HD
HETATM   21  O   UNL     1      -7.140   1.666 -30.621  1.00  0.00    -0.271 OA
BRANCH  19  22
HETATM   22  C   UNL     1      -6.273   1.087 -33.335  1.00  0.00     0.050 A 
HETATM   23  C   UNL     1      -5.935  -0.223 -33.717  1.00  0.00     0.058 A 
HETATM   24  C   UNL     1      -6.722  -0.902 -34.665  1.00  0.00     0.019 A 
HETATM   25  C   UNL     1      -7.829  -0.278 -35.239  1.00  0.00     0.001 A 
HETATM   26  C   UNL     1      -8.135   1.037 -34.901  1.00  0.00     0.002 A 
HETATM   27  C   UNL     1      -7.354   1.720 -33.965  1.00  0.00     0.030 A 
BRANCH  23  28
HETATM   28  C   UNL     1      -4.637  -0.848 -33.351  1.00  0.00     0.254 C 
HETATM   29  N   UNL     1      -4.573  -2.218 -33.530  1.00  0.00    -0.352 N 
HETATM   30  H   UNL     1      -5.447  -2.719 -33.638  1.00  0.00     0.163 HD
HETATM   31  O   UNL     1      -3.699  -0.148 -32.982  1.00  0.00    -0.268 OA
BRANCH  29  32
HETATM   32  C   UNL     1      -3.389  -2.964 -33.250  1.00  0.00     0.084 A 
HETATM   33  C   UNL     1      -3.164  -3.560 -31.890  1.00  0.00     0.027 A 
HETATM   34  C   UNL     1      -3.451  -4.455 -33.060  1.00  0.00     0.027 A 
ENDBRANCH  29  32
ENDBRANCH  23  28
ENDBRANCH  19  22
ENDBRANCH   1  18
TORSDOF 10
ENDMDL
MODEL 5
REMARK VINA RESULT:      -7.9      2.325      4.084
REMARK  10 active torsions:
REMARK  status: ('A' for Active; 'I' for Inactive)
REMARK    1  A    between atoms: C_2  and  O_3 
REMARK    2  A    between atoms: O_3  and  C_4 
REMARK    3  A    between atoms: C_4  and  C_5 
REMARK    4  A    between atoms: C_6  and  C_7 
REMARK    5  A    between atoms: C_7  and  O_8 
REMARK    6  A    between atoms: O_8  and  C_9 
REMARK    7  A    between atoms: C_9  and  C_10 
REMARK       I    between atoms: C_10  and  N_11 
REMARK    8  A    between atoms: N_11  and  C_12 
REMARK    9  A    between atoms: C_13  and  C_14 
REMARK       I    between atoms: C_14  and  N_15 
REMARK   10  A    between atoms: N_15  and  C_16 
ROOT
HETATM    1  C   UNL     1      -6.932   5.282 -33.476  1.00  0.00     0.282 C 
ENDROOT
BRANCH   1   2
HETATM    2  O   UNL     1      -5.624   5.815 -33.235  1.00  0.00    -0.307 OA
BRANCH   2   3
HETATM    3  C   UNL     1      -4.599   5.323 -33.984  1.00  0.00     0.318 C 
HETATM    4  O   UNL     1      -4.712   4.872 -35.117  1.00  0.00    -0.257 OA
BRANCH   3   5
HETATM    5  C   UNL     1      -3.379   5.367 -33.210  1.00  0.00     0.160 A 
HETATM    6  C   UNL     1      -2.747   4.398 -32.439  1.00  0.00     0.018 A 
HETATM    7  C   UNL     1      -1.584   5.022 -31.890  1.00  0.00     0.009 A 
HETATM    8  C   UNL     1      -1.596   6.330 -32.353  1.00  0.00     0.087 A 
HETATM    9  C   UNL     1      -0.521   4.623 -31.056  1.00  0.00     0.015 A 
HETATM   10  O   UNL     1      -2.678   6.543 -33.144  1.00  0.00    -0.303 OA
HETATM   11  C   UNL     1      -0.628   7.284 -32.044  1.00  0.00     0.038 A 
HETATM   12  C   UNL     1       0.416   6.867 -31.214  1.00  0.00     0.003 A 
HETATM   13  C   UNL     1       0.471   5.559 -30.727  1.00  0.00     0.001 A 
BRANCH   6  14
HETATM   14  C   UNL     1      -3.193   2.989 -32.263  1.00  0.00     0.210 C 
BRANCH  14  15
HETATM   15  O   UNL     1      -3.865   2.841 -31.013  1.00  0.00    -0.387 OA
BRANCH  15  16
HETATM   16  C   UNL     1      -4.355   1.517 -30.832  1.00  0.00     0.163 C 
HETATM   17  C   UNL     1      -3.256   0.544 -31.208  1.00  0.00     0.033 C 
ENDBRANCH  15  16
ENDBRANCH  14  15
ENDBRANCH   6  14
ENDBRANCH   3   5
ENDBRANCH   2   3
ENDBRANCH   1   2
BRANCH   1  18
HETATM   18  C   UNL     1      -7.016   3.823 -33.029  1.00  0.00     0.246 C 
HETATM   19  N   UNL     1      -7.082   2.933 -34.092  1.00  0.00    -0.324 N 
HETATM   20  H   UNL     1      -7.393   3.332 -34.972  1.00  0.00     0.169 HD
HETATM   21  O   UNL     1      -7.053   3.511 -31.842  1.00  0.00    -0.271 OA
BRANCH  19  22
HETATM   22  C   UNL     1      -7.077   1.530 -33.969  1.00  0.00     0.050 A 
HETATM   23  C   UNL     1      -8.227   0.731 -33.842  1.00  0.00     0.058 A 
HETATM   24  C   UNL     1      -8.105  -0.670 -33.794  1.00  0.00     0.019 A 
HETATM   25  C   UNL     1      -6.848  -1.271 -33.858  1.00  0.00     0.001 A 
HETATM   26  C   UNL     1      -5.705  -0.480 -33.932  1.00  0.00     0.002 A 
HETATM   27  C   UNL     1      -5.818   0.912 -33.973  1.00  0.00     0.030 A 
BRANCH  23  28
HETATM   28  C   UNL     1      -9.558   1.301 -33.507  1.00  0.00     0.254 C 
HETATM   29  N   UNL     1     -10.376   1.559 -34.592  1.00  0.00    -0.352 N 
HETATM   30  H   UNL     1      -9.944   1.594 -35.508  1.00  0.00     0.163 HD
HETATM   31  O   UNL     1      -9.885   1.453 -32.335  1.00  0.00    -0.268 OA
BRANCH  29  32
HETATM   32  C   UNL     1     -11.695   2.084 -34.438  1.00  0.00     0.084 A 
HETATM   33  C   UNL     1     -12.446   2.625 -35.621  1.00  0.00     0.027 A 
HETATM   34  C   UNL     1     -12.883   1.339 -34.983  1.00  0.00     0.027 A 
ENDBRANCH  29  32
ENDBRANCH  23  28
ENDBRANCH  19  22
ENDBRANCH   1  18
TORSDOF 10
ENDMDL
MODEL 6
REMARK VINA RESULT:      -7.9      4.379      8.194
REMARK  10 active torsions:
REMARK  status: ('A' for Active; 'I' for Inactive)
REMARK    1  A    between atoms: C_2  and  O_3 
REMARK    2  A    between atoms: O_3  and  C_4 
REMARK    3  A    between atoms: C_4  and  C_5 
REMARK    4  A    between atoms: C_6  and  C_7 
REMARK    5  A    between atoms: C_7  and  O_8 
REMARK    6  A    between atoms: O_8  and  C_9 
REMARK    7  A    between atoms: C_9  and  C_10 
REMARK       I    between atoms: C_10  and  N_11 
REMARK    8  A    between atoms: N_11  and  C_12 
REMARK    9  A    between atoms: C_13  and  C_14 
REMARK       I    between atoms: C_14  and  N_15 
REMARK   10  A    between atoms: N_15  and  C_16 
ROOT
HETATM    1  C   UNL     1      -8.459   2.467 -33.926  1.00  0.00     0.282 C 
ENDROOT
BRANCH   1   2
HETATM    2  O   UNL     1      -8.950   1.138 -34.132  1.00  0.00    -0.307 OA
BRANCH   2   3
HETATM    3  C   UNL     1      -8.860   0.267 -33.089  1.00  0.00     0.318 C 
HETATM    4  O   UNL     1      -9.808  -0.127 -32.422  1.00  0.00    -0.257 OA
BRANCH   3   5
HETATM    5  C   UNL     1      -7.472  -0.067 -32.866  1.00  0.00     0.160 A 
HETATM    6  C   UNL     1      -6.619  -0.939 -33.533  1.00  0.00     0.018 A 
HETATM    7  C   UNL     1      -5.364  -0.871 -32.850  1.00  0.00     0.009 A 
HETATM    8  C   UNL     1      -5.545   0.027 -31.808  1.00  0.00     0.087 A 
HETATM    9  C   UNL     1      -4.097  -1.467 -33.002  1.00  0.00     0.015 A 
HETATM   10  O   UNL     1      -6.813   0.509 -31.811  1.00  0.00    -0.303 OA
HETATM   11  C   UNL     1      -4.555   0.379 -30.892  1.00  0.00     0.038 A 
HETATM   12  C   UNL     1      -3.306  -0.225 -31.060  1.00  0.00     0.003 A 
HETATM   13  C   UNL     1      -3.079  -1.133 -32.097  1.00  0.00     0.001 A 
BRANCH   6  14
HETATM   14  C   UNL     1      -6.957  -1.747 -34.736  1.00  0.00     0.210 C 
BRANCH  14  15
HETATM   15  O   UNL     1      -6.905  -3.138 -34.422  1.00  0.00    -0.387 OA
BRANCH  15  16
HETATM   16  C   UNL     1      -6.022  -3.842 -35.290  1.00  0.00     0.163 C 
HETATM   17  C   UNL     1      -5.220  -4.825 -34.461  1.00  0.00     0.033 C 
ENDBRANCH  15  16
ENDBRANCH  14  15
ENDBRANCH   6  14
ENDBRANCH   3   5
ENDBRANCH   2   3
ENDBRANCH   1   2
BRANCH   1  18
HETATM   18  C   UNL     1      -9.612   3.467 -33.847  1.00  0.00     0.246 C 
HETATM   19  N   UNL     1      -9.830   4.138 -35.041  1.00  0.00    -0.324 N 
HETATM   20  H   UNL     1      -9.044   4.146 -35.683  1.00  0.00     0.169 HD
HETATM   21  O   UNL     1     -10.236   3.654 -32.805  1.00  0.00    -0.271 OA
BRANCH  19  22
HETATM   22  C   UNL     1     -10.882   5.047 -35.274  1.00  0.00     0.050 A 
HETATM   23  C   UNL     1     -12.239   4.694 -35.380  1.00  0.00     0.058 A 
HETATM   24  C   UNL     1     -13.212   5.696 -35.547  1.00  0.00     0.019 A 
HETATM   25  C   UNL     1     -12.838   7.037 -35.623  1.00  0.00     0.001 A 
HETATM   26  C   UNL     1     -11.491   7.384 -35.570  1.00  0.00     0.002 A 
HETATM   27  C   UNL     1     -10.518   6.394 -35.411  1.00  0.00     0.030 A 
BRANCH  23  28
HETATM   28  C   UNL     1     -12.682   3.289 -35.572  1.00  0.00     0.254 C 
HETATM   29  N   UNL     1     -13.427   2.761 -34.532  1.00  0.00    -0.352 N 
HETATM   30  H   UNL     1     -13.398   3.243 -33.642  1.00  0.00     0.163 HD
HETATM   31  O   UNL     1     -12.436   2.702 -36.621  1.00  0.00    -0.268 OA
BRANCH  29  32
HETATM   32  C   UNL     1     -13.949   1.433 -34.573  1.00  0.00     0.084 A 
HETATM   33  C   UNL     1     -13.247   0.312 -33.862  1.00  0.00     0.027 A 
HETATM   34  C   UNL     1     -14.563   0.814 -33.347  1.00  0.00     0.027 A 
ENDBRANCH  29  32
ENDBRANCH  23  28
ENDBRANCH  19  22
ENDBRANCH   1  18
TORSDOF 10
ENDMDL
MODEL 7
REMARK VINA RESULT:      -7.7      2.741      8.905
REMARK  10 active torsions:
REMARK  status: ('A' for Active; 'I' for Inactive)
REMARK    1  A    between atoms: C_2  and  O_3 
REMARK    2  A    between atoms: O_3  and  C_4 
REMARK    3  A    between atoms: C_4  and  C_5 
REMARK    4  A    between atoms: C_6  and  C_7 
REMARK    5  A    between atoms: C_7  and  O_8 
REMARK    6  A    between atoms: O_8  and  C_9 
REMARK    7  A    between atoms: C_9  and  C_10 
REMARK       I    between atoms: C_10  and  N_11 
REMARK    8  A    between atoms: N_11  and  C_12 
REMARK    9  A    between atoms: C_13  and  C_14 
REMARK       I    between atoms: C_14  and  N_15 
REMARK   10  A    between atoms: N_15  and  C_16 
ROOT
HETATM    1  C   UNL     1      -5.746   1.382 -30.157  1.00  0.00     0.282 C 
ENDROOT
BRANCH   1   2
HETATM    2  O   UNL     1      -6.204   0.731 -31.347  1.00  0.00    -0.307 OA
BRANCH   2   3
HETATM    3  C   UNL     1      -5.338   0.657 -32.395  1.00  0.00     0.318 C 
HETATM    4  O   UNL     1      -4.571   1.549 -32.734  1.00  0.00    -0.257 OA
BRANCH   3   5
HETATM    5  C   UNL     1      -5.513  -0.610 -33.069  1.00  0.00     0.160 A 
HETATM    6  C   UNL     1      -6.603  -1.145 -33.746  1.00  0.00     0.018 A 
HETATM    7  C   UNL     1      -6.199  -2.445 -34.186  1.00  0.00     0.009 A 
HETATM    8  C   UNL     1      -4.898  -2.614 -33.735  1.00  0.00     0.087 A 
HETATM    9  C   UNL     1      -6.790  -3.492 -34.920  1.00  0.00     0.015 A 
HETATM   10  O   UNL     1      -4.483  -1.514 -33.058  1.00  0.00    -0.303 OA
HETATM   11  C   UNL     1      -4.131  -3.758 -33.953  1.00  0.00     0.038 A 
HETATM   12  C   UNL     1      -4.738  -4.786 -34.681  1.00  0.00     0.003 A 
HETATM   13  C   UNL     1      -6.045  -4.657 -35.157  1.00  0.00     0.001 A 
BRANCH   6  14
HETATM   14  C   UNL     1      -7.907  -0.469 -33.982  1.00  0.00     0.210 C 
BRANCH  14  15
HETATM   15  O   UNL     1      -7.702   0.761 -34.675  1.00  0.00    -0.387 OA
BRANCH  15  16
HETATM   16  C   UNL     1      -8.496   1.811 -34.131  1.00  0.00     0.163 C 
HETATM   17  C   UNL     1      -9.383   1.229 -33.049  1.00  0.00     0.033 C 
ENDBRANCH  15  16
ENDBRANCH  14  15
ENDBRANCH   6  14
ENDBRANCH   3   5
ENDBRANCH   2   3
ENDBRANCH   1   2
BRANCH   1  18
HETATM   18  C   UNL     1      -6.208   2.838 -30.120  1.00  0.00     0.246 C 
HETATM   19  N   UNL     1      -5.386   3.649 -29.353  1.00  0.00    -0.324 N 
HETATM   20  H   UNL     1      -4.812   3.163 -28.671  1.00  0.00     0.169 HD
HETATM   21  O   UNL     1      -7.228   3.208 -30.697  1.00  0.00    -0.271 OA
BRANCH  19  22
HETATM   22  C   UNL     1      -5.527   5.045 -29.220  1.00  0.00     0.050 A 
HETATM   23  C   UNL     1      -4.811   5.999 -29.964  1.00  0.00     0.058 A 
HETATM   24  C   UNL     1      -5.083   7.369 -29.794  1.00  0.00     0.019 A 
HETATM   25  C   UNL     1      -6.050   7.787 -28.880  1.00  0.00     0.001 A 
HETATM   26  C   UNL     1      -6.724   6.847 -28.106  1.00  0.00     0.002 A 
HETATM   27  C   UNL     1      -6.454   5.486 -28.264  1.00  0.00     0.030 A 
BRANCH  23  28
HETATM   28  C   UNL     1      -3.599   5.648 -30.750  1.00  0.00     0.254 C 
HETATM   29  N   UNL     1      -2.407   6.126 -30.237  1.00  0.00    -0.352 N 
HETATM   30  H   UNL     1      -2.456   6.867 -29.548  1.00  0.00     0.163 HD
HETATM   31  O   UNL     1      -3.694   4.930 -31.740  1.00  0.00    -0.268 OA
BRANCH  29  32
HETATM   32  C   UNL     1      -1.151   5.855 -30.859  1.00  0.00     0.084 A 
HETATM   33  C   UNL     1      -0.621   6.756 -31.937  1.00  0.00     0.027 A 
HETATM   34  C   UNL     1       0.041   6.731 -30.591  1.00  0.00     0.027 A 
ENDBRANCH  29  32
ENDBRANCH  23  28
ENDBRANCH  19  22
ENDBRANCH   1  18
TORSDOF 10
ENDMDL
MODEL 8
REMARK VINA RESULT:      -7.7      2.185      2.947
REMARK  10 active torsions:
REMARK  status: ('A' for Active; 'I' for Inactive)
REMARK    1  A    between atoms: C_2  and  O_3 
REMARK    2  A    between atoms: O_3  and  C_4 
REMARK    3  A    between atoms: C_4  and  C_5 
REMARK    4  A    between atoms: C_6  and  C_7 
REMARK    5  A    between atoms: C_7  and  O_8 
REMARK    6  A    between atoms: O_8  and  C_9 
REMARK    7  A    between atoms: C_9  and  C_10 
REMARK       I    between atoms: C_10  and  N_11 
REMARK    8  A    between atoms: N_11  and  C_12 
REMARK    9  A    between atoms: C_13  and  C_14 
REMARK       I    between atoms: C_14  and  N_15 
REMARK   10  A    between atoms: N_15  and  C_16 
ROOT
HETATM    1  C   UNL     1      -5.077   2.932 -30.473  1.00  0.00     0.282 C 
ENDROOT
BRANCH   1   2
HETATM    2  O   UNL     1      -5.799   4.163 -30.588  1.00  0.00    -0.307 OA
BRANCH   2   3
HETATM    3  C   UNL     1      -5.392   5.043 -31.545  1.00  0.00     0.318 C 
HETATM    4  O   UNL     1      -6.070   5.404 -32.498  1.00  0.00    -0.257 OA
BRANCH   3   5
HETATM    5  C   UNL     1      -4.025   5.430 -31.285  1.00  0.00     0.160 A 
HETATM    6  C   UNL     1      -2.829   5.017 -31.863  1.00  0.00     0.018 A 
HETATM    7  C   UNL     1      -1.791   5.730 -31.185  1.00  0.00     0.009 A 
HETATM    8  C   UNL     1      -2.426   6.516 -30.234  1.00  0.00     0.087 A 
HETATM    9  C   UNL     1      -0.387   5.799 -31.275  1.00  0.00     0.015 A 
HETATM   10  O   UNL     1      -3.769   6.334 -30.287  1.00  0.00    -0.303 OA
HETATM   11  C   UNL     1      -1.767   7.370 -29.351  1.00  0.00     0.038 A 
HETATM   12  C   UNL     1      -0.374   7.421 -29.456  1.00  0.00     0.003 A 
HETATM   13  C   UNL     1       0.306   6.650 -30.402  1.00  0.00     0.001 A 
BRANCH   6  14
HETATM   14  C   UNL     1      -2.685   4.051 -32.985  1.00  0.00     0.210 C 
BRANCH  14  15
HETATM   15  O   UNL     1      -3.242   4.600 -34.179  1.00  0.00    -0.387 OA
BRANCH  15  16
HETATM   16  C   UNL     1      -2.549   5.774 -34.593  1.00  0.00     0.163 C 
HETATM   17  C   UNL     1      -1.142   5.382 -34.995  1.00  0.00     0.033 C 
ENDBRANCH  15  16
ENDBRANCH  14  15
ENDBRANCH   6  14
ENDBRANCH   3   5
ENDBRANCH   2   3
ENDBRANCH   1   2
BRANCH   1  18
HETATM   18  C   UNL     1      -5.833   1.792 -31.154  1.00  0.00     0.246 C 
HETATM   19  N   UNL     1      -5.457   1.607 -32.477  1.00  0.00    -0.324 N 
HETATM   20  H   UNL     1      -5.011   2.406 -32.916  1.00  0.00     0.169 HD
HETATM   21  O   UNL     1      -6.701   1.150 -30.568  1.00  0.00    -0.271 OA
BRANCH  19  22
HETATM   22  C   UNL     1      -5.928   0.574 -33.311  1.00  0.00     0.050 A 
HETATM   23  C   UNL     1      -7.007   0.692 -34.205  1.00  0.00     0.058 A 
HETATM   24  C   UNL     1      -7.347  -0.388 -35.039  1.00  0.00     0.019 A 
HETATM   25  C   UNL     1      -6.629  -1.582 -34.976  1.00  0.00     0.001 A 
HETATM   26  C   UNL     1      -5.593  -1.718 -34.056  1.00  0.00     0.002 A 
HETATM   27  C   UNL     1      -5.254  -0.652 -33.219  1.00  0.00     0.030 A 
BRANCH  23  28
HETATM   28  C   UNL     1      -7.971   1.821 -34.142  1.00  0.00     0.254 C 
HETATM   29  N   UNL     1      -9.296   1.474 -34.334  1.00  0.00    -0.352 N 
HETATM   30  H   UNL     1      -9.489   0.569 -34.748  1.00  0.00     0.163 HD
HETATM   31  O   UNL     1      -7.579   2.952 -33.873  1.00  0.00    -0.268 OA
BRANCH  29  32
HETATM   32  C   UNL     1     -10.348   2.438 -34.279  1.00  0.00     0.084 A 
HETATM   33  C   UNL     1     -11.650   2.190 -34.984  1.00  0.00     0.027 A 
HETATM   34  C   UNL     1     -11.595   2.165 -33.485  1.00  0.00     0.027 A 
ENDBRANCH  29  32
ENDBRANCH  23  28
ENDBRANCH  19  22
ENDBRANCH   1  18
TORSDOF 10
ENDMDL
MODEL 9
REMARK VINA RESULT:      -7.6      1.937      2.891
REMARK  10 active torsions:
REMARK  status: ('A' for Active; 'I' for Inactive)
REMARK    1  A    between atoms: C_2  and  O_3 
REMARK    2  A    between atoms: O_3  and  C_4 
REMARK    3  A    between atoms: C_4  and  C_5 
REMARK    4  A    between atoms: C_6  and  C_7 
REMARK    5  A    between atoms: C_7  and  O_8 
REMARK    6  A    between atoms: O_8  and  C_9 
REMARK    7  A    between atoms: C_9  and  C_10 
REMARK       I    between atoms: C_10  and  N_11 
REMARK    8  A    between atoms: N_11  and  C_12 
REMARK    9  A    between atoms: C_13  and  C_14 
REMARK       I    between atoms: C_14  and  N_15 
REMARK   10  A    between atoms: N_15  and  C_16 
ROOT
HETATM    1  C   UNL     1      -4.500   3.183 -31.863  1.00  0.00     0.282 C 
ENDROOT
BRANCH   1   2
HETATM    2  O   UNL     1      -3.069   3.130 -31.840  1.00  0.00    -0.307 OA
BRANCH   2   3
HETATM    3  C   UNL     1      -2.394   4.098 -32.522  1.00  0.00     0.318 C 
HETATM    4  O   UNL     1      -2.273   4.141 -33.739  1.00  0.00    -0.257 OA
BRANCH   3   5
HETATM    5  C   UNL     1      -1.804   5.020 -31.580  1.00  0.00     0.160 A 
HETATM    6  C   UNL     1      -2.025   6.376 -31.363  1.00  0.00     0.018 A 
HETATM    7  C   UNL     1      -1.136   6.762 -30.312  1.00  0.00     0.009 A 
HETATM    8  C   UNL     1      -0.426   5.619 -29.972  1.00  0.00     0.087 A 
HETATM    9  C   UNL     1      -0.856   7.951 -29.609  1.00  0.00     0.015 A 
HETATM   10  O   UNL     1      -0.821   4.570 -30.737  1.00  0.00    -0.303 OA
HETATM   11  C   UNL     1       0.555   5.565 -28.983  1.00  0.00     0.038 A 
HETATM   12  C   UNL     1       0.817   6.756 -28.300  1.00  0.00     0.003 A 
HETATM   13  C   UNL     1       0.124   7.930 -28.606  1.00  0.00     0.001 A 
BRANCH   6  14
HETATM   14  C   UNL     1      -3.019   7.227 -32.071  1.00  0.00     0.210 C 
BRANCH  14  15
HETATM   15  O   UNL     1      -4.025   7.667 -31.159  1.00  0.00    -0.387 OA
BRANCH  15  16
HETATM   16  C   UNL     1      -5.095   6.733 -31.063  1.00  0.00     0.163 C 
HETATM   17  C   UNL     1      -5.205   6.277 -29.622  1.00  0.00     0.033 C 
ENDBRANCH  15  16
ENDBRANCH  14  15
ENDBRANCH   6  14
ENDBRANCH   3   5
ENDBRANCH   2   3
ENDBRANCH   1   2
BRANCH   1  18
HETATM   18  C   UNL     1      -5.067   2.147 -32.833  1.00  0.00     0.246 C 
HETATM   19  N   UNL     1      -4.780   0.842 -32.461  1.00  0.00    -0.324 N 
HETATM   20  H   UNL     1      -3.993   0.735 -31.828  1.00  0.00     0.169 HD
HETATM   21  O   UNL     1      -5.680   2.476 -33.845  1.00  0.00    -0.271 OA
BRANCH  19  22
HETATM   22  C   UNL     1      -5.254  -0.308 -33.124  1.00  0.00     0.050 A 
HETATM   23  C   UNL     1      -6.606  -0.570 -33.408  1.00  0.00     0.058 A 
HETATM   24  C   UNL     1      -6.959  -1.720 -34.136  1.00  0.00     0.019 A 
HETATM   25  C   UNL     1      -5.976  -2.612 -34.566  1.00  0.00     0.001 A 
HETATM   26  C   UNL     1      -4.642  -2.381 -34.240  1.00  0.00     0.002 A 
HETATM   27  C   UNL     1      -4.285  -1.244 -33.512  1.00  0.00     0.030 A 
BRANCH  23  28
HETATM   28  C   UNL     1      -7.714   0.184 -32.766  1.00  0.00     0.254 C 
HETATM   29  N   UNL     1      -8.618   0.759 -33.641  1.00  0.00    -0.352 N 
HETATM   30  H   UNL     1      -8.338   0.854 -34.609  1.00  0.00     0.163 HD
HETATM   31  O   UNL     1      -7.813   0.211 -31.543  1.00  0.00    -0.268 OA
BRANCH  29  32
HETATM   32  C   UNL     1      -9.753   1.494 -33.182  1.00  0.00     0.084 A 
HETATM   33  C   UNL     1     -10.576   2.307 -34.140  1.00  0.00     0.027 A 
HETATM   34  C   UNL     1     -11.146   1.054 -33.542  1.00  0.00     0.027 A 
ENDBRANCH  29  32
ENDBRANCH  23  28
ENDBRANCH  19  22
ENDBRANCH   1  18
TORSDOF 10
ENDMDL
MODEL 10
REMARK VINA RESULT:      -7.5      3.360      9.065
REMARK  10 active torsions:
REMARK  status: ('A' for Active; 'I' for Inactive)
REMARK    1  A    between atoms: C_2  and  O_3 
REMARK    2  A    between atoms: O_3  and  C_4 
REMARK    3  A    between atoms: C_4  and  C_5 
REMARK    4  A    between atoms: C_6  and  C_7 
REMARK    5  A    between atoms: C_7  and  O_8 
REMARK    6  A    between atoms: O_8  and  C_9 
REMARK    7  A    between atoms: C_9  and  C_10 
REMARK       I    between atoms: C_10  and  N_11 
REMARK    8  A    between atoms: N_11  and  C_12 
REMARK    9  A    between atoms: C_13  and  C_14 
REMARK       I    between atoms: C_14  and  N_15 
REMARK   10  A    between atoms: N_15  and  C_16 
ROOT
HETATM    1  C   UNL     1      -5.601   4.415 -31.556  1.00  0.00     0.282 C 
ENDROOT
BRANCH   1   2
HETATM    2  O   UNL     1      -5.209   3.072 -31.863  1.00  0.00    -0.307 OA
BRANCH   2   3
HETATM    3  C   UNL     1      -5.921   2.063 -31.289  1.00  0.00     0.318 C 
HETATM    4  O   UNL     1      -6.432   2.110 -30.177  1.00  0.00    -0.257 OA
BRANCH   3   5
HETATM    5  C   UNL     1      -5.926   0.921 -32.174  1.00  0.00     0.160 A 
HETATM    6  C   UNL     1      -6.899   0.438 -33.043  1.00  0.00     0.018 A 
HETATM    7  C   UNL     1      -6.350  -0.738 -33.642  1.00  0.00     0.009 A 
HETATM    8  C   UNL     1      -5.088  -0.897 -33.087  1.00  0.00     0.087 A 
HETATM    9  C   UNL     1      -6.780  -1.682 -34.595  1.00  0.00     0.015 A 
HETATM   10  O   UNL     1      -4.832   0.097 -32.199  1.00  0.00    -0.303 OA
HETATM   11  C   UNL     1      -4.213  -1.935 -33.404  1.00  0.00     0.038 A 
HETATM   12  C   UNL     1      -4.661  -2.861 -34.350  1.00  0.00     0.003 A 
HETATM   13  C   UNL     1      -5.923  -2.738 -34.937  1.00  0.00     0.001 A 
BRANCH   6  14
HETATM   14  C   UNL     1      -8.226   1.058 -33.305  1.00  0.00     0.210 C 
BRANCH  14  15
HETATM   15  O   UNL     1      -9.156   0.670 -32.295  1.00  0.00    -0.387 OA
BRANCH  15  16
HETATM   16  C   UNL     1     -10.275  -0.019 -32.845  1.00  0.00     0.163 C 
HETATM   17  C   UNL     1     -11.110   0.973 -33.628  1.00  0.00     0.033 C 
ENDBRANCH  15  16
ENDBRANCH  14  15
ENDBRANCH   6  14
ENDBRANCH   3   5
ENDBRANCH   2   3
ENDBRANCH   1   2
BRANCH   1  18
HETATM   18  C   UNL     1      -4.419   5.373 -31.695  1.00  0.00     0.246 C 
HETATM   19  N   UNL     1      -3.328   5.004 -30.922  1.00  0.00    -0.324 N 
HETATM   20  H   UNL     1      -3.538   4.385 -30.145  1.00  0.00     0.169 HD
HETATM   21  O   UNL     1      -4.478   6.375 -32.403  1.00  0.00    -0.271 OA
BRANCH  19  22
HETATM   22  C   UNL     1      -2.079   5.656 -30.927  1.00  0.00     0.050 A 
HETATM   23  C   UNL     1      -1.653   6.582 -29.958  1.00  0.00     0.058 A 
HETATM   24  C   UNL     1      -0.356   7.121 -30.027  1.00  0.00     0.019 A 
HETATM   25  C   UNL     1       0.507   6.754 -31.060  1.00  0.00     0.001 A 
HETATM   26  C   UNL     1       0.068   5.877 -32.049  1.00  0.00     0.002 A 
HETATM   27  C   UNL     1      -1.221   5.343 -31.990  1.00  0.00     0.030 A 
BRANCH  23  28
HETATM   28  C   UNL     1      -2.592   7.213 -28.994  1.00  0.00     0.254 C 
HETATM   29  N   UNL     1      -2.284   7.015 -27.660  1.00  0.00    -0.352 N 
HETATM   30  H   UNL     1      -1.633   6.274 -27.433  1.00  0.00     0.163 HD
HETATM   31  O   UNL     1      -3.521   7.903 -29.401  1.00  0.00    -0.268 OA
BRANCH  29  32
HETATM   32  C   UNL     1      -3.072   7.577 -26.610  1.00  0.00     0.084 A 
HETATM   33  C   UNL     1      -2.587   7.546 -25.189  1.00  0.00     0.027 A 
HETATM   34  C   UNL     1      -2.646   8.849 -25.930  1.00  0.00     0.027 A 
ENDBRANCH  29  32
ENDBRANCH  23  28
ENDBRANCH  19  22
ENDBRANCH   1  18
TORSDOF 10
ENDMDL
