MODEL 1
REMARK VINA RESULT:     -10.1      0.000      0.000
REMARK  2 active torsions:
REMARK  status: ('A' for Active; 'I' for Inactive)
REMARK    1  A    between atoms: O_2  and  C_3 
REMARK    2  A    between atoms: C_5  and  N_6 
ROOT
HETATM    1  N   UNL     1      -5.993  -0.194 -33.385  1.00  0.00    -0.252 N 
HETATM    2  C   UNL     1      -6.311   0.921 -34.134  1.00  0.00     0.239 C 
HETATM    3  O   UNL     1      -6.674   1.019 -35.295  1.00  0.00    -0.272 OA
HETATM    4  C   UNL     1      -6.297   2.121 -33.248  1.00  0.00     0.145 C 
HETATM    5  C   UNL     1      -5.685   1.627 -31.958  1.00  0.00     0.126 C 
HETATM    6  C   UNL     1      -5.847   0.137 -32.054  1.00  0.00     0.238 C 
HETATM    7  O   UNL     1      -5.854  -0.561 -31.053  1.00  0.00    -0.272 OA
HETATM    8  C   UNL     1      -7.687   2.649 -32.911  1.00  0.00     0.250 A 
HETATM    9  C   UNL     1      -8.096   3.782 -33.914  1.00  0.00     0.264 A 
HETATM   10  O   UNL     1      -7.476   4.812 -34.123  1.00  0.00    -0.270 OA
HETATM   11  N   UNL     1      -9.319   3.439 -34.459  1.00  0.00    -0.324 N 
HETATM   12  C   UNL     1      -9.789   2.244 -33.939  1.00  0.00     0.044 A 
HETATM   13  C   UNL     1      -8.888   1.726 -33.003  1.00  0.00     0.015 A 
HETATM   14  C   UNL     1     -10.988   1.636 -34.243  1.00  0.00     0.030 A 
HETATM   15  C   UNL     1     -11.301   0.460 -33.562  1.00  0.00     0.002 A 
HETATM   16  C   UNL     1     -10.423  -0.067 -32.602  1.00  0.00     0.001 A 
HETATM   17  C   UNL     1      -9.209   0.566 -32.311  1.00  0.00     0.012 A 
HETATM   18  N   UNL     1      -7.515   3.131 -31.458  1.00  0.00    -0.043 N 
HETATM   19  H   UNL     1      -8.420   3.021 -30.975  1.00  0.00     0.282 HD
HETATM   20  C   UNL     1      -6.462   2.241 -30.800  1.00  0.00     0.204 C 
HETATM   21  C   UNL     1      -7.078   4.562 -31.237  1.00  0.00     0.237 C 
HETATM   22  C   UNL     1      -6.459   4.481 -29.858  1.00  0.00     0.030 C 
HETATM   23  C   UNL     1      -5.640   3.202 -29.934  1.00  0.00     0.036 C 
HETATM   24  H   UNL     1      -9.800   4.002 -35.151  1.00  0.00     0.169 HD
ENDROOT
BRANCH   1  25
HETATM   25  C   UNL     1      -5.960  -1.522 -33.914  1.00  0.00     0.048 A 
HETATM   26  C   UNL     1      -4.758  -2.247 -33.961  1.00  0.00     0.066 A 
HETATM   27  C   UNL     1      -4.699  -3.566 -34.432  1.00  0.00     0.070 A 
HETATM   28  C   UNL     1      -5.857  -4.179 -34.893  1.00  0.00     0.037 A 
HETATM   29  C   UNL     1      -7.064  -3.482 -34.860  1.00  0.00     0.005 A 
HETATM   30  C   UNL     1      -7.117  -2.173 -34.364  1.00  0.00     0.030 A 
BRANCH  27  31
HETATM   31  O   UNL     1      -3.456  -4.132 -34.374  1.00  0.00    -0.356 OA
HETATM   32  C   UNL     1      -3.157  -4.927 -33.232  1.00  0.00     0.210 C 
ENDBRANCH  27  31
ENDBRANCH   1  25
TORSDOF 2
ENDMDL
MODEL 2
REMARK VINA RESULT:      -9.7      2.377      6.257
REMARK  2 active torsions:
REMARK  status: ('A' for Active; 'I' for Inactive)
REMARK    1  A    between atoms: O_2  and  C_3 
REMARK    2  A    between atoms: C_5  and  N_6 
ROOT
HETATM    1  N   UNL     1      -9.632   2.693 -32.642  1.00  0.00    -0.252 N 
HETATM    2  C   UNL     1      -9.072   1.849 -31.705  1.00  0.00     0.239 C 
HETATM    3  O   UNL     1      -9.434   0.753 -31.308  1.00  0.00    -0.272 OA
HETATM    4  C   UNL     1      -7.758   2.408 -31.271  1.00  0.00     0.145 C 
HETATM    5  C   UNL     1      -7.729   3.798 -31.862  1.00  0.00     0.126 C 
HETATM    6  C   UNL     1      -8.773   3.730 -32.940  1.00  0.00     0.238 C 
HETATM    7  O   UNL     1      -8.752   4.502 -33.886  1.00  0.00    -0.272 OA
HETATM    8  C   UNL     1      -6.557   1.656 -31.835  1.00  0.00     0.250 A 
HETATM    9  C   UNL     1      -6.074   0.565 -30.820  1.00  0.00     0.264 A 
HETATM   10  O   UNL     1      -5.732   0.762 -29.665  1.00  0.00    -0.270 OA
HETATM   11  N   UNL     1      -6.032  -0.643 -31.490  1.00  0.00    -0.324 N 
HETATM   12  C   UNL     1      -6.401  -0.500 -32.818  1.00  0.00     0.044 A 
HETATM   13  C   UNL     1      -6.709   0.835 -33.102  1.00  0.00     0.015 A 
HETATM   14  C   UNL     1      -6.437  -1.497 -33.768  1.00  0.00     0.030 A 
HETATM   15  C   UNL     1      -6.782  -1.131 -35.069  1.00  0.00     0.002 A 
HETATM   16  C   UNL     1      -7.072   0.206 -35.383  1.00  0.00     0.001 A 
HETATM   17  C   UNL     1      -7.032   1.202 -34.401  1.00  0.00     0.012 A 
HETATM   18  N   UNL     1      -5.539   2.788 -32.070  1.00  0.00    -0.043 N 
HETATM   19  H   UNL     1      -4.947   2.523 -32.873  1.00  0.00     0.282 HD
HETATM   20  C   UNL     1      -6.328   4.055 -32.400  1.00  0.00     0.204 C 
HETATM   21  C   UNL     1      -4.602   3.140 -30.937  1.00  0.00     0.237 C 
HETATM   22  C   UNL     1      -4.234   4.568 -31.279  1.00  0.00     0.030 C 
HETATM   23  C   UNL     1      -5.572   5.172 -31.673  1.00  0.00     0.036 C 
HETATM   24  H   UNL     1      -5.763  -1.517 -31.052  1.00  0.00     0.169 HD
ENDROOT
BRANCH   1  25
HETATM   25  C   UNL     1     -10.874   2.434 -33.301  1.00  0.00     0.048 A 
HETATM   26  C   UNL     1     -12.083   2.906 -32.765  1.00  0.00     0.066 A 
HETATM   27  C   UNL     1     -13.313   2.708 -33.409  1.00  0.00     0.070 A 
HETATM   28  C   UNL     1     -13.353   2.002 -34.604  1.00  0.00     0.037 A 
HETATM   29  C   UNL     1     -12.167   1.520 -35.157  1.00  0.00     0.005 A 
HETATM   30  C   UNL     1     -10.941   1.745 -34.519  1.00  0.00     0.030 A 
BRANCH  27  31
HETATM   31  O   UNL     1     -14.384   3.265 -32.766  1.00  0.00    -0.356 OA
HETATM   32  C   UNL     1     -15.222   2.388 -32.022  1.00  0.00     0.210 C 
ENDBRANCH  27  31
ENDBRANCH   1  25
TORSDOF 2
ENDMDL
MODEL 3
REMARK VINA RESULT:      -9.4      1.728      4.276
REMARK  2 active torsions:
REMARK  status: ('A' for Active; 'I' for Inactive)
REMARK    1  A    between atoms: O_2  and  C_3 
REMARK    2  A    between atoms: C_5  and  N_6 
ROOT
HETATM    1  N   UNL     1      -7.442  -0.235 -33.247  1.00  0.00    -0.252 N 
HETATM    2  C   UNL     1      -7.793   0.340 -32.042  1.00  0.00     0.239 C 
HETATM    3  O   UNL     1      -7.187   0.394 -30.983  1.00  0.00    -0.272 OA
HETATM    4  C   UNL     1      -9.069   1.092 -32.215  1.00  0.00     0.145 C 
HETATM    5  C   UNL     1      -9.562   0.682 -33.583  1.00  0.00     0.126 C 
HETATM    6  C   UNL     1      -8.327   0.133 -34.239  1.00  0.00     0.238 C 
HETATM    7  O   UNL     1      -8.226   0.088 -35.455  1.00  0.00    -0.272 OA
HETATM    8  C   UNL     1      -8.889   2.606 -32.239  1.00  0.00     0.250 A 
HETATM    9  C   UNL     1      -9.099   3.200 -30.804  1.00  0.00     0.264 A 
HETATM   10  O   UNL     1     -10.098   3.072 -30.114  1.00  0.00    -0.270 OA
HETATM   11  N   UNL     1      -7.983   3.955 -30.494  1.00  0.00    -0.324 N 
HETATM   12  C   UNL     1      -7.070   3.961 -31.537  1.00  0.00     0.044 A 
HETATM   13  C   UNL     1      -7.544   3.200 -32.611  1.00  0.00     0.015 A 
HETATM   14  C   UNL     1      -5.870   4.638 -31.567  1.00  0.00     0.030 A 
HETATM   15  C   UNL     1      -5.120   4.560 -32.741  1.00  0.00     0.002 A 
HETATM   16  C   UNL     1      -5.586   3.822 -33.840  1.00  0.00     0.001 A 
HETATM   17  C   UNL     1      -6.807   3.140 -33.785  1.00  0.00     0.012 A 
HETATM   18  N   UNL     1      -9.952   3.050 -33.262  1.00  0.00    -0.043 N 
HETATM   19  H   UNL     1      -9.607   3.902 -33.731  1.00  0.00     0.282 HD
HETATM   20  C   UNL     1     -10.109   1.921 -34.280  1.00  0.00     0.204 C 
HETATM   21  C   UNL     1     -11.337   3.369 -32.747  1.00  0.00     0.237 C 
HETATM   22  C   UNL     1     -12.179   3.160 -33.987  1.00  0.00     0.030 C 
HETATM   23  C   UNL     1     -11.615   1.869 -34.559  1.00  0.00     0.036 C 
HETATM   24  H   UNL     1      -7.862   4.438 -29.611  1.00  0.00     0.169 HD
ENDROOT
BRANCH   1  25
HETATM   25  C   UNL     1      -6.245  -0.991 -33.446  1.00  0.00     0.048 A 
HETATM   26  C   UNL     1      -6.285  -2.244 -34.080  1.00  0.00     0.066 A 
HETATM   27  C   UNL     1      -5.125  -2.990 -34.332  1.00  0.00     0.070 A 
HETATM   28  C   UNL     1      -3.893  -2.497 -33.923  1.00  0.00     0.037 A 
HETATM   29  C   UNL     1      -3.825  -1.257 -33.289  1.00  0.00     0.005 A 
HETATM   30  C   UNL     1      -4.986  -0.507 -33.065  1.00  0.00     0.030 A 
BRANCH  27  31
HETATM   31  O   UNL     1      -5.343  -4.169 -34.989  1.00  0.00    -0.356 OA
HETATM   32  C   UNL     1      -6.691  -4.495 -35.307  1.00  0.00     0.210 C 
ENDBRANCH  27  31
ENDBRANCH   1  25
TORSDOF 2
ENDMDL
MODEL 4
REMARK VINA RESULT:      -9.3      1.843      4.219
REMARK  2 active torsions:
REMARK  status: ('A' for Active; 'I' for Inactive)
REMARK    1  A    between atoms: O_2  and  C_3 
REMARK    2  A    between atoms: C_5  and  N_6 
ROOT
HETATM    1  N   UNL     1      -7.327  -0.126 -33.447  1.00  0.00    -0.252 N 
HETATM    2  C   UNL     1      -7.811   0.268 -32.216  1.00  0.00     0.239 C 
HETATM    3  O   UNL     1      -7.466  -0.051 -31.089  1.00  0.00    -0.272 OA
HETATM    4  C   UNL     1      -8.822   1.347 -32.414  1.00  0.00     0.145 C 
HETATM    5  C   UNL     1      -9.067   1.362 -33.905  1.00  0.00     0.126 C 
HETATM    6  C   UNL     1      -7.863   0.651 -34.453  1.00  0.00     0.238 C 
HETATM    7  O   UNL     1      -7.500   0.824 -35.606  1.00  0.00    -0.272 OA
HETATM    8  C   UNL     1      -8.320   2.734 -32.029  1.00  0.00     0.250 A 
HETATM    9  C   UNL     1      -8.718   3.065 -30.549  1.00  0.00     0.264 A 
HETATM   10  O   UNL     1      -9.851   3.068 -30.096  1.00  0.00    -0.270 OA
HETATM   11  N   UNL     1      -7.566   3.423 -29.874  1.00  0.00    -0.324 N 
HETATM   12  C   UNL     1      -6.460   3.398 -30.709  1.00  0.00     0.044 A 
HETATM   13  C   UNL     1      -6.829   3.017 -32.004  1.00  0.00     0.015 A 
HETATM   14  C   UNL     1      -5.168   3.729 -30.363  1.00  0.00     0.030 A 
HETATM   15  C   UNL     1      -4.206   3.693 -31.372  1.00  0.00     0.002 A 
HETATM   16  C   UNL     1      -4.557   3.337 -32.684  1.00  0.00     0.001 A 
HETATM   17  C   UNL     1      -5.875   3.001 -33.012  1.00  0.00     0.012 A 
HETATM   18  N   UNL     1      -9.000   3.636 -33.076  1.00  0.00    -0.043 N 
HETATM   19  H   UNL     1      -8.383   4.444 -33.252  1.00  0.00     0.282 HD
HETATM   20  C   UNL     1      -9.160   2.814 -34.355  1.00  0.00     0.204 C 
HETATM   21  C   UNL     1     -10.364   4.197 -32.744  1.00  0.00     0.237 C 
HETATM   22  C   UNL     1     -10.926   4.468 -34.123  1.00  0.00     0.030 C 
HETATM   23  C   UNL     1     -10.538   3.215 -34.893  1.00  0.00     0.036 C 
HETATM   24  H   UNL     1      -7.548   3.672 -28.892  1.00  0.00     0.169 HD
ENDROOT
BRANCH   1  25
HETATM   25  C   UNL     1      -6.308  -1.114 -33.619  1.00  0.00     0.048 A 
HETATM   26  C   UNL     1      -5.100  -1.030 -32.908  1.00  0.00     0.066 A 
HETATM   27  C   UNL     1      -4.099  -2.006 -33.020  1.00  0.00     0.070 A 
HETATM   28  C   UNL     1      -4.285  -3.081 -33.879  1.00  0.00     0.037 A 
HETATM   29  C   UNL     1      -5.474  -3.187 -34.599  1.00  0.00     0.005 A 
HETATM   30  C   UNL     1      -6.479  -2.221 -34.461  1.00  0.00     0.030 A 
BRANCH  27  31
HETATM   31  O   UNL     1      -3.005  -1.786 -32.229  1.00  0.00    -0.356 OA
HETATM   32  C   UNL     1      -2.915  -0.522 -31.582  1.00  0.00     0.210 C 
ENDBRANCH  27  31
ENDBRANCH   1  25
TORSDOF 2
ENDMDL
MODEL 5
REMARK VINA RESULT:      -9.1      1.206      1.783
REMARK  2 active torsions:
REMARK  status: ('A' for Active; 'I' for Inactive)
REMARK    1  A    between atoms: O_2  and  C_3 
REMARK    2  A    between atoms: C_5  and  N_6 
ROOT
HETATM    1  N   UNL     1      -5.732   0.934 -32.689  1.00  0.00    -0.252 N 
HETATM    2  C   UNL     1      -6.186   1.940 -33.518  1.00  0.00     0.239 C 
HETATM    3  O   UNL     1      -6.410   1.938 -34.718  1.00  0.00    -0.272 OA
HETATM    4  C   UNL     1      -6.546   3.127 -32.690  1.00  0.00     0.145 C 
HETATM    5  C   UNL     1      -6.012   2.800 -31.315  1.00  0.00     0.126 C 
HETATM    6  C   UNL     1      -5.834   1.310 -31.365  1.00  0.00     0.238 C 
HETATM    7  O   UNL     1      -5.818   0.642 -30.343  1.00  0.00    -0.272 OA
HETATM    8  C   UNL     1      -8.050   3.340 -32.548  1.00  0.00     0.250 A 
HETATM    9  C   UNL     1      -8.562   4.340 -33.641  1.00  0.00     0.264 A 
HETATM   10  O   UNL     1      -8.159   5.478 -33.817  1.00  0.00    -0.270 OA
HETATM   11  N   UNL     1      -9.602   3.728 -34.315  1.00  0.00    -0.324 N 
HETATM   12  C   UNL     1      -9.864   2.466 -33.805  1.00  0.00     0.044 A 
HETATM   13  C   UNL     1      -8.999   2.174 -32.745  1.00  0.00     0.015 A 
HETATM   14  C   UNL     1     -10.853   1.604 -34.227  1.00  0.00     0.030 A 
HETATM   15  C   UNL     1     -10.988   0.398 -33.540  1.00  0.00     0.002 A 
HETATM   16  C   UNL     1     -10.147   0.093 -32.458  1.00  0.00     0.001 A 
HETATM   17  C   UNL     1      -9.148   0.983 -32.048  1.00  0.00     0.012 A 
HETATM   18  N   UNL     1      -8.174   3.871 -31.107  1.00  0.00    -0.043 N 
HETATM   19  H   UNL     1      -9.088   3.571 -30.733  1.00  0.00     0.282 HD
HETATM   20  C   UNL     1      -7.046   3.245 -30.288  1.00  0.00     0.204 C 
HETATM   21  C   UNL     1      -8.090   5.365 -30.895  1.00  0.00     0.237 C 
HETATM   22  C   UNL     1      -7.650   5.444 -29.449  1.00  0.00     0.030 C 
HETATM   23  C   UNL     1      -6.570   4.377 -29.370  1.00  0.00     0.036 C 
HETATM   24  H   UNL     1     -10.101   4.160 -35.085  1.00  0.00     0.169 HD
ENDROOT
BRANCH   1  25
HETATM   25  C   UNL     1      -5.345  -0.361 -33.152  1.00  0.00     0.048 A 
HETATM   26  C   UNL     1      -6.278  -1.212 -33.768  1.00  0.00     0.066 A 
HETATM   27  C   UNL     1      -5.920  -2.470 -34.274  1.00  0.00     0.070 A 
HETATM   28  C   UNL     1      -4.610  -2.912 -34.145  1.00  0.00     0.037 A 
HETATM   29  C   UNL     1      -3.664  -2.088 -33.536  1.00  0.00     0.005 A 
HETATM   30  C   UNL     1      -4.025  -0.823 -33.056  1.00  0.00     0.030 A 
BRANCH  27  31
HETATM   31  O   UNL     1      -6.944  -3.150 -34.873  1.00  0.00    -0.356 OA
HETATM   32  C   UNL     1      -6.673  -4.474 -35.317  1.00  0.00     0.210 C 
ENDBRANCH  27  31
ENDBRANCH   1  25
TORSDOF 2
ENDMDL
MODEL 6
REMARK VINA RESULT:      -8.8      2.438      6.177
REMARK  2 active torsions:
REMARK  status: ('A' for Active; 'I' for Inactive)
REMARK    1  A    between atoms: O_2  and  C_3 
REMARK    2  A    between atoms: C_5  and  N_6 
ROOT
HETATM    1  N   UNL     1      -8.388   3.490 -32.381  1.00  0.00    -0.252 N 
HETATM    2  C   UNL     1      -7.749   2.603 -31.538  1.00  0.00     0.239 C 
HETATM    3  O   UNL     1      -8.184   1.650 -30.912  1.00  0.00    -0.272 OA
HETATM    4  C   UNL     1      -6.281   2.870 -31.575  1.00  0.00     0.145 C 
HETATM    5  C   UNL     1      -6.156   4.173 -32.329  1.00  0.00     0.126 C 
HETATM    6  C   UNL     1      -7.471   4.277 -33.047  1.00  0.00     0.238 C 
HETATM    7  O   UNL     1      -7.587   4.958 -34.054  1.00  0.00    -0.272 OA
HETATM    8  C   UNL     1      -5.489   1.824 -32.352  1.00  0.00     0.250 A 
HETATM    9  C   UNL     1      -4.947   0.720 -31.380  1.00  0.00     0.264 A 
HETATM   10  O   UNL     1      -4.235   0.909 -30.407  1.00  0.00    -0.270 OA
HETATM   11  N   UNL     1      -5.357  -0.506 -31.866  1.00  0.00    -0.324 N 
HETATM   12  C   UNL     1      -6.079  -0.370 -33.041  1.00  0.00     0.044 A 
HETATM   13  C   UNL     1      -6.184   0.978 -33.402  1.00  0.00     0.015 A 
HETATM   14  C   UNL     1      -6.605  -1.393 -33.800  1.00  0.00     0.030 A 
HETATM   15  C   UNL     1      -7.252  -1.045 -34.985  1.00  0.00     0.002 A 
HETATM   16  C   UNL     1      -7.349   0.299 -35.380  1.00  0.00     0.001 A 
HETATM   17  C   UNL     1      -6.809   1.322 -34.592  1.00  0.00     0.012 A 
HETATM   18  N   UNL     1      -4.386   2.670 -33.015  1.00  0.00    -0.043 N 
HETATM   19  H   UNL     1      -4.134   2.222 -33.911  1.00  0.00     0.282 HD
HETATM   20  C   UNL     1      -4.966   4.060 -33.273  1.00  0.00     0.204 C 
HETATM   21  C   UNL     1      -3.095   2.870 -32.254  1.00  0.00     0.237 C 
HETATM   22  C   UNL     1      -2.570   4.147 -32.873  1.00  0.00     0.030 C 
HETATM   23  C   UNL     1      -3.815   5.018 -32.947  1.00  0.00     0.036 C 
HETATM   24  H   UNL     1      -5.148  -1.387 -31.411  1.00  0.00     0.169 HD
ENDROOT
BRANCH   1  25
HETATM   25  C   UNL     1      -9.797   3.483 -32.619  1.00  0.00     0.048 A 
HETATM   26  C   UNL     1     -10.323   2.938 -33.802  1.00  0.00     0.066 A 
HETATM   27  C   UNL     1     -11.702   2.874 -34.046  1.00  0.00     0.070 A 
HETATM   28  C   UNL     1     -12.587   3.387 -33.106  1.00  0.00     0.037 A 
HETATM   29  C   UNL     1     -12.092   3.935 -31.924  1.00  0.00     0.005 A 
HETATM   30  C   UNL     1     -10.714   3.971 -31.678  1.00  0.00     0.030 A 
BRANCH  27  31
HETATM   31  O   UNL     1     -12.039   2.280 -35.231  1.00  0.00    -0.356 OA
HETATM   32  C   UNL     1     -12.326   3.139 -36.329  1.00  0.00     0.210 C 
ENDBRANCH  27  31
ENDBRANCH   1  25
TORSDOF 2
ENDMDL
MODEL 7
REMARK VINA RESULT:      -8.8      3.296      5.887
REMARK  2 active torsions:
REMARK  status: ('A' for Active; 'I' for Inactive)
REMARK    1  A    between atoms: O_2  and  C_3 
REMARK    2  A    between atoms: C_5  and  N_6 
ROOT
HETATM    1  N   UNL     1      -5.997   4.474 -33.638  1.00  0.00    -0.252 N 
HETATM    2  C   UNL     1      -6.642   3.331 -34.066  1.00  0.00     0.239 C 
HETATM    3  O   UNL     1      -6.193   2.291 -34.522  1.00  0.00    -0.272 OA
HETATM    4  C   UNL     1      -8.097   3.449 -33.757  1.00  0.00     0.145 C 
HETATM    5  C   UNL     1      -8.275   4.889 -33.338  1.00  0.00     0.126 C 
HETATM    6  C   UNL     1      -6.877   5.317 -32.992  1.00  0.00     0.238 C 
HETATM    7  O   UNL     1      -6.674   6.256 -32.239  1.00  0.00    -0.272 OA
HETATM    8  C   UNL     1      -8.546   2.582 -32.586  1.00  0.00     0.250 A 
HETATM    9  C   UNL     1      -9.087   1.206 -33.104  1.00  0.00     0.264 A 
HETATM   10  O   UNL     1      -9.997   1.049 -33.902  1.00  0.00    -0.270 OA
HETATM   11  N   UNL     1      -8.401   0.207 -32.440  1.00  0.00    -0.324 N 
HETATM   12  C   UNL     1      -7.492   0.732 -31.534  1.00  0.00     0.044 A 
HETATM   13  C   UNL     1      -7.533   2.130 -31.550  1.00  0.00     0.015 A 
HETATM   14  C   UNL     1      -6.673   0.014 -30.691  1.00  0.00     0.030 A 
HETATM   15  C   UNL     1      -5.868   0.737 -29.810  1.00  0.00     0.002 A 
HETATM   16  C   UNL     1      -5.909   2.140 -29.791  1.00  0.00     0.001 A 
HETATM   17  C   UNL     1      -6.748   2.848 -30.659  1.00  0.00     0.012 A 
HETATM   18  N   UNL     1      -9.616   3.463 -31.913  1.00  0.00    -0.043 N 
HETATM   19  H   UNL     1      -9.612   3.255 -30.902  1.00  0.00     0.282 HD
HETATM   20  C   UNL     1      -9.223   4.922 -32.146  1.00  0.00     0.204 C 
HETATM   21  C   UNL     1     -11.046   3.316 -32.381  1.00  0.00     0.237 C 
HETATM   22  C   UNL     1     -11.634   4.655 -31.990  1.00  0.00     0.030 C 
HETATM   23  C   UNL     1     -10.552   5.633 -32.422  1.00  0.00     0.036 C 
HETATM   24  H   UNL     1      -8.554  -0.781 -32.604  1.00  0.00     0.169 HD
ENDROOT
BRANCH   1  25
HETATM   25  C   UNL     1      -4.585   4.673 -33.739  1.00  0.00     0.048 A 
HETATM   26  C   UNL     1      -3.738   4.363 -32.662  1.00  0.00     0.066 A 
HETATM   27  C   UNL     1      -2.345   4.504 -32.744  1.00  0.00     0.070 A 
HETATM   28  C   UNL     1      -1.775   4.990 -33.913  1.00  0.00     0.037 A 
HETATM   29  C   UNL     1      -2.593   5.307 -34.997  1.00  0.00     0.005 A 
HETATM   30  C   UNL     1      -3.981   5.139 -34.914  1.00  0.00     0.030 A 
BRANCH  27  31
HETATM   31  O   UNL     1      -1.672   4.123 -31.616  1.00  0.00    -0.356 OA
HETATM   32  C   UNL     1      -0.913   5.122 -30.945  1.00  0.00     0.210 C 
ENDBRANCH  27  31
ENDBRANCH   1  25
TORSDOF 2
ENDMDL
MODEL 8
REMARK VINA RESULT:      -8.8     14.563     16.858
REMARK  2 active torsions:
REMARK  status: ('A' for Active; 'I' for Inactive)
REMARK    1  A    between atoms: O_2  and  C_3 
REMARK    2  A    between atoms: C_5  and  N_6 
ROOT
HETATM    1  N   UNL     1      -7.140 -13.240 -40.502  1.00  0.00    -0.252 N 
HETATM    2  C   UNL     1      -6.390 -12.453 -39.650  1.00  0.00     0.239 C 
HETATM    3  O   UNL     1      -6.736 -11.711 -38.746  1.00  0.00    -0.272 OA
HETATM    4  C   UNL     1      -4.942 -12.732 -39.880  1.00  0.00     0.145 C 
HETATM    5  C   UNL     1      -4.917 -13.575 -41.133  1.00  0.00     0.126 C 
HETATM    6  C   UNL     1      -6.327 -14.086 -41.226  1.00  0.00     0.238 C 
HETATM    7  O   UNL     1      -6.588 -15.102 -41.850  1.00  0.00    -0.272 OA
HETATM    8  C   UNL     1      -4.295 -13.558 -38.772  1.00  0.00     0.250 A 
HETATM    9  C   UNL     1      -3.624 -12.616 -37.714  1.00  0.00     0.264 A 
HETATM   10  O   UNL     1      -2.767 -11.778 -37.942  1.00  0.00    -0.270 OA
HETATM   11  N   UNL     1      -4.123 -12.957 -36.471  1.00  0.00    -0.324 N 
HETATM   12  C   UNL     1      -5.018 -14.012 -36.556  1.00  0.00     0.044 A 
HETATM   13  C   UNL     1      -5.157 -14.434 -37.883  1.00  0.00     0.015 A 
HETATM   14  C   UNL     1      -5.670 -14.617 -35.503  1.00  0.00     0.030 A 
HETATM   15  C   UNL     1      -6.488 -15.707 -35.798  1.00  0.00     0.002 A 
HETATM   16  C   UNL     1      -6.626 -16.163 -37.119  1.00  0.00     0.001 A 
HETATM   17  C   UNL     1      -5.956 -15.532 -38.172  1.00  0.00     0.012 A 
HETATM   18  N   UNL     1      -3.297 -14.434 -39.552  1.00  0.00    -0.043 N 
HETATM   19  H   UNL     1      -3.195 -15.328 -39.047  1.00  0.00     0.282 HD
HETATM   20  C   UNL     1      -3.891 -14.683 -40.938  1.00  0.00     0.204 C 
HETATM   21  C   UNL     1      -1.901 -13.895 -39.765  1.00  0.00     0.237 C 
HETATM   22  C   UNL     1      -1.461 -14.664 -40.992  1.00  0.00     0.030 C 
HETATM   23  C   UNL     1      -2.689 -14.598 -41.886  1.00  0.00     0.036 C 
HETATM   24  H   UNL     1      -3.858 -12.486 -35.613  1.00  0.00     0.169 HD
ENDROOT
BRANCH   1  25
HETATM   25  C   UNL     1      -8.569 -13.256 -40.514  1.00  0.00     0.048 A 
HETATM   26  C   UNL     1      -9.272 -14.461 -40.680  1.00  0.00     0.066 A 
HETATM   27  C   UNL     1     -10.673 -14.517 -40.651  1.00  0.00     0.070 A 
HETATM   28  C   UNL     1     -11.401 -13.347 -40.480  1.00  0.00     0.037 A 
HETATM   29  C   UNL     1     -10.728 -12.137 -40.315  1.00  0.00     0.005 A 
HETATM   30  C   UNL     1      -9.329 -12.094 -40.319  1.00  0.00     0.030 A 
BRANCH  27  31
HETATM   31  O   UNL     1     -11.190 -15.775 -40.793  1.00  0.00    -0.356 OA
HETATM   32  C   UNL     1     -11.883 -16.060 -42.003  1.00  0.00     0.210 C 
ENDBRANCH  27  31
ENDBRANCH   1  25
TORSDOF 2
ENDMDL
MODEL 9
REMARK VINA RESULT:      -8.6      3.573      6.542
REMARK  2 active torsions:
REMARK  status: ('A' for Active; 'I' for Inactive)
REMARK    1  A    between atoms: O_2  and  C_3 
REMARK    2  A    between atoms: C_5  and  N_6 
ROOT
HETATM    1  N   UNL     1      -4.555   5.165 -32.155  1.00  0.00    -0.252 N 
HETATM    2  C   UNL     1      -5.173   4.512 -33.202  1.00  0.00     0.239 C 
HETATM    3  O   UNL     1      -4.736   4.162 -34.287  1.00  0.00    -0.272 OA
HETATM    4  C   UNL     1      -6.546   4.107 -32.780  1.00  0.00     0.145 C 
HETATM    5  C   UNL     1      -6.758   4.820 -31.465  1.00  0.00     0.126 C 
HETATM    6  C   UNL     1      -5.361   5.163 -31.035  1.00  0.00     0.238 C 
HETATM    7  O   UNL     1      -5.095   5.366 -29.861  1.00  0.00    -0.272 OA
HETATM    8  C   UNL     1      -6.687   2.613 -32.508  1.00  0.00     0.250 A 
HETATM    9  C   UNL     1      -7.203   1.874 -33.791  1.00  0.00     0.264 A 
HETATM   10  O   UNL     1      -8.233   2.122 -34.395  1.00  0.00    -0.270 OA
HETATM   11  N   UNL     1      -6.321   0.846 -34.066  1.00  0.00    -0.324 N 
HETATM   12  C   UNL     1      -5.301   0.788 -33.130  1.00  0.00     0.044 A 
HETATM   13  C   UNL     1      -5.460   1.789 -32.166  1.00  0.00     0.015 A 
HETATM   14  C   UNL     1      -4.277  -0.134 -33.093  1.00  0.00     0.030 A 
HETATM   15  C   UNL     1      -3.381  -0.054 -32.028  1.00  0.00     0.002 A 
HETATM   16  C   UNL     1      -3.534   0.927 -31.036  1.00  0.00     0.001 A 
HETATM   17  C   UNL     1      -4.579   1.855 -31.095  1.00  0.00     0.012 A 
HETATM   18  N   UNL     1      -7.676   2.583 -31.328  1.00  0.00    -0.043 N 
HETATM   19  H   UNL     1      -7.461   1.755 -30.751  1.00  0.00     0.282 HD
HETATM   20  C   UNL     1      -7.458   3.858 -30.513  1.00  0.00     0.204 C 
HETATM   21  C   UNL     1      -9.153   2.516 -31.647  1.00  0.00     0.237 C 
HETATM   22  C   UNL     1      -9.763   3.096 -30.389  1.00  0.00     0.030 C 
HETATM   23  C   UNL     1      -8.870   4.295 -30.107  1.00  0.00     0.036 C 
HETATM   24  H   UNL     1      -6.420   0.221 -34.858  1.00  0.00     0.169 HD
ENDROOT
BRANCH   1  25
HETATM   25  C   UNL     1      -3.211   5.648 -32.205  1.00  0.00     0.048 A 
HETATM   26  C   UNL     1      -2.166   4.925 -31.605  1.00  0.00     0.066 A 
HETATM   27  C   UNL     1      -0.830   5.348 -31.674  1.00  0.00     0.070 A 
HETATM   28  C   UNL     1      -0.521   6.531 -32.332  1.00  0.00     0.037 A 
HETATM   29  C   UNL     1      -1.539   7.269 -32.934  1.00  0.00     0.005 A 
HETATM   30  C   UNL     1      -2.866   6.826 -32.881  1.00  0.00     0.030 A 
BRANCH  27  31
HETATM   31  O   UNL     1       0.060   4.506 -31.067  1.00  0.00    -0.356 OA
HETATM   32  C   UNL     1       0.652   4.954 -29.853  1.00  0.00     0.210 C 
ENDBRANCH  27  31
ENDBRANCH   1  25
TORSDOF 2
ENDMDL
MODEL 10
REMARK VINA RESULT:      -8.5      2.770      6.380
REMARK  2 active torsions:
REMARK  status: ('A' for Active; 'I' for Inactive)
REMARK    1  A    between atoms: O_2  and  C_3 
REMARK    2  A    between atoms: C_5  and  N_6 
ROOT
HETATM    1  N   UNL     1     -10.681   1.291 -33.773  1.00  0.00    -0.252 N 
HETATM    2  C   UNL     1      -9.870   2.261 -34.326  1.00  0.00     0.239 C 
HETATM    3  O   UNL     1     -10.143   3.363 -34.773  1.00  0.00    -0.272 OA
HETATM    4  C   UNL     1      -8.445   1.841 -34.185  1.00  0.00     0.145 C 
HETATM    5  C   UNL     1      -8.522   0.404 -33.724  1.00  0.00     0.126 C 
HETATM    6  C   UNL     1      -9.924   0.293 -33.196  1.00  0.00     0.238 C 
HETATM    7  O   UNL     1     -10.224  -0.566 -32.381  1.00  0.00    -0.272 OA
HETATM    8  C   UNL     1      -7.681   2.615 -33.116  1.00  0.00     0.250 A 
HETATM    9  C   UNL     1      -6.932   3.832 -33.758  1.00  0.00     0.264 A 
HETATM   10  O   UNL     1      -6.116   3.775 -34.663  1.00  0.00    -0.270 OA
HETATM   11  N   UNL     1      -7.305   4.968 -33.064  1.00  0.00    -0.324 N 
HETATM   12  C   UNL     1      -8.183   4.668 -32.035  1.00  0.00     0.044 A 
HETATM   13  C   UNL     1      -8.439   3.294 -31.990  1.00  0.00     0.015 A 
HETATM   14  C   UNL     1      -8.722   5.562 -31.135  1.00  0.00     0.030 A 
HETATM   15  C   UNL     1      -9.543   5.046 -30.133  1.00  0.00     0.002 A 
HETATM   16  C   UNL     1      -9.796   3.667 -30.054  1.00  0.00     0.001 A 
HETATM   17  C   UNL     1      -9.240   2.778 -30.981  1.00  0.00     0.012 A 
HETATM   18  N   UNL     1      -6.745   1.539 -32.534  1.00  0.00    -0.043 N 
HETATM   19  H   UNL     1      -6.578   1.763 -31.541  1.00  0.00     0.282 HD
HETATM   20  C   UNL     1      -7.461   0.194 -32.651  1.00  0.00     0.204 C 
HETATM   21  C   UNL     1      -5.385   1.367 -33.173  1.00  0.00     0.237 C 
HETATM   22  C   UNL     1      -5.048  -0.059 -32.793  1.00  0.00     0.030 C 
HETATM   23  C   UNL     1      -6.356  -0.791 -33.049  1.00  0.00     0.036 C 
HETATM   24  H   UNL     1      -6.969   5.897 -33.291  1.00  0.00     0.169 HD
ENDROOT
BRANCH   1  25
HETATM   25  C   UNL     1     -12.105   1.397 -33.697  1.00  0.00     0.048 A 
HETATM   26  C   UNL     1     -12.710   2.432 -32.964  1.00  0.00     0.066 A 
HETATM   27  C   UNL     1     -14.102   2.590 -32.907  1.00  0.00     0.070 A 
HETATM   28  C   UNL     1     -14.921   1.686 -33.571  1.00  0.00     0.037 A 
HETATM   29  C   UNL     1     -14.347   0.649 -34.304  1.00  0.00     0.005 A 
HETATM   30  C   UNL     1     -12.955   0.514 -34.376  1.00  0.00     0.030 A 
BRANCH  27  31
HETATM   31  O   UNL     1     -14.518   3.670 -32.179  1.00  0.00    -0.356 OA
HETATM   32  C   UNL     1     -14.153   4.958 -32.661  1.00  0.00     0.210 C 
ENDBRANCH  27  31
ENDBRANCH   1  25
TORSDOF 2
ENDMDL
