MODEL 1
REMARK VINA RESULT:      -8.8      0.000      0.000
REMARK  7 active torsions:
REMARK  status: ('A' for Active; 'I' for Inactive)
REMARK    1  A    between atoms: C_2  and  O_3 
REMARK    2  A    between atoms: O_3  and  C_4 
REMARK    3  A    between atoms: C_7  and  N_8 
REMARK    4  A    between atoms: C_9  and  O_10 
REMARK    5  A    between atoms: C_9  and  C_11 
REMARK       I    between atoms: C_11  and  N_12 
REMARK    6  A    between atoms: N_12  and  C_13 
REMARK    7  A    between atoms: C_13  and  C_14 
ROOT
HETATM    1  N   UNL     1      -4.685   4.981 -33.459  1.00  0.00    -0.254 N 
HETATM    2  C   UNL     1      -4.020   4.809 -32.155  1.00  0.00     0.256 C 
HETATM    3  C   UNL     1      -2.979   5.875 -31.896  1.00  0.00     0.034 A 
HETATM    4  C   UNL     1      -2.336   6.428 -32.999  1.00  0.00     0.048 A 
HETATM    5  N   UNL     1      -2.746   6.036 -34.270  1.00  0.00    -0.308 N 
HETATM    6  C   UNL     1      -3.915   5.371 -34.549  1.00  0.00     0.330 C 
HETATM    7  O   UNL     1      -4.216   5.231 -35.733  1.00  0.00    -0.246 OA
HETATM    8  C   UNL     1      -2.569   6.262 -30.611  1.00  0.00     0.015 A 
HETATM    9  C   UNL     1      -1.542   7.193 -30.448  1.00  0.00     0.001 A 
HETATM   10  C   UNL     1      -0.904   7.730 -31.565  1.00  0.00     0.002 A 
HETATM   11  C   UNL     1      -1.294   7.341 -32.846  1.00  0.00     0.030 A 
HETATM   12  H   UNL     1      -2.288   6.419 -35.088  1.00  0.00     0.170 HD
ENDROOT
BRANCH   2  13
HETATM   13  O   UNL     1      -4.964   4.888 -31.081  1.00  0.00    -0.359 OA
HETATM   14  H   UNL     1      -5.636   4.212 -31.299  1.00  0.00     0.213 HD
ENDBRANCH   2  13
BRANCH   2  15
HETATM   15  C   UNL     1      -3.356   3.367 -32.114  1.00  0.00     0.279 C 
HETATM   16  N   UNL     1      -3.845   2.466 -31.192  1.00  0.00    -0.352 N 
HETATM   17  H   UNL     1      -4.656   2.706 -30.634  1.00  0.00     0.162 HD
HETATM   18  O   UNL     1      -2.425   3.078 -32.874  1.00  0.00    -0.268 OA
BRANCH  16  19
HETATM   19  C   UNL     1      -3.356   1.111 -31.131  1.00  0.00     0.161 C 
BRANCH  19  20
HETATM   20  C   UNL     1      -4.262   0.184 -31.895  1.00  0.00    -0.038 A 
HETATM   21  C   UNL     1      -3.734  -0.669 -32.879  1.00  0.00     0.048 A 
HETATM   22  C   UNL     1      -4.606  -1.481 -33.574  1.00  0.00     0.105 A 
HETATM   23  C   UNL     1      -5.959  -1.467 -33.333  1.00  0.00     0.105 A 
HETATM   24  O   UNL     1      -4.263  -2.362 -34.552  1.00  0.00    -0.323 OA
HETATM   25  O   UNL     1      -6.637  -2.339 -34.125  1.00  0.00    -0.323 OA
HETATM   26  C   UNL     1      -6.517  -0.636 -32.386  1.00  0.00     0.040 A 
HETATM   27  C   UNL     1      -5.554  -2.915 -34.884  1.00  0.00     0.352 A 
HETATM   28  C   UNL     1      -5.658   0.200 -31.665  1.00  0.00     0.012 A 
ENDBRANCH  19  20
ENDBRANCH  16  19
ENDBRANCH   2  15
BRANCH   1  29
HETATM   29  C   UNL     1      -5.968   4.382 -33.666  1.00  0.00     0.043 A 
HETATM   30  C   UNL     1      -7.154   5.113 -33.543  1.00  0.00     0.032 A 
HETATM   31  C   UNL     1      -8.401   4.501 -33.749  1.00  0.00     0.039 A 
HETATM   32  C   UNL     1      -8.474   3.147 -34.065  1.00  0.00     0.068 A 
HETATM   33  C   UNL     1      -7.298   2.404 -34.149  1.00  0.00     0.039 A 
HETATM   34  C   UNL     1      -6.058   3.015 -33.951  1.00  0.00     0.032 A 
BRANCH  32  35
HETATM   35  O   UNL     1      -9.616   2.430 -34.289  1.00  0.00    -0.352 OA
BRANCH  35  36
HETATM   36  C   UNL     1      -9.495   1.009 -34.292  1.00  0.00     0.171 C 
HETATM   37  C   UNL     1     -10.326   0.475 -33.139  1.00  0.00     0.034 C 
ENDBRANCH  35  36
ENDBRANCH  32  35
ENDBRANCH   1  29
TORSDOF 7
ENDMDL
MODEL 2
REMARK VINA RESULT:      -8.8      3.344      5.283
REMARK  7 active torsions:
REMARK  status: ('A' for Active; 'I' for Inactive)
REMARK    1  A    between atoms: C_2  and  O_3 
REMARK    2  A    between atoms: O_3  and  C_4 
REMARK    3  A    between atoms: C_7  and  N_8 
REMARK    4  A    between atoms: C_9  and  O_10 
REMARK    5  A    between atoms: C_9  and  C_11 
REMARK       I    between atoms: C_11  and  N_12 
REMARK    6  A    between atoms: N_12  and  C_13 
REMARK    7  A    between atoms: C_13  and  C_14 
ROOT
HETATM    1  N   UNL     1      -9.389   3.049 -32.548  1.00  0.00    -0.254 N 
HETATM    2  C   UNL     1      -8.711   1.879 -31.965  1.00  0.00     0.256 C 
HETATM    3  C   UNL     1      -7.277   2.175 -31.587  1.00  0.00     0.034 A 
HETATM    4  C   UNL     1      -6.602   3.141 -32.326  1.00  0.00     0.048 A 
HETATM    5  N   UNL     1      -7.306   3.836 -33.305  1.00  0.00    -0.308 N 
HETATM    6  C   UNL     1      -8.674   3.863 -33.421  1.00  0.00     0.330 C 
HETATM    7  O   UNL     1      -9.156   4.646 -34.237  1.00  0.00    -0.246 OA
HETATM    8  C   UNL     1      -6.574   1.465 -30.600  1.00  0.00     0.015 A 
HETATM    9  C   UNL     1      -5.226   1.737 -30.361  1.00  0.00     0.001 A 
HETATM   10  C   UNL     1      -4.565   2.703 -31.119  1.00  0.00     0.002 A 
HETATM   11  C   UNL     1      -5.251   3.403 -32.111  1.00  0.00     0.030 A 
HETATM   12  H   UNL     1      -6.834   4.538 -33.862  1.00  0.00     0.170 HD
ENDROOT
BRANCH   2  13
HETATM   13  O   UNL     1      -9.370   1.444 -30.770  1.00  0.00    -0.359 OA
HETATM   14  H   UNL     1      -8.690   1.532 -30.073  1.00  0.00     0.213 HD
ENDBRANCH   2  13
BRANCH   2  15
HETATM   15  C   UNL     1      -8.771   0.688 -33.014  1.00  0.00     0.279 C 
HETATM   16  N   UNL     1      -7.864   0.706 -34.053  1.00  0.00    -0.352 N 
HETATM   17  H   UNL     1      -7.139   1.414 -34.075  1.00  0.00     0.162 HD
HETATM   18  O   UNL     1      -9.614  -0.210 -32.904  1.00  0.00    -0.268 OA
BRANCH  16  19
HETATM   19  C   UNL     1      -7.794  -0.369 -35.010  1.00  0.00     0.161 C 
BRANCH  19  20
HETATM   20  C   UNL     1      -6.672  -1.313 -34.669  1.00  0.00    -0.038 A 
HETATM   21  C   UNL     1      -6.810  -2.690 -34.909  1.00  0.00     0.048 A 
HETATM   22  C   UNL     1      -5.767  -3.520 -34.554  1.00  0.00     0.105 A 
HETATM   23  C   UNL     1      -4.620  -3.036 -33.973  1.00  0.00     0.105 A 
HETATM   24  O   UNL     1      -5.735  -4.871 -34.719  1.00  0.00    -0.323 OA
HETATM   25  O   UNL     1      -3.721  -4.019 -33.702  1.00  0.00    -0.323 OA
HETATM   26  C   UNL     1      -4.452  -1.695 -33.709  1.00  0.00     0.040 A 
HETATM   27  C   UNL     1      -4.427  -5.177 -34.192  1.00  0.00     0.352 A 
HETATM   28  C   UNL     1      -5.493  -0.827 -34.058  1.00  0.00     0.012 A 
ENDBRANCH  19  20
ENDBRANCH  16  19
ENDBRANCH   2  15
BRANCH   1  29
HETATM   29  C   UNL     1     -10.819   3.103 -32.530  1.00  0.00     0.043 A 
HETATM   30  C   UNL     1     -11.598   2.388 -33.445  1.00  0.00     0.032 A 
HETATM   31  C   UNL     1     -13.000   2.460 -33.408  1.00  0.00     0.039 A 
HETATM   32  C   UNL     1     -13.636   3.261 -32.463  1.00  0.00     0.068 A 
HETATM   33  C   UNL     1     -12.865   4.008 -31.576  1.00  0.00     0.039 A 
HETATM   34  C   UNL     1     -11.471   3.930 -31.608  1.00  0.00     0.032 A 
BRANCH  32  35
HETATM   35  O   UNL     1     -14.985   3.422 -32.318  1.00  0.00    -0.352 OA
BRANCH  35  36
HETATM   36  C   UNL     1     -15.773   2.234 -32.259  1.00  0.00     0.171 C 
HETATM   37  C   UNL     1     -17.215   2.650 -32.033  1.00  0.00     0.034 C 
ENDBRANCH  35  36
ENDBRANCH  32  35
ENDBRANCH   1  29
TORSDOF 7
ENDMDL
MODEL 3
REMARK VINA RESULT:      -8.5      2.793      6.226
REMARK  7 active torsions:
REMARK  status: ('A' for Active; 'I' for Inactive)
REMARK    1  A    between atoms: C_2  and  O_3 
REMARK    2  A    between atoms: O_3  and  C_4 
REMARK    3  A    between atoms: C_7  and  N_8 
REMARK    4  A    between atoms: C_9  and  O_10 
REMARK    5  A    between atoms: C_9  and  C_11 
REMARK       I    between atoms: C_11  and  N_12 
REMARK    6  A    between atoms: N_12  and  C_13 
REMARK    7  A    between atoms: C_13  and  C_14 
ROOT
HETATM    1  N   UNL     1      -6.700   1.694 -32.039  1.00  0.00    -0.254 N 
HETATM    2  C   UNL     1      -6.102   3.018 -32.283  1.00  0.00     0.256 C 
HETATM    3  C   UNL     1      -6.080   3.877 -31.038  1.00  0.00     0.034 A 
HETATM    4  C   UNL     1      -7.082   3.669 -30.095  1.00  0.00     0.048 A 
HETATM    5  N   UNL     1      -7.986   2.632 -30.308  1.00  0.00    -0.308 N 
HETATM    6  C   UNL     1      -7.816   1.613 -31.213  1.00  0.00     0.330 C 
HETATM    7  O   UNL     1      -8.623   0.686 -31.176  1.00  0.00    -0.246 OA
HETATM    8  C   UNL     1      -5.167   4.923 -30.835  1.00  0.00     0.015 A 
HETATM    9  C   UNL     1      -5.259   5.729 -29.700  1.00  0.00     0.001 A 
HETATM   10  C   UNL     1      -6.275   5.511 -28.770  1.00  0.00     0.002 A 
HETATM   11  C   UNL     1      -7.196   4.483 -28.970  1.00  0.00     0.030 A 
HETATM   12  H   UNL     1      -8.729   2.466 -29.640  1.00  0.00     0.170 HD
ENDROOT
BRANCH   2  13
HETATM   13  O   UNL     1      -4.743   2.896 -32.721  1.00  0.00    -0.359 OA
HETATM   14  H   UNL     1      -4.537   3.766 -33.117  1.00  0.00     0.213 HD
ENDBRANCH   2  13
BRANCH   2  15
HETATM   15  C   UNL     1      -6.922   3.737 -33.437  1.00  0.00     0.279 C 
HETATM   16  N   UNL     1      -8.297   3.642 -33.395  1.00  0.00    -0.352 N 
HETATM   17  H   UNL     1      -8.748   3.202 -32.602  1.00  0.00     0.162 HD
HETATM   18  O   UNL     1      -6.340   4.344 -34.343  1.00  0.00    -0.268 OA
BRANCH  16  19
HETATM   19  C   UNL     1      -9.128   4.323 -34.357  1.00  0.00     0.161 C 
BRANCH  19  20
HETATM   20  C   UNL     1     -10.421   3.581 -34.562  1.00  0.00    -0.038 A 
HETATM   21  C   UNL     1     -10.658   2.372 -33.886  1.00  0.00     0.048 A 
HETATM   22  C   UNL     1     -11.845   1.712 -34.127  1.00  0.00     0.105 A 
HETATM   23  C   UNL     1     -12.782   2.202 -35.005  1.00  0.00     0.105 A 
HETATM   24  O   UNL     1     -12.232   0.539 -33.558  1.00  0.00    -0.323 OA
HETATM   25  O   UNL     1     -13.876   1.401 -35.097  1.00  0.00    -0.323 OA
HETATM   26  C   UNL     1     -12.582   3.376 -35.697  1.00  0.00     0.040 A 
HETATM   27  C   UNL     1     -13.528   0.357 -34.165  1.00  0.00     0.352 A 
HETATM   28  C   UNL     1     -11.387   4.069 -35.474  1.00  0.00     0.012 A 
ENDBRANCH  19  20
ENDBRANCH  16  19
ENDBRANCH   2  15
BRANCH   1  29
HETATM   29  C   UNL     1      -6.392   0.619 -32.931  1.00  0.00     0.043 A 
HETATM   30  C   UNL     1      -7.009   0.494 -34.180  1.00  0.00     0.032 A 
HETATM   31  C   UNL     1      -6.691  -0.573 -35.036  1.00  0.00     0.039 A 
HETATM   32  C   UNL     1      -5.763  -1.535 -34.644  1.00  0.00     0.068 A 
HETATM   33  C   UNL     1      -5.176  -1.438 -33.384  1.00  0.00     0.039 A 
HETATM   34  C   UNL     1      -5.487  -0.373 -32.536  1.00  0.00     0.032 A 
BRANCH  32  35
HETATM   35  O   UNL     1      -5.364  -2.618 -35.375  1.00  0.00    -0.352 OA
BRANCH  35  36
HETATM   36  C   UNL     1      -5.394  -3.885 -34.719  1.00  0.00     0.171 C 
HETATM   37  C   UNL     1      -6.731  -4.532 -35.031  1.00  0.00     0.034 C 
ENDBRANCH  35  36
ENDBRANCH  32  35
ENDBRANCH   1  29
TORSDOF 7
ENDMDL
MODEL 4
REMARK VINA RESULT:      -8.2      4.079      6.750
REMARK  7 active torsions:
REMARK  status: ('A' for Active; 'I' for Inactive)
REMARK    1  A    between atoms: C_2  and  O_3 
REMARK    2  A    between atoms: O_3  and  C_4 
REMARK    3  A    between atoms: C_7  and  N_8 
REMARK    4  A    between atoms: C_9  and  O_10 
REMARK    5  A    between atoms: C_9  and  C_11 
REMARK       I    between atoms: C_11  and  N_12 
REMARK    6  A    between atoms: N_12  and  C_13 
REMARK    7  A    between atoms: C_13  and  C_14 
ROOT
HETATM    1  N   UNL     1      -2.175   7.882 -28.017  1.00  0.00    -0.254 N 
HETATM    2  C   UNL     1      -0.895   7.192 -27.777  1.00  0.00     0.256 C 
HETATM    3  C   UNL     1       0.050   8.014 -26.930  1.00  0.00     0.034 A 
HETATM    4  C   UNL     1      -0.051   9.399 -27.011  1.00  0.00     0.048 A 
HETATM    5  N   UNL     1      -1.067   9.944 -27.792  1.00  0.00    -0.308 N 
HETATM    6  C   UNL     1      -2.154   9.250 -28.264  1.00  0.00     0.330 C 
HETATM    7  O   UNL     1      -3.047   9.900 -28.806  1.00  0.00    -0.246 OA
HETATM    8  C   UNL     1       1.074   7.456 -26.148  1.00  0.00     0.015 A 
HETATM    9  C   UNL     1       1.964   8.281 -25.458  1.00  0.00     0.001 A 
HETATM   10  C   UNL     1       1.851   9.667 -25.558  1.00  0.00     0.002 A 
HETATM   11  C   UNL     1       0.846  10.231 -26.343  1.00  0.00     0.030 A 
HETATM   12  H   UNL     1      -1.157  10.950 -27.873  1.00  0.00     0.170 HD
ENDROOT
BRANCH   2  13
HETATM   13  O   UNL     1      -1.098   5.956 -27.083  1.00  0.00    -0.359 OA
HETATM   14  H   UNL     1      -0.752   5.275 -27.695  1.00  0.00     0.213 HD
ENDBRANCH   2  13
BRANCH   2  15
HETATM   15  C   UNL     1      -0.231   6.859 -29.181  1.00  0.00     0.279 C 
HETATM   16  N   UNL     1      -0.359   5.571 -29.657  1.00  0.00    -0.352 N 
HETATM   17  H   UNL     1      -0.935   4.904 -29.157  1.00  0.00     0.162 HD
HETATM   18  O   UNL     1       0.389   7.725 -29.809  1.00  0.00    -0.268 OA
BRANCH  16  19
HETATM   19  C   UNL     1       0.145   5.195 -30.954  1.00  0.00     0.161 C 
BRANCH  19  20
HETATM   20  C   UNL     1      -0.889   5.444 -32.020  1.00  0.00    -0.038 A 
HETATM   21  C   UNL     1      -1.977   4.568 -32.167  1.00  0.00     0.048 A 
HETATM   22  C   UNL     1      -2.884   4.820 -33.175  1.00  0.00     0.105 A 
HETATM   23  C   UNL     1      -2.742   5.888 -34.028  1.00  0.00     0.105 A 
HETATM   24  O   UNL     1      -3.990   4.078 -33.453  1.00  0.00    -0.323 OA
HETATM   25  O   UNL     1      -3.742   5.955 -34.948  1.00  0.00    -0.323 OA
HETATM   26  C   UNL     1      -1.682   6.762 -33.925  1.00  0.00     0.040 A 
HETATM   27  C   UNL     1      -4.537   4.813 -34.567  1.00  0.00     0.352 A 
HETATM   28  C   UNL     1      -0.745   6.532 -32.912  1.00  0.00     0.012 A 
ENDBRANCH  19  20
ENDBRANCH  16  19
ENDBRANCH   2  15
BRANCH   1  29
HETATM   29  C   UNL     1      -3.322   7.107 -28.378  1.00  0.00     0.043 A 
HETATM   30  C   UNL     1      -3.602   6.774 -29.707  1.00  0.00     0.032 A 
HETATM   31  C   UNL     1      -4.737   6.016 -30.035  1.00  0.00     0.039 A 
HETATM   32  C   UNL     1      -5.612   5.594 -29.037  1.00  0.00     0.068 A 
HETATM   33  C   UNL     1      -5.361   5.957 -27.716  1.00  0.00     0.039 A 
HETATM   34  C   UNL     1      -4.228   6.706 -27.389  1.00  0.00     0.032 A 
BRANCH  32  35
HETATM   35  O   UNL     1      -6.748   4.855 -29.216  1.00  0.00    -0.352 OA
BRANCH  35  36
HETATM   36  C   UNL     1      -6.822   4.067 -30.403  1.00  0.00     0.171 C 
HETATM   37  C   UNL     1      -6.870   2.609 -29.984  1.00  0.00     0.034 C 
ENDBRANCH  35  36
ENDBRANCH  32  35
ENDBRANCH   1  29
TORSDOF 7
ENDMDL
MODEL 5
REMARK VINA RESULT:      -8.2      2.953      7.488
REMARK  7 active torsions:
REMARK  status: ('A' for Active; 'I' for Inactive)
REMARK    1  A    between atoms: C_2  and  O_3 
REMARK    2  A    between atoms: O_3  and  C_4 
REMARK    3  A    between atoms: C_7  and  N_8 
REMARK    4  A    between atoms: C_9  and  O_10 
REMARK    5  A    between atoms: C_9  and  C_11 
REMARK       I    between atoms: C_11  and  N_12 
REMARK    6  A    between atoms: N_12  and  C_13 
REMARK    7  A    between atoms: C_13  and  C_14 
ROOT
HETATM    1  N   UNL     1      -6.373   2.194 -31.057  1.00  0.00    -0.254 N 
HETATM    2  C   UNL     1      -6.151   2.418 -32.496  1.00  0.00     0.256 C 
HETATM    3  C   UNL     1      -6.527   1.214 -33.330  1.00  0.00     0.034 A 
HETATM    4  C   UNL     1      -6.409  -0.040 -32.739  1.00  0.00     0.048 A 
HETATM    5  N   UNL     1      -6.040  -0.108 -31.399  1.00  0.00    -0.308 N 
HETATM    6  C   UNL     1      -6.057   0.950 -30.523  1.00  0.00     0.330 C 
HETATM    7  O   UNL     1      -5.856   0.703 -29.336  1.00  0.00    -0.246 OA
HETATM    8  C   UNL     1      -6.894   1.292 -34.682  1.00  0.00     0.015 A 
HETATM    9  C   UNL     1      -7.147   0.131 -35.413  1.00  0.00     0.001 A 
HETATM   10  C   UNL     1      -7.016  -1.118 -34.806  1.00  0.00     0.002 A 
HETATM   11  C   UNL     1      -6.637  -1.207 -33.467  1.00  0.00     0.030 A 
HETATM   12  H   UNL     1      -5.940  -1.010 -30.948  1.00  0.00     0.170 HD
ENDROOT
BRANCH   2  13
HETATM   13  O   UNL     1      -6.941   3.512 -32.976  1.00  0.00    -0.359 OA
HETATM   14  H   UNL     1      -6.351   4.289 -32.900  1.00  0.00     0.213 HD
ENDBRANCH   2  13
BRANCH   2  15
HETATM   15  C   UNL     1      -4.622   2.788 -32.718  1.00  0.00     0.279 C 
HETATM   16  N   UNL     1      -4.338   4.014 -33.283  1.00  0.00    -0.352 N 
HETATM   17  H   UNL     1      -5.088   4.673 -33.459  1.00  0.00     0.162 HD
HETATM   18  O   UNL     1      -3.728   1.994 -32.408  1.00  0.00    -0.268 OA
BRANCH  16  19
HETATM   19  C   UNL     1      -2.981   4.468 -33.454  1.00  0.00     0.161 C 
BRANCH  19  20
HETATM   20  C   UNL     1      -2.527   5.253 -32.253  1.00  0.00    -0.038 A 
HETATM   21  C   UNL     1      -1.397   4.843 -31.526  1.00  0.00     0.048 A 
HETATM   22  C   UNL     1      -1.035   5.577 -30.416  1.00  0.00     0.105 A 
HETATM   23  C   UNL     1      -1.750   6.678 -30.010  1.00  0.00     0.105 A 
HETATM   24  O   UNL     1       0.027   5.321 -29.606  1.00  0.00    -0.323 OA
HETATM   25  O   UNL     1      -1.226   7.255 -28.896  1.00  0.00    -0.323 OA
HETATM   26  C   UNL     1      -2.871   7.105 -30.688  1.00  0.00     0.040 A 
HETATM   27  C   UNL     1      -0.090   6.399 -28.655  1.00  0.00     0.352 A 
HETATM   28  C   UNL     1      -3.263   6.380 -31.818  1.00  0.00     0.012 A 
ENDBRANCH  19  20
ENDBRANCH  16  19
ENDBRANCH   2  15
BRANCH   1  29
HETATM   29  C   UNL     1      -6.520   3.326 -30.194  1.00  0.00     0.043 A 
HETATM   30  C   UNL     1      -7.776   3.778 -29.774  1.00  0.00     0.032 A 
HETATM   31  C   UNL     1      -7.893   4.894 -28.930  1.00  0.00     0.039 A 
HETATM   32  C   UNL     1      -6.755   5.579 -28.510  1.00  0.00     0.068 A 
HETATM   33  C   UNL     1      -5.505   5.158 -28.958  1.00  0.00     0.039 A 
HETATM   34  C   UNL     1      -5.388   4.044 -29.792  1.00  0.00     0.032 A 
BRANCH  32  35
HETATM   35  O   UNL     1      -6.727   6.674 -27.692  1.00  0.00    -0.352 OA
BRANCH  35  36
HETATM   36  C   UNL     1      -6.685   7.950 -28.328  1.00  0.00     0.171 C 
HETATM   37  C   UNL     1      -5.458   8.680 -27.811  1.00  0.00     0.034 C 
ENDBRANCH  35  36
ENDBRANCH  32  35
ENDBRANCH   1  29
TORSDOF 7
ENDMDL
MODEL 6
REMARK VINA RESULT:      -8.1      2.609      7.203
REMARK  7 active torsions:
REMARK  status: ('A' for Active; 'I' for Inactive)
REMARK    1  A    between atoms: C_2  and  O_3 
REMARK    2  A    between atoms: O_3  and  C_4 
REMARK    3  A    between atoms: C_7  and  N_8 
REMARK    4  A    between atoms: C_9  and  O_10 
REMARK    5  A    between atoms: C_9  and  C_11 
REMARK       I    between atoms: C_11  and  N_12 
REMARK    6  A    between atoms: N_12  and  C_13 
REMARK    7  A    between atoms: C_13  and  C_14 
ROOT
HETATM    1  N   UNL     1      -4.836   3.155 -33.014  1.00  0.00    -0.254 N 
HETATM    2  C   UNL     1      -5.189   1.916 -32.300  1.00  0.00     0.256 C 
HETATM    3  C   UNL     1      -5.814   0.885 -33.213  1.00  0.00     0.034 A 
HETATM    4  C   UNL     1      -6.532   1.348 -34.311  1.00  0.00     0.048 A 
HETATM    5  N   UNL     1      -6.559   2.719 -34.554  1.00  0.00    -0.308 N 
HETATM    6  C   UNL     1      -5.712   3.636 -33.981  1.00  0.00     0.330 C 
HETATM    7  O   UNL     1      -5.752   4.787 -34.411  1.00  0.00    -0.246 OA
HETATM    8  C   UNL     1      -5.785  -0.495 -32.958  1.00  0.00     0.015 A 
HETATM    9  C   UNL     1      -6.456  -1.382 -33.800  1.00  0.00     0.001 A 
HETATM   10  C   UNL     1      -7.178  -0.898 -34.891  1.00  0.00     0.002 A 
HETATM   11  C   UNL     1      -7.224   0.472 -35.145  1.00  0.00     0.030 A 
HETATM   12  H   UNL     1      -7.081   3.081 -35.342  1.00  0.00     0.170 HD
ENDROOT
BRANCH   2  13
HETATM   13  O   UNL     1      -4.029   1.304 -31.725  1.00  0.00    -0.359 OA
HETATM   14  H   UNL     1      -3.295   1.577 -32.311  1.00  0.00     0.213 HD
ENDBRANCH   2  13
BRANCH   2  15
HETATM   15  C   UNL     1      -6.183   2.282 -31.117  1.00  0.00     0.279 C 
HETATM   16  N   UNL     1      -7.417   2.796 -31.457  1.00  0.00    -0.352 N 
HETATM   17  H   UNL     1      -7.691   2.845 -32.432  1.00  0.00     0.162 HD
HETATM   18  O   UNL     1      -5.848   2.124 -29.938  1.00  0.00    -0.268 OA
BRANCH  16  19
HETATM   19  C   UNL     1      -8.413   3.088 -30.456  1.00  0.00     0.161 C 
BRANCH  19  20
HETATM   20  C   UNL     1      -9.767   3.264 -31.089  1.00  0.00    -0.038 A 
HETATM   21  C   UNL     1     -10.033   2.713 -32.354  1.00  0.00     0.048 A 
HETATM   22  C   UNL     1     -11.279   2.924 -32.907  1.00  0.00     0.105 A 
HETATM   23  C   UNL     1     -12.245   3.656 -32.261  1.00  0.00     0.105 A 
HETATM   24  O   UNL     1     -11.701   2.461 -34.115  1.00  0.00    -0.323 OA
HETATM   25  O   UNL     1     -13.397   3.744 -32.978  1.00  0.00    -0.323 OA
HETATM   26  C   UNL     1     -12.019   4.225 -31.026  1.00  0.00     0.040 A 
HETATM   27  C   UNL     1     -13.051   2.970 -34.144  1.00  0.00     0.352 A 
HETATM   28  C   UNL     1     -10.764   4.029 -30.439  1.00  0.00     0.012 A 
ENDBRANCH  19  20
ENDBRANCH  16  19
ENDBRANCH   2  15
BRANCH   1  29
HETATM   29  C   UNL     1      -3.847   4.023 -32.450  1.00  0.00     0.043 A 
HETATM   30  C   UNL     1      -4.150   4.915 -31.416  1.00  0.00     0.032 A 
HETATM   31  C   UNL     1      -3.163   5.758 -30.882  1.00  0.00     0.039 A 
HETATM   32  C   UNL     1      -1.865   5.728 -31.387  1.00  0.00     0.068 A 
HETATM   33  C   UNL     1      -1.568   4.871 -32.444  1.00  0.00     0.039 A 
HETATM   34  C   UNL     1      -2.549   4.027 -32.971  1.00  0.00     0.032 A 
BRANCH  32  35
HETATM   35  O   UNL     1      -0.815   6.491 -30.962  1.00  0.00    -0.352 OA
BRANCH  35  36
HETATM   36  C   UNL     1      -0.176   6.090 -29.751  1.00  0.00     0.171 C 
HETATM   37  C   UNL     1       0.442   7.328 -29.125  1.00  0.00     0.034 C 
ENDBRANCH  35  36
ENDBRANCH  32  35
ENDBRANCH   1  29
TORSDOF 7
ENDMDL
MODEL 7
REMARK VINA RESULT:      -8.1      2.527      6.578
REMARK  7 active torsions:
REMARK  status: ('A' for Active; 'I' for Inactive)
REMARK    1  A    between atoms: C_2  and  O_3 
REMARK    2  A    between atoms: O_3  and  C_4 
REMARK    3  A    between atoms: C_7  and  N_8 
REMARK    4  A    between atoms: C_9  and  O_10 
REMARK    5  A    between atoms: C_9  and  C_11 
REMARK       I    between atoms: C_11  and  N_12 
REMARK    6  A    between atoms: N_12  and  C_13 
REMARK    7  A    between atoms: C_13  and  C_14 
ROOT
HETATM    1  N   UNL     1      -8.268   2.528 -32.909  1.00  0.00    -0.254 N 
HETATM    2  C   UNL     1      -7.355   3.458 -32.221  1.00  0.00     0.256 C 
HETATM    3  C   UNL     1      -8.093   4.433 -31.331  1.00  0.00     0.034 A 
HETATM    4  C   UNL     1      -9.388   4.787 -31.698  1.00  0.00     0.048 A 
HETATM    5  N   UNL     1      -9.957   4.160 -32.804  1.00  0.00    -0.308 N 
HETATM    6  C   UNL     1      -9.472   3.021 -33.399  1.00  0.00     0.330 C 
HETATM    7  O   UNL     1     -10.169   2.497 -34.266  1.00  0.00    -0.246 OA
HETATM    8  C   UNL     1      -7.510   5.063 -30.221  1.00  0.00     0.015 A 
HETATM    9  C   UNL     1      -8.224   6.016 -29.494  1.00  0.00     0.001 A 
HETATM   10  C   UNL     1      -9.517   6.364 -29.883  1.00  0.00     0.002 A 
HETATM   11  C   UNL     1     -10.101   5.754 -30.993  1.00  0.00     0.030 A 
HETATM   12  H   UNL     1     -10.895   4.407 -33.095  1.00  0.00     0.170 HD
ENDROOT
BRANCH   2  13
HETATM   13  O   UNL     1      -6.437   2.750 -31.380  1.00  0.00    -0.359 OA
HETATM   14  H   UNL     1      -6.964   2.512 -30.591  1.00  0.00     0.213 HD
ENDBRANCH   2  13
BRANCH   2  15
HETATM   15  C   UNL     1      -6.511   4.238 -33.316  1.00  0.00     0.279 C 
HETATM   16  N   UNL     1      -5.136   4.177 -33.224  1.00  0.00    -0.352 N 
HETATM   17  H   UNL     1      -4.704   3.579 -32.529  1.00  0.00     0.162 HD
HETATM   18  O   UNL     1      -7.074   4.887 -34.205  1.00  0.00    -0.268 OA
BRANCH  16  19
HETATM   19  C   UNL     1      -4.287   4.791 -34.214  1.00  0.00     0.161 C 
BRANCH  19  20
HETATM   20  C   UNL     1      -3.032   5.327 -33.579  1.00  0.00    -0.038 A 
HETATM   21  C   UNL     1      -2.388   4.600 -32.564  1.00  0.00     0.048 A 
HETATM   22  C   UNL     1      -1.256   5.143 -31.992  1.00  0.00     0.105 A 
HETATM   23  C   UNL     1      -0.759   6.363 -32.383  1.00  0.00     0.105 A 
HETATM   24  O   UNL     1      -0.513   4.574 -31.004  1.00  0.00    -0.323 OA
HETATM   25  O   UNL     1       0.359   6.713 -31.694  1.00  0.00    -0.323 OA
HETATM   26  C   UNL     1      -1.369   7.112 -33.365  1.00  0.00     0.040 A 
HETATM   27  C   UNL     1       0.518   5.567 -30.833  1.00  0.00     0.352 A 
HETATM   28  C   UNL     1      -2.520   6.588 -33.964  1.00  0.00     0.012 A 
ENDBRANCH  19  20
ENDBRANCH  16  19
ENDBRANCH   2  15
BRANCH   1  29
HETATM   29  C   UNL     1      -7.752   1.286 -33.399  1.00  0.00     0.043 A 
HETATM   30  C   UNL     1      -7.525   0.194 -32.554  1.00  0.00     0.032 A 
HETATM   31  C   UNL     1      -7.014  -1.012 -33.059  1.00  0.00     0.039 A 
HETATM   32  C   UNL     1      -6.711  -1.134 -34.413  1.00  0.00     0.068 A 
HETATM   33  C   UNL     1      -6.897  -0.037 -35.251  1.00  0.00     0.039 A 
HETATM   34  C   UNL     1      -7.411   1.161 -34.750  1.00  0.00     0.032 A 
BRANCH  32  35
HETATM   35  O   UNL     1      -6.212  -2.245 -35.032  1.00  0.00    -0.352 OA
BRANCH  35  36
HETATM   36  C   UNL     1      -6.706  -3.507 -34.588  1.00  0.00     0.171 C 
HETATM   37  C   UNL     1      -6.415  -4.524 -35.677  1.00  0.00     0.034 C 
ENDBRANCH  35  36
ENDBRANCH  32  35
ENDBRANCH   1  29
TORSDOF 7
ENDMDL
MODEL 8
REMARK VINA RESULT:      -8.1      1.531      2.489
REMARK  7 active torsions:
REMARK  status: ('A' for Active; 'I' for Inactive)
REMARK    1  A    between atoms: C_2  and  O_3 
REMARK    2  A    between atoms: O_3  and  C_4 
REMARK    3  A    between atoms: C_7  and  N_8 
REMARK    4  A    between atoms: C_9  and  O_10 
REMARK    5  A    between atoms: C_9  and  C_11 
REMARK       I    between atoms: C_11  and  N_12 
REMARK    6  A    between atoms: N_12  and  C_13 
REMARK    7  A    between atoms: C_13  and  C_14 
ROOT
HETATM    1  N   UNL     1      -4.051   5.591 -32.798  1.00  0.00    -0.254 N 
HETATM    2  C   UNL     1      -3.372   5.057 -31.605  1.00  0.00     0.256 C 
HETATM    3  C   UNL     1      -2.030   5.713 -31.366  1.00  0.00     0.034 A 
HETATM    4  C   UNL     1      -1.336   6.183 -32.476  1.00  0.00     0.048 A 
HETATM    5  N   UNL     1      -1.951   6.103 -33.723  1.00  0.00    -0.308 N 
HETATM    6  C   UNL     1      -3.288   5.867 -33.927  1.00  0.00     0.330 C 
HETATM    7  O   UNL     1      -3.712   5.982 -35.076  1.00  0.00    -0.246 OA
HETATM    8  C   UNL     1      -1.417   5.785 -30.105  1.00  0.00     0.015 A 
HETATM    9  C   UNL     1      -0.140   6.331 -29.972  1.00  0.00     0.001 A 
HETATM   10  C   UNL     1       0.544   6.789 -31.098  1.00  0.00     0.002 A 
HETATM   11  C   UNL     1      -0.051   6.708 -32.357  1.00  0.00     0.030 A 
HETATM   12  H   UNL     1      -1.462   6.432 -34.547  1.00  0.00     0.170 HD
ENDROOT
BRANCH   2  13
HETATM   13  O   UNL     1      -4.153   5.278 -30.425  1.00  0.00    -0.359 OA
HETATM   14  H   UNL     1      -4.077   4.442 -29.923  1.00  0.00     0.213 HD
ENDBRANCH   2  13
BRANCH   2  15
HETATM   15  C   UNL     1      -3.196   3.489 -31.785  1.00  0.00     0.279 C 
HETATM   16  N   UNL     1      -3.833   2.667 -30.878  1.00  0.00    -0.352 N 
HETATM   17  H   UNL     1      -4.457   3.069 -30.187  1.00  0.00     0.162 HD
HETATM   18  O   UNL     1      -2.498   3.031 -32.697  1.00  0.00    -0.268 OA
BRANCH  16  19
HETATM   19  C   UNL     1      -3.793   1.232 -31.005  1.00  0.00     0.161 C 
BRANCH  19  20
HETATM   20  C   UNL     1      -5.016   0.727 -31.721  1.00  0.00    -0.038 A 
HETATM   21  C   UNL     1      -6.297   1.111 -31.289  1.00  0.00     0.048 A 
HETATM   22  C   UNL     1      -7.390   0.601 -31.958  1.00  0.00     0.105 A 
HETATM   23  C   UNL     1      -7.254  -0.268 -33.014  1.00  0.00     0.105 A 
HETATM   24  O   UNL     1      -8.693   0.871 -31.673  1.00  0.00    -0.323 OA
HETATM   25  O   UNL     1      -8.453  -0.651 -33.529  1.00  0.00    -0.323 OA
HETATM   26  C   UNL     1      -6.017  -0.680 -33.458  1.00  0.00     0.040 A 
HETATM   27  C   UNL     1      -9.360   0.087 -32.685  1.00  0.00     0.352 A 
HETATM   28  C   UNL     1      -4.888  -0.179 -32.800  1.00  0.00     0.012 A 
ENDBRANCH  19  20
ENDBRANCH  16  19
ENDBRANCH   2  15
BRANCH   1  29
HETATM   29  C   UNL     1      -5.470   5.443 -32.912  1.00  0.00     0.043 A 
HETATM   30  C   UNL     1      -6.352   6.465 -32.546  1.00  0.00     0.032 A 
HETATM   31  C   UNL     1      -7.741   6.294 -32.665  1.00  0.00     0.039 A 
HETATM   32  C   UNL     1      -8.261   5.091 -33.136  1.00  0.00     0.068 A 
HETATM   33  C   UNL     1      -7.389   4.055 -33.463  1.00  0.00     0.039 A 
HETATM   34  C   UNL     1      -6.008   4.228 -33.352  1.00  0.00     0.032 A 
BRANCH  32  35
HETATM   35  O   UNL     1      -9.585   4.793 -33.299  1.00  0.00    -0.352 OA
BRANCH  35  36
HETATM   36  C   UNL     1     -10.404   5.798 -33.894  1.00  0.00     0.171 C 
HETATM   37  C   UNL     1     -10.188   5.738 -35.395  1.00  0.00     0.034 C 
ENDBRANCH  35  36
ENDBRANCH  32  35
ENDBRANCH   1  29
TORSDOF 7
ENDMDL
MODEL 9
REMARK VINA RESULT:      -8.0      2.885      7.223
REMARK  7 active torsions:
REMARK  status: ('A' for Active; 'I' for Inactive)
REMARK    1  A    between atoms: C_2  and  O_3 
REMARK    2  A    between atoms: O_3  and  C_4 
REMARK    3  A    between atoms: C_7  and  N_8 
REMARK    4  A    between atoms: C_9  and  O_10 
REMARK    5  A    between atoms: C_9  and  C_11 
REMARK       I    between atoms: C_11  and  N_12 
REMARK    6  A    between atoms: N_12  and  C_13 
REMARK    7  A    between atoms: C_13  and  C_14 
ROOT
HETATM    1  N   UNL     1      -8.693   2.112 -32.369  1.00  0.00    -0.254 N 
HETATM    2  C   UNL     1      -9.173   3.199 -31.498  1.00  0.00     0.256 C 
HETATM    3  C   UNL     1     -10.661   3.430 -31.634  1.00  0.00     0.034 A 
HETATM    4  C   UNL     1     -11.248   3.139 -32.861  1.00  0.00     0.048 A 
HETATM    5  N   UNL     1     -10.455   2.573 -33.856  1.00  0.00    -0.308 N 
HETATM    6  C   UNL     1      -9.219   2.010 -33.652  1.00  0.00     0.330 C 
HETATM    7  O   UNL     1      -8.710   1.410 -34.597  1.00  0.00    -0.246 OA
HETATM    8  C   UNL     1     -11.451   4.005 -30.627  1.00  0.00     0.015 A 
HETATM    9  C   UNL     1     -12.803   4.267 -30.853  1.00  0.00     0.001 A 
HETATM   10  C   UNL     1     -13.371   3.976 -32.093  1.00  0.00     0.002 A 
HETATM   11  C   UNL     1     -12.591   3.418 -33.105  1.00  0.00     0.030 A 
HETATM   12  H   UNL     1     -10.858   2.359 -34.761  1.00  0.00     0.170 HD
ENDROOT
BRANCH   2  13
HETATM   13  O   UNL     1      -8.929   2.899 -30.119  1.00  0.00    -0.359 OA
HETATM   14  H   UNL     1      -7.954   2.898 -30.040  1.00  0.00     0.213 HD
ENDBRANCH   2  13
BRANCH   2  15
HETATM   15  C   UNL     1      -8.372   4.523 -31.857  1.00  0.00     0.279 C 
HETATM   16  N   UNL     1      -7.466   4.991 -30.928  1.00  0.00    -0.352 N 
HETATM   17  H   UNL     1      -7.270   4.447 -30.096  1.00  0.00     0.162 HD
HETATM   18  O   UNL     1      -8.572   5.113 -32.924  1.00  0.00    -0.268 OA
BRANCH  16  19
HETATM   19  C   UNL     1      -6.641   6.142 -31.197  1.00  0.00     0.161 C 
BRANCH  19  20
HETATM   20  C   UNL     1      -5.329   5.726 -31.805  1.00  0.00    -0.038 A 
HETATM   21  C   UNL     1      -5.051   6.013 -33.152  1.00  0.00     0.048 A 
HETATM   22  C   UNL     1      -3.848   5.586 -33.675  1.00  0.00     0.105 A 
HETATM   23  C   UNL     1      -2.934   4.892 -32.919  1.00  0.00     0.105 A 
HETATM   24  O   UNL     1      -3.423   5.782 -34.952  1.00  0.00    -0.323 OA
HETATM   25  O   UNL     1      -1.818   4.566 -33.624  1.00  0.00    -0.323 OA
HETATM   26  C   UNL     1      -3.174   4.579 -31.599  1.00  0.00     0.040 A 
HETATM   27  C   UNL     1      -2.128   5.147 -34.907  1.00  0.00     0.352 A 
HETATM   28  C   UNL     1      -4.387   4.998 -31.040  1.00  0.00     0.012 A 
ENDBRANCH  19  20
ENDBRANCH  16  19
ENDBRANCH   2  15
BRANCH   1  29
HETATM   29  C   UNL     1      -7.462   1.457 -32.047  1.00  0.00     0.043 A 
HETATM   30  C   UNL     1      -7.423   0.301 -31.261  1.00  0.00     0.032 A 
HETATM   31  C   UNL     1      -6.201  -0.321 -30.956  1.00  0.00     0.039 A 
HETATM   32  C   UNL     1      -5.004   0.218 -31.423  1.00  0.00     0.068 A 
HETATM   33  C   UNL     1      -5.034   1.392 -32.172  1.00  0.00     0.039 A 
HETATM   34  C   UNL     1      -6.250   2.006 -32.481  1.00  0.00     0.032 A 
BRANCH  32  35
HETATM   35  O   UNL     1      -3.752  -0.283 -31.201  1.00  0.00    -0.352 OA
BRANCH  35  36
HETATM   36  C   UNL     1      -3.133  -0.973 -32.285  1.00  0.00     0.171 C 
HETATM   37  C   UNL     1      -3.096  -2.449 -31.929  1.00  0.00     0.034 C 
ENDBRANCH  35  36
ENDBRANCH  32  35
ENDBRANCH   1  29
TORSDOF 7
ENDMDL
MODEL 10
REMARK VINA RESULT:      -7.9      2.548      5.883
REMARK  7 active torsions:
REMARK  status: ('A' for Active; 'I' for Inactive)
REMARK    1  A    between atoms: C_2  and  O_3 
REMARK    2  A    between atoms: O_3  and  C_4 
REMARK    3  A    between atoms: C_7  and  N_8 
REMARK    4  A    between atoms: C_9  and  O_10 
REMARK    5  A    between atoms: C_9  and  C_11 
REMARK       I    between atoms: C_11  and  N_12 
REMARK    6  A    between atoms: N_12  and  C_13 
REMARK    7  A    between atoms: C_13  and  C_14 
ROOT
HETATM    1  N   UNL     1      -5.969   2.451 -31.815  1.00  0.00    -0.254 N 
HETATM    2  C   UNL     1      -6.414   3.743 -32.367  1.00  0.00     0.256 C 
HETATM    3  C   UNL     1      -5.535   4.890 -31.924  1.00  0.00     0.034 A 
HETATM    4  C   UNL     1      -4.907   4.780 -30.688  1.00  0.00     0.048 A 
HETATM    5  N   UNL     1      -5.051   3.592 -29.976  1.00  0.00    -0.308 N 
HETATM    6  C   UNL     1      -5.518   2.412 -30.501  1.00  0.00     0.330 C 
HETATM    7  O   UNL     1      -5.440   1.410 -29.792  1.00  0.00    -0.246 OA
HETATM    8  C   UNL     1      -5.399   6.086 -32.647  1.00  0.00     0.015 A 
HETATM    9  C   UNL     1      -4.637   7.137 -32.135  1.00  0.00     0.001 A 
HETATM   10  C   UNL     1      -4.021   7.011 -30.890  1.00  0.00     0.002 A 
HETATM   11  C   UNL     1      -4.162   5.832 -30.158  1.00  0.00     0.030 A 
HETATM   12  H   UNL     1      -4.609   3.491 -29.070  1.00  0.00     0.170 HD
ENDROOT
BRANCH   2  13
HETATM   13  O   UNL     1      -6.381   3.730 -33.799  1.00  0.00    -0.359 OA
HETATM   14  H   UNL     1      -5.721   4.412 -34.032  1.00  0.00     0.213 HD
ENDBRANCH   2  13
BRANCH   2  15
HETATM   15  C   UNL     1      -7.917   3.991 -31.917  1.00  0.00     0.279 C 
HETATM   16  N   UNL     1      -8.815   4.387 -32.886  1.00  0.00    -0.352 N 
HETATM   17  H   UNL     1      -8.525   4.425 -33.856  1.00  0.00     0.162 HD
HETATM   18  O   UNL     1      -8.255   3.848 -30.737  1.00  0.00    -0.268 OA
BRANCH  16  19
HETATM   19  C   UNL     1     -10.214   4.565 -32.587  1.00  0.00     0.161 C 
BRANCH  19  20
HETATM   20  C   UNL     1     -11.025   3.423 -33.139  1.00  0.00    -0.038 A 
HETATM   21  C   UNL     1     -12.368   3.261 -32.760  1.00  0.00     0.048 A 
HETATM   22  C   UNL     1     -13.063   2.184 -33.269  1.00  0.00     0.105 A 
HETATM   23  C   UNL     1     -12.476   1.278 -34.119  1.00  0.00     0.105 A 
HETATM   24  O   UNL     1     -14.364   1.883 -33.008  1.00  0.00    -0.323 OA
HETATM   25  O   UNL     1     -13.334   0.294 -34.502  1.00  0.00    -0.323 OA
HETATM   26  C   UNL     1     -11.159   1.393 -34.503  1.00  0.00     0.040 A 
HETATM   27  C   UNL     1     -14.533   0.693 -33.806  1.00  0.00     0.352 A 
HETATM   28  C   UNL     1     -10.427   2.476 -34.003  1.00  0.00     0.012 A 
ENDBRANCH  19  20
ENDBRANCH  16  19
ENDBRANCH   2  15
BRANCH   1  29
HETATM   29  C   UNL     1      -6.367   1.243 -32.471  1.00  0.00     0.043 A 
HETATM   30  C   UNL     1      -7.685   0.776 -32.425  1.00  0.00     0.032 A 
HETATM   31  C   UNL     1      -8.049  -0.414 -33.074  1.00  0.00     0.039 A 
HETATM   32  C   UNL     1      -7.094  -1.159 -33.763  1.00  0.00     0.068 A 
HETATM   33  C   UNL     1      -5.772  -0.720 -33.777  1.00  0.00     0.039 A 
HETATM   34  C   UNL     1      -5.411   0.468 -33.138  1.00  0.00     0.032 A 
BRANCH  32  35
HETATM   35  O   UNL     1      -7.312  -2.329 -34.434  1.00  0.00    -0.352 OA
BRANCH  35  36
HETATM   36  C   UNL     1      -6.158  -3.047 -34.869  1.00  0.00     0.171 C 
HETATM   37  C   UNL     1      -6.610  -4.435 -35.285  1.00  0.00     0.034 C 
ENDBRANCH  35  36
ENDBRANCH  32  35
ENDBRANCH   1  29
TORSDOF 7
ENDMDL
