MODEL 1
REMARK VINA RESULT:      -8.2      0.000      0.000
REMARK  4 active torsions:
REMARK  status: ('A' for Active; 'I' for Inactive)
REMARK    1  A    between atoms: C_5  and  C_6 
REMARK    2  A    between atoms: C_10  and  N_11 
REMARK       I    between atoms: N_11  and  C_12 
REMARK    3  A    between atoms: C_12  and  C_13 
REMARK    4  A    between atoms: C_13  and  O_14 
ROOT
HETATM    1  C   UNL     1      -5.326  -1.146 -33.140  1.00  0.00     0.070 A 
HETATM    2  N   UNL     1      -6.328  -0.783 -32.274  1.00  0.00    -0.275 N 
HETATM    3  H   UNL     1      -7.079  -1.369 -31.922  1.00  0.00     0.189 HD
HETATM    4  N   UNL     1      -6.275   0.498 -31.872  1.00  0.00    -0.156 NA
HETATM    5  C   UNL     1      -5.230   1.000 -32.531  1.00  0.00     0.152 A 
HETATM    6  C   UNL     1      -4.600   0.016 -33.321  1.00  0.00     0.084 A 
ENDROOT
BRANCH   5   7
HETATM    7  N   UNL     1      -4.920   2.324 -32.369  1.00  0.00    -0.308 N 
HETATM    8  C   UNL     1      -3.798   2.822 -31.740  1.00  0.00     0.258 C 
HETATM    9  O   UNL     1      -2.913   2.149 -31.221  1.00  0.00    -0.270 OA
HETATM   10  H   UNL     1      -5.522   2.967 -32.871  1.00  0.00     0.170 HD
BRANCH   8  11
HETATM   11  C   UNL     1      -3.777   4.375 -31.733  1.00  0.00     0.140 C 
HETATM   12  C   UNL     1      -2.353   4.888 -31.989  1.00  0.00     0.058 C 
HETATM   13  C   UNL     1      -1.866   4.674 -33.416  1.00  0.00     0.077 C 
HETATM   14  S   UNL     1      -2.898   5.580 -34.596  1.00  0.00    -0.169 SA
HETATM   15  C   UNL     1      -4.498   4.841 -34.176  1.00  0.00     0.077 C 
HETATM   16  C   UNL     1      -4.816   4.975 -32.692  1.00  0.00     0.058 C 
BRANCH  11  17
HETATM   17  O   UNL     1      -4.122   4.793 -30.393  1.00  0.00    -0.380 OA
HETATM   18  H   UNL     1      -4.986   4.397 -30.175  1.00  0.00     0.211 HD
ENDBRANCH  11  17
ENDBRANCH   8  11
ENDBRANCH   5   7
BRANCH   1  19
HETATM   19  C   UNL     1      -5.177  -2.496 -33.694  1.00  0.00     0.069 A 
HETATM   20  C   UNL     1      -4.097  -3.317 -33.340  1.00  0.00     0.132 A 
HETATM   21  C   UNL     1      -3.954  -4.611 -33.846  1.00  0.00     0.043 A 
HETATM   22  F   UNL     1      -3.159  -2.870 -32.489  1.00  0.00    -0.205 F 
HETATM   23  C   UNL     1      -4.896  -5.115 -34.737  1.00  0.00     0.006 A 
HETATM   24  C   UNL     1      -5.974  -4.319 -35.116  1.00  0.00     0.043 A 
HETATM   25  C   UNL     1      -6.107  -3.028 -34.596  1.00  0.00     0.132 A 
HETATM   26  F   UNL     1      -7.158  -2.302 -35.006  1.00  0.00    -0.205 F 
ENDBRANCH   1  19
TORSDOF 4
ENDMDL
MODEL 2
REMARK VINA RESULT:      -8.1      0.740      1.859
REMARK  4 active torsions:
REMARK  status: ('A' for Active; 'I' for Inactive)
REMARK    1  A    between atoms: C_5  and  C_6 
REMARK    2  A    between atoms: C_10  and  N_11 
REMARK       I    between atoms: N_11  and  C_12 
REMARK    3  A    between atoms: C_12  and  C_13 
REMARK    4  A    between atoms: C_13  and  O_14 
ROOT
HETATM    1  C   UNL     1      -5.437  -0.626 -32.861  1.00  0.00     0.070 A 
HETATM    2  N   UNL     1      -5.979  -0.399 -31.620  1.00  0.00    -0.275 N 
HETATM    3  H   UNL     1      -6.496  -1.058 -31.046  1.00  0.00     0.189 HD
HETATM    4  N   UNL     1      -5.784   0.843 -31.149  1.00  0.00    -0.156 NA
HETATM    5  C   UNL     1      -5.131   1.463 -32.133  1.00  0.00     0.152 A 
HETATM    6  C   UNL     1      -4.880   0.590 -33.212  1.00  0.00     0.084 A 
ENDROOT
BRANCH   5   7
HETATM    7  N   UNL     1      -4.807   2.785 -31.982  1.00  0.00    -0.308 N 
HETATM    8  C   UNL     1      -3.592   3.277 -31.554  1.00  0.00     0.258 C 
HETATM    9  O   UNL     1      -2.621   2.600 -31.233  1.00  0.00    -0.270 OA
HETATM   10  H   UNL     1      -5.497   3.436 -32.340  1.00  0.00     0.170 HD
BRANCH   8  11
HETATM   11  C   UNL     1      -3.583   4.829 -31.494  1.00  0.00     0.140 C 
HETATM   12  C   UNL     1      -2.142   5.354 -31.559  1.00  0.00     0.058 C 
HETATM   13  C   UNL     1      -1.484   5.189 -32.921  1.00  0.00     0.077 C 
HETATM   14  S   UNL     1      -2.372   6.131 -34.189  1.00  0.00    -0.169 SA
HETATM   15  C   UNL     1      -4.005   5.374 -33.990  1.00  0.00     0.077 C 
HETATM   16  C   UNL     1      -4.502   5.458 -32.552  1.00  0.00     0.058 C 
BRANCH  11  17
HETATM   17  O   UNL     1      -4.091   5.201 -30.193  1.00  0.00    -0.380 OA
HETATM   18  H   UNL     1      -3.604   5.995 -29.904  1.00  0.00     0.211 HD
ENDBRANCH  11  17
ENDBRANCH   8  11
ENDBRANCH   5   7
BRANCH   1  19
HETATM   19  C   UNL     1      -5.512  -1.912 -33.562  1.00  0.00     0.069 A 
HETATM   20  C   UNL     1      -6.668  -2.304 -34.252  1.00  0.00     0.132 A 
HETATM   21  C   UNL     1      -6.745  -3.518 -34.938  1.00  0.00     0.043 A 
HETATM   22  F   UNL     1      -7.748  -1.505 -34.269  1.00  0.00    -0.205 F 
HETATM   23  C   UNL     1      -5.655  -4.383 -34.942  1.00  0.00     0.006 A 
HETATM   24  C   UNL     1      -4.496  -4.026 -34.257  1.00  0.00     0.043 A 
HETATM   25  C   UNL     1      -4.432  -2.805 -33.580  1.00  0.00     0.132 A 
HETATM   26  F   UNL     1      -3.296  -2.520 -32.926  1.00  0.00    -0.205 F 
ENDBRANCH   1  19
TORSDOF 4
ENDMDL
MODEL 3
REMARK VINA RESULT:      -7.9      5.474      6.214
REMARK  4 active torsions:
REMARK  status: ('A' for Active; 'I' for Inactive)
REMARK    1  A    between atoms: C_5  and  C_6 
REMARK    2  A    between atoms: C_10  and  N_11 
REMARK       I    between atoms: N_11  and  C_12 
REMARK    3  A    between atoms: C_12  and  C_13 
REMARK    4  A    between atoms: C_13  and  O_14 
ROOT
HETATM    1  C   UNL     1      -7.088  -0.570 -33.786  1.00  0.00     0.070 A 
HETATM    2  N   UNL     1      -7.487   0.090 -32.649  1.00  0.00    -0.275 N 
HETATM    3  H   UNL     1      -7.121  -0.029 -31.709  1.00  0.00     0.189 HD
HETATM    4  N   UNL     1      -8.471   0.983 -32.844  1.00  0.00    -0.156 NA
HETATM    5  C   UNL     1      -8.757   0.871 -34.141  1.00  0.00     0.152 A 
HETATM    6  C   UNL     1      -7.917  -0.070 -34.773  1.00  0.00     0.084 A 
ENDROOT
BRANCH   5   7
HETATM    7  N   UNL     1      -9.765   1.635 -34.665  1.00  0.00    -0.308 N 
HETATM    8  C   UNL     1     -11.109   1.507 -34.384  1.00  0.00     0.258 C 
HETATM    9  O   UNL     1     -11.603   0.678 -33.627  1.00  0.00    -0.270 OA
HETATM   10  H   UNL     1      -9.456   2.434 -35.208  1.00  0.00     0.170 HD
BRANCH   8  11
HETATM   11  C   UNL     1     -11.967   2.538 -35.167  1.00  0.00     0.140 C 
HETATM   12  C   UNL     1     -13.336   2.711 -34.492  1.00  0.00     0.058 C 
HETATM   13  C   UNL     1     -13.280   3.447 -33.161  1.00  0.00     0.077 C 
HETATM   14  S   UNL     1     -12.659   5.134 -33.377  1.00  0.00    -0.169 SA
HETATM   15  C   UNL     1     -11.065   4.738 -34.141  1.00  0.00     0.077 C 
HETATM   16  C   UNL     1     -11.228   3.867 -35.381  1.00  0.00     0.058 C 
BRANCH  11  17
HETATM   17  O   UNL     1     -12.228   1.965 -36.468  1.00  0.00    -0.380 OA
HETATM   18  H   UNL     1     -12.726   2.625 -36.985  1.00  0.00     0.211 HD
ENDBRANCH  11  17
ENDBRANCH   8  11
ENDBRANCH   5   7
BRANCH   1  19
HETATM   19  C   UNL     1      -6.020  -1.574 -33.814  1.00  0.00     0.069 A 
HETATM   20  C   UNL     1      -4.809  -1.374 -33.136  1.00  0.00     0.132 A 
HETATM   21  C   UNL     1      -3.792  -2.331 -33.140  1.00  0.00     0.043 A 
HETATM   22  F   UNL     1      -4.597  -0.237 -32.453  1.00  0.00    -0.205 F 
HETATM   23  C   UNL     1      -3.961  -3.521 -33.840  1.00  0.00     0.006 A 
HETATM   24  C   UNL     1      -5.149  -3.744 -34.532  1.00  0.00     0.043 A 
HETATM   25  C   UNL     1      -6.161  -2.780 -34.514  1.00  0.00     0.132 A 
HETATM   26  F   UNL     1      -7.278  -3.043 -35.209  1.00  0.00    -0.205 F 
ENDBRANCH   1  19
TORSDOF 4
ENDMDL
MODEL 4
REMARK VINA RESULT:      -7.9      4.526      5.255
REMARK  4 active torsions:
REMARK  status: ('A' for Active; 'I' for Inactive)
REMARK    1  A    between atoms: C_5  and  C_6 
REMARK    2  A    between atoms: C_10  and  N_11 
REMARK       I    between atoms: N_11  and  C_12 
REMARK    3  A    between atoms: C_12  and  C_13 
REMARK    4  A    between atoms: C_13  and  O_14 
ROOT
HETATM    1  C   UNL     1      -6.666  -1.468 -34.370  1.00  0.00     0.070 A 
HETATM    2  N   UNL     1      -6.623  -0.552 -35.393  1.00  0.00    -0.275 N 
HETATM    3  H   UNL     1      -5.948  -0.509 -36.151  1.00  0.00     0.189 HD
HETATM    4  N   UNL     1      -7.596   0.373 -35.349  1.00  0.00    -0.156 NA
HETATM    5  C   UNL     1      -8.271   0.079 -34.238  1.00  0.00     0.152 A 
HETATM    6  C   UNL     1      -7.742  -1.063 -33.602  1.00  0.00     0.084 A 
ENDROOT
BRANCH   5   7
HETATM    7  N   UNL     1      -9.327   0.873 -33.876  1.00  0.00    -0.308 N 
HETATM    8  C   UNL     1      -9.251   2.189 -33.474  1.00  0.00     0.258 C 
HETATM    9  O   UNL     1      -8.219   2.845 -33.371  1.00  0.00    -0.270 OA
HETATM   10  H   UNL     1     -10.241   0.468 -34.045  1.00  0.00     0.170 HD
BRANCH   8  11
HETATM   11  C   UNL     1     -10.648   2.774 -33.131  1.00  0.00     0.140 C 
HETATM   12  C   UNL     1     -10.762   4.216 -33.646  1.00  0.00     0.058 C 
HETATM   13  C   UNL     1     -10.851   4.325 -35.162  1.00  0.00     0.077 C 
HETATM   14  S   UNL     1     -12.336   3.497 -35.786  1.00  0.00    -0.169 SA
HETATM   15  C   UNL     1     -12.021   1.843 -35.119  1.00  0.00     0.077 C 
HETATM   16  C   UNL     1     -11.792   1.869 -33.613  1.00  0.00     0.058 C 
BRANCH  11  17
HETATM   17  O   UNL     1     -10.727   2.853 -31.690  1.00  0.00    -0.380 OA
HETATM   18  H   UNL     1     -11.655   2.692 -31.437  1.00  0.00     0.211 HD
ENDBRANCH  11  17
ENDBRANCH   8  11
ENDBRANCH   5   7
BRANCH   1  19
HETATM   19  C   UNL     1      -5.716  -2.576 -34.226  1.00  0.00     0.069 A 
HETATM   20  C   UNL     1      -4.492  -2.409 -33.562  1.00  0.00     0.132 A 
HETATM   21  C   UNL     1      -3.588  -3.461 -33.402  1.00  0.00     0.043 A 
HETATM   22  F   UNL     1      -4.156  -1.212 -33.054  1.00  0.00    -0.205 F 
HETATM   23  C   UNL     1      -3.887  -4.718 -33.918  1.00  0.00     0.006 A 
HETATM   24  C   UNL     1      -5.091  -4.912 -34.591  1.00  0.00     0.043 A 
HETATM   25  C   UNL     1      -5.989  -3.851 -34.738  1.00  0.00     0.132 A 
HETATM   26  F   UNL     1      -7.126  -4.092 -35.408  1.00  0.00    -0.205 F 
ENDBRANCH   1  19
TORSDOF 4
ENDMDL
MODEL 5
REMARK VINA RESULT:      -7.8      2.454      3.430
REMARK  4 active torsions:
REMARK  status: ('A' for Active; 'I' for Inactive)
REMARK    1  A    between atoms: C_5  and  C_6 
REMARK    2  A    between atoms: C_10  and  N_11 
REMARK       I    between atoms: N_11  and  C_12 
REMARK    3  A    between atoms: C_12  and  C_13 
REMARK    4  A    between atoms: C_13  and  O_14 
ROOT
HETATM    1  C   UNL     1      -4.852   1.380 -32.456  1.00  0.00     0.070 A 
HETATM    2  N   UNL     1      -5.465   2.004 -31.397  1.00  0.00    -0.275 N 
HETATM    3  H   UNL     1      -6.391   1.816 -31.025  1.00  0.00     0.189 HD
HETATM    4  N   UNL     1      -4.725   2.962 -30.816  1.00  0.00    -0.156 NA
HETATM    5  C   UNL     1      -3.610   2.998 -31.547  1.00  0.00     0.152 A 
HETATM    6  C   UNL     1      -3.635   2.025 -32.568  1.00  0.00     0.084 A 
ENDROOT
BRANCH   5   7
HETATM    7  N   UNL     1      -2.642   3.914 -31.234  1.00  0.00    -0.308 N 
HETATM    8  C   UNL     1      -1.939   4.689 -32.132  1.00  0.00     0.258 C 
HETATM    9  O   UNL     1      -2.069   4.663 -33.351  1.00  0.00    -0.270 OA
HETATM   10  H   UNL     1      -2.543   4.106 -30.243  1.00  0.00     0.170 HD
BRANCH   8  11
HETATM   11  C   UNL     1      -0.911   5.613 -31.422  1.00  0.00     0.140 C 
HETATM   12  C   UNL     1      -0.515   6.774 -32.346  1.00  0.00     0.058 C 
HETATM   13  C   UNL     1      -1.618   7.801 -32.555  1.00  0.00     0.077 C 
HETATM   14  S   UNL     1      -2.071   8.594 -30.991  1.00  0.00    -0.169 SA
HETATM   15  C   UNL     1      -2.526   7.109 -30.059  1.00  0.00     0.077 C 
HETATM   16  C   UNL     1      -1.403   6.079 -30.044  1.00  0.00     0.058 C 
BRANCH  11  17
HETATM   17  O   UNL     1       0.287   4.830 -31.221  1.00  0.00    -0.380 OA
HETATM   18  H   UNL     1       0.020   3.894 -31.156  1.00  0.00     0.211 HD
ENDBRANCH  11  17
ENDBRANCH   8  11
ENDBRANCH   5   7
BRANCH   1  19
HETATM   19  C   UNL     1      -5.464   0.294 -33.228  1.00  0.00     0.069 A 
HETATM   20  C   UNL     1      -5.147  -1.050 -32.981  1.00  0.00     0.132 A 
HETATM   21  C   UNL     1      -5.737  -2.094 -33.696  1.00  0.00     0.043 A 
HETATM   22  F   UNL     1      -4.251  -1.369 -32.032  1.00  0.00    -0.205 F 
HETATM   23  C   UNL     1      -6.664  -1.813 -34.695  1.00  0.00     0.006 A 
HETATM   24  C   UNL     1      -6.992  -0.488 -34.971  1.00  0.00     0.043 A 
HETATM   25  C   UNL     1      -6.398   0.546 -34.242  1.00  0.00     0.132 A 
HETATM   26  F   UNL     1      -6.741   1.803 -34.560  1.00  0.00    -0.205 F 
ENDBRANCH   1  19
TORSDOF 4
ENDMDL
MODEL 6
REMARK VINA RESULT:      -7.6      5.325      6.281
REMARK  4 active torsions:
REMARK  status: ('A' for Active; 'I' for Inactive)
REMARK    1  A    between atoms: C_5  and  C_6 
REMARK    2  A    between atoms: C_10  and  N_11 
REMARK       I    between atoms: N_11  and  C_12 
REMARK    3  A    between atoms: C_12  and  C_13 
REMARK    4  A    between atoms: C_13  and  O_14 
ROOT
HETATM    1  C   UNL     1      -6.781  -0.332 -33.745  1.00  0.00     0.070 A 
HETATM    2  N   UNL     1      -6.647   0.903 -34.330  1.00  0.00    -0.275 N 
HETATM    3  H   UNL     1      -5.782   1.375 -34.580  1.00  0.00     0.189 HD
HETATM    4  N   UNL     1      -7.810   1.526 -34.583  1.00  0.00    -0.156 NA
HETATM    5  C   UNL     1      -8.733   0.689 -34.107  1.00  0.00     0.152 A 
HETATM    6  C   UNL     1      -8.146  -0.484 -33.590  1.00  0.00     0.084 A 
ENDROOT
BRANCH   5   7
HETATM    7  N   UNL     1     -10.052   1.051 -34.177  1.00  0.00    -0.308 N 
HETATM    8  C   UNL     1     -10.707   1.898 -33.309  1.00  0.00     0.258 C 
HETATM    9  O   UNL     1     -10.205   2.448 -32.333  1.00  0.00    -0.270 OA
HETATM   10  H   UNL     1     -10.531   0.752 -35.019  1.00  0.00     0.170 HD
BRANCH   8  11
HETATM   11  C   UNL     1     -12.203   2.075 -33.687  1.00  0.00     0.140 C 
HETATM   12  C   UNL     1     -12.806   3.265 -32.926  1.00  0.00     0.058 C 
HETATM   13  C   UNL     1     -12.303   4.621 -33.401  1.00  0.00     0.077 C 
HETATM   14  S   UNL     1     -12.751   4.910 -35.132  1.00  0.00    -0.169 SA
HETATM   15  C   UNL     1     -11.951   3.458 -35.862  1.00  0.00     0.077 C 
HETATM   16  C   UNL     1     -12.413   2.162 -35.206  1.00  0.00     0.058 C 
BRANCH  11  17
HETATM   17  O   UNL     1     -12.898   0.900 -33.213  1.00  0.00    -0.380 OA
HETATM   18  H   UNL     1     -12.983   0.286 -33.966  1.00  0.00     0.211 HD
ENDBRANCH  11  17
ENDBRANCH   8  11
ENDBRANCH   5   7
BRANCH   1  19
HETATM   19  C   UNL     1      -5.649  -1.197 -33.397  1.00  0.00     0.069 A 
HETATM   20  C   UNL     1      -5.298  -2.299 -34.189  1.00  0.00     0.132 A 
HETATM   21  C   UNL     1      -4.211  -3.119 -33.878  1.00  0.00     0.043 A 
HETATM   22  F   UNL     1      -6.013  -2.597 -35.287  1.00  0.00    -0.205 F 
HETATM   23  C   UNL     1      -3.445  -2.855 -32.746  1.00  0.00     0.006 A 
HETATM   24  C   UNL     1      -3.775  -1.773 -31.934  1.00  0.00     0.043 A 
HETATM   25  C   UNL     1      -4.863  -0.958 -32.262  1.00  0.00     0.132 A 
HETATM   26  F   UNL     1      -5.142   0.061 -31.436  1.00  0.00    -0.205 F 
ENDBRANCH   1  19
TORSDOF 4
ENDMDL
MODEL 7
REMARK VINA RESULT:      -7.5      6.083      7.169
REMARK  4 active torsions:
REMARK  status: ('A' for Active; 'I' for Inactive)
REMARK    1  A    between atoms: C_5  and  C_6 
REMARK    2  A    between atoms: C_10  and  N_11 
REMARK       I    between atoms: N_11  and  C_12 
REMARK    3  A    between atoms: C_12  and  C_13 
REMARK    4  A    between atoms: C_13  and  O_14 
ROOT
HETATM    1  C   UNL     1      -6.994   0.674 -33.653  1.00  0.00     0.070 A 
HETATM    2  N   UNL     1      -6.896   2.044 -33.661  1.00  0.00    -0.275 N 
HETATM    3  H   UNL     1      -6.088   2.603 -33.407  1.00  0.00     0.189 HD
HETATM    4  N   UNL     1      -8.014   2.677 -34.054  1.00  0.00    -0.156 NA
HETATM    5  C   UNL     1      -8.886   1.691 -34.266  1.00  0.00     0.152 A 
HETATM    6  C   UNL     1      -8.297   0.428 -34.044  1.00  0.00     0.084 A 
ENDROOT
BRANCH   5   7
HETATM    7  N   UNL     1     -10.162   2.007 -34.650  1.00  0.00    -0.308 N 
HETATM    8  C   UNL     1     -11.316   1.398 -34.205  1.00  0.00     0.258 C 
HETATM    9  O   UNL     1     -11.370   0.471 -33.403  1.00  0.00    -0.270 OA
HETATM   10  H   UNL     1     -10.240   2.844 -35.217  1.00  0.00     0.170 HD
BRANCH   8  11
HETATM   11  C   UNL     1     -12.585   2.008 -34.860  1.00  0.00     0.140 C 
HETATM   12  C   UNL     1     -13.812   1.138 -34.552  1.00  0.00     0.058 C 
HETATM   13  C   UNL     1     -14.268   1.204 -33.101  1.00  0.00     0.077 C 
HETATM   14  S   UNL     1     -14.775   2.886 -32.656  1.00  0.00    -0.169 SA
HETATM   15  C   UNL     1     -13.229   3.745 -33.050  1.00  0.00     0.077 C 
HETATM   16  C   UNL     1     -12.782   3.484 -34.483  1.00  0.00     0.058 C 
BRANCH  11  17
HETATM   17  O   UNL     1     -12.391   1.941 -36.291  1.00  0.00    -0.380 OA
HETATM   18  H   UNL     1     -11.756   2.640 -36.534  1.00  0.00     0.211 HD
ENDBRANCH  11  17
ENDBRANCH   8  11
ENDBRANCH   5   7
BRANCH   1  19
HETATM   19  C   UNL     1      -5.895  -0.221 -33.276  1.00  0.00     0.069 A 
HETATM   20  C   UNL     1      -5.474  -1.259 -34.119  1.00  0.00     0.132 A 
HETATM   21  C   UNL     1      -4.417  -2.106 -33.781  1.00  0.00     0.043 A 
HETATM   22  F   UNL     1      -6.091  -1.467 -35.295  1.00  0.00    -0.205 F 
HETATM   23  C   UNL     1      -3.752  -1.935 -32.570  1.00  0.00     0.006 A 
HETATM   24  C   UNL     1      -4.154  -0.919 -31.707  1.00  0.00     0.043 A 
HETATM   25  C   UNL     1      -5.211  -0.075 -32.062  1.00  0.00     0.132 A 
HETATM   26  F   UNL     1      -5.563   0.877 -31.186  1.00  0.00    -0.205 F 
ENDBRANCH   1  19
TORSDOF 4
ENDMDL
MODEL 8
REMARK VINA RESULT:      -7.5      1.909      2.947
REMARK  4 active torsions:
REMARK  status: ('A' for Active; 'I' for Inactive)
REMARK    1  A    between atoms: C_5  and  C_6 
REMARK    2  A    between atoms: C_10  and  N_11 
REMARK       I    between atoms: N_11  and  C_12 
REMARK    3  A    between atoms: C_12  and  C_13 
REMARK    4  A    between atoms: C_13  and  O_14 
ROOT
HETATM    1  C   UNL     1      -5.002   0.659 -32.212  1.00  0.00     0.070 A 
HETATM    2  N   UNL     1      -5.553   0.922 -30.982  1.00  0.00    -0.275 N 
HETATM    3  H   UNL     1      -6.278   0.392 -30.508  1.00  0.00     0.189 HD
HETATM    4  N   UNL     1      -5.053   2.009 -30.372  1.00  0.00    -0.156 NA
HETATM    5  C   UNL     1      -4.178   2.498 -31.250  1.00  0.00     0.152 A 
HETATM    6  C   UNL     1      -4.099   1.689 -32.403  1.00  0.00     0.084 A 
ENDROOT
BRANCH   5   7
HETATM    7  N   UNL     1      -3.506   3.652 -30.943  1.00  0.00    -0.308 N 
HETATM    8  C   UNL     1      -3.888   4.929 -31.295  1.00  0.00     0.258 C 
HETATM    9  O   UNL     1      -4.884   5.222 -31.948  1.00  0.00    -0.270 OA
HETATM   10  H   UNL     1      -2.734   3.535 -30.297  1.00  0.00     0.170 HD
BRANCH   8  11
HETATM   11  C   UNL     1      -2.882   5.997 -30.785  1.00  0.00     0.140 C 
HETATM   12  C   UNL     1      -1.447   5.456 -30.864  1.00  0.00     0.058 C 
HETATM   13  C   UNL     1      -0.914   5.322 -32.284  1.00  0.00     0.077 C 
HETATM   14  S   UNL     1      -0.842   6.935 -33.105  1.00  0.00    -0.169 SA
HETATM   15  C   UNL     1      -2.586   7.397 -32.943  1.00  0.00     0.077 C 
HETATM   16  C   UNL     1      -3.057   7.347 -31.495  1.00  0.00     0.058 C 
BRANCH  11  17
HETATM   17  O   UNL     1      -3.160   6.198 -29.381  1.00  0.00    -0.380 OA
HETATM   18  H   UNL     1      -2.509   6.841 -29.042  1.00  0.00     0.211 HD
ENDBRANCH  11  17
ENDBRANCH   8  11
ENDBRANCH   5   7
BRANCH   1  19
HETATM   19  C   UNL     1      -5.382  -0.484 -33.049  1.00  0.00     0.069 A 
HETATM   20  C   UNL     1      -6.666  -0.593 -33.601  1.00  0.00     0.132 A 
HETATM   21  C   UNL     1      -7.034  -1.666 -34.414  1.00  0.00     0.043 A 
HETATM   22  F   UNL     1      -7.590   0.351 -33.355  1.00  0.00    -0.205 F 
HETATM   23  C   UNL     1      -6.114  -2.674 -34.691  1.00  0.00     0.006 A 
HETATM   24  C   UNL     1      -4.834  -2.598 -34.149  1.00  0.00     0.043 A 
HETATM   25  C   UNL     1      -4.478  -1.514 -33.341  1.00  0.00     0.132 A 
HETATM   26  F   UNL     1      -3.236  -1.501 -32.836  1.00  0.00    -0.205 F 
ENDBRANCH   1  19
TORSDOF 4
ENDMDL
MODEL 9
REMARK VINA RESULT:      -7.3      2.969      3.514
REMARK  4 active torsions:
REMARK  status: ('A' for Active; 'I' for Inactive)
REMARK    1  A    between atoms: C_5  and  C_6 
REMARK    2  A    between atoms: C_10  and  N_11 
REMARK       I    between atoms: N_11  and  C_12 
REMARK    3  A    between atoms: C_12  and  C_13 
REMARK    4  A    between atoms: C_13  and  O_14 
ROOT
HETATM    1  C   UNL     1      -5.952   0.449 -33.162  1.00  0.00     0.070 A 
HETATM    2  N   UNL     1      -6.413   1.523 -33.883  1.00  0.00    -0.275 N 
HETATM    3  H   UNL     1      -6.719   1.528 -34.851  1.00  0.00     0.189 HD
HETATM    4  N   UNL     1      -6.446   2.677 -33.196  1.00  0.00    -0.156 NA
HETATM    5  C   UNL     1      -5.948   2.356 -32.001  1.00  0.00     0.152 A 
HETATM    6  C   UNL     1      -5.639   0.982 -31.926  1.00  0.00     0.084 A 
ENDROOT
BRANCH   5   7
HETATM    7  N   UNL     1      -5.809   3.338 -31.057  1.00  0.00    -0.308 N 
HETATM    8  C   UNL     1      -6.749   3.694 -30.114  1.00  0.00     0.258 C 
HETATM    9  O   UNL     1      -7.860   3.189 -29.987  1.00  0.00    -0.270 OA
HETATM   10  H   UNL     1      -4.879   3.737 -30.992  1.00  0.00     0.170 HD
BRANCH   8  11
HETATM   11  C   UNL     1      -6.254   4.857 -29.210  1.00  0.00     0.140 C 
HETATM   12  C   UNL     1      -5.611   5.957 -30.066  1.00  0.00     0.058 C 
HETATM   13  C   UNL     1      -6.604   6.748 -30.906  1.00  0.00     0.077 C 
HETATM   14  S   UNL     1      -7.793   7.621 -29.855  1.00  0.00    -0.169 SA
HETATM   15  C   UNL     1      -8.458   6.194 -28.959  1.00  0.00     0.077 C 
HETATM   16  C   UNL     1      -7.360   5.383 -28.283  1.00  0.00     0.058 C 
BRANCH  11  17
HETATM   17  O   UNL     1      -5.199   4.322 -28.379  1.00  0.00    -0.380 OA
HETATM   18  H   UNL     1      -5.382   4.596 -27.461  1.00  0.00     0.211 HD
ENDBRANCH  11  17
ENDBRANCH   8  11
ENDBRANCH   5   7
BRANCH   1  19
HETATM   19  C   UNL     1      -5.846  -0.911 -33.702  1.00  0.00     0.069 A 
HETATM   20  C   UNL     1      -4.601  -1.507 -33.947  1.00  0.00     0.132 A 
HETATM   21  C   UNL     1      -4.488  -2.808 -34.443  1.00  0.00     0.043 A 
HETATM   22  F   UNL     1      -3.467  -0.829 -33.704  1.00  0.00    -0.205 F 
HETATM   23  C   UNL     1      -5.634  -3.548 -34.718  1.00  0.00     0.006 A 
HETATM   24  C   UNL     1      -6.885  -2.978 -34.495  1.00  0.00     0.043 A 
HETATM   25  C   UNL     1      -6.982  -1.677 -33.992  1.00  0.00     0.132 A 
HETATM   26  F   UNL     1      -8.213  -1.176 -33.810  1.00  0.00    -0.205 F 
ENDBRANCH   1  19
TORSDOF 4
ENDMDL
MODEL 10
REMARK VINA RESULT:      -7.3      1.731      2.804
REMARK  4 active torsions:
REMARK  status: ('A' for Active; 'I' for Inactive)
REMARK    1  A    between atoms: C_5  and  C_6 
REMARK    2  A    between atoms: C_10  and  N_11 
REMARK       I    between atoms: N_11  and  C_12 
REMARK    3  A    between atoms: C_12  and  C_13 
REMARK    4  A    between atoms: C_13  and  O_14 
ROOT
HETATM    1  C   UNL     1      -5.240  -1.152 -33.181  1.00  0.00     0.070 A 
HETATM    2  N   UNL     1      -6.233  -0.725 -32.334  1.00  0.00    -0.275 N 
HETATM    3  H   UNL     1      -7.031  -1.260 -32.004  1.00  0.00     0.189 HD
HETATM    4  N   UNL     1      -6.100   0.545 -31.919  1.00  0.00    -0.156 NA
HETATM    5  C   UNL     1      -5.008   0.978 -32.550  1.00  0.00     0.152 A 
HETATM    6  C   UNL     1      -4.430  -0.042 -33.335  1.00  0.00     0.084 A 
ENDROOT
BRANCH   5   7
HETATM    7  N   UNL     1      -4.609   2.275 -32.369  1.00  0.00    -0.308 N 
HETATM    8  C   UNL     1      -5.044   3.365 -33.093  1.00  0.00     0.258 C 
HETATM    9  O   UNL     1      -5.849   3.332 -34.018  1.00  0.00    -0.270 OA
HETATM   10  H   UNL     1      -4.038   2.434 -31.546  1.00  0.00     0.170 HD
BRANCH   8  11
HETATM   11  C   UNL     1      -4.372   4.683 -32.619  1.00  0.00     0.140 C 
HETATM   12  C   UNL     1      -5.121   5.896 -33.189  1.00  0.00     0.058 C 
HETATM   13  C   UNL     1      -6.494   6.121 -32.571  1.00  0.00     0.077 C 
HETATM   14  S   UNL     1      -6.359   6.460 -30.796  1.00  0.00    -0.169 SA
HETATM   15  C   UNL     1      -5.495   4.947 -30.300  1.00  0.00     0.077 C 
HETATM   16  C   UNL     1      -4.210   4.737 -31.093  1.00  0.00     0.058 C 
BRANCH  11  17
HETATM   17  O   UNL     1      -3.050   4.713 -33.203  1.00  0.00    -0.380 OA
HETATM   18  H   UNL     1      -3.149   4.557 -34.161  1.00  0.00     0.211 HD
ENDBRANCH  11  17
ENDBRANCH   8  11
ENDBRANCH   5   7
BRANCH   1  19
HETATM   19  C   UNL     1      -5.173  -2.504 -33.744  1.00  0.00     0.069 A 
HETATM   20  C   UNL     1      -6.152  -2.980 -34.628  1.00  0.00     0.132 A 
HETATM   21  C   UNL     1      -6.089  -4.258 -35.185  1.00  0.00     0.043 A 
HETATM   22  F   UNL     1      -7.192  -2.200 -34.966  1.00  0.00    -0.205 F 
HETATM   23  C   UNL     1      -5.034  -5.106 -34.858  1.00  0.00     0.006 A 
HETATM   24  C   UNL     1      -4.052  -4.666 -33.975  1.00  0.00     0.043 A 
HETATM   25  C   UNL     1      -4.125  -3.381 -33.430  1.00  0.00     0.132 A 
HETATM   26  F   UNL     1      -3.159  -3.016 -32.574  1.00  0.00    -0.205 F 
ENDBRANCH   1  19
TORSDOF 4
ENDMDL
