MODEL 1
REMARK VINA RESULT:      -7.7      0.000      0.000
REMARK  9 active torsions:
REMARK  status: ('A' for Active; 'I' for Inactive)
REMARK    1  A    between atoms: C_4  and  C_5 
REMARK    2  A    between atoms: C_7  and  C_8 
REMARK    3  A    between atoms: C_8  and  C_9 
REMARK       I    between atoms: C_9  and  N_10 
REMARK    4  A    between atoms: N_10  and  C_11 
REMARK    5  A    between atoms: C_11  and  C_12 
REMARK    6  A    between atoms: C_12  and  N_13 
REMARK    7  A    between atoms: C_27  and  C_28 
REMARK    8  A    between atoms: C_28  and  O_29 
REMARK    9  A    between atoms: O_29  and  C_30 
ROOT
HETATM    1  C   UNL     1      -7.323   3.858 -33.341  1.00  0.00     0.166 C 
HETATM    2  N   UNL     1      -6.417   4.639 -32.444  1.00  0.00    -0.319 N 
HETATM    3  C   UNL     1      -5.134   4.670 -32.235  1.00  0.00     0.011 C 
HETATM    4  C   UNL     1      -7.149   5.680 -31.552  1.00  0.00     0.170 C 
HETATM    5  S   UNL     1      -6.056   6.606 -30.580  1.00  0.00    -0.086 SA
HETATM    6  C   UNL     1      -4.674   5.576 -31.108  1.00  0.00     0.135 C 
HETATM    7  N   UNL     1      -8.416   5.868 -31.488  1.00  0.00    -0.229 NA
HETATM    8  C   UNL     1      -9.244   5.066 -32.231  1.00  0.00     0.048 C 
HETATM    9  C   UNL     1     -10.711   5.401 -32.059  1.00  0.00     0.071 C 
HETATM   10  C   UNL     1      -8.779   4.105 -33.055  1.00  0.00     0.069 C 
ENDROOT
BRANCH   3  11
HETATM   11  C   UNL     1      -4.171   3.753 -32.944  1.00  0.00     0.156 C 
BRANCH  11  12
HETATM   12  C   UNL     1      -2.772   4.309 -33.128  1.00  0.00     0.223 C 
HETATM   13  N   UNL     1      -2.608   5.147 -34.212  1.00  0.00    -0.359 N 
HETATM   14  H   UNL     1      -3.460   5.431 -34.692  1.00  0.00     0.162 HD
HETATM   15  O   UNL     1      -1.859   4.038 -32.359  1.00  0.00    -0.273 OA
BRANCH  13  16
HETATM   16  C   UNL     1      -1.547   6.162 -34.240  1.00  0.00     0.150 C 
BRANCH  16  17
HETATM   17  C   UNL     1      -1.739   7.425 -33.373  1.00  0.00     0.254 C 
BRANCH  17  18
HETATM   18  N   UNL     1      -1.423   7.168 -31.908  1.00  0.00    -0.070 N 
HETATM   19  H   UNL     1      -1.963   6.334 -31.647  1.00  0.00     0.279 HD
HETATM   20  C   UNL     1       0.044   6.889 -31.659  1.00  0.00     0.235 C 
HETATM   21  C   UNL     1       0.262   6.558 -30.190  1.00  0.00     0.028 C 
HETATM   22  C   UNL     1      -0.249   7.668 -29.280  1.00  0.00     0.003 C 
HETATM   23  C   UNL     1      -1.709   7.987 -29.578  1.00  0.00     0.028 C 
HETATM   24  C   UNL     1      -1.925   8.314 -31.048  1.00  0.00     0.235 C 
ENDBRANCH  17  18
ENDBRANCH  16  17
ENDBRANCH  13  16
ENDBRANCH  11  12
ENDBRANCH   3  11
BRANCH   1  25
HETATM   25  C   UNL     1      -6.947   2.379 -33.334  1.00  0.00    -0.030 A 
HETATM   26  C   UNL     1      -6.795   1.718 -32.097  1.00  0.00     0.016 A 
HETATM   27  C   UNL     1      -6.512   0.348 -32.035  1.00  0.00    -0.061 A 
HETATM   28  C   UNL     1      -6.338  -0.329 -30.705  1.00  0.00     0.048 C 
HETATM   29  C   UNL     1      -6.318  -0.354 -33.226  1.00  0.00     0.007 A 
HETATM   30  C   UNL     1      -6.422   0.295 -34.456  1.00  0.00     0.001 A 
HETATM   31  C   UNL     1      -6.735   1.653 -34.516  1.00  0.00     0.009 A 
ENDBRANCH   1  25
BRANCH  10  32
HETATM   32  C   UNL     1      -9.716   3.222 -33.785  1.00  0.00     0.294 C 
HETATM   33  O   UNL     1      -9.981   3.380 -34.962  1.00  0.00    -0.259 OA
BRANCH  32  34
HETATM   34  O   UNL     1     -10.082   2.215 -32.963  1.00  0.00    -0.313 OA
BRANCH  34  35
HETATM   35  C   UNL     1     -10.501   0.976 -33.572  1.00  0.00     0.124 C 
HETATM   36  C   UNL     1     -10.001  -0.146 -32.669  1.00  0.00     0.040 C 
HETATM   37  C   UNL     1     -12.022   0.952 -33.663  1.00  0.00     0.040 C 
ENDBRANCH  34  35
ENDBRANCH  32  34
ENDBRANCH  10  32
TORSDOF 9
ENDMDL
MODEL 2
REMARK VINA RESULT:      -7.7      2.971      4.950
REMARK  9 active torsions:
REMARK  status: ('A' for Active; 'I' for Inactive)
REMARK    1  A    between atoms: C_4  and  C_5 
REMARK    2  A    between atoms: C_7  and  C_8 
REMARK    3  A    between atoms: C_8  and  C_9 
REMARK       I    between atoms: C_9  and  N_10 
REMARK    4  A    between atoms: N_10  and  C_11 
REMARK    5  A    between atoms: C_11  and  C_12 
REMARK    6  A    between atoms: C_12  and  N_13 
REMARK    7  A    between atoms: C_27  and  C_28 
REMARK    8  A    between atoms: C_28  and  O_29 
REMARK    9  A    between atoms: O_29  and  C_30 
ROOT
HETATM    1  C   UNL     1      -5.189   3.436 -32.121  1.00  0.00     0.166 C 
HETATM    2  N   UNL     1      -6.061   4.395 -31.375  1.00  0.00    -0.319 N 
HETATM    3  C   UNL     1      -6.243   5.682 -31.401  1.00  0.00     0.011 C 
HETATM    4  C   UNL     1      -6.995   3.724 -30.330  1.00  0.00     0.170 C 
HETATM    5  S   UNL     1      -8.032   4.862 -29.540  1.00  0.00    -0.086 SA
HETATM    6  C   UNL     1      -7.183   6.233 -30.344  1.00  0.00     0.135 C 
HETATM    7  N   UNL     1      -7.028   2.477 -30.032  1.00  0.00    -0.229 NA
HETATM    8  C   UNL     1      -6.142   1.625 -30.641  1.00  0.00     0.048 C 
HETATM    9  C   UNL     1      -6.297   0.186 -30.195  1.00  0.00     0.071 C 
HETATM   10  C   UNL     1      -5.255   2.039 -31.568  1.00  0.00     0.069 C 
ENDROOT
BRANCH   3  11
HETATM   11  C   UNL     1      -5.458   6.599 -32.304  1.00  0.00     0.156 C 
BRANCH  11  12
HETATM   12  C   UNL     1      -4.399   7.432 -31.609  1.00  0.00     0.223 C 
HETATM   13  N   UNL     1      -4.743   7.897 -30.356  1.00  0.00    -0.359 N 
HETATM   14  H   UNL     1      -5.600   7.519 -29.957  1.00  0.00     0.162 HD
HETATM   15  O   UNL     1      -3.313   7.664 -32.124  1.00  0.00    -0.273 OA
BRANCH  13  16
HETATM   16  C   UNL     1      -3.719   8.227 -29.355  1.00  0.00     0.150 C 
BRANCH  16  17
HETATM   17  C   UNL     1      -3.306   7.120 -28.362  1.00  0.00     0.254 C 
BRANCH  17  18
HETATM   18  N   UNL     1      -1.800   6.912 -28.328  1.00  0.00    -0.070 N 
HETATM   19  H   UNL     1      -1.650   5.921 -28.558  1.00  0.00     0.279 HD
HETATM   20  C   UNL     1      -1.063   7.759 -29.342  1.00  0.00     0.235 C 
HETATM   21  C   UNL     1       0.423   7.429 -29.304  1.00  0.00     0.028 C 
HETATM   22  C   UNL     1       1.005   7.609 -27.907  1.00  0.00     0.003 C 
HETATM   23  C   UNL     1       0.219   6.801 -26.882  1.00  0.00     0.028 C 
HETATM   24  C   UNL     1      -1.266   7.130 -26.924  1.00  0.00     0.235 C 
ENDBRANCH  17  18
ENDBRANCH  16  17
ENDBRANCH  13  16
ENDBRANCH  11  12
ENDBRANCH   3  11
BRANCH   1  25
HETATM   25  C   UNL     1      -3.766   3.976 -32.234  1.00  0.00    -0.030 A 
HETATM   26  C   UNL     1      -3.252   4.290 -33.509  1.00  0.00     0.016 A 
HETATM   27  C   UNL     1      -1.976   4.846 -33.662  1.00  0.00    -0.061 A 
HETATM   28  C   UNL     1      -1.445   5.156 -35.033  1.00  0.00     0.048 C 
HETATM   29  C   UNL     1      -1.183   5.034 -32.528  1.00  0.00     0.007 A 
HETATM   30  C   UNL     1      -1.660   4.687 -31.264  1.00  0.00     0.001 A 
HETATM   31  C   UNL     1      -2.944   4.162 -31.111  1.00  0.00     0.009 A 
ENDBRANCH   1  25
BRANCH  10  32
HETATM   32  C   UNL     1      -4.276   1.092 -32.148  1.00  0.00     0.294 C 
HETATM   33  O   UNL     1      -3.296   0.708 -31.538  1.00  0.00    -0.259 OA
BRANCH  32  34
HETATM   34  O   UNL     1      -4.737   0.685 -33.351  1.00  0.00    -0.313 OA
BRANCH  34  35
HETATM   35  C   UNL     1      -5.379  -0.605 -33.417  1.00  0.00     0.124 C 
HETATM   36  C   UNL     1      -6.463  -0.500 -34.483  1.00  0.00     0.040 C 
HETATM   37  C   UNL     1      -4.348  -1.658 -33.803  1.00  0.00     0.040 C 
ENDBRANCH  34  35
ENDBRANCH  32  34
ENDBRANCH  10  32
TORSDOF 9
ENDMDL
MODEL 3
REMARK VINA RESULT:      -7.6      1.157      1.865
REMARK  9 active torsions:
REMARK  status: ('A' for Active; 'I' for Inactive)
REMARK    1  A    between atoms: C_4  and  C_5 
REMARK    2  A    between atoms: C_7  and  C_8 
REMARK    3  A    between atoms: C_8  and  C_9 
REMARK       I    between atoms: C_9  and  N_10 
REMARK    4  A    between atoms: N_10  and  C_11 
REMARK    5  A    between atoms: C_11  and  C_12 
REMARK    6  A    between atoms: C_12  and  N_13 
REMARK    7  A    between atoms: C_27  and  C_28 
REMARK    8  A    between atoms: C_28  and  O_29 
REMARK    9  A    between atoms: O_29  and  C_30 
ROOT
HETATM    1  C   UNL     1      -6.971   2.810 -32.370  1.00  0.00     0.166 C 
HETATM    2  N   UNL     1      -6.162   3.972 -31.887  1.00  0.00    -0.319 N 
HETATM    3  C   UNL     1      -4.923   4.345 -32.015  1.00  0.00     0.011 C 
HETATM    4  C   UNL     1      -6.968   5.002 -31.048  1.00  0.00     0.170 C 
HETATM    5  S   UNL     1      -6.008   6.361 -30.568  1.00  0.00    -0.086 SA
HETATM    6  C   UNL     1      -4.524   5.578 -31.226  1.00  0.00     0.135 C 
HETATM    7  N   UNL     1      -8.199   4.904 -30.704  1.00  0.00    -0.229 NA
HETATM    8  C   UNL     1      -8.898   3.778 -31.056  1.00  0.00     0.048 C 
HETATM    9  C   UNL     1     -10.339   3.801 -30.586  1.00  0.00     0.071 C 
HETATM   10  C   UNL     1      -8.354   2.779 -31.778  1.00  0.00     0.069 C 
ENDROOT
BRANCH   3  11
HETATM   11  C   UNL     1      -3.899   3.528 -32.762  1.00  0.00     0.156 C 
BRANCH  11  12
HETATM   12  C   UNL     1      -2.532   4.172 -32.886  1.00  0.00     0.223 C 
HETATM   13  N   UNL     1      -2.336   4.927 -34.024  1.00  0.00    -0.359 N 
HETATM   14  H   UNL     1      -3.162   5.104 -34.592  1.00  0.00     0.162 HD
HETATM   15  O   UNL     1      -1.670   4.035 -32.028  1.00  0.00    -0.273 OA
BRANCH  13  16
HETATM   16  C   UNL     1      -1.348   6.014 -34.060  1.00  0.00     0.150 C 
BRANCH  16  17
HETATM   17  C   UNL     1      -1.666   7.298 -33.265  1.00  0.00     0.254 C 
BRANCH  17  18
HETATM   18  N   UNL     1      -1.350   7.150 -31.786  1.00  0.00    -0.070 N 
HETATM   19  H   UNL     1      -1.874   6.324 -31.468  1.00  0.00     0.279 HD
HETATM   20  C   UNL     1       0.121   6.919 -31.514  1.00  0.00     0.235 C 
HETATM   21  C   UNL     1       0.340   6.696 -30.025  1.00  0.00     0.028 C 
HETATM   22  C   UNL     1      -0.198   7.855 -29.195  1.00  0.00     0.003 C 
HETATM   23  C   UNL     1      -1.663   8.121 -29.518  1.00  0.00     0.028 C 
HETATM   24  C   UNL     1      -1.880   8.341 -31.008  1.00  0.00     0.235 C 
ENDBRANCH  17  18
ENDBRANCH  16  17
ENDBRANCH  13  16
ENDBRANCH  11  12
ENDBRANCH   3  11
BRANCH   1  25
HETATM   25  C   UNL     1      -6.204   1.504 -32.185  1.00  0.00    -0.030 A 
HETATM   26  C   UNL     1      -6.093   0.615 -33.274  1.00  0.00     0.016 A 
HETATM   27  C   UNL     1      -5.348  -0.566 -33.176  1.00  0.00    -0.061 A 
HETATM   28  C   UNL     1      -5.259  -1.504 -34.346  1.00  0.00     0.048 C 
HETATM   29  C   UNL     1      -4.758  -0.891 -31.953  1.00  0.00     0.007 A 
HETATM   30  C   UNL     1      -4.896  -0.044 -30.853  1.00  0.00     0.001 A 
HETATM   31  C   UNL     1      -5.612   1.149 -30.962  1.00  0.00     0.009 A 
ENDBRANCH   1  25
BRANCH  10  32
HETATM   32  C   UNL     1      -9.131   1.555 -32.076  1.00  0.00     0.294 C 
HETATM   33  O   UNL     1      -9.340   0.693 -31.243  1.00  0.00    -0.259 OA
BRANCH  32  34
HETATM   34  O   UNL     1      -9.624   1.657 -33.330  1.00  0.00    -0.313 OA
BRANCH  34  35
HETATM   35  C   UNL     1     -11.004   2.051 -33.473  1.00  0.00     0.124 C 
HETATM   36  C   UNL     1     -11.063   3.013 -34.654  1.00  0.00     0.040 C 
HETATM   37  C   UNL     1     -11.852   0.815 -33.748  1.00  0.00     0.040 C 
ENDBRANCH  34  35
ENDBRANCH  32  34
ENDBRANCH  10  32
TORSDOF 9
ENDMDL
MODEL 4
REMARK VINA RESULT:      -7.6      3.863      9.364
REMARK  9 active torsions:
REMARK  status: ('A' for Active; 'I' for Inactive)
REMARK    1  A    between atoms: C_4  and  C_5 
REMARK    2  A    between atoms: C_7  and  C_8 
REMARK    3  A    between atoms: C_8  and  C_9 
REMARK       I    between atoms: C_9  and  N_10 
REMARK    4  A    between atoms: N_10  and  C_11 
REMARK    5  A    between atoms: C_11  and  C_12 
REMARK    6  A    between atoms: C_12  and  N_13 
REMARK    7  A    between atoms: C_27  and  C_28 
REMARK    8  A    between atoms: C_28  and  O_29 
REMARK    9  A    between atoms: O_29  and  C_30 
ROOT
HETATM    1  C   UNL     1      -8.478   1.547 -31.770  1.00  0.00     0.166 C 
HETATM    2  N   UNL     1      -9.571   2.505 -32.123  1.00  0.00    -0.319 N 
HETATM    3  C   UNL     1     -10.603   2.471 -32.913  1.00  0.00     0.011 C 
HETATM    4  C   UNL     1      -9.492   3.862 -31.371  1.00  0.00     0.170 C 
HETATM    5  S   UNL     1     -10.813   4.912 -31.759  1.00  0.00    -0.086 SA
HETATM    6  C   UNL     1     -11.384   3.766 -33.027  1.00  0.00     0.135 C 
HETATM    7  N   UNL     1      -8.571   4.227 -30.556  1.00  0.00    -0.229 NA
HETATM    8  C   UNL     1      -7.514   3.384 -30.330  1.00  0.00     0.048 C 
HETATM    9  C   UNL     1      -6.507   3.942 -29.346  1.00  0.00     0.071 C 
HETATM   10  C   UNL     1      -7.416   2.169 -30.905  1.00  0.00     0.069 C 
ENDROOT
BRANCH   3  11
HETATM   11  C   UNL     1     -10.921   1.285 -33.787  1.00  0.00     0.156 C 
BRANCH  11  12
HETATM   12  C   UNL     1     -12.372   1.170 -34.210  1.00  0.00     0.223 C 
HETATM   13  N   UNL     1     -13.267   0.926 -33.189  1.00  0.00    -0.359 N 
HETATM   14  H   UNL     1     -12.897   0.996 -32.243  1.00  0.00     0.162 HD
HETATM   15  O   UNL     1     -12.720   1.296 -35.377  1.00  0.00    -0.273 OA
BRANCH  13  16
HETATM   16  C   UNL     1     -14.680   1.313 -33.302  1.00  0.00     0.150 C 
BRANCH  16  17
HETATM   17  C   UNL     1     -15.344   1.969 -32.072  1.00  0.00     0.254 C 
BRANCH  17  18
HETATM   18  N   UNL     1     -16.268   3.112 -32.459  1.00  0.00    -0.070 N 
HETATM   19  H   UNL     1     -16.212   3.182 -33.483  1.00  0.00     0.279 HD
HETATM   20  C   UNL     1     -17.710   2.865 -32.072  1.00  0.00     0.235 C 
HETATM   21  C   UNL     1     -18.580   4.011 -32.570  1.00  0.00     0.028 C 
HETATM   22  C   UNL     1     -18.092   5.357 -32.049  1.00  0.00     0.003 C 
HETATM   23  C   UNL     1     -16.622   5.571 -32.389  1.00  0.00     0.028 C 
HETATM   24  C   UNL     1     -15.756   4.424 -31.893  1.00  0.00     0.235 C 
ENDBRANCH  17  18
ENDBRANCH  16  17
ENDBRANCH  13  16
ENDBRANCH  11  12
ENDBRANCH   3  11
BRANCH   1  25
HETATM   25  C   UNL     1      -7.921   0.877 -33.024  1.00  0.00    -0.030 A 
HETATM   26  C   UNL     1      -7.788  -0.527 -33.048  1.00  0.00     0.016 A 
HETATM   27  C   UNL     1      -7.343  -1.196 -34.194  1.00  0.00    -0.061 A 
HETATM   28  C   UNL     1      -7.193  -2.691 -34.188  1.00  0.00     0.048 C 
HETATM   29  C   UNL     1      -6.968  -0.444 -35.310  1.00  0.00     0.007 A 
HETATM   30  C   UNL     1      -7.052   0.948 -35.286  1.00  0.00     0.001 A 
HETATM   31  C   UNL     1      -7.527   1.610 -34.153  1.00  0.00     0.009 A 
ENDBRANCH   1  25
BRANCH  10  32
HETATM   32  C   UNL     1      -6.222   1.323 -30.679  1.00  0.00     0.294 C 
HETATM   33  O   UNL     1      -6.202   0.424 -29.861  1.00  0.00    -0.259 OA
BRANCH  32  34
HETATM   34  O   UNL     1      -5.283   1.658 -31.592  1.00  0.00    -0.313 OA
BRANCH  34  35
HETATM   35  C   UNL     1      -3.940   1.881 -31.116  1.00  0.00     0.124 C 
HETATM   36  C   UNL     1      -3.182   0.575 -31.323  1.00  0.00     0.040 C 
HETATM   37  C   UNL     1      -3.302   3.005 -31.923  1.00  0.00     0.040 C 
ENDBRANCH  34  35
ENDBRANCH  32  34
ENDBRANCH  10  32
TORSDOF 9
ENDMDL
MODEL 5
REMARK VINA RESULT:      -7.5      2.824      5.002
REMARK  9 active torsions:
REMARK  status: ('A' for Active; 'I' for Inactive)
REMARK    1  A    between atoms: C_4  and  C_5 
REMARK    2  A    between atoms: C_7  and  C_8 
REMARK    3  A    between atoms: C_8  and  C_9 
REMARK       I    between atoms: C_9  and  N_10 
REMARK    4  A    between atoms: N_10  and  C_11 
REMARK    5  A    between atoms: C_11  and  C_12 
REMARK    6  A    between atoms: C_12  and  N_13 
REMARK    7  A    between atoms: C_27  and  C_28 
REMARK    8  A    between atoms: C_28  and  O_29 
REMARK    9  A    between atoms: O_29  and  C_30 
ROOT
HETATM    1  C   UNL     1      -5.549   2.679 -30.737  1.00  0.00     0.166 C 
HETATM    2  N   UNL     1      -4.595   3.828 -30.801  1.00  0.00    -0.319 N 
HETATM    3  C   UNL     1      -4.609   5.060 -30.384  1.00  0.00     0.011 C 
HETATM    4  C   UNL     1      -3.252   3.500 -31.513  1.00  0.00     0.170 C 
HETATM    5  S   UNL     1      -2.154   4.838 -31.504  1.00  0.00    -0.086 SA
HETATM    6  C   UNL     1      -3.420   5.906 -30.796  1.00  0.00     0.135 C 
HETATM    7  N   UNL     1      -2.943   2.389 -32.074  1.00  0.00    -0.229 NA
HETATM    8  C   UNL     1      -3.872   1.381 -32.108  1.00  0.00     0.048 C 
HETATM    9  C   UNL     1      -3.368   0.130 -32.798  1.00  0.00     0.071 C 
HETATM   10  C   UNL     1      -5.092   1.497 -31.547  1.00  0.00     0.069 C 
ENDROOT
BRANCH   3  11
HETATM   11  C   UNL     1      -5.795   5.666 -29.676  1.00  0.00     0.156 C 
BRANCH  11  12
HETATM   12  C   UNL     1      -5.456   6.751 -28.673  1.00  0.00     0.223 C 
HETATM   13  N   UNL     1      -4.960   6.305 -27.466  1.00  0.00    -0.359 N 
HETATM   14  H   UNL     1      -4.727   5.315 -27.416  1.00  0.00     0.162 HD
HETATM   15  O   UNL     1      -5.607   7.939 -28.926  1.00  0.00    -0.273 OA
BRANCH  13  16
HETATM   16  C   UNL     1      -4.105   7.157 -26.628  1.00  0.00     0.150 C 
BRANCH  16  17
HETATM   17  C   UNL     1      -2.714   6.614 -26.238  1.00  0.00     0.254 C 
BRANCH  17  18
HETATM   18  N   UNL     1      -1.724   6.693 -27.389  1.00  0.00    -0.070 N 
HETATM   19  H   UNL     1      -2.017   5.971 -28.060  1.00  0.00     0.279 HD
HETATM   20  C   UNL     1      -1.735   8.034 -28.089  1.00  0.00     0.235 C 
HETATM   21  C   UNL     1      -0.784   8.002 -29.277  1.00  0.00     0.028 C 
HETATM   22  C   UNL     1       0.628   7.611 -28.859  1.00  0.00     0.003 C 
HETATM   23  C   UNL     1       0.624   6.289 -28.101  1.00  0.00     0.028 C 
HETATM   24  C   UNL     1      -0.329   6.323 -26.916  1.00  0.00     0.235 C 
ENDBRANCH  17  18
ENDBRANCH  16  17
ENDBRANCH  13  16
ENDBRANCH  11  12
ENDBRANCH   3  11
BRANCH   1  25
HETATM   25  C   UNL     1      -6.966   3.134 -31.077  1.00  0.00    -0.030 A 
HETATM   26  C   UNL     1      -7.214   3.716 -32.338  1.00  0.00     0.016 A 
HETATM   27  C   UNL     1      -8.505   4.094 -32.723  1.00  0.00    -0.061 A 
HETATM   28  C   UNL     1      -8.739   4.728 -34.065  1.00  0.00     0.048 C 
HETATM   29  C   UNL     1      -9.552   3.941 -31.812  1.00  0.00     0.007 A 
HETATM   30  C   UNL     1      -9.316   3.407 -30.545  1.00  0.00     0.001 A 
HETATM   31  C   UNL     1      -8.033   3.003 -30.174  1.00  0.00     0.009 A 
ENDBRANCH   1  25
BRANCH  10  32
HETATM   32  C   UNL     1      -6.082   0.404 -31.668  1.00  0.00     0.294 C 
HETATM   33  O   UNL     1      -6.413  -0.289 -30.724  1.00  0.00    -0.259 OA
BRANCH  32  34
HETATM   34  O   UNL     1      -6.589   0.425 -32.920  1.00  0.00    -0.313 OA
BRANCH  34  35
HETATM   35  C   UNL     1      -7.587  -0.563 -33.252  1.00  0.00     0.124 C 
HETATM   36  C   UNL     1      -8.899   0.189 -33.444  1.00  0.00     0.040 C 
HETATM   37  C   UNL     1      -7.183  -1.270 -34.540  1.00  0.00     0.040 C 
ENDBRANCH  34  35
ENDBRANCH  32  34
ENDBRANCH  10  32
TORSDOF 9
ENDMDL
MODEL 6
REMARK VINA RESULT:      -7.4      3.176      8.161
REMARK  9 active torsions:
REMARK  status: ('A' for Active; 'I' for Inactive)
REMARK    1  A    between atoms: C_4  and  C_5 
REMARK    2  A    between atoms: C_7  and  C_8 
REMARK    3  A    between atoms: C_8  and  C_9 
REMARK       I    between atoms: C_9  and  N_10 
REMARK    4  A    between atoms: N_10  and  C_11 
REMARK    5  A    between atoms: C_11  and  C_12 
REMARK    6  A    between atoms: C_12  and  N_13 
REMARK    7  A    between atoms: C_27  and  C_28 
REMARK    8  A    between atoms: C_28  and  O_29 
REMARK    9  A    between atoms: O_29  and  C_30 
ROOT
HETATM    1  C   UNL     1      -4.136   6.224 -30.446  1.00  0.00     0.166 C 
HETATM    2  N   UNL     1      -5.043   5.771 -31.545  1.00  0.00    -0.319 N 
HETATM    3  C   UNL     1      -4.955   4.907 -32.513  1.00  0.00     0.011 C 
HETATM    4  C   UNL     1      -6.435   6.464 -31.546  1.00  0.00     0.170 C 
HETATM    5  S   UNL     1      -7.474   5.861 -32.792  1.00  0.00    -0.086 SA
HETATM    6  C   UNL     1      -6.128   4.877 -33.474  1.00  0.00     0.135 C 
HETATM    7  N   UNL     1      -6.820   7.393 -30.750  1.00  0.00    -0.229 NA
HETATM    8  C   UNL     1      -5.938   7.880 -29.821  1.00  0.00     0.048 C 
HETATM    9  C   UNL     1      -6.529   8.969 -28.950  1.00  0.00     0.071 C 
HETATM   10  C   UNL     1      -4.686   7.399 -29.685  1.00  0.00     0.069 C 
ENDROOT
BRANCH   3  11
HETATM   11  C   UNL     1      -3.709   4.099 -32.772  1.00  0.00     0.156 C 
BRANCH  11  12
HETATM   12  C   UNL     1      -3.596   2.818 -31.967  1.00  0.00     0.223 C 
HETATM   13  N   UNL     1      -4.624   1.916 -32.147  1.00  0.00    -0.359 N 
HETATM   14  H   UNL     1      -5.273   2.122 -32.904  1.00  0.00     0.162 HD
HETATM   15  O   UNL     1      -2.652   2.602 -31.219  1.00  0.00    -0.273 OA
BRANCH  13  16
HETATM   16  C   UNL     1      -4.432   0.479 -31.907  1.00  0.00     0.150 C 
BRANCH  16  17
HETATM   17  C   UNL     1      -3.719  -0.341 -33.003  1.00  0.00     0.254 C 
BRANCH  17  18
HETATM   18  N   UNL     1      -4.702  -1.067 -33.908  1.00  0.00    -0.070 N 
HETATM   19  H   UNL     1      -4.621  -0.615 -34.828  1.00  0.00     0.279 HD
HETATM   20  C   UNL     1      -4.386  -2.538 -34.065  1.00  0.00     0.235 C 
HETATM   21  C   UNL     1      -5.360  -3.170 -35.050  1.00  0.00     0.028 C 
HETATM   22  C   UNL     1      -6.808  -2.959 -34.625  1.00  0.00     0.003 C 
HETATM   23  C   UNL     1      -7.102  -1.480 -34.408  1.00  0.00     0.028 C 
HETATM   24  C   UNL     1      -6.125  -0.850 -33.426  1.00  0.00     0.235 C 
ENDBRANCH  17  18
ENDBRANCH  16  17
ENDBRANCH  13  16
ENDBRANCH  11  12
ENDBRANCH   3  11
BRANCH   1  25
HETATM   25  C   UNL     1      -2.722   6.452 -30.973  1.00  0.00    -0.030 A 
HETATM   26  C   UNL     1      -1.656   5.713 -30.418  1.00  0.00     0.016 A 
HETATM   27  C   UNL     1      -0.351   5.838 -30.908  1.00  0.00    -0.061 A 
HETATM   28  C   UNL     1       0.769   5.052 -30.287  1.00  0.00     0.048 C 
HETATM   29  C   UNL     1      -0.099   6.761 -31.926  1.00  0.00     0.007 A 
HETATM   30  C   UNL     1      -1.134   7.531 -32.455  1.00  0.00     0.001 A 
HETATM   31  C   UNL     1      -2.440   7.381 -31.987  1.00  0.00     0.009 A 
ENDBRANCH   1  25
BRANCH  10  32
HETATM   32  C   UNL     1      -3.749   8.004 -28.710  1.00  0.00     0.294 C 
HETATM   33  O   UNL     1      -3.252   9.102 -28.875  1.00  0.00    -0.259 OA
BRANCH  32  34
HETATM   34  O   UNL     1      -3.675   7.193 -27.632  1.00  0.00    -0.313 OA
BRANCH  34  35
HETATM   35  C   UNL     1      -2.982   7.693 -26.469  1.00  0.00     0.124 C 
HETATM   36  C   UNL     1      -4.053   8.147 -25.484  1.00  0.00     0.040 C 
HETATM   37  C   UNL     1      -2.141   6.575 -25.868  1.00  0.00     0.040 C 
ENDBRANCH  34  35
ENDBRANCH  32  34
ENDBRANCH  10  32
TORSDOF 9
ENDMDL
MODEL 7
REMARK VINA RESULT:      -7.4      2.141      4.138
REMARK  9 active torsions:
REMARK  status: ('A' for Active; 'I' for Inactive)
REMARK    1  A    between atoms: C_4  and  C_5 
REMARK    2  A    between atoms: C_7  and  C_8 
REMARK    3  A    between atoms: C_8  and  C_9 
REMARK       I    between atoms: C_9  and  N_10 
REMARK    4  A    between atoms: N_10  and  C_11 
REMARK    5  A    between atoms: C_11  and  C_12 
REMARK    6  A    between atoms: C_12  and  N_13 
REMARK    7  A    between atoms: C_27  and  C_28 
REMARK    8  A    between atoms: C_28  and  O_29 
REMARK    9  A    between atoms: O_29  and  C_30 
ROOT
HETATM    1  C   UNL     1      -6.876   3.662 -33.047  1.00  0.00     0.166 C 
HETATM    2  N   UNL     1      -7.514   4.582 -32.056  1.00  0.00    -0.319 N 
HETATM    3  C   UNL     1      -7.307   5.807 -31.672  1.00  0.00     0.011 C 
HETATM    4  C   UNL     1      -8.725   3.962 -31.303  1.00  0.00     0.170 C 
HETATM    5  S   UNL     1      -9.473   5.083 -30.217  1.00  0.00    -0.086 SA
HETATM    6  C   UNL     1      -8.167   6.287 -30.519  1.00  0.00     0.135 C 
HETATM    7  N   UNL     1      -9.158   2.761 -31.421  1.00  0.00    -0.229 NA
HETATM    8  C   UNL     1      -8.492   1.894 -32.248  1.00  0.00     0.048 C 
HETATM    9  C   UNL     1      -9.115   0.514 -32.290  1.00  0.00     0.071 C 
HETATM   10  C   UNL     1      -7.416   2.260 -32.972  1.00  0.00     0.069 C 
ENDROOT
BRANCH   3  11
HETATM   11  C   UNL     1      -6.183   6.651 -32.216  1.00  0.00     0.156 C 
BRANCH  11  12
HETATM   12  C   UNL     1      -5.130   7.048 -31.199  1.00  0.00     0.223 C 
HETATM   13  N   UNL     1      -4.909   8.404 -31.077  1.00  0.00    -0.359 N 
HETATM   14  H   UNL     1      -5.568   9.010 -31.561  1.00  0.00     0.162 HD
HETATM   15  O   UNL     1      -4.528   6.218 -30.530  1.00  0.00    -0.273 OA
BRANCH  13  16
HETATM   16  C   UNL     1      -4.371   8.983 -29.838  1.00  0.00     0.150 C 
BRANCH  16  17
HETATM   17  C   UNL     1      -2.865   9.319 -29.799  1.00  0.00     0.254 C 
BRANCH  17  18
HETATM   18  N   UNL     1      -2.005   8.157 -30.270  1.00  0.00    -0.070 N 
HETATM   19  H   UNL     1      -2.599   7.320 -30.194  1.00  0.00     0.279 HD
HETATM   20  C   UNL     1      -1.555   8.298 -31.707  1.00  0.00     0.235 C 
HETATM   21  C   UNL     1      -0.776   7.059 -32.126  1.00  0.00     0.028 C 
HETATM   22  C   UNL     1       0.406   6.796 -31.202  1.00  0.00     0.003 C 
HETATM   23  C   UNL     1      -0.047   6.716 -29.749  1.00  0.00     0.028 C 
HETATM   24  C   UNL     1      -0.827   7.954 -29.334  1.00  0.00     0.235 C 
ENDBRANCH  17  18
ENDBRANCH  16  17
ENDBRANCH  13  16
ENDBRANCH  11  12
ENDBRANCH   3  11
BRANCH   1  25
HETATM   25  C   UNL     1      -5.354   3.731 -32.946  1.00  0.00    -0.030 A 
HETATM   26  C   UNL     1      -4.631   4.402 -33.954  1.00  0.00     0.016 A 
HETATM   27  C   UNL     1      -3.241   4.548 -33.877  1.00  0.00    -0.061 A 
HETATM   28  C   UNL     1      -2.492   5.252 -34.973  1.00  0.00     0.048 C 
HETATM   29  C   UNL     1      -2.560   3.962 -32.807  1.00  0.00     0.007 A 
HETATM   30  C   UNL     1      -3.257   3.258 -31.825  1.00  0.00     0.001 A 
HETATM   31  C   UNL     1      -4.646   3.141 -31.888  1.00  0.00     0.009 A 
ENDBRANCH   1  25
BRANCH  10  32
HETATM   32  C   UNL     1      -6.692   1.269 -33.800  1.00  0.00     0.294 C 
HETATM   33  O   UNL     1      -6.693   1.306 -35.016  1.00  0.00    -0.259 OA
BRANCH  32  34
HETATM   34  O   UNL     1      -5.989   0.459 -32.978  1.00  0.00    -0.313 OA
BRANCH  34  35
HETATM   35  C   UNL     1      -4.992  -0.395 -33.577  1.00  0.00     0.124 C 
HETATM   36  C   UNL     1      -3.823  -0.453 -32.601  1.00  0.00     0.040 C 
HETATM   37  C   UNL     1      -5.583  -1.784 -33.787  1.00  0.00     0.040 C 
ENDBRANCH  34  35
ENDBRANCH  32  34
ENDBRANCH  10  32
TORSDOF 9
ENDMDL
MODEL 8
REMARK VINA RESULT:      -7.3      2.920      6.224
REMARK  9 active torsions:
REMARK  status: ('A' for Active; 'I' for Inactive)
REMARK    1  A    between atoms: C_4  and  C_5 
REMARK    2  A    between atoms: C_7  and  C_8 
REMARK    3  A    between atoms: C_8  and  C_9 
REMARK       I    between atoms: C_9  and  N_10 
REMARK    4  A    between atoms: N_10  and  C_11 
REMARK    5  A    between atoms: C_11  and  C_12 
REMARK    6  A    between atoms: C_12  and  N_13 
REMARK    7  A    between atoms: C_27  and  C_28 
REMARK    8  A    between atoms: C_28  and  O_29 
REMARK    9  A    between atoms: O_29  and  C_30 
ROOT
HETATM    1  C   UNL     1      -7.807   4.290 -32.398  1.00  0.00     0.166 C 
HETATM    2  N   UNL     1      -6.502   4.567 -31.723  1.00  0.00    -0.319 N 
HETATM    3  C   UNL     1      -5.293   4.102 -31.833  1.00  0.00     0.011 C 
HETATM    4  C   UNL     1      -6.570   5.684 -30.644  1.00  0.00     0.170 C 
HETATM    5  S   UNL     1      -5.025   6.018 -29.938  1.00  0.00    -0.086 SA
HETATM    6  C   UNL     1      -4.292   4.630 -30.822  1.00  0.00     0.135 C 
HETATM    7  N   UNL     1      -7.623   6.311 -30.266  1.00  0.00    -0.229 NA
HETATM    8  C   UNL     1      -8.832   5.966 -30.812  1.00  0.00     0.048 C 
HETATM    9  C   UNL     1      -9.985   6.789 -30.275  1.00  0.00     0.071 C 
HETATM   10  C   UNL     1      -8.959   5.013 -31.756  1.00  0.00     0.069 C 
ENDROOT
BRANCH   3  11
HETATM   11  C   UNL     1      -4.931   2.992 -32.787  1.00  0.00     0.156 C 
BRANCH  11  12
HETATM   12  C   UNL     1      -4.192   1.825 -32.163  1.00  0.00     0.223 C 
HETATM   13  N   UNL     1      -4.930   0.669 -32.017  1.00  0.00    -0.359 N 
HETATM   14  H   UNL     1      -5.840   0.658 -32.473  1.00  0.00     0.162 HD
HETATM   15  O   UNL     1      -3.019   1.906 -31.822  1.00  0.00    -0.273 OA
BRANCH  13  16
HETATM   16  C   UNL     1      -4.284  -0.649 -31.956  1.00  0.00     0.150 C 
BRANCH  16  17
HETATM   17  C   UNL     1      -3.900  -1.322 -33.291  1.00  0.00     0.254 C 
BRANCH  17  18
HETATM   18  N   UNL     1      -4.768  -2.532 -33.595  1.00  0.00    -0.070 N 
HETATM   19  H   UNL     1      -5.187  -2.809 -32.697  1.00  0.00     0.279 HD
HETATM   20  C   UNL     1      -5.883  -2.230 -34.572  1.00  0.00     0.235 C 
HETATM   21  C   UNL     1      -6.755  -3.465 -34.755  1.00  0.00     0.028 C 
HETATM   22  C   UNL     1      -5.939  -4.670 -35.205  1.00  0.00     0.003 C 
HETATM   23  C   UNL     1      -4.781  -4.930 -34.250  1.00  0.00     0.028 C 
HETATM   24  C   UNL     1      -3.913  -3.694 -34.066  1.00  0.00     0.235 C 
ENDBRANCH  17  18
ENDBRANCH  16  17
ENDBRANCH  13  16
ENDBRANCH  11  12
ENDBRANCH   3  11
BRANCH   1  25
HETATM   25  C   UNL     1      -8.035   2.786 -32.533  1.00  0.00    -0.030 A 
HETATM   26  C   UNL     1      -7.985   2.199 -33.815  1.00  0.00     0.016 A 
HETATM   27  C   UNL     1      -8.126   0.817 -33.987  1.00  0.00    -0.061 A 
HETATM   28  C   UNL     1      -8.085   0.218 -35.365  1.00  0.00     0.048 C 
HETATM   29  C   UNL     1      -8.380   0.021 -32.868  1.00  0.00     0.007 A 
HETATM   30  C   UNL     1      -8.476   0.592 -31.599  1.00  0.00     0.001 A 
HETATM   31  C   UNL     1      -8.305   1.966 -31.426  1.00  0.00     0.009 A 
ENDBRANCH   1  25
BRANCH  10  32
HETATM   32  C   UNL     1     -10.296   4.631 -32.266  1.00  0.00     0.294 C 
HETATM   33  O   UNL     1     -11.106   4.026 -31.589  1.00  0.00    -0.259 OA
BRANCH  32  34
HETATM   34  O   UNL     1     -10.452   5.167 -33.496  1.00  0.00    -0.313 OA
BRANCH  34  35
HETATM   35  C   UNL     1     -11.567   4.705 -34.287  1.00  0.00     0.124 C 
HETATM   36  C   UNL     1     -12.193   5.942 -34.921  1.00  0.00     0.040 C 
HETATM   37  C   UNL     1     -11.059   3.752 -35.361  1.00  0.00     0.040 C 
ENDBRANCH  34  35
ENDBRANCH  32  34
ENDBRANCH  10  32
TORSDOF 9
ENDMDL
MODEL 9
REMARK VINA RESULT:      -7.3      3.811      6.629
REMARK  9 active torsions:
REMARK  status: ('A' for Active; 'I' for Inactive)
REMARK    1  A    between atoms: C_4  and  C_5 
REMARK    2  A    between atoms: C_7  and  C_8 
REMARK    3  A    between atoms: C_8  and  C_9 
REMARK       I    between atoms: C_9  and  N_10 
REMARK    4  A    between atoms: N_10  and  C_11 
REMARK    5  A    between atoms: C_11  and  C_12 
REMARK    6  A    between atoms: C_12  and  N_13 
REMARK    7  A    between atoms: C_27  and  C_28 
REMARK    8  A    between atoms: C_28  and  O_29 
REMARK    9  A    between atoms: O_29  and  C_30 
ROOT
HETATM    1  C   UNL     1      -9.817   4.250 -32.909  1.00  0.00     0.166 C 
HETATM    2  N   UNL     1      -9.647   2.831 -32.467  1.00  0.00    -0.319 N 
HETATM    3  C   UNL     1      -9.055   2.244 -31.469  1.00  0.00     0.011 C 
HETATM    4  C   UNL     1     -10.350   1.792 -33.384  1.00  0.00     0.170 C 
HETATM    5  S   UNL     1     -10.184   0.172 -32.798  1.00  0.00    -0.086 SA
HETATM    6  C   UNL     1      -9.058   0.727 -31.505  1.00  0.00     0.135 C 
HETATM    7  N   UNL     1     -10.981   2.043 -34.472  1.00  0.00    -0.229 NA
HETATM    8  C   UNL     1     -11.030   3.336 -34.927  1.00  0.00     0.048 C 
HETATM    9  C   UNL     1     -11.809   3.484 -36.217  1.00  0.00     0.071 C 
HETATM   10  C   UNL     1     -10.468   4.364 -34.260  1.00  0.00     0.069 C 
ENDROOT
BRANCH   3  11
HETATM   11  C   UNL     1      -8.272   3.001 -30.427  1.00  0.00     0.156 C 
BRANCH  11  12
HETATM   12  C   UNL     1      -6.817   2.592 -30.296  1.00  0.00     0.223 C 
HETATM   13  N   UNL     1      -6.602   1.340 -29.759  1.00  0.00    -0.359 N 
HETATM   14  H   UNL     1      -7.427   0.755 -29.643  1.00  0.00     0.162 HD
HETATM   15  O   UNL     1      -5.903   3.324 -30.652  1.00  0.00    -0.273 OA
BRANCH  13  16
HETATM   16  C   UNL     1      -5.375   0.584 -30.047  1.00  0.00     0.150 C 
BRANCH  16  17
HETATM   17  C   UNL     1      -4.822   0.638 -31.487  1.00  0.00     0.254 C 
BRANCH  17  18
HETATM   18  N   UNL     1      -5.884   0.302 -32.522  1.00  0.00    -0.070 N 
HETATM   19  H   UNL     1      -6.785   0.369 -32.031  1.00  0.00     0.279 HD
HETATM   20  C   UNL     1      -5.898   1.265 -33.689  1.00  0.00     0.235 C 
HETATM   21  C   UNL     1      -7.040   0.913 -34.632  1.00  0.00     0.028 C 
HETATM   22  C   UNL     1      -6.951  -0.531 -35.111  1.00  0.00     0.003 C 
HETATM   23  C   UNL     1      -6.874  -1.491 -33.931  1.00  0.00     0.028 C 
HETATM   24  C   UNL     1      -5.734  -1.135 -32.988  1.00  0.00     0.235 C 
ENDBRANCH  17  18
ENDBRANCH  16  17
ENDBRANCH  13  16
ENDBRANCH  11  12
ENDBRANCH   3  11
BRANCH   1  25
HETATM   25  C   UNL     1      -8.496   5.008 -32.807  1.00  0.00    -0.030 A 
HETATM   26  C   UNL     1      -7.401   4.583 -33.587  1.00  0.00     0.016 A 
HETATM   27  C   UNL     1      -6.187   5.280 -33.578  1.00  0.00    -0.061 A 
HETATM   28  C   UNL     1      -5.030   4.796 -34.406  1.00  0.00     0.048 C 
HETATM   29  C   UNL     1      -6.050   6.382 -32.731  1.00  0.00     0.007 A 
HETATM   30  C   UNL     1      -7.109   6.789 -31.921  1.00  0.00     0.001 A 
HETATM   31  C   UNL     1      -8.328   6.111 -31.955  1.00  0.00     0.009 A 
ENDBRANCH   1  25
BRANCH  10  32
HETATM   32  C   UNL     1     -10.492   5.731 -34.826  1.00  0.00     0.294 C 
HETATM   33  O   UNL     1      -9.784   6.067 -35.757  1.00  0.00    -0.259 OA
BRANCH  32  34
HETATM   34  O   UNL     1     -11.478   6.427 -34.219  1.00  0.00    -0.313 OA
BRANCH  34  35
HETATM   35  C   UNL     1     -12.419   7.123 -35.062  1.00  0.00     0.124 C 
HETATM   36  C   UNL     1     -13.761   6.421 -34.891  1.00  0.00     0.040 C 
HETATM   37  C   UNL     1     -12.515   8.576 -34.613  1.00  0.00     0.040 C 
ENDBRANCH  34  35
ENDBRANCH  32  34
ENDBRANCH  10  32
TORSDOF 9
ENDMDL
MODEL 10
REMARK VINA RESULT:      -7.2      2.696      7.133
REMARK  9 active torsions:
REMARK  status: ('A' for Active; 'I' for Inactive)
REMARK    1  A    between atoms: C_4  and  C_5 
REMARK    2  A    between atoms: C_7  and  C_8 
REMARK    3  A    between atoms: C_8  and  C_9 
REMARK       I    between atoms: C_9  and  N_10 
REMARK    4  A    between atoms: N_10  and  C_11 
REMARK    5  A    between atoms: C_11  and  C_12 
REMARK    6  A    between atoms: C_12  and  N_13 
REMARK    7  A    between atoms: C_27  and  C_28 
REMARK    8  A    between atoms: C_28  and  O_29 
REMARK    9  A    between atoms: O_29  and  C_30 
ROOT
HETATM    1  C   UNL     1      -5.924   3.448 -32.246  1.00  0.00     0.166 C 
HETATM    2  N   UNL     1      -6.389   4.382 -31.174  1.00  0.00    -0.319 N 
HETATM    3  C   UNL     1      -6.730   5.635 -31.132  1.00  0.00     0.011 C 
HETATM    4  C   UNL     1      -6.525   3.722 -29.773  1.00  0.00     0.170 C 
HETATM    5  S   UNL     1      -7.130   4.821 -28.580  1.00  0.00    -0.086 SA
HETATM    6  C   UNL     1      -7.032   6.187 -29.751  1.00  0.00     0.135 C 
HETATM    7  N   UNL     1      -6.225   2.512 -29.471  1.00  0.00    -0.229 NA
HETATM    8  C   UNL     1      -5.690   1.700 -30.438  1.00  0.00     0.048 C 
HETATM    9  C   UNL     1      -5.387   0.302 -29.941  1.00  0.00     0.071 C 
HETATM   10  C   UNL     1      -5.495   2.111 -31.707  1.00  0.00     0.069 C 
ENDROOT
BRANCH   3  11
HETATM   11  C   UNL     1      -6.676   6.536 -32.340  1.00  0.00     0.156 C 
BRANCH  11  12
HETATM   12  C   UNL     1      -8.016   6.812 -32.994  1.00  0.00     0.223 C 
HETATM   13  N   UNL     1      -8.453   5.844 -33.874  1.00  0.00    -0.359 N 
HETATM   14  H   UNL     1      -7.920   4.977 -33.888  1.00  0.00     0.162 HD
HETATM   15  O   UNL     1      -8.663   7.821 -32.747  1.00  0.00    -0.273 OA
BRANCH  13  16
HETATM   16  C   UNL     1      -9.882   5.664 -34.165  1.00  0.00     0.150 C 
BRANCH  16  17
HETATM   17  C   UNL     1     -10.262   4.977 -35.494  1.00  0.00     0.254 C 
BRANCH  17  18
HETATM   18  N   UNL     1     -10.686   3.531 -35.293  1.00  0.00    -0.070 N 
HETATM   19  H   UNL     1     -10.179   2.989 -36.004  1.00  0.00     0.279 HD
HETATM   20  C   UNL     1     -10.322   2.992 -33.926  1.00  0.00     0.235 C 
HETATM   21  C   UNL     1     -10.701   1.521 -33.836  1.00  0.00     0.028 C 
HETATM   22  C   UNL     1     -12.177   1.298 -34.141  1.00  0.00     0.003 C 
HETATM   23  C   UNL     1     -12.550   1.898 -35.491  1.00  0.00     0.028 C 
HETATM   24  C   UNL     1     -12.168   3.368 -35.579  1.00  0.00     0.235 C 
ENDBRANCH  17  18
ENDBRANCH  16  17
ENDBRANCH  13  16
ENDBRANCH  11  12
ENDBRANCH   3  11
BRANCH   1  25
HETATM   25  C   UNL     1      -4.865   4.116 -33.121  1.00  0.00    -0.030 A 
HETATM   26  C   UNL     1      -3.600   4.402 -32.566  1.00  0.00     0.016 A 
HETATM   27  C   UNL     1      -2.575   4.956 -33.342  1.00  0.00    -0.061 A 
HETATM   28  C   UNL     1      -1.242   5.267 -32.723  1.00  0.00     0.048 C 
HETATM   29  C   UNL     1      -2.839   5.283 -34.673  1.00  0.00     0.007 A 
HETATM   30  C   UNL     1      -4.099   5.047 -35.224  1.00  0.00     0.001 A 
HETATM   31  C   UNL     1      -5.110   4.466 -34.458  1.00  0.00     0.009 A 
ENDBRANCH   1  25
BRANCH  10  32
HETATM   32  C   UNL     1      -4.854   1.216 -32.698  1.00  0.00     0.294 C 
HETATM   33  O   UNL     1      -3.674   0.926 -32.649  1.00  0.00    -0.259 OA
BRANCH  32  34
HETATM   34  O   UNL     1      -5.812   0.735 -33.520  1.00  0.00    -0.313 OA
BRANCH  34  35
HETATM   35  C   UNL     1      -6.272  -0.613 -33.289  1.00  0.00     0.124 C 
HETATM   36  C   UNL     1      -7.776  -0.608 -33.537  1.00  0.00     0.040 C 
HETATM   37  C   UNL     1      -5.573  -1.555 -34.261  1.00  0.00     0.040 C 
ENDBRANCH  34  35
ENDBRANCH  32  34
ENDBRANCH  10  32
TORSDOF 9
ENDMDL
