MODEL 1
REMARK VINA RESULT:      -6.8      0.000      0.000
REMARK  11 active torsions:
REMARK  status: ('A' for Active; 'I' for Inactive)
REMARK    1  A    between atoms: C_1  and  C_17 
REMARK    2  A    between atoms: C_1  and  S_18 
REMARK    3  A    between atoms: C_2  and  N_23 
REMARK    4  A    between atoms: C_3  and  C_13 
REMARK    5  A    between atoms: C_6  and  S_18 
REMARK    6  A    between atoms: C_6  and  S_19 
REMARK    7  A    between atoms: C_7  and  C_20 
REMARK    8  A    between atoms: C_7  and  C_21 
REMARK    9  A    between atoms: C_9  and  C_24 
REMARK   10  A    between atoms: C_16  and  C_17 
REMARK   11  A    between atoms: S_19  and  C_20 
ROOT
HETATM    1  C           1      -3.901   3.570 -31.626  0.00  0.00     0.092 C 
HETATM    2  C           1      -6.071   3.116 -32.561  0.00  0.00     0.156 C 
HETATM    3  C           1      -4.649   4.873 -31.646  0.00  0.00     0.127 C 
HETATM    4  C           1      -5.700   4.625 -32.758  0.00  0.00     0.136 C 
HETATM    5  C           1      -5.094   4.819 -34.111  0.00  0.00     0.079 C 
HETATM    6  N           1      -4.572   5.138 -35.097  0.00  0.00    -0.196 NA
HETATM    7  C           1      -4.054   6.323 -31.878  0.00  0.00     0.248 C 
HETATM    8  C           1      -6.424   7.002 -32.181  0.00  0.00     0.105 C 
HETATM    9  N           1      -4.687   2.630 -32.084  0.00  0.00    -0.350 N 
HETATM   10  N           1      -5.143   7.416 -31.626  0.00  0.00    -0.040 N 
HETATM   11  C           1      -7.489   8.071 -32.165  0.00  0.00     0.075 C 
HETATM   12  C           1      -6.701   5.761 -32.649  0.00  0.00     0.036 C 
HETATM   13  H           1      -4.399   1.643 -32.133  0.00  0.00     0.163 HD
HETATM   14  H           1      -4.836   8.281 -32.130  0.00  0.00     0.284 HD
HETATM   15  H           1      -5.229   7.657 -30.617  0.00  0.00     0.284 HD
ENDROOT
BRANCH   2  16
HETATM   16  S           1      -6.461   2.270 -34.129  0.00  0.00    -0.125 SA
BRANCH  16  17
HETATM   17  C           1      -5.993   0.548 -33.785  0.00  0.00     0.077 C 
BRANCH  17  18
HETATM   18  C           1      -6.731  -0.372 -34.770  0.00  0.00     0.010 C 
BRANCH  18  19
HETATM   19  C           1      -7.007  -1.755 -34.154  0.00  0.00    -0.004 C 
HETATM   20  C           1      -6.089  -2.835 -34.740  0.00  0.00     0.005 C 
ENDBRANCH  18  19
ENDBRANCH  17  18
ENDBRANCH  16  17
ENDBRANCH   2  16
BRANCH   2  21
HETATM   21  S           1      -7.272   2.928 -31.199  0.00  0.00    -0.125 SA
BRANCH  21  22
HETATM   22  C           1      -8.740   2.382 -32.127  0.00  0.00     0.077 C 
BRANCH  22  23
HETATM   23  C           1      -9.053   0.926 -31.743  0.00  0.00     0.010 C 
BRANCH  23  24
HETATM   24  C           1      -9.904   0.229 -32.817  0.00  0.00    -0.004 C 
HETATM   25  C           1     -10.113   1.121 -34.048  0.00  0.00     0.005 C 
ENDBRANCH  23  24
ENDBRANCH  22  23
ENDBRANCH  21  22
ENDBRANCH   2  21
BRANCH   3  26
HETATM   26  C           1      -5.291   5.156 -30.336  0.00  0.00     0.105 C 
HETATM   27  N           1      -5.348   4.646 -29.297  0.00  0.00    -0.151 N 
ENDBRANCH   3  26
BRANCH   1  28
HETATM   28  N           1      -2.739   3.383 -31.156  0.00  0.00    -0.388 N 
HETATM   29  H           1      -2.282   4.113 -30.555  0.00  0.00     0.157 HD
HETATM   30  H           1      -2.214   2.498 -31.358  0.00  0.00     0.157 HD
ENDBRANCH   1  28
BRANCH   7  31
HETATM   31  C           1      -2.789   6.584 -31.076  0.00  0.00    -0.026 A 
HETATM   32  C           1      -2.801   6.920 -29.772  0.00  0.00     0.009 A 
HETATM   33  C           1      -1.660   7.134 -29.097  0.00  0.00     0.001 A 
HETATM   34  C           1      -0.477   7.020 -29.718  0.00  0.00     0.000 A 
HETATM   35  C           1      -0.446   6.698 -31.018  0.00  0.00     0.001 A 
HETATM   36  C           1      -1.592   6.489 -31.684  0.00  0.00     0.009 A 
ENDBRANCH   7  31
TORSDOF 11
ENDMDL
MODEL 2
REMARK VINA RESULT:      -6.8      2.766      6.781
REMARK  11 active torsions:
REMARK  status: ('A' for Active; 'I' for Inactive)
REMARK    1  A    between atoms: C_1  and  C_17 
REMARK    2  A    between atoms: C_1  and  S_18 
REMARK    3  A    between atoms: C_2  and  N_23 
REMARK    4  A    between atoms: C_3  and  C_13 
REMARK    5  A    between atoms: C_6  and  S_18 
REMARK    6  A    between atoms: C_6  and  S_19 
REMARK    7  A    between atoms: C_7  and  C_20 
REMARK    8  A    between atoms: C_7  and  C_21 
REMARK    9  A    between atoms: C_9  and  C_24 
REMARK   10  A    between atoms: C_16  and  C_17 
REMARK   11  A    between atoms: S_19  and  C_20 
ROOT
HETATM    1  C           1      -6.936   1.491 -33.676  0.00  0.00     0.092 C 
HETATM    2  C           1      -4.933   1.982 -32.435  0.00  0.00     0.156 C 
HETATM    3  C           1      -7.346   2.327 -32.497  0.00  0.00     0.127 C 
HETATM    4  C           1      -6.187   2.073 -31.500  0.00  0.00     0.136 C 
HETATM    5  C           1      -6.376   0.771 -30.789  0.00  0.00     0.079 C 
HETATM    6  N           1      -6.693  -0.172 -30.192  0.00  0.00    -0.196 NA
HETATM    7  C           1      -8.698   2.238 -31.675  0.00  0.00     0.248 C 
HETATM    8  C           1      -7.521   3.661 -30.015  0.00  0.00     0.105 C 
HETATM    9  N           1      -5.636   1.345 -33.651  0.00  0.00    -0.350 N 
HETATM   10  N           1      -8.806   3.417 -30.655  0.00  0.00    -0.040 N 
HETATM   11  C           1      -7.566   4.645 -28.871  0.00  0.00     0.075 C 
HETATM   12  C           1      -6.346   3.106 -30.400  0.00  0.00     0.036 C 
HETATM   13  H           1      -5.124   0.833 -34.383  0.00  0.00     0.163 HD
HETATM   14  H           1      -9.486   3.125 -29.915  0.00  0.00     0.284 HD
HETATM   15  H           1      -9.178   4.284 -31.096  0.00  0.00     0.284 HD
ENDROOT
BRANCH   2  16
HETATM   16  S           1      -3.676   0.810 -31.826  0.00  0.00    -0.125 SA
BRANCH  16  17
HETATM   17  C           1      -3.520  -0.365 -33.203  0.00  0.00     0.077 C 
BRANCH  17  18
HETATM   18  C           1      -4.285  -1.651 -32.847  0.00  0.00     0.010 C 
BRANCH  18  19
HETATM   19  C           1      -4.748  -2.400 -34.109  0.00  0.00    -0.004 C 
HETATM   20  C           1      -6.254  -2.237 -34.350  0.00  0.00     0.005 C 
ENDBRANCH  18  19
ENDBRANCH  17  18
ENDBRANCH  16  17
ENDBRANCH   2  16
BRANCH   2  21
HETATM   21  S           1      -4.355   3.653 -32.889  0.00  0.00    -0.125 SA
BRANCH  21  22
HETATM   22  C           1      -2.877   3.788 -31.834  0.00  0.00     0.077 C 
BRANCH  22  23
HETATM   23  C           1      -1.813   4.612 -32.579  0.00  0.00     0.010 C 
BRANCH  23  24
HETATM   24  C           1      -2.183   4.810 -34.057  0.00  0.00    -0.004 C 
HETATM   25  C           1      -1.087   5.561 -34.826  0.00  0.00     0.005 C 
ENDBRANCH  23  24
ENDBRANCH  22  23
ENDBRANCH  21  22
ENDBRANCH   2  21
BRANCH   3  26
HETATM   26  C           1      -7.456   3.764 -32.858  0.00  0.00     0.105 C 
HETATM   27  N           1      -7.463   4.392 -33.832  0.00  0.00    -0.151 N 
ENDBRANCH   3  26
BRANCH   1  28
HETATM   28  N           1      -7.699   1.074 -34.598  0.00  0.00    -0.388 N 
HETATM   29  H           1      -8.579   1.594 -34.839  0.00  0.00     0.157 HD
HETATM   30  H           1      -7.466   0.204 -35.135  0.00  0.00     0.157 HD
ENDBRANCH   1  28
BRANCH   7  31
HETATM   31  C           1      -9.930   2.140 -32.562  0.00  0.00    -0.026 A 
HETATM   32  C           1     -10.599   3.216 -33.014  0.00  0.00     0.009 A 
HETATM   33  C           1     -11.679   3.087 -33.803  0.00  0.00     0.001 A 
HETATM   34  C           1     -12.114   1.868 -34.154  0.00  0.00     0.000 A 
HETATM   35  C           1     -11.467   0.784 -33.706  0.00  0.00     0.001 A 
HETATM   36  C           1     -10.392   0.925 -32.915  0.00  0.00     0.009 A 
ENDBRANCH   7  31
TORSDOF 11
ENDMDL
MODEL 3
REMARK VINA RESULT:      -6.7      2.437      3.575
REMARK  11 active torsions:
REMARK  status: ('A' for Active; 'I' for Inactive)
REMARK    1  A    between atoms: C_1  and  C_17 
REMARK    2  A    between atoms: C_1  and  S_18 
REMARK    3  A    between atoms: C_2  and  N_23 
REMARK    4  A    between atoms: C_3  and  C_13 
REMARK    5  A    between atoms: C_6  and  S_18 
REMARK    6  A    between atoms: C_6  and  S_19 
REMARK    7  A    between atoms: C_7  and  C_20 
REMARK    8  A    between atoms: C_7  and  C_21 
REMARK    9  A    between atoms: C_9  and  C_24 
REMARK   10  A    between atoms: C_16  and  C_17 
REMARK   11  A    between atoms: S_19  and  C_20 
ROOT
HETATM    1  C           1      -7.135   2.653 -30.331  0.00  0.00     0.092 C 
HETATM    2  C           1      -6.819   1.244 -32.257  0.00  0.00     0.156 C 
HETATM    3  C           1      -6.427   3.480 -31.367  0.00  0.00     0.127 C 
HETATM    4  C           1      -5.756   2.394 -32.245  0.00  0.00     0.136 C 
HETATM    5  C           1      -4.495   1.903 -31.608  0.00  0.00     0.079 C 
HETATM    6  N           1      -3.467   1.704 -31.107  0.00  0.00    -0.196 NA
HETATM    7  C           1      -5.350   4.617 -31.122  0.00  0.00     0.248 C 
HETATM    8  C           1      -4.908   4.411 -33.557  0.00  0.00     0.105 C 
HETATM    9  N           1      -7.373   1.468 -30.834  0.00  0.00    -0.350 N 
HETATM   10  N           1      -5.013   5.358 -32.456  0.00  0.00    -0.040 N 
HETATM   11  C           1      -4.391   5.002 -34.846  0.00  0.00     0.075 C 
HETATM   12  C           1      -5.269   3.106 -33.494  0.00  0.00     0.036 C 
HETATM   13  H           1      -7.880   0.739 -30.315  0.00  0.00     0.163 HD
HETATM   14  H           1      -4.078   5.812 -32.330  0.00  0.00     0.284 HD
HETATM   15  H           1      -5.700   6.111 -32.669  0.00  0.00     0.284 HD
ENDROOT
BRANCH   2  16
HETATM   16  S           1      -6.069  -0.417 -32.319  0.00  0.00    -0.125 SA
BRANCH  16  17
HETATM   17  C           1      -5.966  -0.746 -34.103  0.00  0.00     0.077 C 
BRANCH  17  18
HETATM   18  C           1      -6.752  -2.030 -34.416  0.00  0.00     0.010 C 
BRANCH  18  19
HETATM   19  C           1      -5.820  -3.166 -34.873  0.00  0.00    -0.004 C 
HETATM   20  C           1      -6.604  -4.421 -35.275  0.00  0.00     0.005 C 
ENDBRANCH  18  19
ENDBRANCH  17  18
ENDBRANCH  16  17
ENDBRANCH   2  16
BRANCH   2  21
HETATM   21  S           1      -8.133   1.604 -33.472  0.00  0.00    -0.125 SA
BRANCH  21  22
HETATM   22  C           1      -9.609   1.165 -32.501  0.00  0.00     0.077 C 
BRANCH  22  23
HETATM   23  C           1     -10.681   0.613 -33.457  0.00  0.00     0.010 C 
BRANCH  23  24
HETATM   24  C           1     -11.618   1.724 -33.957  0.00  0.00    -0.004 C 
HETATM   25  C           1     -12.840   1.154 -34.690  0.00  0.00     0.005 C 
ENDBRANCH  23  24
ENDBRANCH  22  23
ENDBRANCH  21  22
ENDBRANCH   2  21
BRANCH   3  26
HETATM   26  C           1      -7.380   4.309 -32.150  0.00  0.00     0.105 C 
HETATM   27  N           1      -8.486   4.640 -32.055  0.00  0.00    -0.151 N 
ENDBRANCH   3  26
BRANCH   1  28
HETATM   28  N           1      -7.529   3.054 -29.195  0.00  0.00    -0.388 N 
HETATM   29  H           1      -7.313   4.029 -28.869  0.00  0.00     0.157 HD
HETATM   30  H           1      -8.075   2.421 -28.562  0.00  0.00     0.157 HD
ENDBRANCH   1  28
BRANCH   7  31
HETATM   31  C           1      -5.745   5.584 -30.017  0.00  0.00    -0.026 A 
HETATM   32  C           1      -6.432   6.720 -30.244  0.00  0.00     0.009 A 
HETATM   33  C           1      -6.769   7.545 -29.239  0.00  0.00     0.001 A 
HETATM   34  C           1      -6.420   7.249 -27.979  0.00  0.00     0.000 A 
HETATM   35  C           1      -5.727   6.128 -27.734  0.00  0.00     0.001 A 
HETATM   36  C           1      -5.393   5.313 -28.746  0.00  0.00     0.009 A 
ENDBRANCH   7  31
TORSDOF 11
ENDMDL
MODEL 4
REMARK VINA RESULT:      -6.7      3.404      7.957
REMARK  11 active torsions:
REMARK  status: ('A' for Active; 'I' for Inactive)
REMARK    1  A    between atoms: C_1  and  C_17 
REMARK    2  A    between atoms: C_1  and  S_18 
REMARK    3  A    between atoms: C_2  and  N_23 
REMARK    4  A    between atoms: C_3  and  C_13 
REMARK    5  A    between atoms: C_6  and  S_18 
REMARK    6  A    between atoms: C_6  and  S_19 
REMARK    7  A    between atoms: C_7  and  C_20 
REMARK    8  A    between atoms: C_7  and  C_21 
REMARK    9  A    between atoms: C_9  and  C_24 
REMARK   10  A    between atoms: C_16  and  C_17 
REMARK   11  A    between atoms: S_19  and  C_20 
ROOT
HETATM    1  C           1      -9.716   3.182 -31.332  0.00  0.00     0.092 C 
HETATM    2  C           1      -7.318   3.383 -31.340  0.00  0.00     0.156 C 
HETATM    3  C           1      -9.213   2.368 -32.491  0.00  0.00     0.127 C 
HETATM    4  C           1      -7.838   3.023 -32.774  0.00  0.00     0.136 C 
HETATM    5  C           1      -8.003   4.275 -33.575  0.00  0.00     0.079 C 
HETATM    6  N           1      -8.227   5.138 -34.317  0.00  0.00    -0.196 NA
HETATM    7  C           1      -9.921   2.142 -33.891  0.00  0.00     0.248 C 
HETATM    8  C           1      -7.715   1.258 -34.611  0.00  0.00     0.105 C 
HETATM    9  N           1      -8.689   3.690 -30.702  0.00  0.00    -0.350 N 
HETATM   10  N           1      -9.155   1.073 -34.734  0.00  0.00    -0.040 N 
HETATM   11  C           1      -6.891   0.403 -35.542  0.00  0.00     0.075 C 
HETATM   12  C           1      -7.113   2.086 -33.723  0.00  0.00     0.036 C 
HETATM   13  H           1      -8.789   4.260 -29.851  0.00  0.00     0.163 HD
HETATM   14  H           1      -9.415   1.224 -35.736  0.00  0.00     0.284 HD
HETATM   15  H           1      -9.433   0.102 -34.482  0.00  0.00     0.284 HD
ENDROOT
BRANCH   2  16
HETATM   16  S           1      -6.322   4.910 -31.308  0.00  0.00    -0.125 SA
BRANCH  16  17
HETATM   17  C           1      -7.423   6.092 -30.476  0.00  0.00     0.077 C 
BRANCH  17  18
HETATM   18  C           1      -6.743   6.579 -29.186  0.00  0.00     0.010 C 
BRANCH  18  19
HETATM   19  C           1      -6.362   5.404 -28.269  0.00  0.00    -0.004 C 
HETATM   20  C           1      -5.325   5.814 -27.215  0.00  0.00     0.005 C 
ENDBRANCH  18  19
ENDBRANCH  17  18
ENDBRANCH  16  17
ENDBRANCH   2  16
BRANCH   2  21
HETATM   21  S           1      -6.601   1.911 -30.535  0.00  0.00    -0.125 SA
BRANCH  21  22
HETATM   22  C           1      -4.829   2.196 -30.844  0.00  0.00     0.077 C 
BRANCH  22  23
HETATM   23  C           1      -4.194   0.880 -31.323  0.00  0.00     0.010 C 
BRANCH  23  24
HETATM   24  C           1      -5.246  -0.228 -31.489  0.00  0.00    -0.004 C 
HETATM   25  C           1      -4.957  -1.112 -32.710  0.00  0.00     0.005 C 
ENDBRANCH  23  24
ENDBRANCH  22  23
ENDBRANCH  21  22
ENDBRANCH   2  21
BRANCH   3  26
HETATM   26  C           1      -9.075   0.933 -32.132  0.00  0.00     0.105 C 
HETATM   27  N           1      -9.376   0.252 -31.244  0.00  0.00    -0.151 N 
ENDBRANCH   3  26
BRANCH   1  28
HETATM   28  N           1     -10.924   3.285 -30.960  0.00  0.00    -0.388 N 
HETATM   29  H           1     -11.695   2.841 -31.519  0.00  0.00     0.157 HD
HETATM   30  H           1     -11.173   3.816 -30.091  0.00  0.00     0.157 HD
ENDBRANCH   1  28
BRANCH   7  31
HETATM   31  C           1     -11.401   1.813 -33.764  0.00  0.00    -0.026 A 
HETATM   32  C           1     -11.869   0.554 -33.676  0.00  0.00     0.009 A 
HETATM   33  C           1     -13.184   0.306 -33.557  0.00  0.00     0.001 A 
HETATM   34  C           1     -14.062   1.319 -33.528  0.00  0.00     0.000 A 
HETATM   35  C           1     -13.615   2.579 -33.625  0.00  0.00     0.001 A 
HETATM   36  C           1     -12.300   2.815 -33.747  0.00  0.00     0.009 A 
ENDBRANCH   7  31
TORSDOF 11
ENDMDL
MODEL 5
REMARK VINA RESULT:      -6.7     17.598     20.510
REMARK  11 active torsions:
REMARK  status: ('A' for Active; 'I' for Inactive)
REMARK    1  A    between atoms: C_1  and  C_17 
REMARK    2  A    between atoms: C_1  and  S_18 
REMARK    3  A    between atoms: C_2  and  N_23 
REMARK    4  A    between atoms: C_3  and  C_13 
REMARK    5  A    between atoms: C_6  and  S_18 
REMARK    6  A    between atoms: C_6  and  S_19 
REMARK    7  A    between atoms: C_7  and  C_20 
REMARK    8  A    between atoms: C_7  and  C_21 
REMARK    9  A    between atoms: C_9  and  C_24 
REMARK   10  A    between atoms: C_16  and  C_17 
REMARK   11  A    between atoms: S_19  and  C_20 
ROOT
HETATM    1  C           1      -5.898 -15.399 -40.321  0.00  0.00     0.092 C 
HETATM    2  C           1      -6.213 -14.231 -38.241  0.00  0.00     0.156 C 
HETATM    3  C           1      -4.588 -14.744 -39.985  0.00  0.00     0.127 C 
HETATM    4  C           1      -5.033 -13.591 -39.049  0.00  0.00     0.136 C 
HETATM    5  C           1      -5.542 -12.431 -39.843  0.00  0.00     0.079 C 
HETATM    6  N           1      -5.772 -11.540 -40.550  0.00  0.00    -0.196 NA
HETATM    7  C           1      -3.523 -14.143 -40.993  0.00  0.00     0.248 C 
HETATM    8  C           1      -2.532 -13.095 -38.971  0.00  0.00     0.105 C 
HETATM    9  N           1      -6.749 -15.147 -39.360  0.00  0.00    -0.350 N 
HETATM   10  N           1      -2.215 -13.735 -40.241  0.00  0.00    -0.040 N 
HETATM   11  C           1      -1.347 -12.487 -38.263  0.00  0.00     0.075 C 
HETATM   12  C           1      -3.764 -13.057 -38.409  0.00  0.00     0.036 C 
HETATM   13  H           1      -7.707 -15.523 -39.358  0.00  0.00     0.163 HD
HETATM   14  H           1      -1.719 -13.035 -40.841  0.00  0.00     0.284 HD
HETATM   15  H           1      -1.573 -14.543 -40.107  0.00  0.00     0.284 HD
ENDROOT
BRANCH   2  16
HETATM   16  S           1      -7.517 -13.029 -37.817  0.00  0.00    -0.125 SA
BRANCH  16  17
HETATM   17  C           1      -8.944 -13.631 -38.766  0.00  0.00     0.077 C 
BRANCH  17  18
HETATM   18  C           1      -9.201 -12.671 -39.939  0.00  0.00     0.010 C 
BRANCH  18  19
HETATM   19  C           1     -10.705 -12.498 -40.209  0.00  0.00    -0.004 C 
HETATM   20  C           1     -11.051 -11.060 -40.617  0.00  0.00     0.005 C 
ENDBRANCH  18  19
ENDBRANCH  17  18
ENDBRANCH  16  17
ENDBRANCH   2  16
BRANCH   2  21
HETATM   21  S           1      -5.568 -15.264 -36.882  0.00  0.00    -0.125 SA
BRANCH  21  22
HETATM   22  C           1      -7.072 -15.466 -35.877  0.00  0.00     0.077 C 
BRANCH  22  23
HETATM   23  C           1      -6.740 -15.123 -34.415  0.00  0.00     0.010 C 
BRANCH  23  24
HETATM   24  C           1      -6.959 -13.631 -34.121  0.00  0.00    -0.004 C 
HETATM   25  C           1      -5.660 -12.936 -33.693  0.00  0.00     0.005 C 
ENDBRANCH  23  24
ENDBRANCH  22  23
ENDBRANCH  21  22
ENDBRANCH   2  21
BRANCH   3  26
HETATM   26  C           1      -3.666 -15.685 -39.298  0.00  0.00     0.105 C 
HETATM   27  N           1      -3.618 -16.826 -39.101  0.00  0.00    -0.151 N 
ENDBRANCH   3  26
BRANCH   1  28
HETATM   28  N           1      -6.123 -16.151 -41.316  0.00  0.00    -0.388 N 
HETATM   29  H           1      -5.698 -17.111 -41.367  0.00  0.00     0.157 HD
HETATM   30  H           1      -6.737 -15.830 -42.104  0.00  0.00     0.157 HD
ENDBRANCH   1  28
BRANCH   7  31
HETATM   31  C           1      -3.238 -15.058 -42.174  0.00  0.00    -0.026 A 
HETATM   32  C           1      -2.359 -16.076 -42.121  0.00  0.00     0.009 A 
HETATM   33  C           1      -2.141 -16.867 -43.184  0.00  0.00     0.001 A 
HETATM   34  C           1      -2.801 -16.651 -44.331  0.00  0.00     0.000 A 
HETATM   35  C           1      -3.672 -15.635 -44.407  0.00  0.00     0.001 A 
HETATM   36  C           1      -3.879 -14.849 -43.340  0.00  0.00     0.009 A 
ENDBRANCH   7  31
TORSDOF 11
ENDMDL
MODEL 6
REMARK VINA RESULT:      -6.5      2.859      6.586
REMARK  11 active torsions:
REMARK  status: ('A' for Active; 'I' for Inactive)
REMARK    1  A    between atoms: C_1  and  C_17 
REMARK    2  A    between atoms: C_1  and  S_18 
REMARK    3  A    between atoms: C_2  and  N_23 
REMARK    4  A    between atoms: C_3  and  C_13 
REMARK    5  A    between atoms: C_6  and  S_18 
REMARK    6  A    between atoms: C_6  and  S_19 
REMARK    7  A    between atoms: C_7  and  C_20 
REMARK    8  A    between atoms: C_7  and  C_21 
REMARK    9  A    between atoms: C_9  and  C_24 
REMARK   10  A    between atoms: C_16  and  C_17 
REMARK   11  A    between atoms: S_19  and  C_20 
ROOT
HETATM    1  C           1      -9.373   1.706 -32.033  0.00  0.00     0.092 C 
HETATM    2  C           1      -9.826   4.022 -31.561  0.00  0.00     0.156 C 
HETATM    3  C           1      -8.201   2.494 -32.546  0.00  0.00     0.127 C 
HETATM    4  C           1      -8.822   3.897 -32.758  0.00  0.00     0.136 C 
HETATM    5  C           1      -9.574   3.954 -34.049  0.00  0.00     0.079 C 
HETATM    6  N           1      -9.997   3.936 -35.130  0.00  0.00    -0.196 NA
HETATM    7  C           1      -7.310   2.179 -33.818  0.00  0.00     0.248 C 
HETATM    8  C           1      -6.461   4.494 -33.518  0.00  0.00     0.105 C 
HETATM    9  N           1     -10.219   2.532 -31.474  0.00  0.00    -0.350 N 
HETATM   10  N           1      -6.076   3.138 -33.883  0.00  0.00    -0.040 N 
HETATM   11  C           1      -5.389   5.532 -33.741  0.00  0.00     0.075 C 
HETATM   12  C           1      -7.656   4.843 -32.983  0.00  0.00     0.036 C 
HETATM   13  H           1     -11.086   2.213 -31.022  0.00  0.00     0.163 HD
HETATM   14  H           1      -5.747   3.151 -34.876  0.00  0.00     0.284 HD
HETATM   15  H           1      -5.287   2.798 -33.295  0.00  0.00     0.284 HD
ENDROOT
BRANCH   2  16
HETATM   16  S           1     -11.319   4.979 -31.984  0.00  0.00    -0.125 SA
BRANCH  16  17
HETATM   17  C           1     -12.641   3.739 -31.864  0.00  0.00     0.077 C 
BRANCH  17  18
HETATM   18  C           1     -13.109   3.374 -33.282  0.00  0.00     0.010 C 
BRANCH  18  19
HETATM   19  C           1     -12.982   1.864 -33.548  0.00  0.00    -0.004 C 
HETATM   20  C           1     -12.679   1.567 -35.023  0.00  0.00     0.005 C 
ENDBRANCH  18  19
ENDBRANCH  17  18
ENDBRANCH  16  17
ENDBRANCH   2  16
BRANCH   2  21
HETATM   21  S           1      -8.943   4.496 -30.036  0.00  0.00    -0.125 SA
BRANCH  21  22
HETATM   22  C           1      -9.278   6.286 -30.004  0.00  0.00     0.077 C 
BRANCH  22  23
HETATM   23  C           1      -7.940   7.036 -29.890  0.00  0.00     0.010 C 
BRANCH  23  24
HETATM   24  C           1      -6.776   6.075 -29.604  0.00  0.00    -0.004 C 
HETATM   25  C           1      -5.452   6.592 -30.185  0.00  0.00     0.005 C 
ENDBRANCH  23  24
ENDBRANCH  22  23
ENDBRANCH  21  22
ENDBRANCH   2  21
BRANCH   3  26
HETATM   26  C           1      -7.090   2.527 -31.560  0.00  0.00     0.105 C 
HETATM   27  N           1      -6.843   2.018 -30.548  0.00  0.00    -0.151 N 
ENDBRANCH   3  26
BRANCH   1  28
HETATM   28  N           1      -9.487   0.443 -32.045  0.00  0.00    -0.388 N 
HETATM   29  H           1      -8.995  -0.145 -31.328  0.00  0.00     0.157 HD
HETATM   30  H           1     -10.075  -0.034 -32.771  0.00  0.00     0.157 HD
ENDBRANCH   1  28
BRANCH   7  31
HETATM   31  C           1      -6.899   0.718 -33.912  0.00  0.00    -0.026 A 
HETATM   32  C           1      -5.880   0.193 -33.208  0.00  0.00     0.009 A 
HETATM   33  C           1      -5.554  -1.106 -33.313  0.00  0.00     0.001 A 
HETATM   34  C           1      -6.245  -1.910 -34.134  0.00  0.00     0.000 A 
HETATM   35  C           1      -7.257  -1.403 -34.853  0.00  0.00     0.001 A 
HETATM   36  C           1      -7.572  -0.103 -34.742  0.00  0.00     0.009 A 
ENDBRANCH   7  31
TORSDOF 11
ENDMDL
MODEL 7
REMARK VINA RESULT:      -6.5      1.341      3.092
REMARK  11 active torsions:
REMARK  status: ('A' for Active; 'I' for Inactive)
REMARK    1  A    between atoms: C_1  and  C_17 
REMARK    2  A    between atoms: C_1  and  S_18 
REMARK    3  A    between atoms: C_2  and  N_23 
REMARK    4  A    between atoms: C_3  and  C_13 
REMARK    5  A    between atoms: C_6  and  S_18 
REMARK    6  A    between atoms: C_6  and  S_19 
REMARK    7  A    between atoms: C_7  and  C_20 
REMARK    8  A    between atoms: C_7  and  C_21 
REMARK    9  A    between atoms: C_9  and  C_24 
REMARK   10  A    between atoms: C_16  and  C_17 
REMARK   11  A    between atoms: S_19  and  C_20 
ROOT
HETATM    1  C           1      -4.685   4.379 -33.394  0.00  0.00     0.092 C 
HETATM    2  C           1      -6.785   3.461 -32.661  0.00  0.00     0.156 C 
HETATM    3  C           1      -4.823   4.715 -31.936  0.00  0.00     0.127 C 
HETATM    4  C           1      -6.358   4.649 -31.733  0.00  0.00     0.136 C 
HETATM    5  C           1      -7.008   5.911 -32.204  0.00  0.00     0.079 C 
HETATM    6  N           1      -7.392   6.977 -32.455  0.00  0.00    -0.196 NA
HETATM    7  C           1      -4.307   6.016 -31.193  0.00  0.00     0.248 C 
HETATM    8  C           1      -5.760   5.254 -29.328  0.00  0.00     0.105 C 
HETATM    9  N           1      -5.725   3.675 -33.761  0.00  0.00    -0.350 N 
HETATM   10  N           1      -4.483   5.878 -29.646  0.00  0.00    -0.040 N 
HETATM   11  C           1      -6.112   5.257 -27.861  0.00  0.00     0.075 C 
HETATM   12  C           1      -6.584   4.671 -30.232  0.00  0.00     0.036 C 
HETATM   13  H           1      -5.832   3.303 -34.714  0.00  0.00     0.163 HD
HETATM   14  H           1      -4.487   6.846 -29.247  0.00  0.00     0.284 HD
HETATM   15  H           1      -3.692   5.362 -29.207  0.00  0.00     0.284 HD
ENDROOT
BRANCH   2  16
HETATM   16  S           1      -8.432   3.699 -33.406  0.00  0.00    -0.125 SA
BRANCH  16  17
HETATM   17  C           1      -9.472   2.548 -32.459  0.00  0.00     0.077 C 
BRANCH  17  18
HETATM   18  C           1     -10.724   2.215 -33.287  0.00  0.00     0.010 C 
BRANCH  18  19
HETATM   19  C           1     -10.856   0.701 -33.528  0.00  0.00    -0.004 C 
HETATM   20  C           1      -9.934  -0.107 -32.605  0.00  0.00     0.005 C 
ENDBRANCH  18  19
ENDBRANCH  17  18
ENDBRANCH  16  17
ENDBRANCH   2  16
BRANCH   2  21
HETATM   21  S           1      -6.473   1.864 -31.835  0.00  0.00    -0.125 SA
BRANCH  21  22
HETATM   22  C           1      -5.721   0.926 -33.202  0.00  0.00     0.077 C 
BRANCH  22  23
HETATM   23  C           1      -6.345  -0.479 -33.238  0.00  0.00     0.010 C 
BRANCH  23  24
HETATM   24  C           1      -6.816  -0.854 -34.652  0.00  0.00    -0.004 C 
HETATM   25  C           1      -7.488   0.330 -35.362  0.00  0.00     0.005 C 
ENDBRANCH  23  24
ENDBRANCH  22  23
ENDBRANCH  21  22
ENDBRANCH   2  21
BRANCH   3  26
HETATM   26  C           1      -4.113   3.732 -31.079  0.00  0.00     0.105 C 
HETATM   27  N           1      -3.314   2.905 -31.226  0.00  0.00    -0.151 N 
ENDBRANCH   3  26
BRANCH   1  28
HETATM   28  N           1      -3.687   4.643 -34.130  0.00  0.00    -0.388 N 
HETATM   29  H           1      -3.530   4.118 -35.026  0.00  0.00     0.157 HD
HETATM   30  H           1      -3.003   5.390 -33.858  0.00  0.00     0.157 HD
ENDBRANCH   1  28
BRANCH   7  31
HETATM   31  C           1      -2.884   6.395 -31.572  0.00  0.00    -0.026 A 
HETATM   32  C           1      -2.586   7.178 -32.625  0.00  0.00     0.009 A 
HETATM   33  C           1      -1.316   7.495 -32.922  0.00  0.00     0.001 A 
HETATM   34  C           1      -0.311   7.030 -32.167  0.00  0.00     0.000 A 
HETATM   35  C           1      -0.586   6.240 -31.120  0.00  0.00     0.001 A 
HETATM   36  C           1      -1.859   5.926 -30.835  0.00  0.00     0.009 A 
ENDBRANCH   7  31
TORSDOF 11
ENDMDL
MODEL 8
REMARK VINA RESULT:      -6.4      2.643      7.015
REMARK  11 active torsions:
REMARK  status: ('A' for Active; 'I' for Inactive)
REMARK    1  A    between atoms: C_1  and  C_17 
REMARK    2  A    between atoms: C_1  and  S_18 
REMARK    3  A    between atoms: C_2  and  N_23 
REMARK    4  A    between atoms: C_3  and  C_13 
REMARK    5  A    between atoms: C_6  and  S_18 
REMARK    6  A    between atoms: C_6  and  S_19 
REMARK    7  A    between atoms: C_7  and  C_20 
REMARK    8  A    between atoms: C_7  and  C_21 
REMARK    9  A    between atoms: C_9  and  C_24 
REMARK   10  A    between atoms: C_16  and  C_17 
REMARK   11  A    between atoms: S_19  and  C_20 
ROOT
HETATM    1  C           1      -8.019   1.072 -34.711  0.00  0.00     0.092 C 
HETATM    2  C           1      -8.524   3.029 -33.405  0.00  0.00     0.156 C 
HETATM    3  C           1      -7.439   0.846 -33.343  0.00  0.00     0.127 C 
HETATM    4  C           1      -7.269   2.296 -32.821  0.00  0.00     0.136 C 
HETATM    5  C           1      -6.025   2.915 -33.374  0.00  0.00     0.079 C 
HETATM    6  N           1      -4.972   3.243 -33.734  0.00  0.00    -0.196 NA
HETATM    7  C           1      -6.115   0.058 -32.976  0.00  0.00     0.248 C 
HETATM    8  C           1      -6.370   1.118 -30.744  0.00  0.00     0.105 C 
HETATM    9  N           1      -8.630   2.229 -34.720  0.00  0.00    -0.350 N 
HETATM   10  N           1      -5.979  -0.108 -31.427  0.00  0.00    -0.040 N 
HETATM   11  C           1      -6.086   1.128 -29.262  0.00  0.00     0.075 C 
HETATM   12  C           1      -6.977   2.175 -31.336  0.00  0.00     0.036 C 
HETATM   13  H           1      -9.133   2.582 -35.545  0.00  0.00     0.163 HD
HETATM   14  H           1      -4.968  -0.283 -31.222  0.00  0.00     0.284 HD
HETATM   15  H           1      -6.517  -0.925 -31.073  0.00  0.00     0.284 HD
ENDROOT
BRANCH   2  16
HETATM   16  S           1      -8.195   4.773 -33.827  0.00  0.00    -0.125 SA
BRANCH  16  17
HETATM   17  C           1      -8.745   5.658 -32.339  0.00  0.00     0.077 C 
BRANCH  17  18
HETATM   18  C           1      -7.517   5.983 -31.472  0.00  0.00     0.010 C 
BRANCH  18  19
HETATM   19  C           1      -6.363   6.550 -32.318  0.00  0.00    -0.004 C 
HETATM   20  C           1      -4.996   6.255 -31.688  0.00  0.00     0.005 C 
ENDBRANCH  18  19
ENDBRANCH  17  18
ENDBRANCH  16  17
ENDBRANCH   2  16
BRANCH   2  21
HETATM   21  S           1      -9.994   2.690 -32.380  0.00  0.00    -0.125 SA
BRANCH  21  22
HETATM   22  C           1     -11.319   2.978 -33.596  0.00  0.00     0.077 C 
BRANCH  22  23
HETATM   23  C           1     -12.527   2.101 -33.226  0.00  0.00     0.010 C 
BRANCH  23  24
HETATM   24  C           1     -12.798   1.032 -34.296  0.00  0.00    -0.004 C 
HETATM   25  C           1     -13.474  -0.212 -33.702  0.00  0.00     0.005 C 
ENDBRANCH  23  24
ENDBRANCH  22  23
ENDBRANCH  21  22
ENDBRANCH   2  21
BRANCH   3  26
HETATM   26  C           1      -8.357   0.056 -32.483  0.00  0.00     0.105 C 
HETATM   27  N           1      -9.449  -0.327 -32.543  0.00  0.00    -0.151 N 
ENDBRANCH   3  26
BRANCH   1  28
HETATM   28  N           1      -8.010   0.246 -35.672  0.00  0.00    -0.388 N 
HETATM   29  H           1      -8.121  -0.784 -35.493  0.00  0.00     0.157 HD
HETATM   30  H           1      -7.890   0.574 -36.661  0.00  0.00     0.157 HD
ENDBRANCH   1  28
BRANCH   7  31
HETATM   31  C           1      -5.992  -1.273 -33.702  0.00  0.00    -0.026 A 
HETATM   32  C           1      -7.049  -2.052 -33.995  0.00  0.00     0.009 A 
HETATM   33  C           1      -6.899  -3.217 -34.646  0.00  0.00     0.001 A 
HETATM   34  C           1      -5.678  -3.630 -35.016  0.00  0.00     0.000 A 
HETATM   35  C           1      -4.611  -2.873 -34.723  0.00  0.00     0.001 A 
HETATM   36  C           1      -4.773  -1.713 -34.070  0.00  0.00     0.009 A 
ENDBRANCH   7  31
TORSDOF 11
ENDMDL
MODEL 9
REMARK VINA RESULT:      -6.3      1.721      2.880
REMARK  11 active torsions:
REMARK  status: ('A' for Active; 'I' for Inactive)
REMARK    1  A    between atoms: C_1  and  C_17 
REMARK    2  A    between atoms: C_1  and  S_18 
REMARK    3  A    between atoms: C_2  and  N_23 
REMARK    4  A    between atoms: C_3  and  C_13 
REMARK    5  A    between atoms: C_6  and  S_18 
REMARK    6  A    between atoms: C_6  and  S_19 
REMARK    7  A    between atoms: C_7  and  C_20 
REMARK    8  A    between atoms: C_7  and  C_21 
REMARK    9  A    between atoms: C_9  and  C_24 
REMARK   10  A    between atoms: C_16  and  C_17 
REMARK   11  A    between atoms: S_19  and  C_20 
ROOT
HETATM    1  C           1      -6.106   3.933 -30.013  0.00  0.00     0.092 C 
HETATM    2  C           1      -6.209   2.236 -31.716  0.00  0.00     0.156 C 
HETATM    3  C           1      -5.496   4.522 -31.254  0.00  0.00     0.127 C 
HETATM    4  C           1      -5.061   3.254 -32.033  0.00  0.00     0.136 C 
HETATM    5  C           1      -3.765   2.728 -31.506  0.00  0.00     0.079 C 
HETATM    6  N           1      -2.694   2.493 -31.127  0.00  0.00    -0.196 NA
HETATM    7  C           1      -4.301   5.559 -31.344  0.00  0.00     0.248 C 
HETATM    8  C           1      -4.256   4.957 -33.753  0.00  0.00     0.105 C 
HETATM    9  N           1      -6.517   2.722 -30.285  0.00  0.00    -0.350 N 
HETATM   10  N           1      -4.109   6.060 -32.812  0.00  0.00    -0.040 N 
HETATM   11  C           1      -3.893   5.297 -35.178  0.00  0.00     0.075 C 
HETATM   12  C           1      -4.713   3.722 -33.435  0.00  0.00     0.036 C 
HETATM   13  H           1      -7.000   2.134 -29.591  0.00  0.00     0.163 HD
HETATM   14  H           1      -3.131   6.423 -32.890  0.00  0.00     0.284 HD
HETATM   15  H           1      -4.754   6.843 -33.045  0.00  0.00     0.284 HD
ENDROOT
BRANCH   2  16
HETATM   16  S           1      -5.621   0.512 -31.616  0.00  0.00    -0.125 SA
BRANCH  16  17
HETATM   17  C           1      -5.358   0.075 -33.360  0.00  0.00     0.077 C 
BRANCH  17  18
HETATM   18  C           1      -5.842  -1.365 -33.589  0.00  0.00     0.010 C 
BRANCH  18  19
HETATM   19  C           1      -7.009  -1.416 -34.590  0.00  0.00    -0.004 C 
HETATM   20  C           1      -7.160  -0.097 -35.360  0.00  0.00     0.005 C 
ENDBRANCH  18  19
ENDBRANCH  17  18
ENDBRANCH  16  17
ENDBRANCH   2  16
BRANCH   2  21
HETATM   21  S           1      -7.657   2.556 -32.780  0.00  0.00    -0.125 SA
BRANCH  21  22
HETATM   22  C           1      -8.975   1.793 -31.782  0.00  0.00     0.077 C 
BRANCH  22  23
HETATM   23  C           1      -9.258   0.385 -32.332  0.00  0.00     0.010 C 
BRANCH  23  24
HETATM   24  C           1     -10.619   0.318 -33.043  0.00  0.00    -0.004 C 
HETATM   25  C           1     -10.708   1.319 -34.203  0.00  0.00     0.005 C 
ENDBRANCH  23  24
ENDBRANCH  22  23
ENDBRANCH  21  22
ENDBRANCH   2  21
BRANCH   3  26
HETATM   26  C           1      -6.482   5.326 -32.020  0.00  0.00     0.105 C 
HETATM   27  N           1      -7.552   5.738 -31.847  0.00  0.00    -0.151 N 
ENDBRANCH   3  26
BRANCH   1  28
HETATM   28  N           1      -6.285   4.535 -28.912  0.00  0.00    -0.388 N 
HETATM   29  H           1      -6.351   5.583 -28.880  0.00  0.00     0.157 HD
HETATM   30  H           1      -6.371   3.998 -28.015  0.00  0.00     0.157 HD
ENDBRANCH   1  28
BRANCH   7  31
HETATM   31  C           1      -4.439   6.713 -30.363  0.00  0.00    -0.026 A 
HETATM   32  C           1      -5.211   7.790 -30.598  0.00  0.00     0.009 A 
HETATM   33  C           1      -5.312   8.785 -29.702  0.00  0.00     0.001 A 
HETATM   34  C           1      -4.635   8.723 -28.546  0.00  0.00     0.000 A 
HETATM   35  C           1      -3.852   7.663 -28.298  0.00  0.00     0.001 A 
HETATM   36  C           1      -3.756   6.676 -29.203  0.00  0.00     0.009 A 
ENDBRANCH   7  31
TORSDOF 11
ENDMDL
MODEL 10
REMARK VINA RESULT:      -6.3      2.532      7.413
REMARK  11 active torsions:
REMARK  status: ('A' for Active; 'I' for Inactive)
REMARK    1  A    between atoms: C_1  and  C_17 
REMARK    2  A    between atoms: C_1  and  S_18 
REMARK    3  A    between atoms: C_2  and  N_23 
REMARK    4  A    between atoms: C_3  and  C_13 
REMARK    5  A    between atoms: C_6  and  S_18 
REMARK    6  A    between atoms: C_6  and  S_19 
REMARK    7  A    between atoms: C_7  and  C_20 
REMARK    8  A    between atoms: C_7  and  C_21 
REMARK    9  A    between atoms: C_9  and  C_24 
REMARK   10  A    between atoms: C_16  and  C_17 
REMARK   11  A    between atoms: S_19  and  C_20 
ROOT
HETATM    1  C           1      -6.541   2.376 -33.426  0.00  0.00     0.092 C 
HETATM    2  C           1      -4.866   3.768 -32.404  0.00  0.00     0.156 C 
HETATM    3  C           1      -7.232   3.179 -32.360  0.00  0.00     0.127 C 
HETATM    4  C           1      -6.058   3.537 -31.414  0.00  0.00     0.136 C 
HETATM    5  C           1      -5.741   2.391 -30.507  0.00  0.00     0.079 C 
HETATM    6  N           1      -5.677   1.507 -29.758  0.00  0.00    -0.196 NA
HETATM    7  C           1      -8.447   2.729 -31.449  0.00  0.00     0.248 C 
HETATM    8  C           1      -7.885   4.735 -30.097  0.00  0.00     0.105 C 
HETATM    9  N           1      -5.281   2.728 -33.464  0.00  0.00    -0.350 N 
HETATM   10  N           1      -8.987   3.932 -30.610  0.00  0.00    -0.040 N 
HETATM   11  C           1      -8.293   5.802 -29.111  0.00  0.00     0.075 C 
HETATM   12  C           1      -6.590   4.601 -30.470  0.00  0.00     0.036 C 
HETATM   13  H           1      -4.617   2.332 -34.143  0.00  0.00     0.163 HD
HETATM   14  H           1      -9.504   3.531 -29.792  0.00  0.00     0.284 HD
HETATM   15  H           1      -9.660   4.515 -31.150  0.00  0.00     0.284 HD
ENDROOT
BRANCH   2  16
HETATM   16  S           1      -3.258   3.261 -31.709  0.00  0.00    -0.125 SA
BRANCH  16  17
HETATM   17  C           1      -2.608   4.812 -31.021  0.00  0.00     0.077 C 
BRANCH  17  18
HETATM   18  C           1      -1.078   4.817 -31.168  0.00  0.00     0.010 C 
BRANCH  18  19
HETATM   19  C           1      -0.434   5.936 -30.331  0.00  0.00    -0.004 C 
HETATM   20  C           1      -1.288   7.211 -30.329  0.00  0.00     0.005 C 
ENDBRANCH  18  19
ENDBRANCH  17  18
ENDBRANCH  16  17
ENDBRANCH   2  16
BRANCH   2  21
HETATM   21  S           1      -4.960   5.437 -33.136  0.00  0.00    -0.125 SA
BRANCH  21  22
HETATM   22  C           1      -4.350   5.096 -34.817  0.00  0.00     0.077 C 
BRANCH  22  23
HETATM   23  C           1      -2.828   5.314 -34.843  0.00  0.00     0.010 C 
BRANCH  23  24
HETATM   24  C           1      -2.433   6.627 -34.148  0.00  0.00    -0.004 C 
HETATM   25  C           1      -0.910   6.779 -34.038  0.00  0.00     0.005 C 
ENDBRANCH  23  24
ENDBRANCH  22  23
ENDBRANCH  21  22
ENDBRANCH   2  21
BRANCH   3  26
HETATM   26  C           1      -7.875   4.394 -32.922  0.00  0.00     0.105 C 
HETATM   27  N           1      -8.147   4.795 -33.975  0.00  0.00    -0.151 N 
ENDBRANCH   3  26
BRANCH   1  28
HETATM   28  N           1      -7.094   1.562 -34.225  0.00  0.00    -0.388 N 
HETATM   29  H           1      -6.877   0.536 -34.179  0.00  0.00     0.157 HD
HETATM   30  H           1      -7.778   1.900 -34.945  0.00  0.00     0.157 HD
ENDBRANCH   1  28
BRANCH   7  31
HETATM   31  C           1      -9.555   2.039 -32.231  0.00  0.00    -0.026 A 
HETATM   32  C           1      -9.599   0.708 -32.425  0.00  0.00     0.009 A 
HETATM   33  C           1     -10.600   0.136 -33.115  0.00  0.00     0.001 A 
HETATM   34  C           1     -11.580   0.891 -33.631  0.00  0.00     0.000 A 
HETATM   35  C           1     -11.547   2.220 -33.458  0.00  0.00     0.001 A 
HETATM   36  C           1     -10.541   2.780 -32.770  0.00  0.00     0.009 A 
ENDBRANCH   7  31
TORSDOF 11
ENDMDL
