MODEL 1
REMARK VINA RESULT:      -9.8      0.000      0.000
REMARK  8 active torsions:
REMARK  status: ('A' for Active; 'I' for Inactive)
REMARK    1  A    between atoms: C_4  and  S_5 
REMARK    2  A    between atoms: S_5  and  C_6 
REMARK    3  A    between atoms: C_6  and  C_7 
REMARK       I    between atoms: C_7  and  N_8 
REMARK    4  A    between atoms: N_8  and  C_9 
REMARK    5  A    between atoms: C_20  and  C_21 
REMARK    6  A    between atoms: C_27  and  C_28 
REMARK       I    between atoms: C_28  and  N_29 
REMARK    7  A    between atoms: N_29  and  C_30 
REMARK    8  A    between atoms: C_31  and  O_32 
ROOT
HETATM    1  C   UNL     1      -7.348   5.913 -33.029  1.00  0.00     0.069 C 
HETATM    2  C   UNL     1      -6.513   4.673 -32.843  1.00  0.00     0.019 C 
HETATM    3  N   UNL     1      -5.203   4.744 -33.301  1.00  0.00    -0.353 N 
HETATM    4  C   UNL     1      -4.203   3.867 -32.906  1.00  0.00     0.088 C 
HETATM    5  C   UNL     1      -4.542   2.711 -32.283  1.00  0.00     0.069 C 
HETATM    6  C   UNL     1      -3.582   1.824 -31.715  1.00  0.00     0.099 C 
HETATM    7  N   UNL     1      -2.801   1.102 -31.250  1.00  0.00    -0.192 NA
HETATM    8  C   UNL     1      -6.019   2.333 -32.125  1.00  0.00     0.106 C 
HETATM    9  C   UNL     1      -6.944   3.531 -32.260  1.00  0.00     0.046 C 
HETATM   10  H   UNL     1      -4.863   5.664 -33.570  1.00  0.00     0.166 HD
ENDROOT
BRANCH   4  11
HETATM   11  S   UNL     1      -2.527   4.323 -33.155  1.00  0.00    -0.102 SA
BRANCH  11  12
HETATM   12  C   UNL     1      -2.750   6.044 -33.733  1.00  0.00     0.184 C 
BRANCH  12  13
HETATM   13  C   UNL     1      -2.087   7.049 -32.798  1.00  0.00     0.231 C 
HETATM   14  N   UNL     1      -1.837   6.558 -31.529  1.00  0.00    -0.327 N 
HETATM   15  H   UNL     1      -2.226   5.640 -31.332  1.00  0.00     0.169 HD
HETATM   16  O   UNL     1      -1.763   8.157 -33.220  1.00  0.00    -0.272 OA
BRANCH  14  17
HETATM   17  C   UNL     1      -1.206   7.213 -30.454  1.00  0.00     0.034 A 
HETATM   18  C   UNL     1      -1.797   8.232 -29.705  1.00  0.00     0.031 A 
HETATM   19  C   UNL     1      -1.105   8.828 -28.645  1.00  0.00     0.026 A 
HETATM   20  C   UNL     1       0.183   8.404 -28.331  1.00  0.00     0.034 A 
HETATM   21 CL   UNL     1       1.030   9.132 -27.022  1.00  0.00    -0.084 Cl
HETATM   22  C   UNL     1       0.788   7.393 -29.071  1.00  0.00     0.026 A 
HETATM   23  C   UNL     1       0.096   6.802 -30.132  1.00  0.00     0.031 A 
ENDBRANCH  14  17
ENDBRANCH  12  13
ENDBRANCH  11  12
ENDBRANCH   4  11
BRANCH   8  24
HETATM   24  C   UNL     1      -6.354   1.188 -33.092  1.00  0.00    -0.044 A 
HETATM   25  C   UNL     1      -6.751   1.480 -34.409  1.00  0.00     0.008 A 
HETATM   26  C   UNL     1      -7.080   0.458 -35.300  1.00  0.00     0.001 A 
HETATM   27  C   UNL     1      -7.023  -0.872 -34.892  1.00  0.00     0.000 A 
HETATM   28  C   UNL     1      -6.649  -1.180 -33.588  1.00  0.00     0.001 A 
HETATM   29  C   UNL     1      -6.329  -0.159 -32.690  1.00  0.00     0.008 A 
ENDBRANCH   8  24
BRANCH   9  30
HETATM   30  C   UNL     1      -8.273   3.482 -31.595  1.00  0.00     0.255 C 
HETATM   31  N   UNL     1      -9.324   3.505 -32.468  1.00  0.00    -0.321 N 
HETATM   32  H   UNL     1      -9.915   4.328 -32.398  1.00  0.00     0.169 HD
HETATM   33  O   UNL     1      -8.385   3.590 -30.380  1.00  0.00    -0.268 OA
BRANCH  31  34
HETATM   34  C   UNL     1     -10.123   2.364 -32.751  1.00  0.00     0.068 A 
HETATM   35  C   UNL     1     -11.385   2.575 -33.330  1.00  0.00     0.095 A 
HETATM   36  C   UNL     1     -12.155   1.486 -33.749  1.00  0.00     0.039 A 
HETATM   37  C   UNL     1     -11.696   0.186 -33.535  1.00  0.00     0.003 A 
HETATM   38  C   UNL     1     -10.480  -0.027 -32.890  1.00  0.00     0.002 A 
HETATM   39  C   UNL     1      -9.696   1.058 -32.495  1.00  0.00     0.032 A 
BRANCH  35  40
HETATM   40  O   UNL     1     -11.784   3.879 -33.506  1.00  0.00    -0.354 OA
HETATM   41  C   UNL     1     -12.740   4.035 -34.554  1.00  0.00     0.210 C 
ENDBRANCH  35  40
ENDBRANCH  31  34
ENDBRANCH   9  30
TORSDOF 8
ENDMDL
MODEL 2
REMARK VINA RESULT:      -9.1      4.452     10.413
REMARK  8 active torsions:
REMARK  status: ('A' for Active; 'I' for Inactive)
REMARK    1  A    between atoms: C_4  and  S_5 
REMARK    2  A    between atoms: S_5  and  C_6 
REMARK    3  A    between atoms: C_6  and  C_7 
REMARK       I    between atoms: C_7  and  N_8 
REMARK    4  A    between atoms: N_8  and  C_9 
REMARK    5  A    between atoms: C_20  and  C_21 
REMARK    6  A    between atoms: C_27  and  C_28 
REMARK       I    between atoms: C_28  and  N_29 
REMARK    7  A    between atoms: N_29  and  C_30 
REMARK    8  A    between atoms: C_31  and  O_32 
ROOT
HETATM    1  C   UNL     1      -4.941   6.549 -27.091  1.00  0.00     0.069 C 
HETATM    2  C   UNL     1      -4.494   6.378 -28.520  1.00  0.00     0.019 C 
HETATM    3  N   UNL     1      -4.987   5.263 -29.186  1.00  0.00    -0.353 N 
HETATM    4  C   UNL     1      -4.986   5.131 -30.567  1.00  0.00     0.088 C 
HETATM    5  C   UNL     1      -4.220   5.965 -31.314  1.00  0.00     0.069 C 
HETATM    6  C   UNL     1      -4.268   5.999 -32.738  1.00  0.00     0.099 C 
HETATM    7  N   UNL     1      -4.308   6.029 -33.898  1.00  0.00    -0.192 NA
HETATM    8  C   UNL     1      -3.282   6.963 -30.625  1.00  0.00     0.106 C 
HETATM    9  C   UNL     1      -3.676   7.229 -29.181  1.00  0.00     0.046 C 
HETATM   10  H   UNL     1      -5.730   4.746 -28.722  1.00  0.00     0.166 HD
ENDROOT
BRANCH   4  11
HETATM   11  S   UNL     1      -6.041   3.939 -31.307  1.00  0.00    -0.102 SA
BRANCH  11  12
HETATM   12  C   UNL     1      -4.833   2.606 -31.634  1.00  0.00     0.184 C 
BRANCH  12  13
HETATM   13  C   UNL     1      -5.325   1.642 -32.707  1.00  0.00     0.231 C 
HETATM   14  N   UNL     1      -5.079   0.310 -32.423  1.00  0.00    -0.327 N 
HETATM   15  H   UNL     1      -4.501   0.139 -31.606  1.00  0.00     0.169 HD
HETATM   16  O   UNL     1      -5.945   2.070 -33.678  1.00  0.00    -0.272 OA
BRANCH  14  17
HETATM   17  C   UNL     1      -5.440  -0.820 -33.182  1.00  0.00     0.034 A 
HETATM   18  C   UNL     1      -6.758  -1.167 -33.486  1.00  0.00     0.031 A 
HETATM   19  C   UNL     1      -7.033  -2.304 -34.255  1.00  0.00     0.026 A 
HETATM   20  C   UNL     1      -5.989  -3.097 -34.720  1.00  0.00     0.034 A 
HETATM   21 CL   UNL     1      -6.329  -4.490 -35.671  1.00  0.00    -0.084 Cl
HETATM   22  C   UNL     1      -4.671  -2.768 -34.420  1.00  0.00     0.026 A 
HETATM   23  C   UNL     1      -4.398  -1.633 -33.650  1.00  0.00     0.031 A 
ENDBRANCH  14  17
ENDBRANCH  12  13
ENDBRANCH  11  12
ENDBRANCH   4  11
BRANCH   8  24
HETATM   24  C   UNL     1      -1.831   6.486 -30.786  1.00  0.00    -0.044 A 
HETATM   25  C   UNL     1      -0.887   7.322 -31.408  1.00  0.00     0.008 A 
HETATM   26  C   UNL     1       0.433   6.902 -31.584  1.00  0.00     0.001 A 
HETATM   27  C   UNL     1       0.831   5.642 -31.148  1.00  0.00     0.000 A 
HETATM   28  C   UNL     1      -0.093   4.794 -30.545  1.00  0.00     0.001 A 
HETATM   29  C   UNL     1      -1.417   5.206 -30.377  1.00  0.00     0.008 A 
ENDBRANCH   8  24
BRANCH   9  30
HETATM   30  C   UNL     1      -3.280   8.523 -28.564  1.00  0.00     0.255 C 
HETATM   31  N   UNL     1      -2.481   8.384 -27.464  1.00  0.00    -0.321 N 
HETATM   32  H   UNL     1      -2.896   8.708 -26.595  1.00  0.00     0.169 HD
HETATM   33  O   UNL     1      -3.780   9.582 -28.922  1.00  0.00    -0.268 OA
BRANCH  31  34
HETATM   34  C   UNL     1      -1.091   8.680 -27.472  1.00  0.00     0.068 A 
HETATM   35  C   UNL     1      -0.675   9.886 -26.884  1.00  0.00     0.095 A 
HETATM   36  C   UNL     1       0.688  10.166 -26.747  1.00  0.00     0.039 A 
HETATM   37  C   UNL     1       1.635   9.274 -27.251  1.00  0.00     0.003 A 
HETATM   38  C   UNL     1       1.224   8.115 -27.904  1.00  0.00     0.002 A 
HETATM   39  C   UNL     1      -0.136   7.819 -28.019  1.00  0.00     0.032 A 
BRANCH  35  40
HETATM   40  O   UNL     1      -1.657  10.726 -26.414  1.00  0.00    -0.354 OA
HETATM   41  C   UNL     1      -1.562  10.969 -25.011  1.00  0.00     0.210 C 
ENDBRANCH  35  40
ENDBRANCH  31  34
ENDBRANCH   9  30
TORSDOF 8
ENDMDL
MODEL 3
REMARK VINA RESULT:      -9.0      3.523      8.715
REMARK  8 active torsions:
REMARK  status: ('A' for Active; 'I' for Inactive)
REMARK    1  A    between atoms: C_4  and  S_5 
REMARK    2  A    between atoms: S_5  and  C_6 
REMARK    3  A    between atoms: C_6  and  C_7 
REMARK       I    between atoms: C_7  and  N_8 
REMARK    4  A    between atoms: N_8  and  C_9 
REMARK    5  A    between atoms: C_20  and  C_21 
REMARK    6  A    between atoms: C_27  and  C_28 
REMARK       I    between atoms: C_28  and  N_29 
REMARK    7  A    between atoms: N_29  and  C_30 
REMARK    8  A    between atoms: C_31  and  O_32 
ROOT
HETATM    1  C   UNL     1      -5.938   7.605 -28.206  1.00  0.00     0.069 C 
HETATM    2  C   UNL     1      -6.174   6.863 -29.496  1.00  0.00     0.019 C 
HETATM    3  N   UNL     1      -7.380   6.181 -29.597  1.00  0.00    -0.353 N 
HETATM    4  C   UNL     1      -7.924   5.756 -30.801  1.00  0.00     0.088 C 
HETATM    5  C   UNL     1      -7.141   5.726 -31.909  1.00  0.00     0.069 C 
HETATM    6  C   UNL     1      -7.648   5.445 -33.211  1.00  0.00     0.099 C 
HETATM    7  N   UNL     1      -8.060   5.219 -34.272  1.00  0.00    -0.192 NA
HETATM    8  C   UNL     1      -5.646   6.048 -31.797  1.00  0.00     0.106 C 
HETATM    9  C   UNL     1      -5.313   6.832 -30.539  1.00  0.00     0.046 C 
HETATM   10  H   UNL     1      -8.072   6.368 -28.875  1.00  0.00     0.166 HD
ENDROOT
BRANCH   4  11
HETATM   11  S   UNL     1      -9.630   5.350 -30.866  1.00  0.00    -0.102 SA
BRANCH  11  12
HETATM   12  C   UNL     1      -9.570   3.632 -30.243  1.00  0.00     0.184 C 
BRANCH  12  13
HETATM   13  C   UNL     1      -9.063   2.660 -31.302  1.00  0.00     0.231 C 
HETATM   14  N   UNL     1      -7.771   2.214 -31.085  1.00  0.00    -0.327 N 
HETATM   15  H   UNL     1      -7.274   2.671 -30.327  1.00  0.00     0.169 HD
HETATM   16  O   UNL     1      -9.813   2.288 -32.202  1.00  0.00    -0.272 OA
BRANCH  14  17
HETATM   17  C   UNL     1      -7.033   1.289 -31.849  1.00  0.00     0.034 A 
HETATM   18  C   UNL     1      -6.784   1.427 -33.216  1.00  0.00     0.031 A 
HETATM   19  C   UNL     1      -6.033   0.465 -33.901  1.00  0.00     0.026 A 
HETATM   20  C   UNL     1      -5.529  -0.639 -33.220  1.00  0.00     0.034 A 
HETATM   21 CL   UNL     1      -4.600  -1.816 -34.063  1.00  0.00    -0.084 Cl
HETATM   22  C   UNL     1      -5.773  -0.793 -31.859  1.00  0.00     0.026 A 
HETATM   23  C   UNL     1      -6.527   0.167 -31.176  1.00  0.00     0.031 A 
ENDBRANCH  14  17
ENDBRANCH  12  13
ENDBRANCH  11  12
ENDBRANCH   4  11
BRANCH   8  24
HETATM   24  C   UNL     1      -4.838   4.750 -31.943  1.00  0.00    -0.044 A 
HETATM   25  C   UNL     1      -4.654   3.913 -30.828  1.00  0.00     0.008 A 
HETATM   26  C   UNL     1      -3.906   2.739 -30.931  1.00  0.00     0.001 A 
HETATM   27  C   UNL     1      -3.326   2.383 -32.145  1.00  0.00     0.000 A 
HETATM   28  C   UNL     1      -3.482   3.208 -33.255  1.00  0.00     0.001 A 
HETATM   29  C   UNL     1      -4.221   4.388 -33.153  1.00  0.00     0.008 A 
ENDBRANCH   8  24
BRANCH   9  30
HETATM   30  C   UNL     1      -4.103   7.696 -30.540  1.00  0.00     0.255 C 
HETATM   31  N   UNL     1      -3.111   7.252 -29.711  1.00  0.00    -0.321 N 
HETATM   32  H   UNL     1      -2.899   7.872 -28.935  1.00  0.00     0.169 HD
HETATM   33  O   UNL     1      -4.094   8.784 -31.102  1.00  0.00    -0.268 OA
BRANCH  31  34
HETATM   34  C   UNL     1      -1.914   6.650 -30.185  1.00  0.00     0.068 A 
HETATM   35  C   UNL     1      -0.843   6.524 -29.285  1.00  0.00     0.095 A 
HETATM   36  C   UNL     1       0.307   5.823 -29.659  1.00  0.00     0.039 A 
HETATM   37  C   UNL     1       0.417   5.303 -30.949  1.00  0.00     0.003 A 
HETATM   38  C   UNL     1      -0.612   5.495 -31.869  1.00  0.00     0.002 A 
HETATM   39  C   UNL     1      -1.773   6.171 -31.490  1.00  0.00     0.032 A 
BRANCH  35  40
HETATM   40  O   UNL     1      -1.010   7.065 -28.033  1.00  0.00    -0.354 OA
HETATM   41  C   UNL     1      -0.363   6.312 -27.007  1.00  0.00     0.210 C 
ENDBRANCH  35  40
ENDBRANCH  31  34
ENDBRANCH   9  30
TORSDOF 8
ENDMDL
MODEL 4
REMARK VINA RESULT:      -8.9      4.699      8.666
REMARK  8 active torsions:
REMARK  status: ('A' for Active; 'I' for Inactive)
REMARK    1  A    between atoms: C_4  and  S_5 
REMARK    2  A    between atoms: S_5  and  C_6 
REMARK    3  A    between atoms: C_6  and  C_7 
REMARK       I    between atoms: C_7  and  N_8 
REMARK    4  A    between atoms: N_8  and  C_9 
REMARK    5  A    between atoms: C_20  and  C_21 
REMARK    6  A    between atoms: C_27  and  C_28 
REMARK       I    between atoms: C_28  and  N_29 
REMARK    7  A    between atoms: N_29  and  C_30 
REMARK    8  A    between atoms: C_31  and  O_32 
ROOT
HETATM    1  C   UNL     1      -5.301   4.509 -30.154  1.00  0.00     0.069 C 
HETATM    2  C   UNL     1      -6.398   4.476 -31.187  1.00  0.00     0.019 C 
HETATM    3  N   UNL     1      -7.479   5.318 -30.958  1.00  0.00    -0.353 N 
HETATM    4  C   UNL     1      -8.385   5.690 -31.940  1.00  0.00     0.088 C 
HETATM    5  C   UNL     1      -8.422   4.997 -33.106  1.00  0.00     0.069 C 
HETATM    6  C   UNL     1      -9.213   5.396 -34.222  1.00  0.00     0.099 C 
HETATM    7  N   UNL     1      -9.855   5.721 -35.133  1.00  0.00    -0.192 NA
HETATM    8  C   UNL     1      -7.549   3.749 -33.281  1.00  0.00     0.106 C 
HETATM    9  C   UNL     1      -6.388   3.709 -32.302  1.00  0.00     0.046 C 
HETATM   10  H   UNL     1      -7.375   6.002 -30.211  1.00  0.00     0.166 HD
ENDROOT
BRANCH   4  11
HETATM   11  S   UNL     1      -9.398   7.098 -31.672  1.00  0.00    -0.102 SA
BRANCH  11  12
HETATM   12  C   UNL     1     -10.536   6.432 -30.404  1.00  0.00     0.184 C 
BRANCH  12  13
HETATM   13  C   UNL     1     -11.110   5.079 -30.809  1.00  0.00     0.231 C 
HETATM   14  N   UNL     1     -12.024   5.142 -31.845  1.00  0.00    -0.327 N 
HETATM   15  H   UNL     1     -12.295   6.078 -32.131  1.00  0.00     0.169 HD
HETATM   16  O   UNL     1     -10.697   4.054 -30.271  1.00  0.00    -0.272 OA
BRANCH  14  17
HETATM   17  C   UNL     1     -12.699   4.077 -32.473  1.00  0.00     0.034 A 
HETATM   18  C   UNL     1     -12.356   3.568 -33.728  1.00  0.00     0.031 A 
HETATM   19  C   UNL     1     -13.073   2.500 -34.281  1.00  0.00     0.026 A 
HETATM   20  C   UNL     1     -14.134   1.938 -33.578  1.00  0.00     0.034 A 
HETATM   21 CL   UNL     1     -15.009   0.621 -34.256  1.00  0.00    -0.084 Cl
HETATM   22  C   UNL     1     -14.490   2.438 -32.329  1.00  0.00     0.026 A 
HETATM   23  C   UNL     1     -13.776   3.507 -31.780  1.00  0.00     0.031 A 
ENDBRANCH  14  17
ENDBRANCH  12  13
ENDBRANCH  11  12
ENDBRANCH   4  11
BRANCH   8  24
HETATM   24  C   UNL     1      -8.440   2.498 -33.226  1.00  0.00    -0.044 A 
HETATM   25  C   UNL     1      -8.635   1.833 -32.002  1.00  0.00     0.008 A 
HETATM   26  C   UNL     1      -9.423   0.684 -31.930  1.00  0.00     0.001 A 
HETATM   27  C   UNL     1     -10.026   0.177 -33.078  1.00  0.00     0.000 A 
HETATM   28  C   UNL     1      -9.831   0.811 -34.301  1.00  0.00     0.001 A 
HETATM   29  C   UNL     1      -9.034   1.956 -34.378  1.00  0.00     0.008 A 
ENDBRANCH   8  24
BRANCH   9  30
HETATM   30  C   UNL     1      -5.171   2.940 -32.673  1.00  0.00     0.255 C 
HETATM   31  N   UNL     1      -5.151   1.669 -32.171  1.00  0.00    -0.321 N 
HETATM   32  H   UNL     1      -4.409   1.490 -31.501  1.00  0.00     0.169 HD
HETATM   33  O   UNL     1      -4.219   3.476 -33.226  1.00  0.00    -0.268 OA
BRANCH  31  34
HETATM   34  C   UNL     1      -5.362   0.514 -32.973  1.00  0.00     0.068 A 
HETATM   35  C   UNL     1      -4.817  -0.701 -32.528  1.00  0.00     0.095 A 
HETATM   36  C   UNL     1      -5.105  -1.888 -33.207  1.00  0.00     0.039 A 
HETATM   37  C   UNL     1      -5.884  -1.858 -34.364  1.00  0.00     0.003 A 
HETATM   38  C   UNL     1      -6.361  -0.643 -34.851  1.00  0.00     0.002 A 
HETATM   39  C   UNL     1      -6.098   0.542 -34.161  1.00  0.00     0.032 A 
BRANCH  35  40
HETATM   40  O   UNL     1      -4.051  -0.664 -31.387  1.00  0.00    -0.354 OA
HETATM   41  C   UNL     1      -2.653  -0.788 -31.647  1.00  0.00     0.210 C 
ENDBRANCH  35  40
ENDBRANCH  31  34
ENDBRANCH   9  30
TORSDOF 8
ENDMDL
MODEL 5
REMARK VINA RESULT:      -8.7      1.985      3.046
REMARK  8 active torsions:
REMARK  status: ('A' for Active; 'I' for Inactive)
REMARK    1  A    between atoms: C_4  and  S_5 
REMARK    2  A    between atoms: S_5  and  C_6 
REMARK    3  A    between atoms: C_6  and  C_7 
REMARK       I    between atoms: C_7  and  N_8 
REMARK    4  A    between atoms: N_8  and  C_9 
REMARK    5  A    between atoms: C_20  and  C_21 
REMARK    6  A    between atoms: C_27  and  C_28 
REMARK       I    between atoms: C_28  and  N_29 
REMARK    7  A    between atoms: N_29  and  C_30 
REMARK    8  A    between atoms: C_31  and  O_32 
ROOT
HETATM    1  C   UNL     1      -8.639   5.147 -33.930  1.00  0.00     0.069 C 
HETATM    2  C   UNL     1      -7.513   4.226 -33.540  1.00  0.00     0.019 C 
HETATM    3  N   UNL     1      -6.247   4.583 -33.989  1.00  0.00    -0.353 N 
HETATM    4  C   UNL     1      -5.071   4.083 -33.450  1.00  0.00     0.088 C 
HETATM    5  C   UNL     1      -5.120   2.985 -32.654  1.00  0.00     0.069 C 
HETATM    6  C   UNL     1      -3.989   2.491 -31.942  1.00  0.00     0.099 C 
HETATM    7  N   UNL     1      -3.069   2.089 -31.359  1.00  0.00    -0.192 NA
HETATM    8  C   UNL     1      -6.448   2.245 -32.453  1.00  0.00     0.106 C 
HETATM    9  C   UNL     1      -7.652   3.110 -32.787  1.00  0.00     0.046 C 
HETATM   10  H   UNL     1      -6.153   5.509 -34.398  1.00  0.00     0.166 HD
ENDROOT
BRANCH   4  11
HETATM   11  S   UNL     1      -3.568   4.938 -33.750  1.00  0.00    -0.102 SA
BRANCH  11  12
HETATM   12  C   UNL     1      -3.831   6.415 -32.705  1.00  0.00     0.184 C 
BRANCH  12  13
HETATM   13  C   UNL     1      -3.162   6.275 -31.342  1.00  0.00     0.231 C 
HETATM   14  N   UNL     1      -1.900   6.837 -31.274  1.00  0.00    -0.327 N 
HETATM   15  H   UNL     1      -1.521   7.165 -32.157  1.00  0.00     0.169 HD
HETATM   16  O   UNL     1      -3.776   5.763 -30.409  1.00  0.00    -0.272 OA
BRANCH  14  17
HETATM   17  C   UNL     1      -1.043   6.912 -30.158  1.00  0.00     0.034 A 
HETATM   18  C   UNL     1      -0.255   5.852 -29.707  1.00  0.00     0.031 A 
HETATM   19  C   UNL     1       0.578   6.010 -28.593  1.00  0.00     0.026 A 
HETATM   20  C   UNL     1       0.625   7.232 -27.929  1.00  0.00     0.034 A 
HETATM   21 CL   UNL     1       1.655   7.427 -26.565  1.00  0.00    -0.084 Cl
HETATM   22  C   UNL     1      -0.158   8.296 -28.364  1.00  0.00     0.026 A 
HETATM   23  C   UNL     1      -0.993   8.135 -29.474  1.00  0.00     0.031 A 
ENDBRANCH  14  17
ENDBRANCH  12  13
ENDBRANCH  11  12
ENDBRANCH   4  11
BRANCH   8  24
HETATM   24  C   UNL     1      -6.410   0.920 -33.229  1.00  0.00    -0.044 A 
HETATM   25  C   UNL     1      -6.889   0.872 -34.551  1.00  0.00     0.008 A 
HETATM   26  C   UNL     1      -6.884  -0.325 -35.270  1.00  0.00     0.001 A 
HETATM   27  C   UNL     1      -6.406  -1.492 -34.681  1.00  0.00     0.000 A 
HETATM   28  C   UNL     1      -5.945  -1.467 -33.369  1.00  0.00     0.001 A 
HETATM   29  C   UNL     1      -5.958  -0.274 -32.643  1.00  0.00     0.008 A 
ENDBRANCH   8  24
BRANCH   9  30
HETATM   30  C   UNL     1      -8.952   2.800 -32.137  1.00  0.00     0.255 C 
HETATM   31  N   UNL     1      -9.091   3.355 -30.895  1.00  0.00    -0.321 N 
HETATM   32  H   UNL     1      -9.160   2.683 -30.137  1.00  0.00     0.169 HD
HETATM   33  O   UNL     1      -9.728   1.982 -32.615  1.00  0.00    -0.268 OA
BRANCH  31  34
HETATM   34  C   UNL     1      -9.938   4.465 -30.631  1.00  0.00     0.068 A 
HETATM   35  C   UNL     1      -9.338   5.655 -30.188  1.00  0.00     0.095 A 
HETATM   36  C   UNL     1     -10.107   6.814 -30.040  1.00  0.00     0.039 A 
HETATM   37  C   UNL     1     -11.482   6.772 -30.273  1.00  0.00     0.003 A 
HETATM   38  C   UNL     1     -12.091   5.574 -30.638  1.00  0.00     0.002 A 
HETATM   39  C   UNL     1     -11.323   4.421 -30.812  1.00  0.00     0.032 A 
BRANCH  35  40
HETATM   40  O   UNL     1      -7.982   5.630 -29.967  1.00  0.00    -0.354 OA
HETATM   41  C   UNL     1      -7.275   6.620 -30.713  1.00  0.00     0.210 C 
ENDBRANCH  35  40
ENDBRANCH  31  34
ENDBRANCH   9  30
TORSDOF 8
ENDMDL
MODEL 6
REMARK VINA RESULT:      -8.6      3.481      9.170
REMARK  8 active torsions:
REMARK  status: ('A' for Active; 'I' for Inactive)
REMARK    1  A    between atoms: C_4  and  S_5 
REMARK    2  A    between atoms: S_5  and  C_6 
REMARK    3  A    between atoms: C_6  and  C_7 
REMARK       I    between atoms: C_7  and  N_8 
REMARK    4  A    between atoms: N_8  and  C_9 
REMARK    5  A    between atoms: C_20  and  C_21 
REMARK    6  A    between atoms: C_27  and  C_28 
REMARK       I    between atoms: C_28  and  N_29 
REMARK    7  A    between atoms: N_29  and  C_30 
REMARK    8  A    between atoms: C_31  and  O_32 
ROOT
HETATM    1  C   UNL     1      -3.574   5.248 -34.511  1.00  0.00     0.069 C 
HETATM    2  C   UNL     1      -4.476   5.108 -33.313  1.00  0.00     0.019 C 
HETATM    3  N   UNL     1      -5.838   5.033 -33.578  1.00  0.00    -0.353 N 
HETATM    4  C   UNL     1      -6.772   4.552 -32.672  1.00  0.00     0.088 C 
HETATM    5  C   UNL     1      -6.423   4.416 -31.368  1.00  0.00     0.069 C 
HETATM    6  C   UNL     1      -7.264   3.796 -30.399  1.00  0.00     0.099 C 
HETATM    7  N   UNL     1      -7.947   3.289 -29.609  1.00  0.00    -0.192 NA
HETATM    8  C   UNL     1      -5.048   4.899 -30.891  1.00  0.00     0.106 C 
HETATM    9  C   UNL     1      -4.052   5.037 -32.030  1.00  0.00     0.046 C 
HETATM   10  H   UNL     1      -6.107   4.913 -34.552  1.00  0.00     0.166 HD
ENDROOT
BRANCH   4  11
HETATM   11  S   UNL     1      -8.350   4.059 -33.260  1.00  0.00    -0.102 SA
BRANCH  11  12
HETATM   12  C   UNL     1      -7.865   2.656 -34.329  1.00  0.00     0.184 C 
BRANCH  12  13
HETATM   13  C   UNL     1      -7.315   1.487 -33.520  1.00  0.00     0.231 C 
HETATM   14  N   UNL     1      -6.051   1.080 -33.906  1.00  0.00    -0.327 N 
HETATM   15  H   UNL     1      -5.690   1.518 -34.748  1.00  0.00     0.169 HD
HETATM   16  O   UNL     1      -7.959   1.042 -32.572  1.00  0.00    -0.272 OA
BRANCH  14  17
HETATM   17  C   UNL     1      -5.256   0.064 -33.340  1.00  0.00     0.034 A 
HETATM   18  C   UNL     1      -4.450   0.241 -32.213  1.00  0.00     0.031 A 
HETATM   19  C   UNL     1      -3.694  -0.823 -31.706  1.00  0.00     0.026 A 
HETATM   20  C   UNL     1      -3.744  -2.067 -32.326  1.00  0.00     0.034 A 
HETATM   21 CL   UNL     1      -2.820  -3.375 -31.698  1.00  0.00    -0.084 Cl
HETATM   22  C   UNL     1      -4.538  -2.257 -33.453  1.00  0.00     0.026 A 
HETATM   23  C   UNL     1      -5.289  -1.192 -33.960  1.00  0.00     0.031 A 
ENDBRANCH  14  17
ENDBRANCH  12  13
ENDBRANCH  11  12
ENDBRANCH   4  11
BRANCH   8  24
HETATM   24  C   UNL     1      -5.222   6.186 -30.070  1.00  0.00    -0.044 A 
HETATM   25  C   UNL     1      -4.963   6.173 -28.688  1.00  0.00     0.008 A 
HETATM   26  C   UNL     1      -5.134   7.324 -27.917  1.00  0.00     0.001 A 
HETATM   27  C   UNL     1      -5.569   8.505 -28.511  1.00  0.00     0.000 A 
HETATM   28  C   UNL     1      -5.847   8.533 -29.874  1.00  0.00     0.001 A 
HETATM   29  C   UNL     1      -5.687   7.380 -30.646  1.00  0.00     0.008 A 
ENDBRANCH   8  24
BRANCH   9  30
HETATM   30  C   UNL     1      -2.601   4.926 -31.723  1.00  0.00     0.255 C 
HETATM   31  N   UNL     1      -1.921   6.104 -31.859  1.00  0.00    -0.321 N 
HETATM   32  H   UNL     1      -1.220   6.106 -32.593  1.00  0.00     0.169 HD
HETATM   33  O   UNL     1      -2.067   3.840 -31.542  1.00  0.00    -0.268 OA
BRANCH  31  34
HETATM   34  C   UNL     1      -1.457   6.865 -30.751  1.00  0.00     0.068 A 
HETATM   35  C   UNL     1      -0.180   6.573 -30.245  1.00  0.00     0.095 A 
HETATM   36  C   UNL     1       0.377   7.375 -29.245  1.00  0.00     0.039 A 
HETATM   37  C   UNL     1      -0.361   8.428 -28.705  1.00  0.00     0.003 A 
HETATM   38  C   UNL     1      -1.659   8.671 -29.151  1.00  0.00     0.002 A 
HETATM   39  C   UNL     1      -2.208   7.889 -30.168  1.00  0.00     0.032 A 
BRANCH  35  40
HETATM   40  O   UNL     1       0.493   5.517 -30.813  1.00  0.00    -0.354 OA
HETATM   41  C   UNL     1       1.030   4.612 -29.848  1.00  0.00     0.210 C 
ENDBRANCH  35  40
ENDBRANCH  31  34
ENDBRANCH   9  30
TORSDOF 8
ENDMDL
MODEL 7
REMARK VINA RESULT:      -8.5      3.505      6.386
REMARK  8 active torsions:
REMARK  status: ('A' for Active; 'I' for Inactive)
REMARK    1  A    between atoms: C_4  and  S_5 
REMARK    2  A    between atoms: S_5  and  C_6 
REMARK    3  A    between atoms: C_6  and  C_7 
REMARK       I    between atoms: C_7  and  N_8 
REMARK    4  A    between atoms: N_8  and  C_9 
REMARK    5  A    between atoms: C_20  and  C_21 
REMARK    6  A    between atoms: C_27  and  C_28 
REMARK       I    between atoms: C_28  and  N_29 
REMARK    7  A    between atoms: N_29  and  C_30 
REMARK    8  A    between atoms: C_31  and  O_32 
ROOT
HETATM    1  C   UNL     1      -8.176   1.793 -30.695  1.00  0.00     0.069 C 
HETATM    2  C   UNL     1      -9.082   2.454 -31.702  1.00  0.00     0.019 C 
HETATM    3  N   UNL     1      -9.395   3.786 -31.461  1.00  0.00    -0.353 N 
HETATM    4  C   UNL     1      -9.899   4.643 -32.429  1.00  0.00     0.088 C 
HETATM    5  C   UNL     1     -10.392   4.126 -33.582  1.00  0.00     0.069 C 
HETATM    6  C   UNL     1     -10.792   4.933 -34.686  1.00  0.00     0.099 C 
HETATM    7  N   UNL     1     -11.117   5.589 -35.587  1.00  0.00    -0.192 NA
HETATM    8  C   UNL     1     -10.494   2.606 -33.756  1.00  0.00     0.106 C 
HETATM    9  C   UNL     1      -9.584   1.849 -32.803  1.00  0.00     0.046 C 
HETATM   10  H   UNL     1      -8.866   4.254 -30.729  1.00  0.00     0.166 HD
ENDROOT
BRANCH   4  11
HETATM   11  S   UNL     1      -9.804   6.375 -32.161  1.00  0.00    -0.102 SA
BRANCH  11  12
HETATM   12  C   UNL     1      -8.339   6.446 -31.069  1.00  0.00     0.184 C 
BRANCH  12  13
HETATM   13  C   UNL     1      -7.058   6.714 -31.851  1.00  0.00     0.231 C 
HETATM   14  N   UNL     1      -6.335   5.575 -32.156  1.00  0.00    -0.327 N 
HETATM   15  H   UNL     1      -6.672   4.718 -31.726  1.00  0.00     0.169 HD
HETATM   16  O   UNL     1      -6.789   7.858 -32.212  1.00  0.00    -0.272 OA
BRANCH  14  17
HETATM   17  C   UNL     1      -5.141   5.477 -32.896  1.00  0.00     0.034 A 
HETATM   18  C   UNL     1      -5.089   5.167 -34.256  1.00  0.00     0.031 A 
HETATM   19  C   UNL     1      -3.859   5.097 -34.922  1.00  0.00     0.026 A 
HETATM   20  C   UNL     1      -2.678   5.337 -34.226  1.00  0.00     0.034 A 
HETATM   21 CL   UNL     1      -1.169   5.257 -35.047  1.00  0.00    -0.084 Cl
HETATM   22  C   UNL     1      -2.714   5.641 -32.869  1.00  0.00     0.026 A 
HETATM   23  C   UNL     1      -3.943   5.707 -32.205  1.00  0.00     0.031 A 
ENDBRANCH  14  17
ENDBRANCH  12  13
ENDBRANCH  11  12
ENDBRANCH   4  11
BRANCH   8  24
HETATM   24  C   UNL     1     -11.968   2.185 -33.660  1.00  0.00    -0.044 A 
HETATM   25  C   UNL     1     -12.461   1.172 -34.501  1.00  0.00     0.008 A 
HETATM   26  C   UNL     1     -13.801   0.785 -34.446  1.00  0.00     0.001 A 
HETATM   27  C   UNL     1     -14.672   1.406 -33.556  1.00  0.00     0.000 A 
HETATM   28  C   UNL     1     -14.207   2.423 -32.728  1.00  0.00     0.001 A 
HETATM   29  C   UNL     1     -12.869   2.819 -32.787  1.00  0.00     0.008 A 
ENDBRANCH   8  24
BRANCH   9  30
HETATM   30  C   UNL     1      -9.124   0.490 -33.190  1.00  0.00     0.255 C 
HETATM   31  N   UNL     1      -8.085   0.494 -34.079  1.00  0.00    -0.321 N 
HETATM   32  H   UNL     1      -8.304   0.096 -34.988  1.00  0.00     0.169 HD
HETATM   33  O   UNL     1      -9.746  -0.513 -32.864  1.00  0.00    -0.268 OA
BRANCH  31  34
HETATM   34  C   UNL     1      -6.752   0.160 -33.718  1.00  0.00     0.068 A 
HETATM   35  C   UNL     1      -6.302  -1.140 -34.003  1.00  0.00     0.095 A 
HETATM   36  C   UNL     1      -4.964  -1.480 -33.789  1.00  0.00     0.039 A 
HETATM   37  C   UNL     1      -4.088  -0.547 -33.234  1.00  0.00     0.003 A 
HETATM   38  C   UNL     1      -4.550   0.718 -32.878  1.00  0.00     0.002 A 
HETATM   39  C   UNL     1      -5.880   1.070 -33.114  1.00  0.00     0.032 A 
BRANCH  35  40
HETATM   40  O   UNL     1      -7.216  -2.015 -34.540  1.00  0.00    -0.354 OA
HETATM   41  C   UNL     1      -6.687  -3.327 -34.734  1.00  0.00     0.210 C 
ENDBRANCH  35  40
ENDBRANCH  31  34
ENDBRANCH   9  30
TORSDOF 8
ENDMDL
MODEL 8
REMARK VINA RESULT:      -8.4      4.430      9.554
REMARK  8 active torsions:
REMARK  status: ('A' for Active; 'I' for Inactive)
REMARK    1  A    between atoms: C_4  and  S_5 
REMARK    2  A    between atoms: S_5  and  C_6 
REMARK    3  A    between atoms: C_6  and  C_7 
REMARK       I    between atoms: C_7  and  N_8 
REMARK    4  A    between atoms: N_8  and  C_9 
REMARK    5  A    between atoms: C_20  and  C_21 
REMARK    6  A    between atoms: C_27  and  C_28 
REMARK       I    between atoms: C_28  and  N_29 
REMARK    7  A    between atoms: N_29  and  C_30 
REMARK    8  A    between atoms: C_31  and  O_32 
ROOT
HETATM    1  C   UNL     1      -5.884   2.310 -29.602  1.00  0.00     0.069 C 
HETATM    2  C   UNL     1      -6.109   1.536 -30.875  1.00  0.00     0.019 C 
HETATM    3  N   UNL     1      -7.384   1.014 -31.055  1.00  0.00    -0.353 N 
HETATM    4  C   UNL     1      -7.878   0.599 -32.284  1.00  0.00     0.088 C 
HETATM    5  C   UNL     1      -7.017   0.406 -33.314  1.00  0.00     0.069 C 
HETATM    6  C   UNL     1      -7.446   0.124 -34.643  1.00  0.00     0.099 C 
HETATM    7  N   UNL     1      -7.795  -0.104 -35.727  1.00  0.00    -0.192 NA
HETATM    8  C   UNL     1      -5.507   0.536 -33.083  1.00  0.00     0.106 C 
HETATM    9  C   UNL     1      -5.176   1.337 -31.834  1.00  0.00     0.046 C 
HETATM   10  H   UNL     1      -8.102   1.328 -30.406  1.00  0.00     0.166 HD
ENDROOT
BRANCH   4  11
HETATM   11  S   UNL     1      -9.612   0.416 -32.484  1.00  0.00    -0.102 SA
BRANCH  11  12
HETATM   12  C   UNL     1     -10.018   2.041 -33.219  1.00  0.00     0.184 C 
BRANCH  12  13
HETATM   13  C   UNL     1     -11.510   2.184 -33.497  1.00  0.00     0.231 C 
HETATM   14  N   UNL     1     -12.255   2.559 -32.392  1.00  0.00    -0.327 N 
HETATM   15  H   UNL     1     -11.750   2.577 -31.512  1.00  0.00     0.169 HD
HETATM   16  O   UNL     1     -11.936   2.037 -34.640  1.00  0.00    -0.272 OA
BRANCH  14  17
HETATM   17  C   UNL     1     -13.639   2.812 -32.325  1.00  0.00     0.034 A 
HETATM   18  C   UNL     1     -14.621   1.838 -32.516  1.00  0.00     0.031 A 
HETATM   19  C   UNL     1     -15.978   2.170 -32.425  1.00  0.00     0.026 A 
HETATM   20  C   UNL     1     -16.355   3.479 -32.141  1.00  0.00     0.034 A 
HETATM   21 CL   UNL     1     -18.022   3.883 -32.021  1.00  0.00    -0.084 Cl
HETATM   22  C   UNL     1     -15.388   4.462 -31.954  1.00  0.00     0.026 A 
HETATM   23  C   UNL     1     -14.033   4.129 -32.049  1.00  0.00     0.031 A 
ENDBRANCH  14  17
ENDBRANCH  12  13
ENDBRANCH  11  12
ENDBRANCH   4  11
BRANCH   8  24
HETATM   24  C   UNL     1      -4.871  -0.863 -33.100  1.00  0.00    -0.044 A 
HETATM   25  C   UNL     1      -4.027  -1.259 -32.047  1.00  0.00     0.008 A 
HETATM   26  C   UNL     1      -3.422  -2.516 -32.050  1.00  0.00     0.001 A 
HETATM   27  C   UNL     1      -3.645  -3.397 -33.104  1.00  0.00     0.000 A 
HETATM   28  C   UNL     1      -4.464  -3.017 -34.163  1.00  0.00     0.001 A 
HETATM   29  C   UNL     1      -5.063  -1.755 -34.168  1.00  0.00     0.008 A 
ENDBRANCH   8  24
BRANCH   9  30
HETATM   30  C   UNL     1      -3.865   2.034 -31.763  1.00  0.00     0.255 C 
HETATM   31  N   UNL     1      -3.730   3.043 -32.676  1.00  0.00    -0.321 N 
HETATM   32  H   UNL     1      -3.007   2.890 -33.373  1.00  0.00     0.169 HD
HETATM   33  O   UNL     1      -2.951   1.610 -31.067  1.00  0.00    -0.268 OA
BRANCH  31  34
HETATM   34  C   UNL     1      -3.773   4.419 -32.323  1.00  0.00     0.068 A 
HETATM   35  C   UNL     1      -2.756   5.253 -32.817  1.00  0.00     0.095 A 
HETATM   36  C   UNL     1      -2.822   6.634 -32.611  1.00  0.00     0.039 A 
HETATM   37  C   UNL     1      -3.865   7.178 -31.860  1.00  0.00     0.003 A 
HETATM   38  C   UNL     1      -4.832   6.343 -31.303  1.00  0.00     0.002 A 
HETATM   39  C   UNL     1      -4.784   4.966 -31.530  1.00  0.00     0.032 A 
BRANCH  35  40
HETATM   40  O   UNL     1      -1.752   4.657 -33.541  1.00  0.00    -0.354 OA
HETATM   41  C   UNL     1      -1.635   5.174 -34.866  1.00  0.00     0.210 C 
ENDBRANCH  35  40
ENDBRANCH  31  34
ENDBRANCH   9  30
TORSDOF 8
ENDMDL
MODEL 9
REMARK VINA RESULT:      -8.4      2.700      5.555
REMARK  8 active torsions:
REMARK  status: ('A' for Active; 'I' for Inactive)
REMARK    1  A    between atoms: C_4  and  S_5 
REMARK    2  A    between atoms: S_5  and  C_6 
REMARK    3  A    between atoms: C_6  and  C_7 
REMARK       I    between atoms: C_7  and  N_8 
REMARK    4  A    between atoms: N_8  and  C_9 
REMARK    5  A    between atoms: C_20  and  C_21 
REMARK    6  A    between atoms: C_27  and  C_28 
REMARK       I    between atoms: C_28  and  N_29 
REMARK    7  A    between atoms: N_29  and  C_30 
REMARK    8  A    between atoms: C_31  and  O_32 
ROOT
HETATM    1  C   UNL     1      -7.497   1.424 -30.661  1.00  0.00     0.069 C 
HETATM    2  C   UNL     1      -8.268   2.235 -31.671  1.00  0.00     0.019 C 
HETATM    3  N   UNL     1      -8.389   3.592 -31.401  1.00  0.00    -0.353 N 
HETATM    4  C   UNL     1      -8.734   4.538 -32.356  1.00  0.00     0.088 C 
HETATM    5  C   UNL     1      -9.264   4.127 -33.535  1.00  0.00     0.069 C 
HETATM    6  C   UNL     1      -9.511   5.011 -34.626  1.00  0.00     0.099 C 
HETATM    7  N   UNL     1      -9.710   5.729 -35.516  1.00  0.00    -0.192 NA
HETATM    8  C   UNL     1      -9.583   2.644 -33.755  1.00  0.00     0.106 C 
HETATM    9  C   UNL     1      -8.820   1.738 -32.802  1.00  0.00     0.046 C 
HETATM   10  H   UNL     1      -7.819   3.959 -30.643  1.00  0.00     0.166 HD
ENDROOT
BRANCH   4  11
HETATM   11  S   UNL     1      -8.395   6.230 -32.037  1.00  0.00    -0.102 SA
BRANCH  11  12
HETATM   12  C   UNL     1      -6.721   6.359 -32.761  1.00  0.00     0.184 C 
BRANCH  12  13
HETATM   13  C   UNL     1      -5.635   5.993 -31.755  1.00  0.00     0.231 C 
HETATM   14  N   UNL     1      -4.356   6.337 -32.157  1.00  0.00    -0.327 N 
HETATM   15  H   UNL     1      -4.276   6.677 -33.111  1.00  0.00     0.169 HD
HETATM   16  O   UNL     1      -5.945   5.506 -30.671  1.00  0.00    -0.272 OA
BRANCH  14  17
HETATM   17  C   UNL     1      -3.151   6.174 -31.447  1.00  0.00     0.034 A 
HETATM   18  C   UNL     1      -2.752   6.993 -30.389  1.00  0.00     0.031 A 
HETATM   19  C   UNL     1      -1.540   6.760 -29.728  1.00  0.00     0.026 A 
HETATM   20  C   UNL     1      -0.724   5.705 -30.126  1.00  0.00     0.034 A 
HETATM   21 CL   UNL     1       0.761   5.415 -29.308  1.00  0.00    -0.084 Cl
HETATM   22  C   UNL     1      -1.106   4.884 -31.182  1.00  0.00     0.026 A 
HETATM   23  C   UNL     1      -2.315   5.121 -31.843  1.00  0.00     0.031 A 
ENDBRANCH  14  17
ENDBRANCH  12  13
ENDBRANCH  11  12
ENDBRANCH   4  11
BRANCH   8  24
HETATM   24  C   UNL     1     -11.104   2.441 -33.707  1.00  0.00    -0.044 A 
HETATM   25  C   UNL     1     -11.729   1.619 -34.662  1.00  0.00     0.008 A 
HETATM   26  C   UNL     1     -13.113   1.436 -34.651  1.00  0.00     0.001 A 
HETATM   27  C   UNL     1     -13.896   2.072 -33.692  1.00  0.00     0.000 A 
HETATM   28  C   UNL     1     -13.297   2.903 -32.750  1.00  0.00     0.001 A 
HETATM   29  C   UNL     1     -11.914   3.097 -32.764  1.00  0.00     0.008 A 
ENDBRANCH   8  24
BRANCH   9  30
HETATM   30  C   UNL     1      -8.553   0.335 -33.215  1.00  0.00     0.255 C 
HETATM   31  N   UNL     1      -7.512   0.211 -34.092  1.00  0.00    -0.321 N 
HETATM   32  H   UNL     1      -7.772  -0.132 -35.013  1.00  0.00     0.169 HD
HETATM   33  O   UNL     1      -9.317  -0.576 -32.921  1.00  0.00    -0.268 OA
BRANCH  31  34
HETATM   34  C   UNL     1      -6.245  -0.318 -33.724  1.00  0.00     0.068 A 
HETATM   35  C   UNL     1      -6.004  -1.678 -33.978  1.00  0.00     0.095 A 
HETATM   36  C   UNL     1      -4.734  -2.218 -33.757  1.00  0.00     0.039 A 
HETATM   37  C   UNL     1      -3.721  -1.419 -33.225  1.00  0.00     0.003 A 
HETATM   38  C   UNL     1      -3.980  -0.090 -32.899  1.00  0.00     0.002 A 
HETATM   39  C   UNL     1      -5.240   0.459 -33.143  1.00  0.00     0.032 A 
BRANCH  35  40
HETATM   40  O   UNL     1      -7.045  -2.414 -34.494  1.00  0.00    -0.354 OA
HETATM   41  C   UNL     1      -6.649  -3.714 -34.929  1.00  0.00     0.210 C 
ENDBRANCH  35  40
ENDBRANCH  31  34
ENDBRANCH   9  30
TORSDOF 8
ENDMDL
MODEL 10
REMARK VINA RESULT:      -8.3      1.977      3.748
REMARK  8 active torsions:
REMARK  status: ('A' for Active; 'I' for Inactive)
REMARK    1  A    between atoms: C_4  and  S_5 
REMARK    2  A    between atoms: S_5  and  C_6 
REMARK    3  A    between atoms: C_6  and  C_7 
REMARK       I    between atoms: C_7  and  N_8 
REMARK    4  A    between atoms: N_8  and  C_9 
REMARK    5  A    between atoms: C_20  and  C_21 
REMARK    6  A    between atoms: C_27  and  C_28 
REMARK       I    between atoms: C_28  and  N_29 
REMARK    7  A    between atoms: N_29  and  C_30 
REMARK    8  A    between atoms: C_31  and  O_32 
ROOT
HETATM    1  C   UNL     1      -6.947   0.326 -31.186  1.00  0.00     0.069 C 
HETATM    2  C   UNL     1      -6.631   1.583 -31.954  1.00  0.00     0.019 C 
HETATM    3  N   UNL     1      -5.453   2.232 -31.605  1.00  0.00    -0.353 N 
HETATM    4  C   UNL     1      -4.824   3.169 -32.413  1.00  0.00     0.088 C 
HETATM    5  C   UNL     1      -5.505   3.713 -33.452  1.00  0.00     0.069 C 
HETATM    6  C   UNL     1      -4.896   4.567 -34.417  1.00  0.00     0.099 C 
HETATM    7  N   UNL     1      -4.401   5.261 -35.205  1.00  0.00    -0.192 NA
HETATM    8  C   UNL     1      -6.987   3.377 -33.655  1.00  0.00     0.106 C 
HETATM    9  C   UNL     1      -7.395   2.097 -32.945  1.00  0.00     0.046 C 
HETATM   10  H   UNL     1      -4.821   1.730 -30.985  1.00  0.00     0.166 HD
ENDROOT
BRANCH   4  11
HETATM   11  S   UNL     1      -3.140   3.557 -32.109  1.00  0.00    -0.102 SA
BRANCH  11  12
HETATM   12  C   UNL     1      -3.333   5.168 -31.267  1.00  0.00     0.184 C 
BRANCH  12  13
HETATM   13  C   UNL     1      -2.000   5.715 -30.769  1.00  0.00     0.231 C 
HETATM   14  N   UNL     1      -2.049   6.240 -29.489  1.00  0.00    -0.327 N 
HETATM   15  H   UNL     1      -2.977   6.311 -29.083  1.00  0.00     0.169 HD
HETATM   16  O   UNL     1      -0.993   5.599 -31.464  1.00  0.00    -0.272 OA
BRANCH  14  17
HETATM   17  C   UNL     1      -0.992   6.781 -28.732  1.00  0.00     0.034 A 
HETATM   18  C   UNL     1       0.032   7.564 -29.270  1.00  0.00     0.031 A 
HETATM   19  C   UNL     1       1.044   8.071 -28.447  1.00  0.00     0.026 A 
HETATM   20  C   UNL     1       1.034   7.796 -27.083  1.00  0.00     0.034 A 
HETATM   21 CL   UNL     1       2.275   8.426 -26.072  1.00  0.00    -0.084 Cl
HETATM   22  C   UNL     1       0.024   7.012 -26.534  1.00  0.00     0.026 A 
HETATM   23  C   UNL     1      -0.984   6.503 -27.358  1.00  0.00     0.031 A 
ENDBRANCH  14  17
ENDBRANCH  12  13
ENDBRANCH  11  12
ENDBRANCH   4  11
BRANCH   8  24
HETATM   24  C   UNL     1      -7.838   4.594 -33.263  1.00  0.00    -0.044 A 
HETATM   25  C   UNL     1      -8.695   5.181 -34.212  1.00  0.00     0.008 A 
HETATM   26  C   UNL     1      -9.463   6.299 -33.886  1.00  0.00     0.001 A 
HETATM   27  C   UNL     1      -9.387   6.853 -32.611  1.00  0.00     0.000 A 
HETATM   28  C   UNL     1      -8.532   6.297 -31.664  1.00  0.00     0.001 A 
HETATM   29  C   UNL     1      -7.754   5.184 -31.990  1.00  0.00     0.008 A 
ENDBRANCH   8  24
BRANCH   9  30
HETATM   30  C   UNL     1      -8.559   1.334 -33.469  1.00  0.00     0.255 C 
HETATM   31  N   UNL     1      -9.731   1.609 -32.822  1.00  0.00    -0.321 N 
HETATM   32  H   UNL     1     -10.128   0.826 -32.311  1.00  0.00     0.169 HD
HETATM   33  O   UNL     1      -8.417   0.428 -34.280  1.00  0.00    -0.268 OA
BRANCH  31  34
HETATM   34  C   UNL     1     -10.775   2.381 -33.401  1.00  0.00     0.068 A 
HETATM   35  C   UNL     1     -11.383   3.364 -32.603  1.00  0.00     0.095 A 
HETATM   36  C   UNL     1     -12.321   4.237 -33.161  1.00  0.00     0.039 A 
HETATM   37  C   UNL     1     -12.699   4.093 -34.496  1.00  0.00     0.003 A 
HETATM   38  C   UNL     1     -12.154   3.070 -35.268  1.00  0.00     0.002 A 
HETATM   39  C   UNL     1     -11.198   2.212 -34.722  1.00  0.00     0.032 A 
BRANCH  35  40
HETATM   40  O   UNL     1     -10.974   3.450 -31.293  1.00  0.00    -0.354 OA
HETATM   41  C   UNL     1     -11.588   4.526 -30.585  1.00  0.00     0.210 C 
ENDBRANCH  35  40
ENDBRANCH  31  34
ENDBRANCH   9  30
TORSDOF 8
ENDMDL
