MODEL 1
REMARK VINA RESULT:      -9.2      0.000      0.000
REMARK  7 active torsions:
REMARK  status: ('A' for Active; 'I' for Inactive)
REMARK    1  A    between atoms: O_2  and  C_3 
REMARK    2  A    between atoms: C_5  and  C_6 
REMARK    3  A    between atoms: C_6  and  N_7 
REMARK    4  A    between atoms: C_6  and  C_13 
REMARK    5  A    between atoms: C_13  and  N_14 
REMARK       I    between atoms: N_14  and  C_15 
REMARK       I    between atoms: C_15  and  N_16 
REMARK    6  A    between atoms: N_16  and  C_17 
REMARK    7  A    between atoms: C_18  and  O_19 
ROOT
HETATM    1  N   UNL     1      -5.226   2.917 -32.033  1.00  0.00    -0.341 N 
HETATM    2  C   UNL     1      -3.921   3.033 -32.409  1.00  0.00     0.316 C 
HETATM    3  N   UNL     1      -3.619   4.255 -32.913  1.00  0.00    -0.332 N 
HETATM    4  O   UNL     1      -3.119   2.112 -32.284  1.00  0.00    -0.247 OA
HETATM    5  H   UNL     1      -5.819   3.702 -32.273  1.00  0.00     0.164 HD
HETATM    6  H   UNL     1      -4.376   4.831 -33.253  1.00  0.00     0.165 HD
ENDROOT
BRANCH   1   7
HETATM    7  C   UNL     1      -5.896   1.633 -31.844  1.00  0.00     0.162 C 
BRANCH   7   8
HETATM    8  C   UNL     1      -6.497   0.962 -33.125  1.00  0.00     0.238 C 
BRANCH   8   9
HETATM    9  C   UNL     1      -5.850  -0.375 -33.451  1.00  0.00    -0.023 A 
HETATM   10  C   UNL     1      -4.764  -0.827 -32.681  1.00  0.00     0.046 A 
HETATM   11  C   UNL     1      -4.113  -2.033 -32.965  1.00  0.00     0.068 A 
HETATM   12  C   UNL     1      -4.558  -2.815 -34.028  1.00  0.00     0.037 A 
HETATM   13  C   UNL     1      -5.641  -2.391 -34.799  1.00  0.00     0.003 A 
HETATM   14  C   UNL     1      -6.280  -1.183 -34.517  1.00  0.00     0.009 A 
BRANCH  11  15
HETATM   15  O   UNL     1      -3.066  -2.320 -32.135  1.00  0.00    -0.356 OA
HETATM   16  C   UNL     1      -2.928  -3.674 -31.715  1.00  0.00     0.210 C 
ENDBRANCH  11  15
ENDBRANCH   8   9
BRANCH   8  17
HETATM   17  N   UNL     1      -8.023   0.909 -33.050  1.00  0.00    -0.061 N 
HETATM   18  H   UNL     1      -8.239  -0.108 -33.072  1.00  0.00     0.280 HD
HETATM   19  C   UNL     1      -8.814   1.503 -34.178  1.00  0.00     0.236 C 
HETATM   20  C   UNL     1      -9.221   2.871 -33.677  1.00  0.00     0.029 C 
HETATM   21  C   UNL     1      -9.360   2.722 -32.173  1.00  0.00     0.029 C 
HETATM   22  C   UNL     1      -8.633   1.443 -31.784  1.00  0.00     0.236 C 
ENDBRANCH   8  17
ENDBRANCH   7   8
ENDBRANCH   1   7
BRANCH   3  23
HETATM   23  C   UNL     1      -2.317   4.543 -33.502  1.00  0.00     0.149 C 
HETATM   24  C   UNL     1      -2.353   5.609 -34.650  1.00  0.00     0.149 C 
HETATM   25  C   UNL     1      -2.200   6.980 -33.966  1.00  0.00     0.073 C 
HETATM   26  C   UNL     1      -1.396   6.621 -32.755  1.00  0.00    -0.047 A 
HETATM   27  C   UNL     1      -1.447   5.244 -32.499  1.00  0.00    -0.026 A 
HETATM   28  C   UNL     1      -0.700   7.479 -31.920  1.00  0.00     0.008 A 
HETATM   29  C   UNL     1      -0.793   4.699 -31.405  1.00  0.00     0.010 A 
HETATM   30  C   UNL     1      -0.077   5.555 -30.566  1.00  0.00     0.001 A 
HETATM   31  C   UNL     1      -0.032   6.935 -30.821  1.00  0.00     0.001 A 
BRANCH  24  32
HETATM   32  O   UNL     1      -3.534   5.571 -35.446  1.00  0.00    -0.393 OA
HETATM   33  H   UNL     1      -3.629   6.462 -35.834  1.00  0.00     0.210 HD
ENDBRANCH  24  32
ENDBRANCH   3  23
TORSDOF 7
ENDMDL
MODEL 2
REMARK VINA RESULT:      -8.8      1.468      2.091
REMARK  7 active torsions:
REMARK  status: ('A' for Active; 'I' for Inactive)
REMARK    1  A    between atoms: O_2  and  C_3 
REMARK    2  A    between atoms: C_5  and  C_6 
REMARK    3  A    between atoms: C_6  and  N_7 
REMARK    4  A    between atoms: C_6  and  C_13 
REMARK    5  A    between atoms: C_13  and  N_14 
REMARK       I    between atoms: N_14  and  C_15 
REMARK       I    between atoms: C_15  and  N_16 
REMARK    6  A    between atoms: N_16  and  C_17 
REMARK    7  A    between atoms: C_18  and  O_19 
ROOT
HETATM    1  N   UNL     1      -4.419   2.486 -32.492  1.00  0.00    -0.341 N 
HETATM    2  C   UNL     1      -3.223   3.065 -32.190  1.00  0.00     0.316 C 
HETATM    3  N   UNL     1      -2.946   4.148 -32.960  1.00  0.00    -0.332 N 
HETATM    4  O   UNL     1      -2.492   2.637 -31.301  1.00  0.00    -0.247 OA
HETATM    5  H   UNL     1      -4.890   2.859 -33.307  1.00  0.00     0.164 HD
HETATM    6  H   UNL     1      -3.436   4.246 -33.838  1.00  0.00     0.165 HD
ENDROOT
BRANCH   1   7
HETATM    7  C   UNL     1      -4.767   1.119 -32.113  1.00  0.00     0.162 C 
BRANCH   7   8
HETATM    8  C   UNL     1      -5.120   0.138 -33.281  1.00  0.00     0.238 C 
BRANCH   8   9
HETATM    9  C   UNL     1      -4.498  -1.239 -33.106  1.00  0.00    -0.023 A 
HETATM   10  C   UNL     1      -4.879  -2.287 -33.962  1.00  0.00     0.046 A 
HETATM   11  C   UNL     1      -4.361  -3.579 -33.817  1.00  0.00     0.068 A 
HETATM   12  C   UNL     1      -3.434  -3.834 -32.810  1.00  0.00     0.037 A 
HETATM   13  C   UNL     1      -3.033  -2.806 -31.956  1.00  0.00     0.003 A 
HETATM   14  C   UNL     1      -3.559  -1.522 -32.099  1.00  0.00     0.009 A 
BRANCH  11  15
HETATM   15  O   UNL     1      -4.846  -4.487 -34.715  1.00  0.00    -0.356 OA
HETATM   16  C   UNL     1      -6.246  -4.449 -34.978  1.00  0.00     0.210 C 
ENDBRANCH  11  15
ENDBRANCH   8   9
BRANCH   8  17
HETATM   17  N   UNL     1      -6.628   0.107 -33.532  1.00  0.00    -0.061 N 
HETATM   18  H   UNL     1      -6.828  -0.893 -33.736  1.00  0.00     0.280 HD
HETATM   19  C   UNL     1      -7.171   0.863 -34.709  1.00  0.00     0.236 C 
HETATM   20  C   UNL     1      -7.683   2.160 -34.124  1.00  0.00     0.029 C 
HETATM   21  C   UNL     1      -8.132   1.814 -32.715  1.00  0.00     0.029 C 
HETATM   22  C   UNL     1      -7.493   0.480 -32.360  1.00  0.00     0.236 C 
ENDBRANCH   8  17
ENDBRANCH   7   8
ENDBRANCH   1   7
BRANCH   3  23
HETATM   23  C   UNL     1      -1.659   4.827 -32.896  1.00  0.00     0.149 C 
HETATM   24  C   UNL     1      -1.260   5.573 -34.215  1.00  0.00     0.149 C 
HETATM   25  C   UNL     1      -1.863   6.986 -34.108  1.00  0.00     0.073 C 
HETATM   26  C   UNL     1      -1.869   7.196 -32.626  1.00  0.00    -0.047 A 
HETATM   27  C   UNL     1      -1.738   5.982 -31.938  1.00  0.00    -0.026 A 
HETATM   28  C   UNL     1      -2.020   8.392 -31.945  1.00  0.00     0.008 A 
HETATM   29  C   UNL     1      -1.747   5.944 -30.553  1.00  0.00     0.010 A 
HETATM   30  C   UNL     1      -1.885   7.147 -29.858  1.00  0.00     0.001 A 
HETATM   31  C   UNL     1      -2.022   8.362 -30.548  1.00  0.00     0.001 A 
BRANCH  24  32
HETATM   32  O   UNL     1      -1.698   4.926 -35.407  1.00  0.00    -0.393 OA
HETATM   33  H   UNL     1      -1.782   3.979 -35.187  1.00  0.00     0.210 HD
ENDBRANCH  24  32
ENDBRANCH   3  23
TORSDOF 7
ENDMDL
MODEL 3
REMARK VINA RESULT:      -8.5      4.157      7.933
REMARK  7 active torsions:
REMARK  status: ('A' for Active; 'I' for Inactive)
REMARK    1  A    between atoms: O_2  and  C_3 
REMARK    2  A    between atoms: C_5  and  C_6 
REMARK    3  A    between atoms: C_6  and  N_7 
REMARK    4  A    between atoms: C_6  and  C_13 
REMARK    5  A    between atoms: C_13  and  N_14 
REMARK       I    between atoms: N_14  and  C_15 
REMARK       I    between atoms: C_15  and  N_16 
REMARK    6  A    between atoms: N_16  and  C_17 
REMARK    7  A    between atoms: C_18  and  O_19 
ROOT
HETATM    1  N   UNL     1      -8.352   0.054 -32.315  1.00  0.00    -0.341 N 
HETATM    2  C   UNL     1      -7.493  -0.247 -33.330  1.00  0.00     0.316 C 
HETATM    3  N   UNL     1      -6.298  -0.719 -32.893  1.00  0.00    -0.332 N 
HETATM    4  O   UNL     1      -7.797  -0.105 -34.511  1.00  0.00    -0.247 OA
HETATM    5  H   UNL     1      -7.962  -0.007 -31.383  1.00  0.00     0.164 HD
HETATM    6  H   UNL     1      -6.028  -0.524 -31.940  1.00  0.00     0.165 HD
ENDROOT
BRANCH   1   7
HETATM    7  C   UNL     1      -9.510   0.928 -32.477  1.00  0.00     0.162 C 
BRANCH   7   8
HETATM    8  C   UNL     1      -9.253   2.308 -33.171  1.00  0.00     0.238 C 
BRANCH   8   9
HETATM    9  C   UNL     1     -10.392   2.732 -34.086  1.00  0.00    -0.023 A 
HETATM   10  C   UNL     1     -11.499   1.882 -34.256  1.00  0.00     0.046 A 
HETATM   11  C   UNL     1     -12.553   2.211 -35.115  1.00  0.00     0.068 A 
HETATM   12  C   UNL     1     -12.517   3.417 -35.811  1.00  0.00     0.037 A 
HETATM   13  C   UNL     1     -11.433   4.281 -35.649  1.00  0.00     0.003 A 
HETATM   14  C   UNL     1     -10.380   3.943 -34.798  1.00  0.00     0.009 A 
BRANCH  11  15
HETATM   15  O   UNL     1     -13.543   1.271 -35.182  1.00  0.00    -0.356 OA
HETATM   16  C   UNL     1     -14.280   1.024 -33.989  1.00  0.00     0.210 C 
ENDBRANCH  11  15
ENDBRANCH   8   9
BRANCH   8  17
HETATM   17  N   UNL     1      -8.857   3.371 -32.147  1.00  0.00    -0.061 N 
HETATM   18  H   UNL     1      -9.483   4.173 -32.361  1.00  0.00     0.280 HD
HETATM   19  C   UNL     1      -7.467   3.932 -32.202  1.00  0.00     0.236 C 
HETATM   20  C   UNL     1      -6.707   3.173 -31.138  1.00  0.00     0.029 C 
HETATM   21  C   UNL     1      -7.735   2.841 -30.071  1.00  0.00     0.029 C 
HETATM   22  C   UNL     1      -9.106   3.015 -30.707  1.00  0.00     0.236 C 
ENDBRANCH   8  17
ENDBRANCH   7   8
ENDBRANCH   1   7
BRANCH   3  23
HETATM   23  C   UNL     1      -5.190  -0.967 -33.807  1.00  0.00     0.149 C 
HETATM   24  C   UNL     1      -3.779  -0.652 -33.205  1.00  0.00     0.149 C 
HETATM   25  C   UNL     1      -3.315  -1.941 -32.501  1.00  0.00     0.073 C 
HETATM   26  C   UNL     1      -4.011  -2.990 -33.312  1.00  0.00    -0.047 A 
HETATM   27  C   UNL     1      -5.060  -2.442 -34.063  1.00  0.00    -0.026 A 
HETATM   28  C   UNL     1      -3.743  -4.348 -33.343  1.00  0.00     0.008 A 
HETATM   29  C   UNL     1      -5.856  -3.243 -34.866  1.00  0.00     0.010 A 
HETATM   30  C   UNL     1      -5.583  -4.612 -34.913  1.00  0.00     0.001 A 
HETATM   31  C   UNL     1      -4.535  -5.160 -34.156  1.00  0.00     0.001 A 
BRANCH  24  32
HETATM   32  O   UNL     1      -3.761   0.450 -32.301  1.00  0.00    -0.393 OA
HETATM   33  H   UNL     1      -2.822   0.615 -32.092  1.00  0.00     0.210 HD
ENDBRANCH  24  32
ENDBRANCH   3  23
TORSDOF 7
ENDMDL
MODEL 4
REMARK VINA RESULT:      -8.4      2.346      8.699
REMARK  7 active torsions:
REMARK  status: ('A' for Active; 'I' for Inactive)
REMARK    1  A    between atoms: O_2  and  C_3 
REMARK    2  A    between atoms: C_5  and  C_6 
REMARK    3  A    between atoms: C_6  and  N_7 
REMARK    4  A    between atoms: C_6  and  C_13 
REMARK    5  A    between atoms: C_13  and  N_14 
REMARK       I    between atoms: N_14  and  C_15 
REMARK       I    between atoms: C_15  and  N_16 
REMARK    6  A    between atoms: N_16  and  C_17 
REMARK    7  A    between atoms: C_18  and  O_19 
ROOT
HETATM    1  N   UNL     1      -3.288   3.317 -32.028  1.00  0.00    -0.341 N 
HETATM    2  C   UNL     1      -3.585   2.050 -31.621  1.00  0.00     0.316 C 
HETATM    3  N   UNL     1      -4.885   1.718 -31.821  1.00  0.00    -0.332 N 
HETATM    4  O   UNL     1      -2.741   1.303 -31.135  1.00  0.00    -0.247 OA
HETATM    5  H   UNL     1      -4.079   3.876 -32.321  1.00  0.00     0.164 HD
HETATM    6  H   UNL     1      -5.555   2.464 -31.938  1.00  0.00     0.165 HD
ENDROOT
BRANCH   1   7
HETATM    7  C   UNL     1      -2.108   4.049 -31.576  1.00  0.00     0.162 C 
BRANCH   7   8
HETATM    8  C   UNL     1      -2.246   5.607 -31.484  1.00  0.00     0.238 C 
BRANCH   8   9
HETATM    9  C   UNL     1      -1.365   6.215 -30.403  1.00  0.00    -0.023 A 
HETATM   10  C   UNL     1      -1.686   7.478 -29.875  1.00  0.00     0.046 A 
HETATM   11  C   UNL     1      -0.887   8.094 -28.906  1.00  0.00     0.068 A 
HETATM   12  C   UNL     1       0.250   7.438 -28.440  1.00  0.00     0.037 A 
HETATM   13  C   UNL     1       0.581   6.179 -28.943  1.00  0.00     0.003 A 
HETATM   14  C   UNL     1      -0.214   5.573 -29.915  1.00  0.00     0.009 A 
BRANCH  11  15
HETATM   15  O   UNL     1      -1.326   9.326 -28.511  1.00  0.00    -0.356 OA
HETATM   16  C   UNL     1      -2.157  10.038 -29.423  1.00  0.00     0.210 C 
ENDBRANCH  11  15
ENDBRANCH   8   9
BRANCH   8  17
HETATM   17  N   UNL     1      -2.073   6.253 -32.858  1.00  0.00    -0.061 N 
HETATM   18  H   UNL     1      -1.681   7.192 -32.646  1.00  0.00     0.280 HD
HETATM   19  C   UNL     1      -3.299   6.516 -33.682  1.00  0.00     0.236 C 
HETATM   20  C   UNL     1      -3.357   5.363 -34.658  1.00  0.00     0.029 C 
HETATM   21  C   UNL     1      -1.910   4.972 -34.902  1.00  0.00     0.029 C 
HETATM   22  C   UNL     1      -1.089   5.583 -33.777  1.00  0.00     0.236 C 
ENDBRANCH   8  17
ENDBRANCH   7   8
ENDBRANCH   1   7
BRANCH   3  23
HETATM   23  C   UNL     1      -5.441   0.464 -31.329  1.00  0.00     0.149 C 
HETATM   24  C   UNL     1      -6.945   0.554 -30.898  1.00  0.00     0.149 C 
HETATM   25  C   UNL     1      -7.772   0.271 -32.166  1.00  0.00     0.073 C 
HETATM   26  C   UNL     1      -6.847  -0.623 -32.931  1.00  0.00    -0.047 A 
HETATM   27  C   UNL     1      -5.533  -0.530 -32.451  1.00  0.00    -0.026 A 
HETATM   28  C   UNL     1      -7.159  -1.436 -34.008  1.00  0.00     0.008 A 
HETATM   29  C   UNL     1      -4.508  -1.255 -33.037  1.00  0.00     0.010 A 
HETATM   30  C   UNL     1      -4.817  -2.088 -34.115  1.00  0.00     0.001 A 
HETATM   31  C   UNL     1      -6.132  -2.176 -34.598  1.00  0.00     0.001 A 
BRANCH  24  32
HETATM   32  O   UNL     1      -7.315   1.805 -30.323  1.00  0.00    -0.393 OA
HETATM   33  H   UNL     1      -6.649   1.996 -29.636  1.00  0.00     0.210 HD
ENDBRANCH  24  32
ENDBRANCH   3  23
TORSDOF 7
ENDMDL
MODEL 5
REMARK VINA RESULT:      -8.4      3.225      7.017
REMARK  7 active torsions:
REMARK  status: ('A' for Active; 'I' for Inactive)
REMARK    1  A    between atoms: O_2  and  C_3 
REMARK    2  A    between atoms: C_5  and  C_6 
REMARK    3  A    between atoms: C_6  and  N_7 
REMARK    4  A    between atoms: C_6  and  C_13 
REMARK    5  A    between atoms: C_13  and  N_14 
REMARK       I    between atoms: N_14  and  C_15 
REMARK       I    between atoms: C_15  and  N_16 
REMARK    6  A    between atoms: N_16  and  C_17 
REMARK    7  A    between atoms: C_18  and  O_19 
ROOT
HETATM    1  N   UNL     1      -8.632  -0.021 -33.539  1.00  0.00    -0.341 N 
HETATM    2  C   UNL     1      -7.401  -0.054 -34.122  1.00  0.00     0.316 C 
HETATM    3  N   UNL     1      -6.435  -0.536 -33.300  1.00  0.00    -0.332 N 
HETATM    4  O   UNL     1      -7.213   0.311 -35.279  1.00  0.00    -0.247 OA
HETATM    5  H   UNL     1      -8.653  -0.250 -32.553  1.00  0.00     0.164 HD
HETATM    6  H   UNL     1      -6.608  -0.527 -32.305  1.00  0.00     0.165 HD
ENDROOT
BRANCH   1   7
HETATM    7  C   UNL     1      -9.734   0.799 -34.036  1.00  0.00     0.162 C 
BRANCH   7   8
HETATM    8  C   UNL     1     -10.196   1.980 -33.118  1.00  0.00     0.238 C 
BRANCH   8   9
HETATM    9  C   UNL     1      -9.040   2.846 -32.641  1.00  0.00    -0.023 A 
HETATM   10  C   UNL     1      -8.265   3.548 -33.580  1.00  0.00     0.046 A 
HETATM   11  C   UNL     1      -7.170   4.328 -33.193  1.00  0.00     0.068 A 
HETATM   12  C   UNL     1      -6.845   4.426 -31.843  1.00  0.00     0.037 A 
HETATM   13  C   UNL     1      -7.607   3.747 -30.892  1.00  0.00     0.003 A 
HETATM   14  C   UNL     1      -8.693   2.963 -31.284  1.00  0.00     0.009 A 
BRANCH  11  15
HETATM   15  O   UNL     1      -6.510   4.930 -34.228  1.00  0.00    -0.356 OA
HETATM   16  C   UNL     1      -5.111   5.143 -34.064  1.00  0.00     0.210 C 
ENDBRANCH  11  15
ENDBRANCH   8   9
BRANCH   8  17
HETATM   17  N   UNL     1     -11.331   2.768 -33.771  1.00  0.00    -0.061 N 
HETATM   18  H   UNL     1     -10.875   3.646 -34.091  1.00  0.00     0.280 HD
HETATM   19  C   UNL     1     -12.478   3.213 -32.912  1.00  0.00     0.236 C 
HETATM   20  C   UNL     1     -13.561   2.188 -33.163  1.00  0.00     0.029 C 
HETATM   21  C   UNL     1     -13.352   1.727 -34.594  1.00  0.00     0.029 C 
HETATM   22  C   UNL     1     -11.944   2.141 -34.993  1.00  0.00     0.236 C 
ENDBRANCH   8  17
ENDBRANCH   7   8
ENDBRANCH   1   7
BRANCH   3  23
HETATM   23  C   UNL     1      -5.028  -0.524 -33.679  1.00  0.00     0.149 C 
HETATM   24  C   UNL     1      -4.103   0.264 -32.690  1.00  0.00     0.149 C 
HETATM   25  C   UNL     1      -3.669  -0.747 -31.611  1.00  0.00     0.073 C 
HETATM   26  C   UNL     1      -3.701  -2.032 -32.377  1.00  0.00    -0.047 A 
HETATM   27  C   UNL     1      -4.454  -1.907 -33.553  1.00  0.00    -0.026 A 
HETATM   28  C   UNL     1      -3.125  -3.240 -32.022  1.00  0.00     0.008 A 
HETATM   29  C   UNL     1      -4.637  -2.988 -34.400  1.00  0.00     0.010 A 
HETATM   30  C   UNL     1      -4.047  -4.207 -34.056  1.00  0.00     0.001 A 
HETATM   31  C   UNL     1      -3.299  -4.332 -32.875  1.00  0.00     0.001 A 
BRANCH  24  32
HETATM   32  O   UNL     1      -4.720   1.403 -32.095  1.00  0.00    -0.393 OA
HETATM   33  H   UNL     1      -4.011   1.880 -31.622  1.00  0.00     0.210 HD
ENDBRANCH  24  32
ENDBRANCH   3  23
TORSDOF 7
ENDMDL
MODEL 6
REMARK VINA RESULT:      -8.4      1.990      2.598
REMARK  7 active torsions:
REMARK  status: ('A' for Active; 'I' for Inactive)
REMARK    1  A    between atoms: O_2  and  C_3 
REMARK    2  A    between atoms: C_5  and  C_6 
REMARK    3  A    between atoms: C_6  and  N_7 
REMARK    4  A    between atoms: C_6  and  C_13 
REMARK    5  A    between atoms: C_13  and  N_14 
REMARK       I    between atoms: N_14  and  C_15 
REMARK       I    between atoms: C_15  and  N_16 
REMARK    6  A    between atoms: N_16  and  C_17 
REMARK    7  A    between atoms: C_18  and  O_19 
ROOT
HETATM    1  N   UNL     1      -3.403   2.568 -31.385  1.00  0.00    -0.341 N 
HETATM    2  C   UNL     1      -3.031   3.814 -31.793  1.00  0.00     0.316 C 
HETATM    3  N   UNL     1      -3.252   4.770 -30.856  1.00  0.00    -0.332 N 
HETATM    4  O   UNL     1      -2.538   4.022 -32.898  1.00  0.00    -0.247 OA
HETATM    5  H   UNL     1      -3.889   2.529 -30.497  1.00  0.00     0.164 HD
HETATM    6  H   UNL     1      -3.916   4.573 -30.122  1.00  0.00     0.165 HD
ENDROOT
BRANCH   1   7
HETATM    7  C   UNL     1      -3.645   1.461 -32.305  1.00  0.00     0.162 C 
BRANCH   7   8
HETATM    8  C   UNL     1      -5.139   1.181 -32.684  1.00  0.00     0.238 C 
BRANCH   8   9
HETATM    9  C   UNL     1      -5.332  -0.163 -33.371  1.00  0.00    -0.023 A 
HETATM   10  C   UNL     1      -4.495  -1.241 -33.037  1.00  0.00     0.046 A 
HETATM   11  C   UNL     1      -4.611  -2.485 -33.667  1.00  0.00     0.068 A 
HETATM   12  C   UNL     1      -5.588  -2.668 -34.642  1.00  0.00     0.037 A 
HETATM   13  C   UNL     1      -6.438  -1.615 -34.982  1.00  0.00     0.003 A 
HETATM   14  C   UNL     1      -6.312  -0.374 -34.356  1.00  0.00     0.009 A 
BRANCH  11  15
HETATM   15  O   UNL     1      -3.711  -3.421 -33.242  1.00  0.00    -0.356 OA
HETATM   16  C   UNL     1      -3.077  -3.183 -31.989  1.00  0.00     0.210 C 
ENDBRANCH  11  15
ENDBRANCH   8   9
BRANCH   8  17
HETATM   17  N   UNL     1      -6.058   1.399 -31.483  1.00  0.00    -0.061 N 
HETATM   18  H   UNL     1      -5.405   1.603 -30.701  1.00  0.00     0.280 HD
HETATM   19  C   UNL     1      -6.894   0.249 -31.006  1.00  0.00     0.236 C 
HETATM   20  C   UNL     1      -8.259   0.494 -31.609  1.00  0.00     0.029 C 
HETATM   21  C   UNL     1      -8.388   2.004 -31.705  1.00  0.00     0.029 C 
HETATM   22  C   UNL     1      -6.986   2.579 -31.577  1.00  0.00     0.236 C 
ENDBRANCH   8  17
ENDBRANCH   7   8
ENDBRANCH   1   7
BRANCH   3  23
HETATM   23  C   UNL     1      -3.056   6.186 -31.142  1.00  0.00     0.149 C 
HETATM   24  C   UNL     1      -4.002   7.141 -30.338  1.00  0.00     0.149 C 
HETATM   25  C   UNL     1      -3.280   7.443 -29.011  1.00  0.00     0.073 C 
HETATM   26  C   UNL     1      -1.845   7.323 -29.420  1.00  0.00    -0.047 A 
HETATM   27  C   UNL     1      -1.714   6.628 -30.630  1.00  0.00    -0.026 A 
HETATM   28  C   UNL     1      -0.732   7.775 -28.731  1.00  0.00     0.008 A 
HETATM   29  C   UNL     1      -0.466   6.380 -31.178  1.00  0.00     0.010 A 
HETATM   30  C   UNL     1       0.661   6.845 -30.496  1.00  0.00     0.001 A 
HETATM   31  C   UNL     1       0.529   7.536 -29.281  1.00  0.00     0.001 A 
BRANCH  24  32
HETATM   32  O   UNL     1      -5.301   6.608 -30.095  1.00  0.00    -0.393 OA
HETATM   33  H   UNL     1      -5.463   6.710 -29.138  1.00  0.00     0.210 HD
ENDBRANCH  24  32
ENDBRANCH   3  23
TORSDOF 7
ENDMDL
MODEL 7
REMARK VINA RESULT:      -8.1      3.398      7.884
REMARK  7 active torsions:
REMARK  status: ('A' for Active; 'I' for Inactive)
REMARK    1  A    between atoms: O_2  and  C_3 
REMARK    2  A    between atoms: C_5  and  C_6 
REMARK    3  A    between atoms: C_6  and  N_7 
REMARK    4  A    between atoms: C_6  and  C_13 
REMARK    5  A    between atoms: C_13  and  N_14 
REMARK       I    between atoms: N_14  and  C_15 
REMARK       I    between atoms: C_15  and  N_16 
REMARK    6  A    between atoms: N_16  and  C_17 
REMARK    7  A    between atoms: C_18  and  O_19 
ROOT
HETATM    1  N   UNL     1      -7.333   0.371 -31.311  1.00  0.00    -0.341 N 
HETATM    2  C   UNL     1      -6.457   0.161 -32.334  1.00  0.00     0.316 C 
HETATM    3  N   UNL     1      -5.518  -0.776 -32.046  1.00  0.00    -0.332 N 
HETATM    4  O   UNL     1      -6.536   0.763 -33.400  1.00  0.00    -0.247 OA
HETATM    5  H   UNL     1      -7.114  -0.105 -30.445  1.00  0.00     0.164 HD
HETATM    6  H   UNL     1      -5.344  -0.993 -31.075  1.00  0.00     0.165 HD
ENDROOT
BRANCH   1   7
HETATM    7  C   UNL     1      -8.164   1.568 -31.200  1.00  0.00     0.162 C 
BRANCH   7   8
HETATM    8  C   UNL     1      -8.538   2.286 -32.540  1.00  0.00     0.238 C 
BRANCH   8   9
HETATM    9  C   UNL     1     -10.020   2.187 -32.870  1.00  0.00    -0.023 A 
HETATM   10  C   UNL     1     -10.885   3.232 -32.500  1.00  0.00     0.046 A 
HETATM   11  C   UNL     1     -12.260   3.170 -32.749  1.00  0.00     0.068 A 
HETATM   12  C   UNL     1     -12.788   2.054 -33.393  1.00  0.00     0.037 A 
HETATM   13  C   UNL     1     -11.946   1.010 -33.780  1.00  0.00     0.003 A 
HETATM   14  C   UNL     1     -10.577   1.073 -33.520  1.00  0.00     0.009 A 
BRANCH  11  15
HETATM   15  O   UNL     1     -12.964   4.256 -32.311  1.00  0.00    -0.356 OA
HETATM   16  C   UNL     1     -14.382   4.200 -32.437  1.00  0.00     0.210 C 
ENDBRANCH  11  15
ENDBRANCH   8   9
BRANCH   8  17
HETATM   17  N   UNL     1      -7.993   3.713 -32.567  1.00  0.00    -0.061 N 
HETATM   18  H   UNL     1      -8.776   4.288 -32.196  1.00  0.00     0.280 HD
HETATM   19  C   UNL     1      -7.653   4.323 -33.894  1.00  0.00     0.236 C 
HETATM   20  C   UNL     1      -6.154   4.158 -34.016  1.00  0.00     0.029 C 
HETATM   21  C   UNL     1      -5.628   4.217 -32.593  1.00  0.00     0.029 C 
HETATM   22  C   UNL     1      -6.815   3.979 -31.671  1.00  0.00     0.236 C 
ENDBRANCH   8  17
ENDBRANCH   7   8
ENDBRANCH   1   7
BRANCH   3  23
HETATM   23  C   UNL     1      -4.405  -1.050 -32.946  1.00  0.00     0.149 C 
HETATM   24  C   UNL     1      -3.038  -1.293 -32.221  1.00  0.00     0.149 C 
HETATM   25  C   UNL     1      -2.981  -2.799 -31.904  1.00  0.00     0.073 C 
HETATM   26  C   UNL     1      -3.811  -3.367 -33.012  1.00  0.00    -0.047 A 
HETATM   27  C   UNL     1      -4.605  -2.381 -33.614  1.00  0.00    -0.026 A 
HETATM   28  C   UNL     1      -3.876  -4.687 -33.425  1.00  0.00     0.008 A 
HETATM   29  C   UNL     1      -5.473  -2.697 -34.647  1.00  0.00     0.010 A 
HETATM   30  C   UNL     1      -5.533  -4.023 -35.079  1.00  0.00     0.001 A 
HETATM   31  C   UNL     1      -4.742  -5.012 -34.472  1.00  0.00     0.001 A 
BRANCH  24  32
HETATM   32  O   UNL     1      -2.859  -0.521 -31.036  1.00  0.00    -0.393 OA
HETATM   33  H   UNL     1      -2.736   0.402 -31.328  1.00  0.00     0.210 HD
ENDBRANCH  24  32
ENDBRANCH   3  23
TORSDOF 7
ENDMDL
MODEL 8
REMARK VINA RESULT:      -8.0      2.306      7.993
REMARK  7 active torsions:
REMARK  status: ('A' for Active; 'I' for Inactive)
REMARK    1  A    between atoms: O_2  and  C_3 
REMARK    2  A    between atoms: C_5  and  C_6 
REMARK    3  A    between atoms: C_6  and  N_7 
REMARK    4  A    between atoms: C_6  and  C_13 
REMARK    5  A    between atoms: C_13  and  N_14 
REMARK       I    between atoms: N_14  and  C_15 
REMARK       I    between atoms: C_15  and  N_16 
REMARK    6  A    between atoms: N_16  and  C_17 
REMARK    7  A    between atoms: C_18  and  O_19 
ROOT
HETATM    1  N   UNL     1      -3.319   2.873 -32.697  1.00  0.00    -0.341 N 
HETATM    2  C   UNL     1      -3.631   1.714 -32.053  1.00  0.00     0.316 C 
HETATM    3  N   UNL     1      -4.591   0.995 -32.687  1.00  0.00    -0.332 N 
HETATM    4  O   UNL     1      -3.079   1.373 -31.011  1.00  0.00    -0.247 OA
HETATM    5  H   UNL     1      -3.905   3.102 -33.490  1.00  0.00     0.164 HD
HETATM    6  H   UNL     1      -5.187   1.473 -33.347  1.00  0.00     0.165 HD
ENDROOT
BRANCH   1   7
HETATM    7  C   UNL     1      -2.639   3.993 -32.050  1.00  0.00     0.162 C 
BRANCH   7   8
HETATM    8  C   UNL     1      -3.467   5.311 -31.882  1.00  0.00     0.238 C 
BRANCH   8   9
HETATM    9  C   UNL     1      -4.884   5.061 -31.388  1.00  0.00    -0.023 A 
HETATM   10  C   UNL     1      -5.974   5.397 -32.209  1.00  0.00     0.046 A 
HETATM   11  C   UNL     1      -7.296   5.219 -31.784  1.00  0.00     0.068 A 
HETATM   12  C   UNL     1      -7.541   4.682 -30.523  1.00  0.00     0.037 A 
HETATM   13  C   UNL     1      -6.474   4.331 -29.697  1.00  0.00     0.003 A 
HETATM   14  C   UNL     1      -5.158   4.518 -30.121  1.00  0.00     0.009 A 
BRANCH  11  15
HETATM   15  O   UNL     1      -8.239   5.613 -32.691  1.00  0.00    -0.356 OA
HETATM   16  C   UNL     1      -8.354   4.837 -33.880  1.00  0.00     0.210 C 
ENDBRANCH  11  15
ENDBRANCH   8   9
BRANCH   8  17
HETATM   17  N   UNL     1      -2.696   6.339 -31.054  1.00  0.00    -0.061 N 
HETATM   18  H   UNL     1      -3.164   6.314 -30.125  1.00  0.00     0.280 HD
HETATM   19  C   UNL     1      -2.743   7.777 -31.478  1.00  0.00     0.236 C 
HETATM   20  C   UNL     1      -1.453   7.992 -32.238  1.00  0.00     0.029 C 
HETATM   21  C   UNL     1      -0.450   7.048 -31.598  1.00  0.00     0.029 C 
HETATM   22  C   UNL     1      -1.247   6.023 -30.805  1.00  0.00     0.236 C 
ENDBRANCH   8  17
ENDBRANCH   7   8
ENDBRANCH   1   7
BRANCH   3  23
HETATM   23  C   UNL     1      -5.170  -0.205 -32.095  1.00  0.00     0.149 C 
HETATM   24  C   UNL     1      -6.689  -0.074 -31.734  1.00  0.00     0.149 C 
HETATM   25  C   UNL     1      -7.467  -0.482 -32.999  1.00  0.00     0.073 C 
HETATM   26  C   UNL     1      -6.515  -1.447 -33.635  1.00  0.00    -0.047 A 
HETATM   27  C   UNL     1      -5.221  -1.305 -33.116  1.00  0.00    -0.026 A 
HETATM   28  C   UNL     1      -6.788  -2.363 -34.637  1.00  0.00     0.008 A 
HETATM   29  C   UNL     1      -4.176  -2.084 -33.587  1.00  0.00     0.010 A 
HETATM   30  C   UNL     1      -4.445  -3.019 -34.588  1.00  0.00     0.001 A 
HETATM   31  C   UNL     1      -5.741  -3.157 -35.110  1.00  0.00     0.001 A 
BRANCH  24  32
HETATM   32  O   UNL     1      -7.077   1.227 -31.301  1.00  0.00    -0.393 OA
HETATM   33  H   UNL     1      -8.038   1.291 -31.458  1.00  0.00     0.210 HD
ENDBRANCH  24  32
ENDBRANCH   3  23
TORSDOF 7
ENDMDL
MODEL 9
REMARK VINA RESULT:      -8.0      4.546      7.913
REMARK  7 active torsions:
REMARK  status: ('A' for Active; 'I' for Inactive)
REMARK    1  A    between atoms: O_2  and  C_3 
REMARK    2  A    between atoms: C_5  and  C_6 
REMARK    3  A    between atoms: C_6  and  N_7 
REMARK    4  A    between atoms: C_6  and  C_13 
REMARK    5  A    between atoms: C_13  and  N_14 
REMARK       I    between atoms: N_14  and  C_15 
REMARK       I    between atoms: C_15  and  N_16 
REMARK    6  A    between atoms: N_16  and  C_17 
REMARK    7  A    between atoms: C_18  and  O_19 
ROOT
HETATM    1  N   UNL     1      -8.470  -0.069 -32.323  1.00  0.00    -0.341 N 
HETATM    2  C   UNL     1      -7.585  -0.369 -33.315  1.00  0.00     0.316 C 
HETATM    3  N   UNL     1      -6.339  -0.644 -32.853  1.00  0.00    -0.332 N 
HETATM    4  O   UNL     1      -7.910  -0.390 -34.499  1.00  0.00    -0.247 OA
HETATM    5  H   UNL     1      -8.071   0.017 -31.396  1.00  0.00     0.164 HD
HETATM    6  H   UNL     1      -6.091  -0.317 -31.930  1.00  0.00     0.165 HD
ENDROOT
BRANCH   1   7
HETATM    7  C   UNL     1      -9.728   0.636 -32.554  1.00  0.00     0.162 C 
BRANCH   7   8
HETATM    8  C   UNL     1      -9.661   2.200 -32.561  1.00  0.00     0.238 C 
BRANCH   8   9
HETATM    9  C   UNL     1     -10.425   2.819 -33.722  1.00  0.00    -0.023 A 
HETATM   10  C   UNL     1      -9.933   3.985 -34.334  1.00  0.00     0.046 A 
HETATM   11  C   UNL     1     -10.619   4.612 -35.380  1.00  0.00     0.068 A 
HETATM   12  C   UNL     1     -11.813   4.062 -35.840  1.00  0.00     0.037 A 
HETATM   13  C   UNL     1     -12.314   2.899 -35.254  1.00  0.00     0.003 A 
HETATM   14  C   UNL     1     -11.631   2.283 -34.205  1.00  0.00     0.009 A 
BRANCH  11  15
HETATM   15  O   UNL     1     -10.018   5.744 -35.853  1.00  0.00    -0.356 OA
HETATM   16  C   UNL     1     -10.345   6.968 -35.201  1.00  0.00     0.210 C 
ENDBRANCH  11  15
ENDBRANCH   8   9
BRANCH   8  17
HETATM   17  N   UNL     1     -10.043   2.770 -31.196  1.00  0.00    -0.061 N 
HETATM   18  H   UNL     1     -10.525   1.981 -30.720  1.00  0.00     0.280 HD
HETATM   19  C   UNL     1     -11.016   3.911 -31.145  1.00  0.00     0.236 C 
HETATM   20  C   UNL     1     -10.152   5.142 -30.988  1.00  0.00     0.029 C 
HETATM   21  C   UNL     1      -8.933   4.678 -30.210  1.00  0.00     0.029 C 
HETATM   22  C   UNL     1      -8.895   3.161 -30.307  1.00  0.00     0.236 C 
ENDBRANCH   8  17
ENDBRANCH   7   8
ENDBRANCH   1   7
BRANCH   3  23
HETATM   23  C   UNL     1      -5.214  -0.850 -33.755  1.00  0.00     0.149 C 
HETATM   24  C   UNL     1      -3.826  -0.437 -33.156  1.00  0.00     0.149 C 
HETATM   25  C   UNL     1      -3.292  -1.678 -32.416  1.00  0.00     0.073 C 
HETATM   26  C   UNL     1      -3.921  -2.786 -33.202  1.00  0.00    -0.047 A 
HETATM   27  C   UNL     1      -4.996  -2.320 -33.972  1.00  0.00    -0.026 A 
HETATM   28  C   UNL     1      -3.574  -4.127 -33.196  1.00  0.00     0.008 A 
HETATM   29  C   UNL     1      -5.739  -3.188 -34.756  1.00  0.00     0.010 A 
HETATM   30  C   UNL     1      -5.386  -4.539 -34.766  1.00  0.00     0.001 A 
HETATM   31  C   UNL     1      -4.313  -5.005 -33.991  1.00  0.00     0.001 A 
BRANCH  24  32
HETATM   32  O   UNL     1      -3.879   0.688 -32.282  1.00  0.00    -0.393 OA
HETATM   33  H   UNL     1      -3.915   0.326 -31.376  1.00  0.00     0.210 HD
ENDBRANCH  24  32
ENDBRANCH   3  23
TORSDOF 7
ENDMDL
MODEL 10
REMARK VINA RESULT:      -7.9      2.650      8.601
REMARK  7 active torsions:
REMARK  status: ('A' for Active; 'I' for Inactive)
REMARK    1  A    between atoms: O_2  and  C_3 
REMARK    2  A    between atoms: C_5  and  C_6 
REMARK    3  A    between atoms: C_6  and  N_7 
REMARK    4  A    between atoms: C_6  and  C_13 
REMARK    5  A    between atoms: C_13  and  N_14 
REMARK       I    between atoms: N_14  and  C_15 
REMARK       I    between atoms: C_15  and  N_16 
REMARK    6  A    between atoms: N_16  and  C_17 
REMARK    7  A    between atoms: C_18  and  O_19 
ROOT
HETATM    1  N   UNL     1      -5.807   4.185 -31.848  1.00  0.00    -0.341 N 
HETATM    2  C   UNL     1      -5.806   2.887 -31.432  1.00  0.00     0.316 C 
HETATM    3  N   UNL     1      -6.822   2.158 -31.959  1.00  0.00    -0.332 N 
HETATM    4  O   UNL     1      -4.955   2.444 -30.666  1.00  0.00    -0.247 OA
HETATM    5  H   UNL     1      -6.610   4.465 -32.397  1.00  0.00     0.164 HD
HETATM    6  H   UNL     1      -7.624   2.652 -32.323  1.00  0.00     0.165 HD
ENDROOT
BRANCH   1   7
HETATM    7  C   UNL     1      -5.097   5.252 -31.148  1.00  0.00     0.162 C 
BRANCH   7   8
HETATM    8  C   UNL     1      -4.124   6.126 -32.009  1.00  0.00     0.238 C 
BRANCH   8   9
HETATM    9  C   UNL     1      -3.294   7.087 -31.172  1.00  0.00    -0.023 A 
HETATM   10  C   UNL     1      -2.872   6.702 -29.887  1.00  0.00     0.046 A 
HETATM   11  C   UNL     1      -2.138   7.565 -29.066  1.00  0.00     0.068 A 
HETATM   12  C   UNL     1      -1.804   8.834 -29.533  1.00  0.00     0.037 A 
HETATM   13  C   UNL     1      -2.203   9.232 -30.809  1.00  0.00     0.003 A 
HETATM   14  C   UNL     1      -2.942   8.371 -31.621  1.00  0.00     0.009 A 
BRANCH  11  15
HETATM   15  O   UNL     1      -1.821   7.048 -27.841  1.00  0.00    -0.356 OA
HETATM   16  C   UNL     1      -2.633   7.449 -26.742  1.00  0.00     0.210 C 
ENDBRANCH  11  15
ENDBRANCH   8   9
BRANCH   8  17
HETATM   17  N   UNL     1      -3.295   5.253 -32.951  1.00  0.00    -0.061 N 
HETATM   18  H   UNL     1      -3.928   4.462 -33.183  1.00  0.00     0.280 HD
HETATM   19  C   UNL     1      -2.047   4.614 -32.419  1.00  0.00     0.236 C 
HETATM   20  C   UNL     1      -0.927   5.515 -32.890  1.00  0.00     0.029 C 
HETATM   21  C   UNL     1      -1.409   6.098 -34.206  1.00  0.00     0.029 C 
HETATM   22  C   UNL     1      -2.914   5.886 -34.261  1.00  0.00     0.236 C 
ENDBRANCH   8  17
ENDBRANCH   7   8
ENDBRANCH   1   7
BRANCH   3  23
HETATM   23  C   UNL     1      -7.085   0.789 -31.536  1.00  0.00     0.149 C 
HETATM   24  C   UNL     1      -8.598   0.383 -31.576  1.00  0.00     0.149 C 
HETATM   25  C   UNL     1      -8.864  -0.144 -32.998  1.00  0.00     0.073 C 
HETATM   26  C   UNL     1      -7.519  -0.685 -33.371  1.00  0.00    -0.047 A 
HETATM   27  C   UNL     1      -6.514  -0.174 -32.539  1.00  0.00    -0.026 A 
HETATM   28  C   UNL     1      -7.217  -1.547 -34.411  1.00  0.00     0.008 A 
HETATM   29  C   UNL     1      -5.187  -0.524 -32.727  1.00  0.00     0.010 A 
HETATM   30  C   UNL     1      -4.875  -1.404 -33.766  1.00  0.00     0.001 A 
HETATM   31  C   UNL     1      -5.882  -1.911 -34.602  1.00  0.00     0.001 A 
BRANCH  24  32
HETATM   32  O   UNL     1      -9.495   1.443 -31.254  1.00  0.00    -0.393 OA
HETATM   33  H   UNL     1      -9.110   1.902 -30.484  1.00  0.00     0.210 HD
ENDBRANCH  24  32
ENDBRANCH   3  23
TORSDOF 7
ENDMDL
