MODEL 1
REMARK VINA RESULT:     -10.4      0.000      0.000
REMARK  7 active torsions:
REMARK  status: ('A' for Active; 'I' for Inactive)
REMARK    1  A    between atoms: C_7  and  C_8 
REMARK    2  A    between atoms: C_8  and  C_9 
REMARK    3  A    between atoms: C_9  and  N_10 
REMARK    4  A    between atoms: N_10  and  C_11 
REMARK    5  A    between atoms: C_11  and  N_12 
REMARK    6  A    between atoms: N_12  and  C_13 
REMARK    7  A    between atoms: C_30  and  C_31 
ROOT
HETATM    1  C   UNL     1      -8.734   1.848 -33.327  1.00  0.00     0.123 C 
HETATM    2  C   UNL     1     -10.037   1.817 -33.746  1.00  0.00     0.144 C 
HETATM    3  C   UNL     1     -10.622   2.943 -34.521  1.00  0.00     0.270 C 
HETATM    4  O   UNL     1     -10.065   4.038 -34.607  1.00  0.00    -0.267 OA
HETATM    5  N   UNL     1     -11.842   2.688 -35.120  1.00  0.00    -0.270 N 
HETATM    6  C   UNL     1     -12.364   3.696 -36.026  1.00  0.00     0.164 C 
HETATM    7  C   UNL     1     -12.710   1.682 -34.735  1.00  0.00     0.333 C 
HETATM    8  O   UNL     1     -13.853   1.607 -35.192  1.00  0.00    -0.246 OA
HETATM    9  N   UNL     1     -12.233   0.767 -33.814  1.00  0.00    -0.270 N 
HETATM   10  C   UNL     1     -13.123  -0.314 -33.426  1.00  0.00     0.164 C 
HETATM   11  C   UNL     1     -10.907   0.650 -33.441  1.00  0.00     0.270 C 
HETATM   12  O   UNL     1     -10.462  -0.375 -32.917  1.00  0.00    -0.267 OA
ENDROOT
BRANCH   1  13
HETATM   13  N   UNL     1      -7.880   2.894 -33.695  1.00  0.00    -0.375 N 
HETATM   14  H   UNL     1      -7.714   2.948 -34.705  1.00  0.00     0.161 HD
BRANCH  13  15
HETATM   15  C   UNL     1      -6.743   3.329 -32.881  1.00  0.00     0.126 C 
BRANCH  15  16
HETATM   16  C   UNL     1      -5.398   3.009 -33.549  1.00  0.00     0.061 C 
BRANCH  16  17
HETATM   17  C   UNL     1      -4.209   3.519 -32.782  1.00  0.00    -0.022 A 
HETATM   18  C   UNL     1      -3.852   3.169 -31.488  1.00  0.00     0.013 A 
HETATM   19  C   UNL     1      -4.492   2.243 -30.517  1.00  0.00     0.068 C 
HETATM   20  N   UNL     1      -2.705   3.851 -31.171  1.00  0.00    -0.358 N 
HETATM   21  H   UNL     1      -2.218   3.786 -30.285  1.00  0.00     0.166 HD
HETATM   22  C   UNL     1      -2.311   4.658 -32.216  1.00  0.00     0.058 A 
HETATM   23  C   UNL     1      -3.244   4.479 -33.236  1.00  0.00    -0.000 A 
HETATM   24  C   UNL     1      -1.206   5.530 -32.320  1.00  0.00     0.075 A 
HETATM   25  C   UNL     1      -3.083   5.212 -34.428  1.00  0.00     0.014 A 
HETATM   26  C   UNL     1      -2.001   6.084 -34.567  1.00  0.00     0.002 A 
HETATM   27  C   UNL     1      -1.080   6.235 -33.534  1.00  0.00     0.018 A 
BRANCH  24  28
HETATM   28  C   UNL     1      -0.177   5.721 -31.235  1.00  0.00     0.419 C 
HETATM   29  F   UNL     1       0.530   6.883 -31.360  1.00  0.00    -0.166 F 
HETATM   30  F   UNL     1      -0.731   5.759 -29.992  1.00  0.00    -0.166 F 
HETATM   31  F   UNL     1       0.750   4.724 -31.202  1.00  0.00    -0.166 F 
ENDBRANCH  24  28
ENDBRANCH  16  17
ENDBRANCH  15  16
ENDBRANCH  13  15
ENDBRANCH   1  13
BRANCH   1  32
HETATM   32  N   UNL     1      -8.191   0.804 -32.568  1.00  0.00    -0.342 N 
HETATM   33  H   UNL     1      -7.945   1.103 -31.615  1.00  0.00     0.167 HD
BRANCH  32  34
HETATM   34  C   UNL     1      -7.192  -0.103 -33.012  1.00  0.00     0.033 A 
HETATM   35  C   UNL     1      -6.044  -0.422 -32.277  1.00  0.00     0.029 A 
HETATM   36  C   UNL     1      -5.084  -1.301 -32.788  1.00  0.00     0.002 A 
HETATM   37  C   UNL     1      -5.253  -1.865 -34.050  1.00  0.00     0.000 A 
HETATM   38  C   UNL     1      -6.378  -1.547 -34.804  1.00  0.00     0.002 A 
HETATM   39  C   UNL     1      -7.337  -0.668 -34.290  1.00  0.00     0.029 A 
ENDBRANCH  32  34
ENDBRANCH   1  32
TORSDOF 7
ENDMDL
MODEL 2
REMARK VINA RESULT:     -10.0      2.796      4.220
REMARK  7 active torsions:
REMARK  status: ('A' for Active; 'I' for Inactive)
REMARK    1  A    between atoms: C_7  and  C_8 
REMARK    2  A    between atoms: C_8  and  C_9 
REMARK    3  A    between atoms: C_9  and  N_10 
REMARK    4  A    between atoms: N_10  and  C_11 
REMARK    5  A    between atoms: C_11  and  N_12 
REMARK    6  A    between atoms: N_12  and  C_13 
REMARK    7  A    between atoms: C_30  and  C_31 
ROOT
HETATM    1  C   UNL     1     -10.182   2.997 -33.546  1.00  0.00     0.123 C 
HETATM    2  C   UNL     1     -11.504   2.834 -33.231  1.00  0.00     0.144 C 
HETATM    3  C   UNL     1     -12.136   3.619 -32.139  1.00  0.00     0.270 C 
HETATM    4  O   UNL     1     -11.473   4.251 -31.317  1.00  0.00    -0.267 OA
HETATM    5  N   UNL     1     -13.518   3.575 -32.092  1.00  0.00    -0.270 N 
HETATM    6  C   UNL     1     -14.183   4.462 -31.154  1.00  0.00     0.164 C 
HETATM    7  C   UNL     1     -14.292   2.589 -32.677  1.00  0.00     0.333 C 
HETATM    8  O   UNL     1     -15.503   2.508 -32.462  1.00  0.00    -0.246 OA
HETATM    9  N   UNL     1     -13.640   1.699 -33.512  1.00  0.00    -0.270 N 
HETATM   10  C   UNL     1     -14.448   0.679 -34.159  1.00  0.00     0.164 C 
HETATM   11  C   UNL     1     -12.350   1.866 -33.980  1.00  0.00     0.270 C 
HETATM   12  O   UNL     1     -11.934   1.274 -34.979  1.00  0.00    -0.267 OA
ENDROOT
BRANCH   1  13
HETATM   13  N   UNL     1      -9.404   3.976 -32.916  1.00  0.00    -0.375 N 
HETATM   14  H   UNL     1      -9.947   4.601 -32.312  1.00  0.00     0.161 HD
BRANCH  13  15
HETATM   15  C   UNL     1      -8.247   4.614 -33.548  1.00  0.00     0.126 C 
BRANCH  15  16
HETATM   16  C   UNL     1      -7.120   4.892 -32.544  1.00  0.00     0.061 C 
BRANCH  16  17
HETATM   17  C   UNL     1      -6.075   3.811 -32.497  1.00  0.00    -0.022 A 
HETATM   18  C   UNL     1      -4.869   3.802 -33.181  1.00  0.00     0.013 A 
HETATM   19  C   UNL     1      -4.271   4.791 -34.115  1.00  0.00     0.068 C 
HETATM   20  N   UNL     1      -4.212   2.642 -32.856  1.00  0.00    -0.358 N 
HETATM   21  H   UNL     1      -3.303   2.371 -33.212  1.00  0.00     0.166 HD
HETATM   22  C   UNL     1      -4.966   1.877 -31.994  1.00  0.00     0.058 A 
HETATM   23  C   UNL     1      -6.147   2.581 -31.760  1.00  0.00    -0.000 A 
HETATM   24  C   UNL     1      -4.686   0.620 -31.417  1.00  0.00     0.075 A 
HETATM   25  C   UNL     1      -7.114   2.006 -30.914  1.00  0.00     0.014 A 
HETATM   26  C   UNL     1      -6.871   0.763 -30.325  1.00  0.00     0.002 A 
HETATM   27  C   UNL     1      -5.679   0.087 -30.569  1.00  0.00     0.018 A 
BRANCH  24  28
HETATM   28  C   UNL     1      -3.408  -0.146 -31.642  1.00  0.00     0.419 C 
HETATM   29  F   UNL     1      -2.390   0.247 -30.821  1.00  0.00    -0.166 F 
HETATM   30  F   UNL     1      -3.557  -1.483 -31.431  1.00  0.00    -0.166 F 
HETATM   31  F   UNL     1      -2.931  -0.019 -32.912  1.00  0.00    -0.166 F 
ENDBRANCH  24  28
ENDBRANCH  16  17
ENDBRANCH  15  16
ENDBRANCH  13  15
ENDBRANCH   1  13
BRANCH   1  32
HETATM   32  N   UNL     1      -9.575   2.234 -34.551  1.00  0.00    -0.342 N 
HETATM   33  H   UNL     1     -10.240   1.953 -35.283  1.00  0.00     0.167 HD
BRANCH  32  34
HETATM   34  C   UNL     1      -8.682   1.150 -34.335  1.00  0.00     0.033 A 
HETATM   35  C   UNL     1      -8.952   0.073 -33.482  1.00  0.00     0.029 A 
HETATM   36  C   UNL     1      -8.014  -0.947 -33.291  1.00  0.00     0.002 A 
HETATM   37  C   UNL     1      -6.785  -0.897 -33.941  1.00  0.00     0.000 A 
HETATM   38  C   UNL     1      -6.489   0.175 -34.780  1.00  0.00     0.002 A 
HETATM   39  C   UNL     1      -7.429   1.192 -34.969  1.00  0.00     0.029 A 
ENDBRANCH  32  34
ENDBRANCH   1  32
TORSDOF 7
ENDMDL
MODEL 3
REMARK VINA RESULT:      -9.9      4.423      7.351
REMARK  7 active torsions:
REMARK  status: ('A' for Active; 'I' for Inactive)
REMARK    1  A    between atoms: C_7  and  C_8 
REMARK    2  A    between atoms: C_8  and  C_9 
REMARK    3  A    between atoms: C_9  and  N_10 
REMARK    4  A    between atoms: N_10  and  C_11 
REMARK    5  A    between atoms: C_11  and  N_12 
REMARK    6  A    between atoms: N_12  and  C_13 
REMARK    7  A    between atoms: C_30  and  C_31 
ROOT
HETATM    1  C   UNL     1      -5.090   0.184 -33.086  1.00  0.00     0.123 C 
HETATM    2  C   UNL     1      -4.695  -1.119 -33.235  1.00  0.00     0.144 C 
HETATM    3  C   UNL     1      -3.600  -1.688 -32.407  1.00  0.00     0.270 C 
HETATM    4  O   UNL     1      -2.842  -0.979 -31.745  1.00  0.00    -0.267 OA
HETATM    5  N   UNL     1      -3.473  -3.065 -32.447  1.00  0.00    -0.270 N 
HETATM    6  C   UNL     1      -2.534  -3.676 -31.523  1.00  0.00     0.164 C 
HETATM    7  C   UNL     1      -3.974  -3.870 -33.454  1.00  0.00     0.333 C 
HETATM    8  O   UNL     1      -3.688  -5.067 -33.525  1.00  0.00    -0.246 OA
HETATM    9  N   UNL     1      -4.810  -3.266 -34.377  1.00  0.00    -0.270 N 
HETATM   10  C   UNL     1      -5.369  -4.108 -35.421  1.00  0.00     0.164 C 
HETATM   11  C   UNL     1      -5.355  -2.004 -34.230  1.00  0.00     0.270 C 
HETATM   12  O   UNL     1      -6.353  -1.645 -34.861  1.00  0.00    -0.267 OA
ENDROOT
BRANCH   1  13
HETATM   13  N   UNL     1      -4.544   0.996 -32.085  1.00  0.00    -0.375 N 
HETATM   14  H   UNL     1      -5.149   1.090 -31.263  1.00  0.00     0.161 HD
BRANCH  13  15
HETATM   15  C   UNL     1      -3.730   2.181 -32.364  1.00  0.00     0.126 C 
BRANCH  15  16
HETATM   16  C   UNL     1      -4.319   3.449 -31.729  1.00  0.00     0.061 C 
BRANCH  16  17
HETATM   17  C   UNL     1      -5.603   3.902 -32.368  1.00  0.00    -0.022 A 
HETATM   18  C   UNL     1      -5.738   4.501 -33.611  1.00  0.00     0.013 A 
HETATM   19  C   UNL     1      -4.721   4.863 -34.633  1.00  0.00     0.068 C 
HETATM   20  N   UNL     1      -7.072   4.748 -33.814  1.00  0.00    -0.358 N 
HETATM   21  H   UNL     1      -7.462   5.181 -34.643  1.00  0.00     0.166 HD
HETATM   22  C   UNL     1      -7.815   4.346 -32.727  1.00  0.00     0.058 A 
HETATM   23  C   UNL     1      -6.917   3.822 -31.797  1.00  0.00    -0.000 A 
HETATM   24  C   UNL     1      -9.207   4.418 -32.505  1.00  0.00     0.075 A 
HETATM   25  C   UNL     1      -7.422   3.348 -30.571  1.00  0.00     0.014 A 
HETATM   26  C   UNL     1      -8.795   3.403 -30.317  1.00  0.00     0.002 A 
HETATM   27  C   UNL     1      -9.668   3.923 -31.268  1.00  0.00     0.018 A 
BRANCH  24  28
HETATM   28  C   UNL     1     -10.194   4.963 -33.505  1.00  0.00     0.419 C 
HETATM   29  F   UNL     1      -9.917   4.599 -34.791  1.00  0.00    -0.166 F 
HETATM   30  F   UNL     1     -11.466   4.538 -33.268  1.00  0.00    -0.166 F 
HETATM   31  F   UNL     1     -10.249   6.324 -33.508  1.00  0.00    -0.166 F 
ENDBRANCH  24  28
ENDBRANCH  16  17
ENDBRANCH  15  16
ENDBRANCH  13  15
ENDBRANCH   1  13
BRANCH   1  32
HETATM   32  N   UNL     1      -6.097   0.733 -33.889  1.00  0.00    -0.342 N 
HETATM   33  H   UNL     1      -5.842   1.660 -34.254  1.00  0.00     0.167 HD
BRANCH  32  34
HETATM   34  C   UNL     1      -7.482   0.756 -33.571  1.00  0.00     0.033 A 
HETATM   35  C   UNL     1      -8.016   0.266 -32.374  1.00  0.00     0.029 A 
HETATM   36  C   UNL     1      -9.395   0.290 -32.138  1.00  0.00     0.002 A 
HETATM   37  C   UNL     1     -10.261   0.795 -33.104  1.00  0.00     0.000 A 
HETATM   38  C   UNL     1      -9.751   1.270 -34.308  1.00  0.00     0.002 A 
HETATM   39  C   UNL     1      -8.372   1.245 -34.541  1.00  0.00     0.029 A 
ENDBRANCH  32  34
ENDBRANCH   1  32
TORSDOF 7
ENDMDL
MODEL 4
REMARK VINA RESULT:      -9.8      1.948      2.900
REMARK  7 active torsions:
REMARK  status: ('A' for Active; 'I' for Inactive)
REMARK    1  A    between atoms: C_7  and  C_8 
REMARK    2  A    between atoms: C_8  and  C_9 
REMARK    3  A    between atoms: C_9  and  N_10 
REMARK    4  A    between atoms: N_10  and  C_11 
REMARK    5  A    between atoms: C_11  and  N_12 
REMARK    6  A    between atoms: N_12  and  C_13 
REMARK    7  A    between atoms: C_30  and  C_31 
ROOT
HETATM    1  C   UNL     1      -6.582   0.259 -33.084  1.00  0.00     0.123 C 
HETATM    2  C   UNL     1      -7.786   0.883 -32.896  1.00  0.00     0.144 C 
HETATM    3  C   UNL     1      -8.096   1.586 -31.624  1.00  0.00     0.270 C 
HETATM    4  O   UNL     1      -7.415   1.435 -30.609  1.00  0.00    -0.267 OA
HETATM    5  N   UNL     1      -9.211   2.403 -31.646  1.00  0.00    -0.270 N 
HETATM    6  C   UNL     1      -9.450   3.240 -30.484  1.00  0.00     0.164 C 
HETATM    7  C   UNL     1     -10.240   2.300 -32.566  1.00  0.00     0.333 C 
HETATM    8  O   UNL     1     -11.285   2.941 -32.438  1.00  0.00    -0.246 OA
HETATM    9  N   UNL     1     -10.038   1.443 -33.633  1.00  0.00    -0.270 N 
HETATM   10  C   UNL     1     -11.097   1.351 -34.624  1.00  0.00     0.164 C 
HETATM   11  C   UNL     1      -8.820   0.879 -33.965  1.00  0.00     0.270 C 
HETATM   12  O   UNL     1      -8.590   0.431 -35.091  1.00  0.00    -0.267 OA
ENDROOT
BRANCH   1  13
HETATM   13  N   UNL     1      -5.566   0.342 -32.125  1.00  0.00    -0.375 N 
HETATM   14  H   UNL     1      -5.906   0.252 -31.163  1.00  0.00     0.161 HD
BRANCH  13  15
HETATM   15  C   UNL     1      -4.397   1.213 -32.264  1.00  0.00     0.126 C 
BRANCH  15  16
HETATM   16  C   UNL     1      -4.771   2.600 -32.806  1.00  0.00     0.061 C 
BRANCH  16  17
HETATM   17  C   UNL     1      -4.077   3.731 -32.097  1.00  0.00    -0.022 A 
HETATM   18  C   UNL     1      -4.388   4.229 -30.840  1.00  0.00     0.013 A 
HETATM   19  C   UNL     1      -5.438   3.830 -29.866  1.00  0.00     0.068 C 
HETATM   20  N   UNL     1      -3.513   5.249 -30.566  1.00  0.00    -0.358 N 
HETATM   21  H   UNL     1      -3.508   5.795 -29.712  1.00  0.00     0.166 HD
HETATM   22  C   UNL     1      -2.648   5.449 -31.619  1.00  0.00     0.058 A 
HETATM   23  C   UNL     1      -2.988   4.517 -32.600  1.00  0.00    -0.000 A 
HETATM   24  C   UNL     1      -1.605   6.387 -31.769  1.00  0.00     0.075 A 
HETATM   25  C   UNL     1      -2.259   4.518 -33.805  1.00  0.00     0.014 A 
HETATM   26  C   UNL     1      -1.219   5.432 -33.988  1.00  0.00     0.002 A 
HETATM   27  C   UNL     1      -0.897   6.344 -32.987  1.00  0.00     0.018 A 
BRANCH  24  28
HETATM   28  C   UNL     1      -1.211   7.388 -30.712  1.00  0.00     0.419 C 
HETATM   29  F   UNL     1      -1.698   7.085 -29.473  1.00  0.00    -0.166 F 
HETATM   30  F   UNL     1       0.138   7.486 -30.564  1.00  0.00    -0.166 F 
HETATM   31  F   UNL     1      -1.651   8.647 -30.986  1.00  0.00    -0.166 F 
ENDBRANCH  24  28
ENDBRANCH  16  17
ENDBRANCH  15  16
ENDBRANCH  13  15
ENDBRANCH   1  13
BRANCH   1  32
HETATM   32  N   UNL     1      -6.301  -0.434 -34.268  1.00  0.00    -0.342 N 
HETATM   33  H   UNL     1      -6.982  -0.231 -35.010  1.00  0.00     0.167 HD
BRANCH  32  34
HETATM   34  C   UNL     1      -5.960  -1.811 -34.355  1.00  0.00     0.033 A 
HETATM   35  C   UNL     1      -4.657  -2.303 -34.221  1.00  0.00     0.029 A 
HETATM   36  C   UNL     1      -4.387  -3.670 -34.348  1.00  0.00     0.002 A 
HETATM   37  C   UNL     1      -5.418  -4.563 -34.625  1.00  0.00     0.000 A 
HETATM   38  C   UNL     1      -6.718  -4.092 -34.779  1.00  0.00     0.002 A 
HETATM   39  C   UNL     1      -6.985  -2.725 -34.651  1.00  0.00     0.029 A 
ENDBRANCH  32  34
ENDBRANCH   1  32
TORSDOF 7
ENDMDL
MODEL 5
REMARK VINA RESULT:      -9.7      4.709      8.461
REMARK  7 active torsions:
REMARK  status: ('A' for Active; 'I' for Inactive)
REMARK    1  A    between atoms: C_7  and  C_8 
REMARK    2  A    between atoms: C_8  and  C_9 
REMARK    3  A    between atoms: C_9  and  N_10 
REMARK    4  A    between atoms: N_10  and  C_11 
REMARK    5  A    between atoms: C_11  and  N_12 
REMARK    6  A    between atoms: N_12  and  C_13 
REMARK    7  A    between atoms: C_30  and  C_31 
ROOT
HETATM    1  C   UNL     1      -4.325   3.399 -31.231  1.00  0.00     0.123 C 
HETATM    2  C   UNL     1      -3.923   4.681 -31.495  1.00  0.00     0.144 C 
HETATM    3  C   UNL     1      -4.287   5.801 -30.589  1.00  0.00     0.270 C 
HETATM    4  O   UNL     1      -5.152   5.687 -29.719  1.00  0.00    -0.267 OA
HETATM    5  N   UNL     1      -3.608   6.987 -30.799  1.00  0.00    -0.270 N 
HETATM    6  C   UNL     1      -3.803   8.051 -29.830  1.00  0.00     0.164 C 
HETATM    7  C   UNL     1      -2.965   7.324 -31.977  1.00  0.00     0.333 C 
HETATM    8  O   UNL     1      -2.521   8.459 -32.168  1.00  0.00    -0.246 OA
HETATM    9  N   UNL     1      -2.847   6.327 -32.929  1.00  0.00    -0.270 N 
HETATM   10  C   UNL     1      -2.145   6.659 -34.158  1.00  0.00     0.164 C 
HETATM   11  C   UNL     1      -3.106   4.989 -32.698  1.00  0.00     0.270 C 
HETATM   12  O   UNL     1      -2.657   4.100 -33.425  1.00  0.00    -0.267 OA
ENDROOT
BRANCH   1  13
HETATM   13  N   UNL     1      -5.008   3.083 -30.051  1.00  0.00    -0.375 N 
HETATM   14  H   UNL     1      -4.391   2.982 -29.238  1.00  0.00     0.161 HD
BRANCH  13  15
HETATM   15  C   UNL     1      -6.190   2.220 -30.011  1.00  0.00     0.126 C 
BRANCH  15  16
HETATM   16  C   UNL     1      -7.468   3.004 -29.680  1.00  0.00     0.061 C 
BRANCH  16  17
HETATM   17  C   UNL     1      -8.380   3.196 -30.860  1.00  0.00    -0.022 A 
HETATM   18  C   UNL     1      -8.792   4.407 -31.395  1.00  0.00     0.013 A 
HETATM   19  C   UNL     1      -8.482   5.805 -30.994  1.00  0.00     0.068 C 
HETATM   20  N   UNL     1      -9.609   4.137 -32.463  1.00  0.00    -0.358 N 
HETATM   21  H   UNL     1     -10.054   4.838 -33.044  1.00  0.00     0.166 HD
HETATM   22  C   UNL     1      -9.765   2.779 -32.630  1.00  0.00     0.058 A 
HETATM   23  C   UNL     1      -9.013   2.163 -31.629  1.00  0.00    -0.000 A 
HETATM   24  C   UNL     1     -10.517   2.064 -33.585  1.00  0.00     0.075 A 
HETATM   25  C   UNL     1      -9.013   0.756 -31.562  1.00  0.00     0.014 A 
HETATM   26  C   UNL     1      -9.746   0.015 -32.492  1.00  0.00     0.002 A 
HETATM   27  C   UNL     1     -10.479   0.658 -33.485  1.00  0.00     0.018 A 
BRANCH  24  28
HETATM   28  C   UNL     1     -11.319   2.712 -34.685  1.00  0.00     0.419 C 
HETATM   29  F   UNL     1     -12.336   3.497 -34.222  1.00  0.00    -0.166 F 
HETATM   30  F   UNL     1     -10.560   3.520 -35.476  1.00  0.00    -0.166 F 
HETATM   31  F   UNL     1     -11.899   1.808 -35.522  1.00  0.00    -0.166 F 
ENDBRANCH  24  28
ENDBRANCH  16  17
ENDBRANCH  15  16
ENDBRANCH  13  15
ENDBRANCH   1  13
BRANCH   1  32
HETATM   32  N   UNL     1      -4.014   2.347 -32.101  1.00  0.00    -0.342 N 
HETATM   33  H   UNL     1      -3.156   2.526 -32.639  1.00  0.00     0.167 HD
BRANCH  32  34
HETATM   34  C   UNL     1      -4.936   1.689 -32.959  1.00  0.00     0.033 A 
HETATM   35  C   UNL     1      -5.918   2.351 -33.706  1.00  0.00     0.029 A 
HETATM   36  C   UNL     1      -6.815   1.638 -34.508  1.00  0.00     0.002 A 
HETATM   37  C   UNL     1      -6.751   0.248 -34.563  1.00  0.00     0.000 A 
HETATM   38  C   UNL     1      -5.794  -0.430 -33.814  1.00  0.00     0.002 A 
HETATM   39  C   UNL     1      -4.898   0.286 -33.014  1.00  0.00     0.029 A 
ENDBRANCH  32  34
ENDBRANCH   1  32
TORSDOF 7
ENDMDL
MODEL 6
REMARK VINA RESULT:      -9.6      4.920      7.591
REMARK  7 active torsions:
REMARK  status: ('A' for Active; 'I' for Inactive)
REMARK    1  A    between atoms: C_7  and  C_8 
REMARK    2  A    between atoms: C_8  and  C_9 
REMARK    3  A    between atoms: C_9  and  N_10 
REMARK    4  A    between atoms: N_10  and  C_11 
REMARK    5  A    between atoms: C_11  and  N_12 
REMARK    6  A    between atoms: N_12  and  C_13 
REMARK    7  A    between atoms: C_30  and  C_31 
ROOT
HETATM    1  C   UNL     1      -6.622   3.551 -30.862  1.00  0.00     0.123 C 
HETATM    2  C   UNL     1      -6.672   4.841 -30.403  1.00  0.00     0.144 C 
HETATM    3  C   UNL     1      -5.519   5.762 -30.578  1.00  0.00     0.270 C 
HETATM    4  O   UNL     1      -4.401   5.360 -30.904  1.00  0.00    -0.267 OA
HETATM    5  N   UNL     1      -5.777   7.098 -30.329  1.00  0.00    -0.270 N 
HETATM    6  C   UNL     1      -4.731   8.052 -30.655  1.00  0.00     0.164 C 
HETATM    7  C   UNL     1      -6.836   7.565 -29.571  1.00  0.00     0.333 C 
HETATM    8  O   UNL     1      -6.921   8.750 -29.243  1.00  0.00    -0.246 OA
HETATM    9  N   UNL     1      -7.792   6.636 -29.200  1.00  0.00    -0.270 N 
HETATM   10  C   UNL     1      -8.927   7.120 -28.431  1.00  0.00     0.164 C 
HETATM   11  C   UNL     1      -7.886   5.358 -29.719  1.00  0.00     0.270 C 
HETATM   12  O   UNL     1      -8.926   4.699 -29.651  1.00  0.00    -0.267 OA
ENDROOT
BRANCH   1  13
HETATM   13  N   UNL     1      -5.525   3.085 -31.595  1.00  0.00    -0.375 N 
HETATM   14  H   UNL     1      -5.651   3.162 -32.609  1.00  0.00     0.161 HD
BRANCH  13  15
HETATM   15  C   UNL     1      -4.707   1.943 -31.181  1.00  0.00     0.126 C 
BRANCH  15  16
HETATM   16  C   UNL     1      -3.818   1.426 -32.322  1.00  0.00     0.061 C 
BRANCH  16  17
HETATM   17  C   UNL     1      -4.173   0.039 -32.781  1.00  0.00    -0.022 A 
HETATM   18  C   UNL     1      -3.496  -1.131 -32.468  1.00  0.00     0.013 A 
HETATM   19  C   UNL     1      -2.286  -1.363 -31.637  1.00  0.00     0.068 C 
HETATM   20  N   UNL     1      -4.150  -2.169 -33.080  1.00  0.00    -0.358 N 
HETATM   21  H   UNL     1      -3.874  -3.143 -33.023  1.00  0.00     0.166 HD
HETATM   22  C   UNL     1      -5.226  -1.710 -33.808  1.00  0.00     0.058 A 
HETATM   23  C   UNL     1      -5.257  -0.325 -33.647  1.00  0.00    -0.000 A 
HETATM   24  C   UNL     1      -6.158  -2.421 -34.593  1.00  0.00     0.075 A 
HETATM   25  C   UNL     1      -6.265   0.403 -34.310  1.00  0.00     0.014 A 
HETATM   26  C   UNL     1      -7.205  -0.267 -35.095  1.00  0.00     0.002 A 
HETATM   27  C   UNL     1      -7.154  -1.652 -35.229  1.00  0.00     0.018 A 
BRANCH  24  28
HETATM   28  C   UNL     1      -6.151  -3.919 -34.761  1.00  0.00     0.419 C 
HETATM   29  F   UNL     1      -7.257  -4.527 -34.240  1.00  0.00    -0.166 F 
HETATM   30  F   UNL     1      -6.106  -4.296 -36.069  1.00  0.00    -0.166 F 
HETATM   31  F   UNL     1      -5.083  -4.515 -34.162  1.00  0.00    -0.166 F 
ENDBRANCH  24  28
ENDBRANCH  16  17
ENDBRANCH  15  16
ENDBRANCH  13  15
ENDBRANCH   1  13
BRANCH   1  32
HETATM   32  N   UNL     1      -7.693   2.670 -30.667  1.00  0.00    -0.342 N 
HETATM   33  H   UNL     1      -7.470   1.928 -29.992  1.00  0.00     0.167 HD
BRANCH  32  34
HETATM   34  C   UNL     1      -8.484   2.097 -31.699  1.00  0.00     0.033 A 
HETATM   35  C   UNL     1      -8.974   2.813 -32.798  1.00  0.00     0.029 A 
HETATM   36  C   UNL     1      -9.774   2.192 -33.763  1.00  0.00     0.002 A 
HETATM   37  C   UNL     1     -10.107   0.846 -33.634  1.00  0.00     0.000 A 
HETATM   38  C   UNL     1      -9.645   0.121 -32.540  1.00  0.00     0.002 A 
HETATM   39  C   UNL     1      -8.845   0.745 -31.578  1.00  0.00     0.029 A 
ENDBRANCH  32  34
ENDBRANCH   1  32
TORSDOF 7
ENDMDL
MODEL 7
REMARK VINA RESULT:      -9.5      2.804      5.435
REMARK  7 active torsions:
REMARK  status: ('A' for Active; 'I' for Inactive)
REMARK    1  A    between atoms: C_7  and  C_8 
REMARK    2  A    between atoms: C_8  and  C_9 
REMARK    3  A    between atoms: C_9  and  N_10 
REMARK    4  A    between atoms: N_10  and  C_11 
REMARK    5  A    between atoms: C_11  and  N_12 
REMARK    6  A    between atoms: N_12  and  C_13 
REMARK    7  A    between atoms: C_30  and  C_31 
ROOT
HETATM    1  C   UNL     1      -5.643   0.009 -33.732  1.00  0.00     0.123 C 
HETATM    2  C   UNL     1      -5.129  -1.260 -33.688  1.00  0.00     0.144 C 
HETATM    3  C   UNL     1      -3.928  -1.573 -32.872  1.00  0.00     0.270 C 
HETATM    4  O   UNL     1      -3.202  -0.693 -32.408  1.00  0.00    -0.267 OA
HETATM    5  N   UNL     1      -3.665  -2.918 -32.684  1.00  0.00    -0.270 N 
HETATM    6  C   UNL     1      -2.608  -3.268 -31.752  1.00  0.00     0.164 C 
HETATM    7  C   UNL     1      -4.150  -3.932 -33.491  1.00  0.00     0.333 C 
HETATM    8  O   UNL     1      -3.749  -5.092 -33.378  1.00  0.00    -0.246 OA
HETATM    9  N   UNL     1      -5.104  -3.579 -34.428  1.00  0.00    -0.270 N 
HETATM   10  C   UNL     1      -5.645  -4.640 -35.260  1.00  0.00     0.164 C 
HETATM   11  C   UNL     1      -5.763  -2.364 -34.456  1.00  0.00     0.270 C 
HETATM   12  O   UNL     1      -6.833  -2.213 -35.051  1.00  0.00    -0.267 OA
ENDROOT
BRANCH   1  13
HETATM   13  N   UNL     1      -5.115   1.032 -32.937  1.00  0.00    -0.375 N 
HETATM   14  H   UNL     1      -4.414   0.704 -32.265  1.00  0.00     0.161 HD
BRANCH  13  15
HETATM   15  C   UNL     1      -5.902   2.174 -32.466  1.00  0.00     0.126 C 
BRANCH  15  16
HETATM   16  C   UNL     1      -5.492   3.482 -33.156  1.00  0.00     0.061 C 
BRANCH  16  17
HETATM   17  C   UNL     1      -4.397   4.224 -32.439  1.00  0.00    -0.022 A 
HETATM   18  C   UNL     1      -4.336   4.489 -31.079  1.00  0.00     0.013 A 
HETATM   19  C   UNL     1      -5.273   4.148 -29.977  1.00  0.00     0.068 C 
HETATM   20  N   UNL     1      -3.175   5.179 -30.838  1.00  0.00    -0.358 N 
HETATM   21  H   UNL     1      -2.871   5.503 -29.928  1.00  0.00     0.166 HD
HETATM   22  C   UNL     1      -2.483   5.395 -32.009  1.00  0.00     0.058 A 
HETATM   23  C   UNL     1      -3.233   4.816 -33.032  1.00  0.00    -0.000 A 
HETATM   24  C   UNL     1      -1.258   6.062 -32.228  1.00  0.00     0.075 A 
HETATM   25  C   UNL     1      -2.751   4.910 -34.353  1.00  0.00     0.014 A 
HETATM   26  C   UNL     1      -1.542   5.563 -34.606  1.00  0.00     0.002 A 
HETATM   27  C   UNL     1      -0.810   6.123 -33.563  1.00  0.00     0.018 A 
BRANCH  24  28
HETATM   28  C   UNL     1      -0.425   6.676 -31.132  1.00  0.00     0.419 C 
HETATM   29  F   UNL     1       0.812   7.072 -31.552  1.00  0.00    -0.166 F 
HETATM   30  F   UNL     1      -1.004   7.784 -30.594  1.00  0.00    -0.166 F 
HETATM   31  F   UNL     1      -0.207   5.824 -30.091  1.00  0.00    -0.166 F 
ENDBRANCH  24  28
ENDBRANCH  16  17
ENDBRANCH  15  16
ENDBRANCH  13  15
ENDBRANCH   1  13
BRANCH   1  32
HETATM   32  N   UNL     1      -6.754   0.314 -34.528  1.00  0.00    -0.342 N 
HETATM   33  H   UNL     1      -6.564   1.082 -35.185  1.00  0.00     0.167 HD
BRANCH  32  34
HETATM   34  C   UNL     1      -8.087   0.463 -34.058  1.00  0.00     0.033 A 
HETATM   35  C   UNL     1      -8.650  -0.320 -33.044  1.00  0.00     0.029 A 
HETATM   36  C   UNL     1      -9.980  -0.141 -32.651  1.00  0.00     0.002 A 
HETATM   37  C   UNL     1     -10.771   0.818 -33.278  1.00  0.00     0.000 A 
HETATM   38  C   UNL     1     -10.236   1.595 -34.301  1.00  0.00     0.002 A 
HETATM   39  C   UNL     1      -8.906   1.413 -34.691  1.00  0.00     0.029 A 
ENDBRANCH  32  34
ENDBRANCH   1  32
TORSDOF 7
ENDMDL
MODEL 8
REMARK VINA RESULT:      -9.5      1.791      2.077
REMARK  7 active torsions:
REMARK  status: ('A' for Active; 'I' for Inactive)
REMARK    1  A    between atoms: C_7  and  C_8 
REMARK    2  A    between atoms: C_8  and  C_9 
REMARK    3  A    between atoms: C_9  and  N_10 
REMARK    4  A    between atoms: N_10  and  C_11 
REMARK    5  A    between atoms: C_11  and  N_12 
REMARK    6  A    between atoms: N_12  and  C_13 
REMARK    7  A    between atoms: C_30  and  C_31 
ROOT
HETATM    1  C   UNL     1      -8.187   2.737 -33.191  1.00  0.00     0.123 C 
HETATM    2  C   UNL     1      -9.489   2.985 -32.851  1.00  0.00     0.144 C 
HETATM    3  C   UNL     1      -9.830   3.917 -31.745  1.00  0.00     0.270 C 
HETATM    4  O   UNL     1      -8.989   4.309 -30.935  1.00  0.00    -0.267 OA
HETATM    5  N   UNL     1     -11.157   4.299 -31.670  1.00  0.00    -0.270 N 
HETATM    6  C   UNL     1     -11.500   5.340 -30.717  1.00  0.00     0.164 C 
HETATM    7  C   UNL     1     -12.207   3.602 -32.241  1.00  0.00     0.333 C 
HETATM    8  O   UNL     1     -13.380   3.895 -32.001  1.00  0.00    -0.246 OA
HETATM    9  N   UNL     1     -11.875   2.562 -33.090  1.00  0.00    -0.270 N 
HETATM   10  C   UNL     1     -12.969   1.843 -33.722  1.00  0.00     0.164 C 
HETATM   11  C   UNL     1     -10.605   2.328 -33.583  1.00  0.00     0.270 C 
HETATM   12  O   UNL     1     -10.409   1.645 -34.591  1.00  0.00    -0.267 OA
ENDROOT
BRANCH   1  13
HETATM   13  N   UNL     1      -7.134   3.425 -32.576  1.00  0.00    -0.375 N 
HETATM   14  H   UNL     1      -7.319   3.658 -31.595  1.00  0.00     0.161 HD
BRANCH  13  15
HETATM   15  C   UNL     1      -6.295   4.403 -33.272  1.00  0.00     0.126 C 
BRANCH  15  16
HETATM   16  C   UNL     1      -4.980   3.787 -33.768  1.00  0.00     0.061 C 
BRANCH  16  17
HETATM   17  C   UNL     1      -3.795   4.116 -32.901  1.00  0.00    -0.022 A 
HETATM   18  C   UNL     1      -3.393   3.433 -31.764  1.00  0.00     0.013 A 
HETATM   19  C   UNL     1      -3.969   2.241 -31.088  1.00  0.00     0.068 C 
HETATM   20  N   UNL     1      -2.269   4.053 -31.279  1.00  0.00    -0.358 N 
HETATM   21  H   UNL     1      -1.758   3.764 -30.453  1.00  0.00     0.166 HD
HETATM   22  C   UNL     1      -1.936   5.140 -32.056  1.00  0.00     0.058 A 
HETATM   23  C   UNL     1      -2.885   5.211 -33.076  1.00  0.00    -0.000 A 
HETATM   24  C   UNL     1      -0.873   6.058 -31.921  1.00  0.00     0.075 A 
HETATM   25  C   UNL     1      -2.784   6.258 -34.013  1.00  0.00     0.014 A 
HETATM   26  C   UNL     1      -1.745   7.185 -33.911  1.00  0.00     0.002 A 
HETATM   27  C   UNL     1      -0.807   7.083 -32.887  1.00  0.00     0.018 A 
BRANCH  24  28
HETATM   28  C   UNL     1       0.172   5.986 -30.838  1.00  0.00     0.419 C 
HETATM   29  F   UNL     1      -0.346   5.720 -29.603  1.00  0.00    -0.166 F 
HETATM   30  F   UNL     1       1.095   5.011 -31.067  1.00  0.00    -0.166 F 
HETATM   31  F   UNL     1       0.877   7.143 -30.702  1.00  0.00    -0.166 F 
ENDBRANCH  24  28
ENDBRANCH  16  17
ENDBRANCH  15  16
ENDBRANCH  13  15
ENDBRANCH   1  13
BRANCH   1  32
HETATM   32  N   UNL     1      -7.862   1.832 -34.209  1.00  0.00    -0.342 N 
HETATM   33  H   UNL     1      -8.649   1.667 -34.850  1.00  0.00     0.167 HD
BRANCH  32  34
HETATM   34  C   UNL     1      -7.182   0.597 -34.027  1.00  0.00     0.033 A 
HETATM   35  C   UNL     1      -6.351   0.317 -32.936  1.00  0.00     0.029 A 
HETATM   36  C   UNL     1      -5.686  -0.909 -32.834  1.00  0.00     0.002 A 
HETATM   37  C   UNL     1      -5.835  -1.870 -33.831  1.00  0.00     0.000 A 
HETATM   38  C   UNL     1      -6.643  -1.604 -34.932  1.00  0.00     0.002 A 
HETATM   39  C   UNL     1      -7.306  -0.377 -35.031  1.00  0.00     0.029 A 
ENDBRANCH  32  34
ENDBRANCH   1  32
TORSDOF 7
ENDMDL
MODEL 9
REMARK VINA RESULT:      -9.1      4.644      8.338
REMARK  7 active torsions:
REMARK  status: ('A' for Active; 'I' for Inactive)
REMARK    1  A    between atoms: C_7  and  C_8 
REMARK    2  A    between atoms: C_8  and  C_9 
REMARK    3  A    between atoms: C_9  and  N_10 
REMARK    4  A    between atoms: N_10  and  C_11 
REMARK    5  A    between atoms: C_11  and  N_12 
REMARK    6  A    between atoms: N_12  and  C_13 
REMARK    7  A    between atoms: C_30  and  C_31 
ROOT
HETATM    1  C   UNL     1      -5.332   3.449 -33.239  1.00  0.00     0.123 C 
HETATM    2  C   UNL     1      -5.261   2.083 -33.175  1.00  0.00     0.144 C 
HETATM    3  C   UNL     1      -6.179   1.228 -33.971  1.00  0.00     0.270 C 
HETATM    4  O   UNL     1      -7.187   1.679 -34.517  1.00  0.00    -0.267 OA
HETATM    5  N   UNL     1      -5.842  -0.111 -34.041  1.00  0.00    -0.270 N 
HETATM    6  C   UNL     1      -6.609  -0.947 -34.947  1.00  0.00     0.164 C 
HETATM    7  C   UNL     1      -5.012  -0.758 -33.143  1.00  0.00     0.333 C 
HETATM    8  O   UNL     1      -4.880  -1.984 -33.155  1.00  0.00    -0.246 OA
HETATM    9  N   UNL     1      -4.340   0.037 -32.232  1.00  0.00    -0.270 N 
HETATM   10  C   UNL     1      -3.440  -0.628 -31.304  1.00  0.00     0.164 C 
HETATM   11  C   UNL     1      -4.256   1.415 -32.307  1.00  0.00     0.270 C 
HETATM   12  O   UNL     1      -3.378   2.050 -31.718  1.00  0.00    -0.267 OA
ENDROOT
BRANCH   1  13
HETATM   13  N   UNL     1      -6.206   4.087 -34.127  1.00  0.00    -0.375 N 
HETATM   14  H   UNL     1      -5.833   4.165 -35.079  1.00  0.00     0.161 HD
BRANCH  13  15
HETATM   15  C   UNL     1      -7.082   5.195 -33.739  1.00  0.00     0.126 C 
BRANCH  15  16
HETATM   16  C   UNL     1      -7.833   4.906 -32.431  1.00  0.00     0.061 C 
BRANCH  16  17
HETATM   17  C   UNL     1      -8.884   3.838 -32.562  1.00  0.00    -0.022 A 
HETATM   18  C   UNL     1      -9.014   2.709 -31.768  1.00  0.00     0.013 A 
HETATM   19  C   UNL     1      -8.207   2.231 -30.614  1.00  0.00     0.068 C 
HETATM   20  N   UNL     1     -10.102   2.005 -32.217  1.00  0.00    -0.358 N 
HETATM   21  H   UNL     1     -10.432   1.133 -31.820  1.00  0.00     0.166 HD
HETATM   22  C   UNL     1     -10.676   2.629 -33.302  1.00  0.00     0.058 A 
HETATM   23  C   UNL     1      -9.924   3.778 -33.549  1.00  0.00    -0.000 A 
HETATM   24  C   UNL     1     -11.794   2.254 -34.076  1.00  0.00     0.075 A 
HETATM   25  C   UNL     1     -10.293   4.601 -34.631  1.00  0.00     0.014 A 
HETATM   26  C   UNL     1     -11.395   4.260 -35.418  1.00  0.00     0.002 A 
HETATM   27  C   UNL     1     -12.132   3.112 -35.142  1.00  0.00     0.018 A 
BRANCH  24  28
HETATM   28  C   UNL     1     -12.630   1.027 -33.812  1.00  0.00     0.419 C 
HETATM   29  F   UNL     1     -13.280   0.567 -34.921  1.00  0.00    -0.166 F 
HETATM   30  F   UNL     1     -11.889  -0.021 -33.358  1.00  0.00    -0.166 F 
HETATM   31  F   UNL     1     -13.597   1.236 -32.876  1.00  0.00    -0.166 F 
ENDBRANCH  24  28
ENDBRANCH  16  17
ENDBRANCH  15  16
ENDBRANCH  13  15
ENDBRANCH   1  13
BRANCH   1  32
HETATM   32  N   UNL     1      -4.492   4.257 -32.463  1.00  0.00    -0.342 N 
HETATM   33  H   UNL     1      -5.008   4.780 -31.745  1.00  0.00     0.167 HD
BRANCH  32  34
HETATM   34  C   UNL     1      -3.470   5.105 -32.969  1.00  0.00     0.033 A 
HETATM   35  C   UNL     1      -3.338   6.457 -32.632  1.00  0.00     0.029 A 
HETATM   36  C   UNL     1      -2.326   7.244 -33.192  1.00  0.00     0.002 A 
HETATM   37  C   UNL     1      -1.436   6.689 -34.109  1.00  0.00     0.000 A 
HETATM   38  C   UNL     1      -1.561   5.351 -34.470  1.00  0.00     0.002 A 
HETATM   39  C   UNL     1      -2.574   4.568 -33.909  1.00  0.00     0.029 A 
ENDBRANCH  32  34
ENDBRANCH   1  32
TORSDOF 7
ENDMDL
MODEL 10
REMARK VINA RESULT:      -9.1      4.357      7.771
REMARK  7 active torsions:
REMARK  status: ('A' for Active; 'I' for Inactive)
REMARK    1  A    between atoms: C_7  and  C_8 
REMARK    2  A    between atoms: C_8  and  C_9 
REMARK    3  A    between atoms: C_9  and  N_10 
REMARK    4  A    between atoms: N_10  and  C_11 
REMARK    5  A    between atoms: C_11  and  N_12 
REMARK    6  A    between atoms: N_12  and  C_13 
REMARK    7  A    between atoms: C_30  and  C_31 
ROOT
HETATM    1  C   UNL     1      -4.350   4.677 -32.017  1.00  0.00     0.123 C 
HETATM    2  C   UNL     1      -5.524   5.371 -32.139  1.00  0.00     0.144 C 
HETATM    3  C   UNL     1      -6.470   5.090 -33.250  1.00  0.00     0.270 C 
HETATM    4  O   UNL     1      -6.147   4.422 -34.233  1.00  0.00    -0.267 OA
HETATM    5  N   UNL     1      -7.729   5.646 -33.120  1.00  0.00    -0.270 N 
HETATM    6  C   UNL     1      -8.736   5.256 -34.091  1.00  0.00     0.164 C 
HETATM    7  C   UNL     1      -8.031   6.722 -32.303  1.00  0.00     0.333 C 
HETATM    8  O   UNL     1      -9.129   7.281 -32.354  1.00  0.00    -0.246 OA
HETATM    9  N   UNL     1      -7.041   7.139 -31.431  1.00  0.00    -0.270 N 
HETATM   10  C   UNL     1      -7.357   8.246 -30.545  1.00  0.00     0.164 C 
HETATM   11  C   UNL     1      -5.889   6.426 -31.156  1.00  0.00     0.270 C 
HETATM   12  O   UNL     1      -5.222   6.627 -30.138  1.00  0.00    -0.267 OA
ENDROOT
BRANCH   1  13
HETATM   13  N   UNL     1      -4.044   3.615 -32.876  1.00  0.00    -0.375 N 
HETATM   14  H   UNL     1      -4.655   3.568 -33.698  1.00  0.00     0.161 HD
BRANCH  13  15
HETATM   15  C   UNL     1      -3.574   2.310 -32.408  1.00  0.00     0.126 C 
BRANCH  15  16
HETATM   16  C   UNL     1      -4.493   1.717 -31.330  1.00  0.00     0.061 C 
BRANCH  16  17
HETATM   17  C   UNL     1      -5.949   1.724 -31.710  1.00  0.00    -0.022 A 
HETATM   18  C   UNL     1      -6.987   2.283 -30.980  1.00  0.00     0.013 A 
HETATM   19  C   UNL     1      -6.987   3.001 -29.678  1.00  0.00     0.068 C 
HETATM   20  N   UNL     1      -8.149   2.078 -31.680  1.00  0.00    -0.358 N 
HETATM   21  H   UNL     1      -9.067   2.383 -31.381  1.00  0.00     0.166 HD
HETATM   22  C   UNL     1      -7.904   1.377 -32.840  1.00  0.00     0.058 A 
HETATM   23  C   UNL     1      -6.532   1.132 -32.879  1.00  0.00    -0.000 A 
HETATM   24  C   UNL     1      -8.798   0.945 -33.843  1.00  0.00     0.075 A 
HETATM   25  C   UNL     1      -6.011   0.407 -33.969  1.00  0.00     0.014 A 
HETATM   26  C   UNL     1      -6.866  -0.037 -34.980  1.00  0.00     0.002 A 
HETATM   27  C   UNL     1      -8.231   0.232 -34.919  1.00  0.00     0.018 A 
BRANCH  24  28
HETATM   28  C   UNL     1     -10.280   1.219 -33.827  1.00  0.00     0.419 C 
HETATM   29  F   UNL     1     -10.849   1.183 -35.068  1.00  0.00    -0.166 F 
HETATM   30  F   UNL     1     -10.969   0.314 -33.079  1.00  0.00    -0.166 F 
HETATM   31  F   UNL     1     -10.588   2.442 -33.313  1.00  0.00    -0.166 F 
ENDBRANCH  24  28
ENDBRANCH  16  17
ENDBRANCH  15  16
ENDBRANCH  13  15
ENDBRANCH   1  13
BRANCH   1  32
HETATM   32  N   UNL     1      -3.441   4.964 -30.991  1.00  0.00    -0.342 N 
HETATM   33  H   UNL     1      -3.884   5.446 -30.200  1.00  0.00     0.167 HD
BRANCH  32  34
HETATM   34  C   UNL     1      -2.146   5.523 -31.172  1.00  0.00     0.033 A 
HETATM   35  C   UNL     1      -0.958   4.873 -30.819  1.00  0.00     0.029 A 
HETATM   36  C   UNL     1       0.282   5.494 -30.995  1.00  0.00     0.002 A 
HETATM   37  C   UNL     1       0.351   6.783 -31.516  1.00  0.00     0.000 A 
HETATM   38  C   UNL     1      -0.820   7.454 -31.857  1.00  0.00     0.002 A 
HETATM   39  C   UNL     1      -2.059   6.829 -31.680  1.00  0.00     0.029 A 
ENDBRANCH  32  34
ENDBRANCH   1  32
TORSDOF 7
ENDMDL
