MODEL 1
REMARK VINA RESULT:      -8.1      0.000      0.000
REMARK  6 active torsions:
REMARK  status: ('A' for Active; 'I' for Inactive)
REMARK    1  A    between atoms: O_2  and  C_3 
REMARK    2  A    between atoms: C_4  and  O_5 
REMARK    3  A    between atoms: C_8  and  C_9 
REMARK    4  A    between atoms: C_13  and  C_14 
REMARK       I    between atoms: C_14  and  N_15 
REMARK    5  A    between atoms: N_15  and  C_16 
REMARK    6  A    between atoms: C_19  and  O_20 
ROOT
HETATM    1  C   UNL     1      -7.321   0.463 -34.109  1.00  0.00     0.063 A 
HETATM    2  N   UNL     1      -6.979   1.790 -34.178  1.00  0.00    -0.277 N 
HETATM    3  H   UNL     1      -6.045   2.184 -34.180  1.00  0.00     0.189 HD
HETATM    4  N   UNL     1      -8.027   2.633 -34.213  1.00  0.00    -0.169 NA
HETATM    5  C   UNL     1      -9.101   1.816 -34.153  1.00  0.00     0.147 A 
HETATM    6  C   UNL     1      -8.701   0.459 -34.085  1.00  0.00     0.071 A 
ENDROOT
BRANCH   5   7
HETATM    7  C   UNL     1     -10.479   2.340 -34.150  1.00  0.00     0.276 C 
HETATM    8  N   UNL     1     -11.372   1.430 -33.620  1.00  0.00    -0.320 N 
HETATM    9  H   UNL     1     -10.936   0.560 -33.325  1.00  0.00     0.169 HD
HETATM   10  O   UNL     1     -10.748   3.454 -34.584  1.00  0.00    -0.266 OA
BRANCH   8  11
HETATM   11  C   UNL     1     -12.760   1.574 -33.466  1.00  0.00     0.052 A 
HETATM   12  C   UNL     1     -13.381   2.496 -32.626  1.00  0.00     0.149 A 
HETATM   13  N   UNL     1     -14.726   2.619 -32.491  1.00  0.00    -0.235 NA
HETATM   14  C   UNL     1     -15.490   1.787 -33.227  1.00  0.00     0.163 A 
HETATM   15  C   UNL     1     -14.971   0.839 -34.093  1.00  0.00     0.060 A 
HETATM   16  C   UNL     1     -13.587   0.732 -34.211  1.00  0.00     0.035 A 
BRANCH  14  17
HETATM   17  O   UNL     1     -16.866   1.852 -33.143  1.00  0.00    -0.339 OA
HETATM   18  C   UNL     1     -17.319   2.825 -32.207  1.00  0.00     0.211 C 
ENDBRANCH  14  17
ENDBRANCH   8  11
ENDBRANCH   5   7
BRANCH   1  19
HETATM   19  C   UNL     1      -6.346  -0.620 -34.026  1.00  0.00    -0.005 A 
HETATM   20  C   UNL     1      -5.216  -0.519 -33.201  1.00  0.00     0.053 A 
HETATM   21  C   UNL     1      -4.299  -1.574 -33.106  1.00  0.00     0.102 A 
HETATM   22  C   UNL     1      -4.524  -2.761 -33.831  1.00  0.00     0.101 A 
HETATM   23  C   UNL     1      -5.633  -2.852 -34.676  1.00  0.00     0.040 A 
HETATM   24  C   UNL     1      -6.534  -1.788 -34.773  1.00  0.00     0.017 A 
BRANCH  21  25
HETATM   25  O   UNL     1      -3.179  -1.556 -32.313  1.00  0.00    -0.353 OA
HETATM   26  C   UNL     1      -2.947  -0.392 -31.533  1.00  0.00     0.210 C 
ENDBRANCH  21  25
BRANCH  22  27
HETATM   27  O   UNL     1      -3.593  -3.757 -33.678  1.00  0.00    -0.353 OA
HETATM   28  C   UNL     1      -4.045  -5.090 -33.883  1.00  0.00     0.210 C 
ENDBRANCH  22  27
ENDBRANCH   1  19
TORSDOF 6
ENDMDL
MODEL 2
REMARK VINA RESULT:      -8.0      1.081      2.167
REMARK  6 active torsions:
REMARK  status: ('A' for Active; 'I' for Inactive)
REMARK    1  A    between atoms: O_2  and  C_3 
REMARK    2  A    between atoms: C_4  and  O_5 
REMARK    3  A    between atoms: C_8  and  C_9 
REMARK    4  A    between atoms: C_13  and  C_14 
REMARK       I    between atoms: C_14  and  N_15 
REMARK    5  A    between atoms: N_15  and  C_16 
REMARK    6  A    between atoms: C_19  and  O_20 
ROOT
HETATM    1  C   UNL     1      -7.781   0.724 -33.924  1.00  0.00     0.063 A 
HETATM    2  N   UNL     1      -7.540   2.070 -33.816  1.00  0.00    -0.277 N 
HETATM    3  H   UNL     1      -6.645   2.523 -33.665  1.00  0.00     0.189 HD
HETATM    4  N   UNL     1      -8.640   2.841 -33.891  1.00  0.00    -0.169 NA
HETATM    5  C   UNL     1      -9.645   1.952 -34.046  1.00  0.00     0.147 A 
HETATM    6  C   UNL     1      -9.150   0.625 -34.069  1.00  0.00     0.071 A 
ENDROOT
BRANCH   5   7
HETATM    7  C   UNL     1     -11.052   2.381 -34.156  1.00  0.00     0.276 C 
HETATM    8  N   UNL     1     -11.891   1.583 -33.402  1.00  0.00    -0.320 N 
HETATM    9  H   UNL     1     -11.405   0.842 -32.903  1.00  0.00     0.169 HD
HETATM   10  O   UNL     1     -11.387   3.331 -34.853  1.00  0.00    -0.266 OA
BRANCH   8  11
HETATM   11  C   UNL     1     -13.285   1.682 -33.270  1.00  0.00     0.052 A 
HETATM   12  C   UNL     1     -14.212   0.931 -33.990  1.00  0.00     0.149 A 
HETATM   13  N   UNL     1     -15.558   1.042 -33.848  1.00  0.00    -0.235 NA
HETATM   14  C   UNL     1     -16.002   1.941 -32.947  1.00  0.00     0.163 A 
HETATM   15  C   UNL     1     -15.164   2.733 -32.181  1.00  0.00     0.060 A 
HETATM   16  C   UNL     1     -13.787   2.601 -32.348  1.00  0.00     0.035 A 
BRANCH  14  17
HETATM   17  O   UNL     1     -17.357   2.112 -32.747  1.00  0.00    -0.339 OA
HETATM   18  C   UNL     1     -17.664   3.283 -31.997  1.00  0.00     0.211 C 
ENDBRANCH  14  17
ENDBRANCH   8  11
ENDBRANCH   5   7
BRANCH   1  19
HETATM   19  C   UNL     1      -6.739  -0.295 -33.835  1.00  0.00    -0.005 A 
HETATM   20  C   UNL     1      -6.730  -1.402 -34.695  1.00  0.00     0.053 A 
HETATM   21  C   UNL     1      -5.712  -2.362 -34.620  1.00  0.00     0.102 A 
HETATM   22  C   UNL     1      -4.671  -2.202 -33.685  1.00  0.00     0.101 A 
HETATM   23  C   UNL     1      -4.695  -1.116 -32.806  1.00  0.00     0.040 A 
HETATM   24  C   UNL     1      -5.723  -0.172 -32.881  1.00  0.00     0.017 A 
BRANCH  21  25
HETATM   25  O   UNL     1      -5.627  -3.464 -35.434  1.00  0.00    -0.353 OA
HETATM   26  C   UNL     1      -6.569  -4.506 -35.227  1.00  0.00     0.210 C 
ENDBRANCH  21  25
BRANCH  22  27
HETATM   27  O   UNL     1      -3.701  -3.172 -33.678  1.00  0.00    -0.353 OA
HETATM   28  C   UNL     1      -3.321  -3.687 -32.408  1.00  0.00     0.210 C 
ENDBRANCH  22  27
ENDBRANCH   1  19
TORSDOF 6
ENDMDL
MODEL 3
REMARK VINA RESULT:      -7.5      1.458      2.700
REMARK  6 active torsions:
REMARK  status: ('A' for Active; 'I' for Inactive)
REMARK    1  A    between atoms: O_2  and  C_3 
REMARK    2  A    between atoms: C_4  and  O_5 
REMARK    3  A    between atoms: C_8  and  C_9 
REMARK    4  A    between atoms: C_13  and  C_14 
REMARK       I    between atoms: C_14  and  N_15 
REMARK    5  A    between atoms: N_15  and  C_16 
REMARK    6  A    between atoms: C_19  and  O_20 
ROOT
HETATM    1  C   UNL     1      -8.688   0.899 -33.731  1.00  0.00     0.063 A 
HETATM    2  N   UNL     1      -8.647   2.162 -34.264  1.00  0.00    -0.277 N 
HETATM    3  H   UNL     1      -7.824   2.727 -34.442  1.00  0.00     0.189 HD
HETATM    4  N   UNL     1      -9.854   2.689 -34.540  1.00  0.00    -0.169 NA
HETATM    5  C   UNL     1     -10.721   1.726 -34.159  1.00  0.00     0.147 A 
HETATM    6  C   UNL     1     -10.033   0.598 -33.648  1.00  0.00     0.071 A 
ENDROOT
BRANCH   5   7
HETATM    7  C   UNL     1     -12.180   1.902 -34.275  1.00  0.00     0.276 C 
HETATM    8  N   UNL     1     -12.755   2.225 -33.061  1.00  0.00    -0.320 N 
HETATM    9  H   UNL     1     -12.085   2.286 -32.299  1.00  0.00     0.169 HD
HETATM   10  O   UNL     1     -12.766   1.760 -35.342  1.00  0.00    -0.266 OA
BRANCH   8  11
HETATM   11  C   UNL     1     -14.113   2.455 -32.786  1.00  0.00     0.052 A 
HETATM   12  C   UNL     1     -15.149   1.568 -33.068  1.00  0.00     0.149 A 
HETATM   13  N   UNL     1     -16.456   1.810 -32.793  1.00  0.00    -0.235 NA
HETATM   14  C   UNL     1     -16.746   2.990 -32.209  1.00  0.00     0.163 A 
HETATM   15  C   UNL     1     -15.790   3.938 -31.886  1.00  0.00     0.060 A 
HETATM   16  C   UNL     1     -14.456   3.665 -32.181  1.00  0.00     0.035 A 
BRANCH  14  17
HETATM   17  O   UNL     1     -18.053   3.308 -31.900  1.00  0.00    -0.339 OA
HETATM   18  C   UNL     1     -18.909   3.304 -33.038  1.00  0.00     0.211 C 
ENDBRANCH  14  17
ENDBRANCH   8  11
ENDBRANCH   5   7
BRANCH   1  19
HETATM   19  C   UNL     1      -7.500   0.153 -33.325  1.00  0.00    -0.005 A 
HETATM   20  C   UNL     1      -6.999  -0.897 -34.108  1.00  0.00     0.053 A 
HETATM   21  C   UNL     1      -5.843  -1.590 -33.724  1.00  0.00     0.102 A 
HETATM   22  C   UNL     1      -5.163  -1.215 -32.550  1.00  0.00     0.101 A 
HETATM   23  C   UNL     1      -5.678  -0.189 -31.753  1.00  0.00     0.040 A 
HETATM   24  C   UNL     1      -6.839   0.487 -32.138  1.00  0.00     0.017 A 
BRANCH  21  25
HETATM   25  O   UNL     1      -5.285  -2.618 -34.442  1.00  0.00    -0.353 OA
HETATM   26  C   UNL     1      -6.167  -3.569 -35.021  1.00  0.00     0.210 C 
ENDBRANCH  21  25
BRANCH  22  27
HETATM   27  O   UNL     1      -4.031  -1.927 -32.244  1.00  0.00    -0.353 OA
HETATM   28  C   UNL     1      -2.890  -1.175 -31.847  1.00  0.00     0.210 C 
ENDBRANCH  22  27
ENDBRANCH   1  19
TORSDOF 6
ENDMDL
MODEL 4
REMARK VINA RESULT:      -7.3      7.125     11.765
REMARK  6 active torsions:
REMARK  status: ('A' for Active; 'I' for Inactive)
REMARK    1  A    between atoms: O_2  and  C_3 
REMARK    2  A    between atoms: C_4  and  O_5 
REMARK    3  A    between atoms: C_8  and  C_9 
REMARK    4  A    between atoms: C_13  and  C_14 
REMARK       I    between atoms: C_14  and  N_15 
REMARK    5  A    between atoms: N_15  and  C_16 
REMARK    6  A    between atoms: C_19  and  O_20 
ROOT
HETATM    1  C   UNL     1      -3.262   3.976 -32.540  1.00  0.00     0.063 A 
HETATM    2  N   UNL     1      -2.416   4.594 -33.425  1.00  0.00    -0.277 N 
HETATM    3  H   UNL     1      -2.537   4.686 -34.428  1.00  0.00     0.189 HD
HETATM    4  N   UNL     1      -1.298   5.095 -32.869  1.00  0.00    -0.169 NA
HETATM    5  C   UNL     1      -1.418   4.778 -31.562  1.00  0.00     0.147 A 
HETATM    6  C   UNL     1      -2.626   4.079 -31.319  1.00  0.00     0.071 A 
ENDROOT
BRANCH   5   7
HETATM    7  C   UNL     1      -0.381   5.134 -30.577  1.00  0.00     0.276 C 
HETATM    8  N   UNL     1      -0.829   6.086 -29.682  1.00  0.00    -0.320 N 
HETATM    9  H   UNL     1      -1.788   6.380 -29.850  1.00  0.00     0.169 HD
HETATM   10  O   UNL     1       0.733   4.623 -30.597  1.00  0.00    -0.266 OA
BRANCH   8  11
HETATM   11  C   UNL     1      -0.122   6.670 -28.619  1.00  0.00     0.052 A 
HETATM   12  C   UNL     1      -0.184   6.253 -27.291  1.00  0.00     0.149 A 
HETATM   13  N   UNL     1       0.509   6.833 -26.277  1.00  0.00    -0.235 NA
HETATM   14  C   UNL     1       1.301   7.875 -26.600  1.00  0.00     0.163 A 
HETATM   15  C   UNL     1       1.435   8.363 -27.888  1.00  0.00     0.060 A 
HETATM   16  C   UNL     1       0.711   7.751 -28.910  1.00  0.00     0.035 A 
BRANCH  14  17
HETATM   17  O   UNL     1       2.036   8.516 -25.623  1.00  0.00    -0.339 OA
HETATM   18  C   UNL     1       1.591   9.847 -25.379  1.00  0.00     0.211 C 
ENDBRANCH  14  17
ENDBRANCH   8  11
ENDBRANCH   5   7
BRANCH   1  19
HETATM   19  C   UNL     1      -4.513   3.332 -32.931  1.00  0.00    -0.005 A 
HETATM   20  C   UNL     1      -4.857   2.061 -32.448  1.00  0.00     0.053 A 
HETATM   21  C   UNL     1      -6.072   1.462 -32.807  1.00  0.00     0.102 A 
HETATM   22  C   UNL     1      -6.969   2.151 -33.645  1.00  0.00     0.101 A 
HETATM   23  C   UNL     1      -6.614   3.404 -34.152  1.00  0.00     0.040 A 
HETATM   24  C   UNL     1      -5.394   3.987 -33.798  1.00  0.00     0.017 A 
BRANCH  21  25
HETATM   25  O   UNL     1      -6.486   0.229 -32.365  1.00  0.00    -0.353 OA
HETATM   26  C   UNL     1      -5.486  -0.680 -31.929  1.00  0.00     0.210 C 
ENDBRANCH  21  25
BRANCH  22  27
HETATM   27  O   UNL     1      -8.145   1.510 -33.942  1.00  0.00    -0.353 OA
HETATM   28  C   UNL     1      -9.300   2.328 -34.088  1.00  0.00     0.210 C 
ENDBRANCH  22  27
ENDBRANCH   1  19
TORSDOF 6
ENDMDL
MODEL 5
REMARK VINA RESULT:      -7.3      1.688      2.520
REMARK  6 active torsions:
REMARK  status: ('A' for Active; 'I' for Inactive)
REMARK    1  A    between atoms: O_2  and  C_3 
REMARK    2  A    between atoms: C_4  and  O_5 
REMARK    3  A    between atoms: C_8  and  C_9 
REMARK    4  A    between atoms: C_13  and  C_14 
REMARK       I    between atoms: C_14  and  N_15 
REMARK    5  A    between atoms: N_15  and  C_16 
REMARK    6  A    between atoms: C_19  and  O_20 
ROOT
HETATM    1  C   UNL     1      -9.073   1.317 -33.256  1.00  0.00     0.063 A 
HETATM    2  N   UNL     1      -9.160   2.296 -32.300  1.00  0.00    -0.277 N 
HETATM    3  H   UNL     1      -8.451   2.561 -31.625  1.00  0.00     0.189 HD
HETATM    4  N   UNL     1     -10.344   2.935 -32.263  1.00  0.00    -0.169 NA
HETATM    5  C   UNL     1     -11.064   2.334 -33.235  1.00  0.00     0.147 A 
HETATM    6  C   UNL     1     -10.308   1.321 -33.873  1.00  0.00     0.071 A 
ENDROOT
BRANCH   5   7
HETATM    7  C   UNL     1     -12.455   2.726 -33.527  1.00  0.00     0.276 C 
HETATM    8  N   UNL     1     -13.276   2.560 -32.429  1.00  0.00    -0.320 N 
HETATM    9  H   UNL     1     -12.790   2.199 -31.611  1.00  0.00     0.169 HD
HETATM   10  O   UNL     1     -12.793   3.135 -34.631  1.00  0.00    -0.266 OA
BRANCH   8  11
HETATM   11  C   UNL     1     -14.653   2.817 -32.335  1.00  0.00     0.052 A 
HETATM   12  C   UNL     1     -15.660   1.917 -32.676  1.00  0.00     0.149 A 
HETATM   13  N   UNL     1     -16.987   2.186 -32.579  1.00  0.00    -0.235 NA
HETATM   14  C   UNL     1     -17.328   3.407 -32.120  1.00  0.00     0.163 A 
HETATM   15  C   UNL     1     -16.405   4.370 -31.753  1.00  0.00     0.060 A 
HETATM   16  C   UNL     1     -15.049   4.069 -31.865  1.00  0.00     0.035 A 
BRANCH  14  17
HETATM   17  O   UNL     1     -18.658   3.753 -31.994  1.00  0.00    -0.339 OA
HETATM   18  C   UNL     1     -18.876   4.772 -31.024  1.00  0.00     0.211 C 
ENDBRANCH  14  17
ENDBRANCH   8  11
ENDBRANCH   5   7
BRANCH   1  19
HETATM   19  C   UNL     1      -7.895   0.476 -33.448  1.00  0.00    -0.005 A 
HETATM   20  C   UNL     1      -6.920   0.351 -32.447  1.00  0.00     0.053 A 
HETATM   21  C   UNL     1      -5.806  -0.479 -32.629  1.00  0.00     0.102 A 
HETATM   22  C   UNL     1      -5.673  -1.215 -33.823  1.00  0.00     0.101 A 
HETATM   23  C   UNL     1      -6.627  -1.068 -34.833  1.00  0.00     0.040 A 
HETATM   24  C   UNL     1      -7.727  -0.227 -34.646  1.00  0.00     0.017 A 
BRANCH  21  25
HETATM   25  O   UNL     1      -4.819  -0.664 -31.693  1.00  0.00    -0.353 OA
HETATM   26  C   UNL     1      -4.694   0.313 -30.671  1.00  0.00     0.210 C 
ENDBRANCH  21  25
BRANCH  22  27
HETATM   27  O   UNL     1      -4.565  -2.019 -33.925  1.00  0.00    -0.353 OA
HETATM   28  C   UNL     1      -4.720  -3.230 -34.654  1.00  0.00     0.210 C 
ENDBRANCH  22  27
ENDBRANCH   1  19
TORSDOF 6
ENDMDL
MODEL 6
REMARK VINA RESULT:      -7.3      1.790      1.950
REMARK  6 active torsions:
REMARK  status: ('A' for Active; 'I' for Inactive)
REMARK    1  A    between atoms: O_2  and  C_3 
REMARK    2  A    between atoms: C_4  and  O_5 
REMARK    3  A    between atoms: C_8  and  C_9 
REMARK    4  A    between atoms: C_13  and  C_14 
REMARK       I    between atoms: C_14  and  N_15 
REMARK    5  A    between atoms: N_15  and  C_16 
REMARK    6  A    between atoms: C_19  and  O_20 
ROOT
HETATM    1  C   UNL     1      -7.988  -0.003 -33.269  1.00  0.00     0.063 A 
HETATM    2  N   UNL     1      -8.259   0.453 -32.004  1.00  0.00    -0.277 N 
HETATM    3  H   UNL     1      -7.765   0.221 -31.149  1.00  0.00     0.189 HD
HETATM    4  N   UNL     1      -9.323   1.272 -31.923  1.00  0.00    -0.169 NA
HETATM    5  C   UNL     1      -9.772   1.344 -33.195  1.00  0.00     0.147 A 
HETATM    6  C   UNL     1      -8.968   0.562 -34.061  1.00  0.00     0.071 A 
ENDROOT
BRANCH   5   7
HETATM    7  C   UNL     1     -10.958   2.141 -33.557  1.00  0.00     0.276 C 
HETATM    8  N   UNL     1     -11.590   2.656 -32.442  1.00  0.00    -0.320 N 
HETATM    9  H   UNL     1     -11.138   2.403 -31.567  1.00  0.00     0.169 HD
HETATM   10  O   UNL     1     -11.304   2.292 -34.723  1.00  0.00    -0.266 OA
BRANCH   8  11
HETATM   11  C   UNL     1     -12.747   3.449 -32.397  1.00  0.00     0.052 A 
HETATM   12  C   UNL     1     -12.774   4.836 -32.525  1.00  0.00     0.149 A 
HETATM   13  N   UNL     1     -13.905   5.585 -32.477  1.00  0.00    -0.235 NA
HETATM   14  C   UNL     1     -15.065   4.922 -32.296  1.00  0.00     0.163 A 
HETATM   15  C   UNL     1     -15.147   3.547 -32.162  1.00  0.00     0.060 A 
HETATM   16  C   UNL     1     -13.970   2.803 -32.212  1.00  0.00     0.035 A 
BRANCH  14  17
HETATM   17  O   UNL     1     -16.258   5.615 -32.237  1.00  0.00    -0.339 OA
HETATM   18  C   UNL     1     -17.255   4.939 -31.478  1.00  0.00     0.211 C 
ENDBRANCH  14  17
ENDBRANCH   8  11
ENDBRANCH   5   7
BRANCH   1  19
HETATM   19  C   UNL     1      -6.903  -0.928 -33.582  1.00  0.00    -0.005 A 
HETATM   20  C   UNL     1      -5.636  -0.785 -32.999  1.00  0.00     0.053 A 
HETATM   21  C   UNL     1      -4.608  -1.694 -33.283  1.00  0.00     0.102 A 
HETATM   22  C   UNL     1      -4.855  -2.778 -34.148  1.00  0.00     0.101 A 
HETATM   23  C   UNL     1      -6.108  -2.904 -34.753  1.00  0.00     0.040 A 
HETATM   24  C   UNL     1      -7.122  -1.984 -34.473  1.00  0.00     0.017 A 
BRANCH  21  25
HETATM   25  O   UNL     1      -3.347  -1.629 -32.743  1.00  0.00    -0.353 OA
HETATM   26  C   UNL     1      -3.155  -0.770 -31.629  1.00  0.00     0.210 C 
ENDBRANCH  21  25
BRANCH  22  27
HETATM   27  O   UNL     1      -3.807  -3.635 -34.368  1.00  0.00    -0.353 OA
HETATM   28  C   UNL     1      -3.920  -4.939 -33.811  1.00  0.00     0.210 C 
ENDBRANCH  22  27
ENDBRANCH   1  19
TORSDOF 6
ENDMDL
MODEL 7
REMARK VINA RESULT:      -7.1      8.327     11.701
REMARK  6 active torsions:
REMARK  status: ('A' for Active; 'I' for Inactive)
REMARK    1  A    between atoms: O_2  and  C_3 
REMARK    2  A    between atoms: C_4  and  O_5 
REMARK    3  A    between atoms: C_8  and  C_9 
REMARK    4  A    between atoms: C_13  and  C_14 
REMARK       I    between atoms: C_14  and  N_15 
REMARK    5  A    between atoms: N_15  and  C_16 
REMARK    6  A    between atoms: C_19  and  O_20 
ROOT
HETATM    1  C   UNL     1      -0.412   6.630 -29.775  1.00  0.00     0.063 A 
HETATM    2  N   UNL     1       0.549   5.799 -30.291  1.00  0.00    -0.277 N 
HETATM    3  H   UNL     1       1.550   5.843 -30.130  1.00  0.00     0.189 HD
HETATM    4  N   UNL     1       0.079   4.853 -31.125  1.00  0.00    -0.169 NA
HETATM    5  C   UNL     1      -1.250   5.087 -31.159  1.00  0.00     0.147 A 
HETATM    6  C   UNL     1      -1.594   6.186 -30.334  1.00  0.00     0.071 A 
ENDROOT
BRANCH   5   7
HETATM    7  C   UNL     1      -2.162   4.272 -31.983  1.00  0.00     0.276 C 
HETATM    8  N   UNL     1      -2.923   3.416 -31.211  1.00  0.00    -0.320 N 
HETATM    9  H   UNL     1      -2.730   3.489 -30.215  1.00  0.00     0.169 HD
HETATM   10  O   UNL     1      -2.197   4.373 -33.204  1.00  0.00    -0.266 OA
BRANCH   8  11
HETATM   11  C   UNL     1      -3.885   2.490 -31.644  1.00  0.00     0.052 A 
HETATM   12  C   UNL     1      -5.211   2.793 -31.945  1.00  0.00     0.149 A 
HETATM   13  N   UNL     1      -6.126   1.881 -32.362  1.00  0.00    -0.235 NA
HETATM   14  C   UNL     1      -5.702   0.608 -32.487  1.00  0.00     0.163 A 
HETATM   15  C   UNL     1      -4.406   0.204 -32.216  1.00  0.00     0.060 A 
HETATM   16  C   UNL     1      -3.487   1.160 -31.787  1.00  0.00     0.035 A 
BRANCH  14  17
HETATM   17  O   UNL     1      -6.574  -0.376 -32.906  1.00  0.00    -0.339 OA
HETATM   18  C   UNL     1      -5.952  -1.355 -33.732  1.00  0.00     0.211 C 
ENDBRANCH  14  17
ENDBRANCH   8  11
ENDBRANCH   5   7
BRANCH   1  19
HETATM   19  C   UNL     1      -0.122   7.746 -28.879  1.00  0.00    -0.005 A 
HETATM   20  C   UNL     1      -1.105   8.694 -28.558  1.00  0.00     0.053 A 
HETATM   21  C   UNL     1      -0.826   9.747 -27.677  1.00  0.00     0.102 A 
HETATM   22  C   UNL     1       0.450   9.844 -27.088  1.00  0.00     0.101 A 
HETATM   23  C   UNL     1       1.439   8.918 -27.431  1.00  0.00     0.040 A 
HETATM   24  C   UNL     1       1.154   7.879 -28.321  1.00  0.00     0.017 A 
BRANCH  21  25
HETATM   25  O   UNL     1      -1.736  10.704 -27.304  1.00  0.00    -0.353 OA
HETATM   26  C   UNL     1      -2.237  11.563 -28.318  1.00  0.00     0.210 C 
ENDBRANCH  21  25
BRANCH  22  27
HETATM   27  O   UNL     1       0.646  10.891 -26.224  1.00  0.00    -0.353 OA
HETATM   28  C   UNL     1       1.555  10.672 -25.152  1.00  0.00     0.210 C 
ENDBRANCH  22  27
ENDBRANCH   1  19
TORSDOF 6
ENDMDL
MODEL 8
REMARK VINA RESULT:      -7.0      2.602      3.014
REMARK  6 active torsions:
REMARK  status: ('A' for Active; 'I' for Inactive)
REMARK    1  A    between atoms: O_2  and  C_3 
REMARK    2  A    between atoms: C_4  and  O_5 
REMARK    3  A    between atoms: C_8  and  C_9 
REMARK    4  A    between atoms: C_13  and  C_14 
REMARK       I    between atoms: C_14  and  N_15 
REMARK    5  A    between atoms: N_15  and  C_16 
REMARK    6  A    between atoms: C_19  and  O_20 
ROOT
HETATM    1  C   UNL     1      -7.895   0.018 -33.192  1.00  0.00     0.063 A 
HETATM    2  N   UNL     1      -8.093   0.597 -31.964  1.00  0.00    -0.277 N 
HETATM    3  H   UNL     1      -7.525   0.482 -31.133  1.00  0.00     0.189 HD
HETATM    4  N   UNL     1      -9.190   1.373 -31.884  1.00  0.00    -0.169 NA
HETATM    5  C   UNL     1      -9.737   1.285 -33.116  1.00  0.00     0.147 A 
HETATM    6  C   UNL     1      -8.961   0.450 -33.957  1.00  0.00     0.071 A 
ENDROOT
BRANCH   5   7
HETATM    7  C   UNL     1     -10.987   1.985 -33.463  1.00  0.00     0.276 C 
HETATM    8  N   UNL     1     -10.760   3.307 -33.792  1.00  0.00    -0.320 N 
HETATM    9  H   UNL     1      -9.780   3.575 -33.740  1.00  0.00     0.169 HD
HETATM   10  O   UNL     1     -12.074   1.419 -33.440  1.00  0.00    -0.266 OA
BRANCH   8  11
HETATM   11  C   UNL     1     -11.705   4.277 -34.163  1.00  0.00     0.052 A 
HETATM   12  C   UNL     1     -12.159   4.497 -35.461  1.00  0.00     0.149 A 
HETATM   13  N   UNL     1     -13.073   5.442 -35.799  1.00  0.00    -0.235 NA
HETATM   14  C   UNL     1     -13.560   6.203 -34.798  1.00  0.00     0.163 A 
HETATM   15  C   UNL     1     -13.176   6.062 -33.476  1.00  0.00     0.060 A 
HETATM   16  C   UNL     1     -12.234   5.086 -33.157  1.00  0.00     0.035 A 
BRANCH  14  17
HETATM   17  O   UNL     1     -14.493   7.185 -35.064  1.00  0.00    -0.339 OA
HETATM   18  C   UNL     1     -14.913   7.197 -36.424  1.00  0.00     0.211 C 
ENDBRANCH  14  17
ENDBRANCH   8  11
ENDBRANCH   5   7
BRANCH   1  19
HETATM   19  C   UNL     1      -6.790  -0.887 -33.492  1.00  0.00    -0.005 A 
HETATM   20  C   UNL     1      -5.599  -0.849 -32.752  1.00  0.00     0.053 A 
HETATM   21  C   UNL     1      -4.554  -1.740 -33.029  1.00  0.00     0.102 A 
HETATM   22  C   UNL     1      -4.707  -2.701 -34.048  1.00  0.00     0.101 A 
HETATM   23  C   UNL     1      -5.881  -2.719 -34.805  1.00  0.00     0.040 A 
HETATM   24  C   UNL     1      -6.912  -1.818 -34.529  1.00  0.00     0.017 A 
BRANCH  21  25
HETATM   25  O   UNL     1      -3.365  -1.774 -32.343  1.00  0.00    -0.353 OA
HETATM   26  C   UNL     1      -2.978  -0.600 -31.645  1.00  0.00     0.210 C 
ENDBRANCH  21  25
BRANCH  22  27
HETATM   27  O   UNL     1      -3.649  -3.549 -34.253  1.00  0.00    -0.353 OA
HETATM   28  C   UNL     1      -3.832  -4.905 -33.862  1.00  0.00     0.210 C 
ENDBRANCH  22  27
ENDBRANCH   1  19
TORSDOF 6
ENDMDL
MODEL 9
REMARK VINA RESULT:      -6.9      3.187      4.491
REMARK  6 active torsions:
REMARK  status: ('A' for Active; 'I' for Inactive)
REMARK    1  A    between atoms: O_2  and  C_3 
REMARK    2  A    between atoms: C_4  and  O_5 
REMARK    3  A    between atoms: C_8  and  C_9 
REMARK    4  A    between atoms: C_13  and  C_14 
REMARK       I    between atoms: C_14  and  N_15 
REMARK    5  A    between atoms: N_15  and  C_16 
REMARK    6  A    between atoms: C_19  and  O_20 
ROOT
HETATM    1  C   UNL     1      -8.751   0.192 -33.646  1.00  0.00     0.063 A 
HETATM    2  N   UNL     1      -9.898  -0.136 -32.968  1.00  0.00    -0.277 N 
HETATM    3  H   UNL     1     -10.025  -0.894 -32.307  1.00  0.00     0.189 HD
HETATM    4  N   UNL     1     -10.959   0.639 -33.261  1.00  0.00    -0.169 NA
HETATM    5  C   UNL     1     -10.481   1.504 -34.182  1.00  0.00     0.147 A 
HETATM    6  C   UNL     1      -9.113   1.255 -34.449  1.00  0.00     0.071 A 
ENDROOT
BRANCH   5   7
HETATM    7  C   UNL     1     -11.336   2.537 -34.796  1.00  0.00     0.276 C 
HETATM    8  N   UNL     1     -10.765   3.791 -34.709  1.00  0.00    -0.320 N 
HETATM    9  H   UNL     1      -9.862   3.795 -34.241  1.00  0.00     0.169 HD
HETATM   10  O   UNL     1     -12.418   2.264 -35.302  1.00  0.00    -0.266 OA
BRANCH   8  11
HETATM   11  C   UNL     1     -11.289   5.010 -35.170  1.00  0.00     0.052 A 
HETATM   12  C   UNL     1     -12.632   5.247 -35.456  1.00  0.00     0.149 A 
HETATM   13  N   UNL     1     -13.117   6.434 -35.903  1.00  0.00    -0.235 NA
HETATM   14  C   UNL     1     -12.226   7.431 -36.071  1.00  0.00     0.163 A 
HETATM   15  C   UNL     1     -10.873   7.298 -35.813  1.00  0.00     0.060 A 
HETATM   16  C   UNL     1     -10.400   6.069 -35.358  1.00  0.00     0.035 A 
BRANCH  14  17
HETATM   17  O   UNL     1     -12.645   8.666 -36.522  1.00  0.00    -0.339 OA
HETATM   18  C   UNL     1     -12.013   9.748 -35.844  1.00  0.00     0.211 C 
ENDBRANCH  14  17
ENDBRANCH   8  11
ENDBRANCH   5   7
BRANCH   1  19
HETATM   19  C   UNL     1      -7.494  -0.537 -33.509  1.00  0.00    -0.005 A 
HETATM   20  C   UNL     1      -7.127  -1.531 -34.427  1.00  0.00     0.053 A 
HETATM   21  C   UNL     1      -5.905  -2.207 -34.303  1.00  0.00     0.102 A 
HETATM   22  C   UNL     1      -5.025  -1.870 -33.258  1.00  0.00     0.101 A 
HETATM   23  C   UNL     1      -5.403  -0.901 -32.324  1.00  0.00     0.040 A 
HETATM   24  C   UNL     1      -6.629  -0.242 -32.450  1.00  0.00     0.017 A 
BRANCH  21  25
HETATM   25  O   UNL     1      -5.470  -3.181 -35.168  1.00  0.00    -0.353 OA
HETATM   26  C   UNL     1      -6.228  -4.380 -35.240  1.00  0.00     0.210 C 
ENDBRANCH  21  25
BRANCH  22  27
HETATM   27  O   UNL     1      -3.841  -2.562 -33.208  1.00  0.00    -0.353 OA
HETATM   28  C   UNL     1      -3.110  -2.490 -31.989  1.00  0.00     0.210 C 
ENDBRANCH  22  27
ENDBRANCH   1  19
TORSDOF 6
ENDMDL
MODEL 10
REMARK VINA RESULT:      -6.9      6.624     10.816
REMARK  6 active torsions:
REMARK  status: ('A' for Active; 'I' for Inactive)
REMARK    1  A    between atoms: O_2  and  C_3 
REMARK    2  A    between atoms: C_4  and  O_5 
REMARK    3  A    between atoms: C_8  and  C_9 
REMARK    4  A    between atoms: C_13  and  C_14 
REMARK       I    between atoms: C_14  and  N_15 
REMARK    5  A    between atoms: N_15  and  C_16 
REMARK    6  A    between atoms: C_19  and  O_20 
ROOT
HETATM    1  C   UNL     1      -4.256   2.953 -32.161  1.00  0.00     0.063 A 
HETATM    2  N   UNL     1      -5.070   3.924 -31.636  1.00  0.00    -0.277 N 
HETATM    3  H   UNL     1      -6.082   3.912 -31.578  1.00  0.00     0.189 HD
HETATM    4  N   UNL     1      -4.419   5.012 -31.186  1.00  0.00    -0.169 NA
HETATM    5  C   UNL     1      -3.121   4.739 -31.440  1.00  0.00     0.147 A 
HETATM    6  C   UNL     1      -2.980   3.468 -32.049  1.00  0.00     0.071 A 
ENDROOT
BRANCH   5   7
HETATM    7  C   UNL     1      -2.046   5.694 -31.112  1.00  0.00     0.276 C 
HETATM    8  N   UNL     1      -2.008   5.978 -29.760  1.00  0.00    -0.320 N 
HETATM    9  H   UNL     1      -2.719   5.487 -29.223  1.00  0.00     0.169 HD
HETATM   10  O   UNL     1      -1.308   6.158 -31.972  1.00  0.00    -0.266 OA
BRANCH   8  11
HETATM   11  C   UNL     1      -1.133   6.844 -29.087  1.00  0.00     0.052 A 
HETATM   12  C   UNL     1      -1.367   8.199 -28.857  1.00  0.00     0.149 A 
HETATM   13  N   UNL     1      -0.506   9.020 -28.203  1.00  0.00    -0.235 NA
HETATM   14  C   UNL     1       0.640   8.469 -27.755  1.00  0.00     0.163 A 
HETATM   15  C   UNL     1       0.965   7.135 -27.930  1.00  0.00     0.060 A 
HETATM   16  C   UNL     1       0.065   6.314 -28.607  1.00  0.00     0.035 A 
BRANCH  14  17
HETATM   17  O   UNL     1       1.564   9.241 -27.082  1.00  0.00    -0.339 OA
HETATM   18  C   UNL     1       1.612   8.959 -25.687  1.00  0.00     0.211 C 
ENDBRANCH  14  17
ENDBRANCH   8  11
ENDBRANCH   5   7
BRANCH   1  19
HETATM   19  C   UNL     1      -4.751   1.707 -32.739  1.00  0.00    -0.005 A 
HETATM   20  C   UNL     1      -5.895   1.687 -33.550  1.00  0.00     0.053 A 
HETATM   21  C   UNL     1      -6.349   0.490 -34.122  1.00  0.00     0.102 A 
HETATM   22  C   UNL     1      -5.635  -0.703 -33.899  1.00  0.00     0.101 A 
HETATM   23  C   UNL     1      -4.513  -0.690 -33.067  1.00  0.00     0.040 A 
HETATM   24  C   UNL     1      -4.077   0.506 -32.491  1.00  0.00     0.017 A 
BRANCH  21  25
HETATM   25  O   UNL     1      -7.450   0.392 -34.935  1.00  0.00    -0.353 OA
HETATM   26  C   UNL     1      -8.710   0.736 -34.378  1.00  0.00     0.210 C 
ENDBRANCH  21  25
BRANCH  22  27
HETATM   27  O   UNL     1      -6.129  -1.832 -34.503  1.00  0.00    -0.353 OA
HETATM   28  C   UNL     1      -5.198  -2.876 -34.762  1.00  0.00     0.210 C 
ENDBRANCH  22  27
ENDBRANCH   1  19
TORSDOF 6
ENDMDL
