MODEL 1
REMARK VINA RESULT:      -8.8      0.000      0.000
REMARK  8 active torsions:
REMARK  status: ('A' for Active; 'I' for Inactive)
REMARK    1  A    between atoms: C_2  and  C_3 
REMARK    2  A    between atoms: C_3  and  C_4 
REMARK    3  A    between atoms: C_7  and  C_8 
REMARK    4  A    between atoms: C_8  and  N_9 
REMARK    5  A    between atoms: C_8  and  C_26 
REMARK    6  A    between atoms: N_9  and  C_12 
REMARK    7  A    between atoms: C_12  and  C_13 
REMARK       I    between atoms: C_13  and  N_14 
REMARK    8  A    between atoms: N_14  and  C_15 
ROOT
HETATM    1  N   UNL     1      -6.905   4.338 -32.579  1.00  0.00    -0.054 N 
HETATM    2  H   UNL     1      -6.545   5.237 -32.920  1.00  0.00     0.278 HD
HETATM    3  H   UNL     1      -7.525   4.009 -33.336  1.00  0.00     0.278 HD
ENDROOT
BRANCH   1   4
HETATM    4  C   UNL     1      -5.756   3.404 -32.418  1.00  0.00     0.259 C 
BRANCH   4   5
HETATM    5  C   UNL     1      -6.083   1.991 -32.881  1.00  0.00    -0.023 A 
HETATM    6  C   UNL     1      -6.018   0.876 -32.027  1.00  0.00     0.010 A 
HETATM    7  C   UNL     1      -6.359  -0.398 -32.487  1.00  0.00     0.007 A 
HETATM    8  C   UNL     1      -6.795  -0.591 -33.801  1.00  0.00    -0.058 A 
HETATM    9  C   UNL     1      -6.870   0.512 -34.655  1.00  0.00     0.007 A 
HETATM   10  C   UNL     1      -6.518   1.787 -34.203  1.00  0.00     0.010 A 
BRANCH   8  11
HETATM   11  C   UNL     1      -7.207  -1.965 -34.274  1.00  0.00     0.038 C 
BRANCH  11  12
HETATM   12  C   UNL     1      -6.012  -2.769 -34.793  1.00  0.00     0.000 C 
HETATM   13  C   UNL     1      -6.403  -4.202 -35.115  1.00  0.00     0.005 C 
ENDBRANCH  11  12
ENDBRANCH   8  11
ENDBRANCH   4   5
BRANCH   4  14
HETATM   14  C   UNL     1      -4.506   3.944 -33.071  1.00  0.00     0.017 A 
HETATM   15  S   UNL     1      -4.607   5.025 -34.407  1.00  0.00    -0.104 SA
HETATM   16  C   UNL     1      -2.909   5.136 -34.532  1.00  0.00     0.050 A 
HETATM   17  C   UNL     1      -2.269   4.375 -33.581  1.00  0.00     0.008 A 
HETATM   18  C   UNL     1      -3.189   3.687 -32.736  1.00  0.00     0.017 A 
ENDBRANCH   4  14
ENDBRANCH   1   4
BRANCH   1  19
HETATM   19  C   UNL     1      -7.767   4.608 -31.377  1.00  0.00     0.336 C 
BRANCH  19  20
HETATM   20  C   UNL     1      -9.008   3.716 -31.460  1.00  0.00     0.248 C 
HETATM   21  N   UNL     1      -9.398   3.377 -32.738  1.00  0.00    -0.326 N 
HETATM   22  H   UNL     1      -8.885   3.761 -33.525  1.00  0.00     0.169 HD
HETATM   23  O   UNL     1      -9.513   3.350 -30.399  1.00  0.00    -0.271 OA
BRANCH  21  24
HETATM   24  C   UNL     1     -10.444   2.490 -33.093  1.00  0.00     0.037 A 
HETATM   25  C   UNL     1     -11.709   2.913 -33.522  1.00  0.00     0.061 A 
HETATM   26  C   UNL     1     -12.637   1.935 -33.807  1.00  0.00     0.065 A 
HETATM   27  C   UNL     1     -12.355   0.578 -33.685  1.00  0.00     0.063 A 
HETATM   28  N   UNL     1     -13.952   2.062 -34.238  1.00  0.00    -0.306 N 
HETATM   29  N   UNL     1     -13.497  -0.131 -34.038  1.00  0.00    -0.307 N 
HETATM   30  C   UNL     1     -11.128   0.125 -33.275  1.00  0.00     0.034 A 
HETATM   31  C   UNL     1     -14.504   0.781 -34.386  1.00  0.00     0.325 A 
HETATM   32  H   UNL     1     -13.623  -1.130 -34.054  1.00  0.00     0.170 HD
HETATM   33  O   UNL     1     -15.636   0.516 -34.745  1.00  0.00    -0.247 OA
HETATM   34  C   UNL     1     -10.164   1.101 -32.979  1.00  0.00     0.032 A 
HETATM   35  H   UNL     1     -14.464   2.910 -34.425  1.00  0.00     0.170 HD
ENDBRANCH  21  24
ENDBRANCH  19  20
ENDBRANCH   1  19
TORSDOF 8
ENDMDL
MODEL 2
REMARK VINA RESULT:      -8.3      2.845      7.448
REMARK  8 active torsions:
REMARK  status: ('A' for Active; 'I' for Inactive)
REMARK    1  A    between atoms: C_2  and  C_3 
REMARK    2  A    between atoms: C_3  and  C_4 
REMARK    3  A    between atoms: C_7  and  C_8 
REMARK    4  A    between atoms: C_8  and  N_9 
REMARK    5  A    between atoms: C_8  and  C_26 
REMARK    6  A    between atoms: N_9  and  C_12 
REMARK    7  A    between atoms: C_12  and  C_13 
REMARK       I    between atoms: C_13  and  N_14 
REMARK    8  A    between atoms: N_14  and  C_15 
ROOT
HETATM    1  N   UNL     1      -9.605   1.735 -31.352  1.00  0.00    -0.054 N 
HETATM    2  H   UNL     1     -10.525   1.345 -31.116  1.00  0.00     0.278 HD
HETATM    3  H   UNL     1      -8.934   1.084 -30.918  1.00  0.00     0.278 HD
ENDROOT
BRANCH   1   4
HETATM    4  C   UNL     1      -9.455   1.714 -32.833  1.00  0.00     0.259 C 
BRANCH   4   5
HETATM    5  C   UNL     1      -8.429   0.690 -33.300  1.00  0.00    -0.023 A 
HETATM    6  C   UNL     1      -8.214   0.393 -34.658  1.00  0.00     0.010 A 
HETATM    7  C   UNL     1      -7.239  -0.530 -35.042  1.00  0.00     0.007 A 
HETATM    8  C   UNL     1      -6.439  -1.165 -34.087  1.00  0.00    -0.058 A 
HETATM    9  C   UNL     1      -6.640  -0.871 -32.736  1.00  0.00     0.007 A 
HETATM   10  C   UNL     1      -7.623   0.043 -32.346  1.00  0.00     0.010 A 
BRANCH   8  11
HETATM   11  C   UNL     1      -5.356  -2.126 -34.517  1.00  0.00     0.038 C 
BRANCH  11  12
HETATM   12  C   UNL     1      -5.911  -3.252 -35.392  1.00  0.00     0.000 C 
HETATM   13  C   UNL     1      -6.828  -4.171 -34.602  1.00  0.00     0.005 C 
ENDBRANCH  11  12
ENDBRANCH   8  11
ENDBRANCH   4   5
BRANCH   4  14
HETATM   14  C   UNL     1     -10.786   1.545 -33.525  1.00  0.00     0.017 A 
HETATM   15  S   UNL     1     -11.371   2.744 -34.613  1.00  0.00    -0.104 SA
HETATM   16  C   UNL     1     -12.800   1.865 -34.921  1.00  0.00     0.050 A 
HETATM   17  C   UNL     1     -12.840   0.680 -34.221  1.00  0.00     0.008 A 
HETATM   18  C   UNL     1     -11.678   0.494 -33.416  1.00  0.00     0.017 A 
ENDBRANCH   4  14
ENDBRANCH   1   4
BRANCH   1  19
HETATM   19  C   UNL     1      -9.468   3.058 -30.650  1.00  0.00     0.336 C 
BRANCH  19  20
HETATM   20  C   UNL     1      -8.164   3.717 -31.110  1.00  0.00     0.248 C 
HETATM   21  N   UNL     1      -7.013   3.101 -30.670  1.00  0.00    -0.326 N 
HETATM   22  H   UNL     1      -7.091   2.300 -30.052  1.00  0.00     0.169 HD
HETATM   23  O   UNL     1      -8.257   4.693 -31.854  1.00  0.00    -0.271 OA
BRANCH  21  24
HETATM   24  C   UNL     1      -5.685   3.442 -31.028  1.00  0.00     0.037 A 
HETATM   25  C   UNL     1      -4.994   4.537 -30.492  1.00  0.00     0.061 A 
HETATM   26  C   UNL     1      -3.716   4.763 -30.956  1.00  0.00     0.065 A 
HETATM   27  C   UNL     1      -3.113   3.951 -31.912  1.00  0.00     0.063 A 
HETATM   28  N   UNL     1      -2.815   5.764 -30.613  1.00  0.00    -0.306 N 
HETATM   29  N   UNL     1      -1.841   4.454 -32.160  1.00  0.00    -0.307 N 
HETATM   30  C   UNL     1      -3.753   2.867 -32.453  1.00  0.00     0.034 A 
HETATM   31  C   UNL     1      -1.639   5.586 -31.357  1.00  0.00     0.325 A 
HETATM   32  H   UNL     1      -1.150   4.097 -32.800  1.00  0.00     0.170 HD
HETATM   33  O   UNL     1      -0.641   6.281 -31.315  1.00  0.00    -0.247 OA
HETATM   34  C   UNL     1      -5.056   2.615 -31.998  1.00  0.00     0.032 A 
HETATM   35  H   UNL     1      -2.941   6.511 -29.949  1.00  0.00     0.170 HD
ENDBRANCH  21  24
ENDBRANCH  19  20
ENDBRANCH   1  19
TORSDOF 8
ENDMDL
MODEL 3
REMARK VINA RESULT:      -7.7      3.405      6.716
REMARK  8 active torsions:
REMARK  status: ('A' for Active; 'I' for Inactive)
REMARK    1  A    between atoms: C_2  and  C_3 
REMARK    2  A    between atoms: C_3  and  C_4 
REMARK    3  A    between atoms: C_7  and  C_8 
REMARK    4  A    between atoms: C_8  and  N_9 
REMARK    5  A    between atoms: C_8  and  C_26 
REMARK    6  A    between atoms: N_9  and  C_12 
REMARK    7  A    between atoms: C_12  and  C_13 
REMARK       I    between atoms: C_13  and  N_14 
REMARK    8  A    between atoms: N_14  and  C_15 
ROOT
HETATM    1  N   UNL     1      -8.129   3.792 -32.901  1.00  0.00    -0.054 N 
HETATM    2  H   UNL     1      -8.581   4.704 -32.766  1.00  0.00     0.278 HD
HETATM    3  H   UNL     1      -7.857   3.788 -33.896  1.00  0.00     0.278 HD
ENDROOT
BRANCH   1   4
HETATM    4  C   UNL     1      -6.916   3.740 -32.038  1.00  0.00     0.259 C 
BRANCH   4   5
HETATM    5  C   UNL     1      -5.641   4.069 -32.804  1.00  0.00    -0.023 A 
HETATM    6  C   UNL     1      -5.648   4.741 -34.039  1.00  0.00     0.010 A 
HETATM    7  C   UNL     1      -4.452   5.051 -34.690  1.00  0.00     0.007 A 
HETATM    8  C   UNL     1      -3.219   4.719 -34.120  1.00  0.00    -0.058 A 
HETATM    9  C   UNL     1      -3.203   4.057 -32.889  1.00  0.00     0.007 A 
HETATM   10  C   UNL     1      -4.397   3.734 -32.239  1.00  0.00     0.010 A 
BRANCH   8  11
HETATM   11  C   UNL     1      -1.932   5.102 -34.810  1.00  0.00     0.038 C 
BRANCH  11  12
HETATM   12  C   UNL     1      -1.075   6.026 -33.943  1.00  0.00     0.000 C 
HETATM   13  C   UNL     1      -1.781   7.344 -33.668  1.00  0.00     0.005 C 
ENDBRANCH  11  12
ENDBRANCH   8  11
ENDBRANCH   4   5
BRANCH   4  14
HETATM   14  C   UNL     1      -7.075   4.594 -30.803  1.00  0.00     0.017 A 
HETATM   15  S   UNL     1      -7.320   6.293 -30.933  1.00  0.00    -0.104 SA
HETATM   16  C   UNL     1      -7.391   6.481 -29.239  1.00  0.00     0.050 A 
HETATM   17  C   UNL     1      -7.238   5.283 -28.578  1.00  0.00     0.008 A 
HETATM   18  C   UNL     1      -7.057   4.193 -29.479  1.00  0.00     0.017 A 
ENDBRANCH   4  14
ENDBRANCH   1   4
BRANCH   1  19
HETATM   19  C   UNL     1      -9.171   2.724 -32.714  1.00  0.00     0.336 C 
BRANCH  19  20
HETATM   20  C   UNL     1      -8.466   1.368 -32.635  1.00  0.00     0.248 C 
HETATM   21  N   UNL     1      -7.731   1.026 -33.750  1.00  0.00    -0.326 N 
HETATM   22  H   UNL     1      -7.736   1.650 -34.550  1.00  0.00     0.169 HD
HETATM   23  O   UNL     1      -8.577   0.734 -31.585  1.00  0.00    -0.271 OA
BRANCH  21  24
HETATM   24  C   UNL     1      -6.907  -0.117 -33.898  1.00  0.00     0.037 A 
HETATM   25  C   UNL     1      -7.380  -1.363 -34.332  1.00  0.00     0.061 A 
HETATM   26  C   UNL     1      -6.466  -2.392 -34.402  1.00  0.00     0.065 A 
HETATM   27  C   UNL     1      -5.126  -2.228 -34.066  1.00  0.00     0.063 A 
HETATM   28  N   UNL     1      -6.652  -3.715 -34.785  1.00  0.00    -0.306 N 
HETATM   29  N   UNL     1      -4.487  -3.449 -34.238  1.00  0.00    -0.307 N 
HETATM   30  C   UNL     1      -4.626  -1.023 -33.645  1.00  0.00     0.034 A 
HETATM   31  C   UNL     1      -5.426  -4.390 -34.687  1.00  0.00     0.325 A 
HETATM   32  H   UNL     1      -3.517  -3.667 -34.079  1.00  0.00     0.170 HD
HETATM   33  O   UNL     1      -5.220  -5.562 -34.940  1.00  0.00    -0.247 OA
HETATM   34  C   UNL     1      -5.535   0.042 -33.564  1.00  0.00     0.032 A 
HETATM   35  H   UNL     1      -7.505  -4.159 -35.088  1.00  0.00     0.170 HD
ENDBRANCH  21  24
ENDBRANCH  19  20
ENDBRANCH   1  19
TORSDOF 8
ENDMDL
MODEL 4
REMARK VINA RESULT:      -7.7      4.707      8.721
REMARK  8 active torsions:
REMARK  status: ('A' for Active; 'I' for Inactive)
REMARK    1  A    between atoms: C_2  and  C_3 
REMARK    2  A    between atoms: C_3  and  C_4 
REMARK    3  A    between atoms: C_7  and  C_8 
REMARK    4  A    between atoms: C_8  and  N_9 
REMARK    5  A    between atoms: C_8  and  C_26 
REMARK    6  A    between atoms: N_9  and  C_12 
REMARK    7  A    between atoms: C_12  and  C_13 
REMARK       I    between atoms: C_13  and  N_14 
REMARK    8  A    between atoms: N_14  and  C_15 
ROOT
HETATM    1  N   UNL     1      -5.126   3.337 -33.501  1.00  0.00    -0.054 N 
HETATM    2  H   UNL     1      -4.773   3.512 -32.552  1.00  0.00     0.278 HD
HETATM    3  H   UNL     1      -4.470   2.643 -33.892  1.00  0.00     0.278 HD
ENDROOT
BRANCH   1   4
HETATM    4  C   UNL     1      -6.490   2.748 -33.391  1.00  0.00     0.259 C 
BRANCH   4   5
HETATM    5  C   UNL     1      -6.507   1.257 -33.698  1.00  0.00    -0.023 A 
HETATM    6  C   UNL     1      -5.930   0.298 -32.847  1.00  0.00     0.010 A 
HETATM    7  C   UNL     1      -5.999  -1.063 -33.152  1.00  0.00     0.007 A 
HETATM    8  C   UNL     1      -6.661  -1.506 -34.301  1.00  0.00    -0.058 A 
HETATM    9  C   UNL     1      -7.244  -0.561 -35.149  1.00  0.00     0.007 A 
HETATM   10  C   UNL     1      -7.168   0.803 -34.854  1.00  0.00     0.010 A 
BRANCH   8  11
HETATM   11  C   UNL     1      -6.770  -2.983 -34.597  1.00  0.00     0.038 C 
BRANCH  11  12
HETATM   12  C   UNL     1      -5.510  -3.520 -35.279  1.00  0.00     0.000 C 
HETATM   13  C   UNL     1      -4.566  -4.164 -34.276  1.00  0.00     0.005 C 
ENDBRANCH  11  12
ENDBRANCH   8  11
ENDBRANCH   4   5
BRANCH   4  14
HETATM   14  C   UNL     1      -7.125   3.064 -32.059  1.00  0.00     0.017 A 
HETATM   15  S   UNL     1      -8.835   3.001 -31.862  1.00  0.00    -0.104 SA
HETATM   16  C   UNL     1      -8.731   3.454 -30.220  1.00  0.00     0.050 A 
HETATM   17  C   UNL     1      -7.429   3.646 -29.818  1.00  0.00     0.008 A 
HETATM   18  C   UNL     1      -6.502   3.421 -30.877  1.00  0.00     0.017 A 
ENDBRANCH   4  14
ENDBRANCH   1   4
BRANCH   1  19
HETATM   19  C   UNL     1      -4.969   4.604 -34.296  1.00  0.00     0.336 C 
BRANCH  19  20
HETATM   20  C   UNL     1      -3.856   5.440 -33.660  1.00  0.00     0.248 C 
HETATM   21  N   UNL     1      -3.532   5.092 -32.366  1.00  0.00    -0.326 N 
HETATM   22  H   UNL     1      -4.062   4.357 -31.909  1.00  0.00     0.169 HD
HETATM   23  O   UNL     1      -3.326   6.303 -34.360  1.00  0.00    -0.271 OA
BRANCH  21  24
HETATM   24  C   UNL     1      -2.480   5.632 -31.586  1.00  0.00     0.037 A 
HETATM   25  C   UNL     1      -2.668   6.613 -30.603  1.00  0.00     0.061 A 
HETATM   26  C   UNL     1      -1.546   7.065 -29.942  1.00  0.00     0.065 A 
HETATM   27  C   UNL     1      -0.271   6.582 -30.217  1.00  0.00     0.063 A 
HETATM   28  N   UNL     1      -1.435   8.024 -28.942  1.00  0.00    -0.306 N 
HETATM   29  N   UNL     1       0.627   7.245 -29.389  1.00  0.00    -0.307 N 
HETATM   30  C   UNL     1      -0.048   5.617 -31.165  1.00  0.00     0.034 A 
HETATM   31  C   UNL     1      -0.083   8.149 -28.586  1.00  0.00     0.325 A 
HETATM   32  H   UNL     1       1.626   7.127 -29.341  1.00  0.00     0.170 HD
HETATM   33  O   UNL     1       0.379   8.898 -27.746  1.00  0.00    -0.247 OA
HETATM   34  C   UNL     1      -1.173   5.140 -31.853  1.00  0.00     0.032 A 
HETATM   35  H   UNL     1      -2.172   8.563 -28.515  1.00  0.00     0.170 HD
ENDBRANCH  21  24
ENDBRANCH  19  20
ENDBRANCH   1  19
TORSDOF 8
ENDMDL
MODEL 5
REMARK VINA RESULT:      -7.7      3.955      6.677
REMARK  8 active torsions:
REMARK  status: ('A' for Active; 'I' for Inactive)
REMARK    1  A    between atoms: C_2  and  C_3 
REMARK    2  A    between atoms: C_3  and  C_4 
REMARK    3  A    between atoms: C_7  and  C_8 
REMARK    4  A    between atoms: C_8  and  N_9 
REMARK    5  A    between atoms: C_8  and  C_26 
REMARK    6  A    between atoms: N_9  and  C_12 
REMARK    7  A    between atoms: C_12  and  C_13 
REMARK       I    between atoms: C_13  and  N_14 
REMARK    8  A    between atoms: N_14  and  C_15 
ROOT
HETATM    1  N   UNL     1      -4.937  -0.163 -33.464  1.00  0.00    -0.054 N 
HETATM    2  H   UNL     1      -4.314  -0.632 -34.132  1.00  0.00     0.278 HD
HETATM    3  H   UNL     1      -5.249   0.686 -33.960  1.00  0.00     0.278 HD
ENDROOT
BRANCH   1   4
HETATM    4  C   UNL     1      -6.098  -1.057 -33.199  1.00  0.00     0.259 C 
BRANCH   4   5
HETATM    5  C   UNL     1      -7.433  -0.374 -33.465  1.00  0.00    -0.023 A 
HETATM    6  C   UNL     1      -8.547  -0.526 -32.621  1.00  0.00     0.010 A 
HETATM    7  C   UNL     1      -9.742   0.146 -32.886  1.00  0.00     0.007 A 
HETATM    8  C   UNL     1      -9.852   1.003 -33.985  1.00  0.00    -0.058 A 
HETATM    9  C   UNL     1      -8.747   1.167 -34.825  1.00  0.00     0.007 A 
HETATM   10  C   UNL     1      -7.553   0.487 -34.571  1.00  0.00     0.010 A 
BRANCH   8  11
HETATM   11  C   UNL     1     -11.134   1.762 -34.235  1.00  0.00     0.038 C 
BRANCH  11  12
HETATM   12  C   UNL     1     -12.353   1.010 -33.696  1.00  0.00     0.000 C 
HETATM   13  C   UNL     1     -13.576   1.233 -34.570  1.00  0.00     0.005 C 
ENDBRANCH  11  12
ENDBRANCH   8  11
ENDBRANCH   4   5
BRANCH   4  14
HETATM   14  C   UNL     1      -5.970  -2.367 -33.937  1.00  0.00     0.017 A 
HETATM   15  S   UNL     1      -4.441  -3.144 -34.094  1.00  0.00    -0.104 SA
HETATM   16  C   UNL     1      -5.113  -4.437 -34.982  1.00  0.00     0.050 A 
HETATM   17  C   UNL     1      -6.471  -4.294 -35.158  1.00  0.00     0.008 A 
HETATM   18  C   UNL     1      -6.967  -3.101 -34.555  1.00  0.00     0.017 A 
ENDBRANCH   4  14
ENDBRANCH   1   4
BRANCH   1  19
HETATM   19  C   UNL     1      -4.108   0.281 -32.290  1.00  0.00     0.336 C 
BRANCH  19  20
HETATM   20  C   UNL     1      -5.006   1.074 -31.336  1.00  0.00     0.248 C 
HETATM   21  N   UNL     1      -5.491   2.260 -31.843  1.00  0.00    -0.326 N 
HETATM   22  H   UNL     1      -5.201   2.552 -32.771  1.00  0.00     0.169 HD
HETATM   23  O   UNL     1      -5.247   0.572 -30.239  1.00  0.00    -0.271 OA
BRANCH  21  24
HETATM   24  C   UNL     1      -6.416   3.131 -31.214  1.00  0.00     0.037 A 
HETATM   25  C   UNL     1      -6.079   3.990 -30.160  1.00  0.00     0.061 A 
HETATM   26  C   UNL     1      -7.091   4.759 -29.627  1.00  0.00     0.065 A 
HETATM   27  C   UNL     1      -8.398   4.707 -30.100  1.00  0.00     0.063 A 
HETATM   28  N   UNL     1      -7.047   5.679 -28.586  1.00  0.00    -0.306 N 
HETATM   29  N   UNL     1      -9.161   5.593 -29.349  1.00  0.00    -0.307 N 
HETATM   30  C   UNL     1      -8.764   3.886 -31.134  1.00  0.00     0.034 A 
HETATM   31  C   UNL     1      -8.333   6.209 -28.399  1.00  0.00     0.325 A 
HETATM   32  H   UNL     1     -10.145   5.789 -29.437  1.00  0.00     0.170 HD
HETATM   33  O   UNL     1      -8.663   7.037 -27.571  1.00  0.00    -0.247 OA
HETATM   34  C   UNL     1      -7.753   3.091 -31.694  1.00  0.00     0.032 A 
HETATM   35  H   UNL     1      -6.251   5.952 -28.032  1.00  0.00     0.170 HD
ENDBRANCH  21  24
ENDBRANCH  19  20
ENDBRANCH   1  19
TORSDOF 8
ENDMDL
MODEL 6
REMARK VINA RESULT:      -7.6      3.926      8.518
REMARK  8 active torsions:
REMARK  status: ('A' for Active; 'I' for Inactive)
REMARK    1  A    between atoms: C_2  and  C_3 
REMARK    2  A    between atoms: C_3  and  C_4 
REMARK    3  A    between atoms: C_7  and  C_8 
REMARK    4  A    between atoms: C_8  and  N_9 
REMARK    5  A    between atoms: C_8  and  C_26 
REMARK    6  A    between atoms: N_9  and  C_12 
REMARK    7  A    between atoms: C_12  and  C_13 
REMARK       I    between atoms: C_13  and  N_14 
REMARK    8  A    between atoms: N_14  and  C_15 
ROOT
HETATM    1  N   UNL     1      -5.114   0.177 -32.993  1.00  0.00    -0.054 N 
HETATM    2  H   UNL     1      -4.389  -0.312 -33.533  1.00  0.00     0.278 HD
HETATM    3  H   UNL     1      -5.328   1.015 -33.556  1.00  0.00     0.278 HD
ENDROOT
BRANCH   1   4
HETATM    4  C   UNL     1      -6.311  -0.705 -32.912  1.00  0.00     0.259 C 
BRANCH   4   5
HETATM    5  C   UNL     1      -7.604   0.038 -33.220  1.00  0.00    -0.023 A 
HETATM    6  C   UNL     1      -7.866   0.623 -34.471  1.00  0.00     0.010 A 
HETATM    7  C   UNL     1      -9.080   1.267 -34.719  1.00  0.00     0.007 A 
HETATM    8  C   UNL     1     -10.073   1.326 -33.736  1.00  0.00    -0.058 A 
HETATM    9  C   UNL     1      -9.825   0.740 -32.492  1.00  0.00     0.007 A 
HETATM   10  C   UNL     1      -8.606   0.105 -32.235  1.00  0.00     0.010 A 
BRANCH   8  11
HETATM   11  C   UNL     1     -11.401   1.982 -34.032  1.00  0.00     0.038 C 
BRANCH  11  12
HETATM   12  C   UNL     1     -12.359   1.028 -34.747  1.00  0.00     0.000 C 
HETATM   13  C   UNL     1     -13.265   0.306 -33.762  1.00  0.00     0.005 C 
ENDBRANCH  11  12
ENDBRANCH   8  11
ENDBRANCH   4   5
BRANCH   4  14
HETATM   14  C   UNL     1      -6.148  -1.942 -33.761  1.00  0.00     0.017 A 
HETATM   15  S   UNL     1      -4.584  -2.572 -34.108  1.00  0.00    -0.104 SA
HETATM   16  C   UNL     1      -5.230  -3.850 -35.037  1.00  0.00     0.050 A 
HETATM   17  C   UNL     1      -6.605  -3.811 -35.084  1.00  0.00     0.008 A 
HETATM   18  C   UNL     1      -7.136  -2.712 -34.348  1.00  0.00     0.017 A 
ENDBRANCH   4  14
ENDBRANCH   1   4
BRANCH   1  19
HETATM   19  C   UNL     1      -4.497   0.646 -31.704  1.00  0.00     0.336 C 
BRANCH  19  20
HETATM   20  C   UNL     1      -4.355   2.170 -31.761  1.00  0.00     0.248 C 
HETATM   21  N   UNL     1      -3.116   2.626 -32.155  1.00  0.00    -0.326 N 
HETATM   22  H   UNL     1      -2.380   1.951 -32.335  1.00  0.00     0.169 HD
HETATM   23  O   UNL     1      -5.354   2.840 -31.500  1.00  0.00    -0.271 OA
BRANCH  21  24
HETATM   24  C   UNL     1      -2.749   3.975 -32.386  1.00  0.00     0.037 A 
HETATM   25  C   UNL     1      -2.954   5.005 -31.458  1.00  0.00     0.061 A 
HETATM   26  C   UNL     1      -2.571   6.275 -31.833  1.00  0.00     0.065 A 
HETATM   27  C   UNL     1      -1.999   6.549 -33.072  1.00  0.00     0.063 A 
HETATM   28  N   UNL     1      -2.661   7.469 -31.129  1.00  0.00    -0.306 N 
HETATM   29  N   UNL     1      -1.740   7.912 -33.132  1.00  0.00    -0.307 N 
HETATM   30  C   UNL     1      -1.776   5.567 -34.002  1.00  0.00     0.034 A 
HETATM   31  C   UNL     1      -2.147   8.503 -31.927  1.00  0.00     0.325 A 
HETATM   32  H   UNL     1      -1.331   8.430 -33.893  1.00  0.00     0.170 HD
HETATM   33  O   UNL     1      -2.073   9.680 -31.630  1.00  0.00    -0.247 OA
HETATM   34  C   UNL     1      -2.157   4.265 -33.646  1.00  0.00     0.032 A 
HETATM   35  H   UNL     1      -3.026   7.616 -30.201  1.00  0.00     0.170 HD
ENDBRANCH  21  24
ENDBRANCH  19  20
ENDBRANCH   1  19
TORSDOF 8
ENDMDL
MODEL 7
REMARK VINA RESULT:      -7.5     16.423     18.308
REMARK  8 active torsions:
REMARK  status: ('A' for Active; 'I' for Inactive)
REMARK    1  A    between atoms: C_2  and  C_3 
REMARK    2  A    between atoms: C_3  and  C_4 
REMARK    3  A    between atoms: C_7  and  C_8 
REMARK    4  A    between atoms: C_8  and  N_9 
REMARK    5  A    between atoms: C_8  and  C_26 
REMARK    6  A    between atoms: N_9  and  C_12 
REMARK    7  A    between atoms: C_12  and  C_13 
REMARK       I    between atoms: C_13  and  N_14 
REMARK    8  A    between atoms: N_14  and  C_15 
ROOT
HETATM    1  N   UNL     1      -2.697 -13.633 -41.112  1.00  0.00    -0.054 N 
HETATM    2  H   UNL     1      -2.164 -13.468 -41.974  1.00  0.00     0.278 HD
HETATM    3  H   UNL     1      -3.081 -12.706 -40.869  1.00  0.00     0.278 HD
ENDROOT
BRANCH   1   4
HETATM    4  C   UNL     1      -3.803 -14.581 -41.420  1.00  0.00     0.259 C 
BRANCH   4   5
HETATM    5  C   UNL     1      -5.176 -13.989 -41.130  1.00  0.00    -0.023 A 
HETATM    6  C   UNL     1      -6.317 -14.783 -40.923  1.00  0.00     0.010 A 
HETATM    7  C   UNL     1      -7.551 -14.198 -40.627  1.00  0.00     0.007 A 
HETATM    8  C   UNL     1      -7.674 -12.810 -40.509  1.00  0.00    -0.058 A 
HETATM    9  C   UNL     1      -6.543 -12.014 -40.705  1.00  0.00     0.007 A 
HETATM   10  C   UNL     1      -5.309 -12.594 -41.014  1.00  0.00     0.010 A 
BRANCH   8  11
HETATM   11  C   UNL     1      -9.002 -12.192 -40.141  1.00  0.00     0.038 C 
BRANCH  11  12
HETATM   12  C   UNL     1      -9.950 -13.214 -39.510  1.00  0.00     0.000 C 
HETATM   13  C   UNL     1     -11.143 -13.497 -40.409  1.00  0.00     0.005 C 
ENDBRANCH  11  12
ENDBRANCH   8  11
ENDBRANCH   4   5
BRANCH   4  14
HETATM   14  C   UNL     1      -3.698 -15.118 -42.827  1.00  0.00     0.017 A 
HETATM   15  S   UNL     1      -2.666 -16.448 -43.187  1.00  0.00    -0.104 SA
HETATM   16  C   UNL     1      -3.093 -16.420 -44.839  1.00  0.00     0.050 A 
HETATM   17  C   UNL     1      -4.005 -15.429 -45.121  1.00  0.00     0.008 A 
HETATM   18  C   UNL     1      -4.355 -14.677 -43.961  1.00  0.00     0.017 A 
ENDBRANCH   4  14
ENDBRANCH   1   4
BRANCH   1  19
HETATM   19  C   UNL     1      -1.724 -14.014 -40.030  1.00  0.00     0.336 C 
BRANCH  19  20
HETATM   20  C   UNL     1      -2.518 -14.482 -38.808  1.00  0.00     0.248 C 
HETATM   21  N   UNL     1      -3.272 -13.505 -38.194  1.00  0.00    -0.326 N 
HETATM   22  H   UNL     1      -3.225 -12.555 -38.547  1.00  0.00     0.169 HD
HETATM   23  O   UNL     1      -2.450 -15.675 -38.513  1.00  0.00    -0.271 OA
BRANCH  21  24
HETATM   24  C   UNL     1      -4.170 -13.688 -37.113  1.00  0.00     0.037 A 
HETATM   25  C   UNL     1      -3.761 -13.974 -35.804  1.00  0.00     0.061 A 
HETATM   26  C   UNL     1      -4.749 -14.155 -34.861  1.00  0.00     0.065 A 
HETATM   27  C   UNL     1      -6.103 -14.059 -35.168  1.00  0.00     0.063 A 
HETATM   28  N   UNL     1      -4.637 -14.452 -33.508  1.00  0.00    -0.306 N 
HETATM   29  N   UNL     1      -6.825 -14.300 -34.006  1.00  0.00    -0.307 N 
HETATM   30  C   UNL     1      -6.542 -13.774 -36.435  1.00  0.00     0.034 A 
HETATM   31  C   UNL     1      -5.925 -14.547 -32.959  1.00  0.00     0.325 A 
HETATM   32  H   UNL     1      -7.825 -14.307 -33.890  1.00  0.00     0.170 HD
HETATM   33  O   UNL     1      -6.203 -14.798 -31.801  1.00  0.00    -0.247 OA
HETATM   34  C   UNL     1      -5.555 -13.586 -37.415  1.00  0.00     0.032 A 
HETATM   35  H   UNL     1      -3.795 -14.585 -32.970  1.00  0.00     0.170 HD
ENDBRANCH  21  24
ENDBRANCH  19  20
ENDBRANCH   1  19
TORSDOF 8
ENDMDL
MODEL 8
REMARK VINA RESULT:      -7.5      3.329      7.650
REMARK  8 active torsions:
REMARK  status: ('A' for Active; 'I' for Inactive)
REMARK    1  A    between atoms: C_2  and  C_3 
REMARK    2  A    between atoms: C_3  and  C_4 
REMARK    3  A    between atoms: C_7  and  C_8 
REMARK    4  A    between atoms: C_8  and  N_9 
REMARK    5  A    between atoms: C_8  and  C_26 
REMARK    6  A    between atoms: N_9  and  C_12 
REMARK    7  A    between atoms: C_12  and  C_13 
REMARK       I    between atoms: C_13  and  N_14 
REMARK    8  A    between atoms: N_14  and  C_15 
ROOT
HETATM    1  N   UNL     1      -7.595   1.254 -30.752  1.00  0.00    -0.054 N 
HETATM    2  H   UNL     1      -8.353   1.870 -30.435  1.00  0.00     0.278 HD
HETATM    3  H   UNL     1      -7.915   0.307 -30.499  1.00  0.00     0.278 HD
ENDROOT
BRANCH   1   4
HETATM    4  C   UNL     1      -7.480   1.379 -32.232  1.00  0.00     0.259 C 
BRANCH   4   5
HETATM    5  C   UNL     1      -6.686   0.237 -32.853  1.00  0.00    -0.023 A 
HETATM    6  C   UNL     1      -5.635  -0.412 -32.181  1.00  0.00     0.010 A 
HETATM    7  C   UNL     1      -4.956  -1.477 -32.776  1.00  0.00     0.007 A 
HETATM    8  C   UNL     1      -5.320  -1.938 -34.046  1.00  0.00    -0.058 A 
HETATM    9  C   UNL     1      -6.369  -1.304 -34.718  1.00  0.00     0.007 A 
HETATM   10  C   UNL     1      -7.043  -0.229 -34.131  1.00  0.00     0.010 A 
BRANCH   8  11
HETATM   11  C   UNL     1      -4.610  -3.121 -34.660  1.00  0.00     0.038 C 
BRANCH  11  12
HETATM   12  C   UNL     1      -5.463  -3.798 -35.736  1.00  0.00     0.000 C 
HETATM   13  C   UNL     1      -6.474  -4.755 -35.125  1.00  0.00     0.005 C 
ENDBRANCH  11  12
ENDBRANCH   8  11
ENDBRANCH   4   5
BRANCH   4  14
HETATM   14  C   UNL     1      -8.831   1.554 -32.881  1.00  0.00     0.017 A 
HETATM   15  S   UNL     1      -9.163   2.927 -33.866  1.00  0.00    -0.104 SA
HETATM   16  C   UNL     1     -10.758   2.404 -34.175  1.00  0.00     0.050 A 
HETATM   17  C   UNL     1     -11.041   1.210 -33.553  1.00  0.00     0.008 A 
HETATM   18  C   UNL     1      -9.930   0.718 -32.807  1.00  0.00     0.017 A 
ENDBRANCH   4  14
ENDBRANCH   1   4
BRANCH   1  19
HETATM   19  C   UNL     1      -6.376   1.554 -29.924  1.00  0.00     0.336 C 
BRANCH  19  20
HETATM   20  C   UNL     1      -5.808   2.904 -30.369  1.00  0.00     0.248 C 
HETATM   21  N   UNL     1      -4.478   2.887 -30.730  1.00  0.00    -0.326 N 
HETATM   22  H   UNL     1      -3.957   2.021 -30.640  1.00  0.00     0.169 HD
HETATM   23  O   UNL     1      -6.584   3.858 -30.409  1.00  0.00    -0.271 OA
BRANCH  21  24
HETATM   24  C   UNL     1      -3.737   3.967 -31.270  1.00  0.00     0.037 A 
HETATM   25  C   UNL     1      -3.839   5.286 -30.809  1.00  0.00     0.061 A 
HETATM   26  C   UNL     1      -3.076   6.238 -31.450  1.00  0.00     0.065 A 
HETATM   27  C   UNL     1      -2.230   5.929 -32.511  1.00  0.00     0.063 A 
HETATM   28  N   UNL     1      -2.985   7.604 -31.214  1.00  0.00    -0.306 N 
HETATM   29  N   UNL     1      -1.620   7.105 -32.930  1.00  0.00    -0.307 N 
HETATM   30  C   UNL     1      -2.098   4.649 -32.985  1.00  0.00     0.034 A 
HETATM   31  C   UNL     1      -2.080   8.161 -32.130  1.00  0.00     0.325 A 
HETATM   32  H   UNL     1      -0.955   7.223 -33.676  1.00  0.00     0.170 HD
HETATM   33  O   UNL     1      -1.761   9.332 -32.214  1.00  0.00    -0.247 OA
HETATM   34  C   UNL     1      -2.864   3.661 -32.350  1.00  0.00     0.032 A 
HETATM   35  H   UNL     1      -3.467   8.146 -30.514  1.00  0.00     0.170 HD
ENDBRANCH  21  24
ENDBRANCH  19  20
ENDBRANCH   1  19
TORSDOF 8
ENDMDL
MODEL 9
REMARK VINA RESULT:      -7.3      5.572      9.814
REMARK  8 active torsions:
REMARK  status: ('A' for Active; 'I' for Inactive)
REMARK    1  A    between atoms: C_2  and  C_3 
REMARK    2  A    between atoms: C_3  and  C_4 
REMARK    3  A    between atoms: C_7  and  C_8 
REMARK    4  A    between atoms: C_8  and  N_9 
REMARK    5  A    between atoms: C_8  and  C_26 
REMARK    6  A    between atoms: N_9  and  C_12 
REMARK    7  A    between atoms: C_12  and  C_13 
REMARK       I    between atoms: C_13  and  N_14 
REMARK    8  A    between atoms: N_14  and  C_15 
ROOT
HETATM    1  N   UNL     1      -3.091   3.473 -31.268  1.00  0.00    -0.054 N 
HETATM    2  H   UNL     1      -3.231   3.846 -30.322  1.00  0.00     0.278 HD
HETATM    3  H   UNL     1      -2.612   2.572 -31.117  1.00  0.00     0.278 HD
ENDROOT
BRANCH   1   4
HETATM    4  C   UNL     1      -4.429   3.244 -31.882  1.00  0.00     0.259 C 
BRANCH   4   5
HETATM    5  C   UNL     1      -4.598   1.822 -32.399  1.00  0.00    -0.023 A 
HETATM    6  C   UNL     1      -5.665   1.436 -33.228  1.00  0.00     0.010 A 
HETATM    7  C   UNL     1      -5.763   0.127 -33.706  1.00  0.00     0.007 A 
HETATM    8  C   UNL     1      -4.789  -0.825 -33.388  1.00  0.00    -0.058 A 
HETATM    9  C   UNL     1      -3.720  -0.448 -32.571  1.00  0.00     0.007 A 
HETATM   10  C   UNL     1      -3.624   0.858 -32.081  1.00  0.00     0.010 A 
BRANCH   8  11
HETATM   11  C   UNL     1      -4.879  -2.224 -33.949  1.00  0.00     0.038 C 
BRANCH  11  12
HETATM   12  C   UNL     1      -6.135  -2.414 -34.802  1.00  0.00     0.000 C 
HETATM   13  C   UNL     1      -6.536  -3.878 -34.884  1.00  0.00     0.005 C 
ENDBRANCH  11  12
ENDBRANCH   8  11
ENDBRANCH   4   5
BRANCH   4  14
HETATM   14  C   UNL     1      -5.545   3.649 -30.950  1.00  0.00     0.017 A 
HETATM   15  S   UNL     1      -5.754   5.295 -30.489  1.00  0.00    -0.104 SA
HETATM   16  C   UNL     1      -7.103   4.921 -29.513  1.00  0.00     0.050 A 
HETATM   17  C   UNL     1      -7.401   3.578 -29.534  1.00  0.00     0.008 A 
HETATM   18  C   UNL     1      -6.503   2.843 -30.363  1.00  0.00     0.017 A 
ENDBRANCH   4  14
ENDBRANCH   1   4
BRANCH   1  19
HETATM   19  C   UNL     1      -2.132   4.379 -31.989  1.00  0.00     0.336 C 
BRANCH  19  20
HETATM   20  C   UNL     1      -1.980   5.668 -31.177  1.00  0.00     0.248 C 
HETATM   21  N   UNL     1      -1.230   5.548 -30.027  1.00  0.00    -0.326 N 
HETATM   22  H   UNL     1      -0.871   4.634 -29.769  1.00  0.00     0.169 HD
HETATM   23  O   UNL     1      -2.493   6.688 -31.636  1.00  0.00    -0.271 OA
BRANCH  21  24
HETATM   24  C   UNL     1      -0.853   6.597 -29.153  1.00  0.00     0.037 A 
HETATM   25  C   UNL     1      -1.735   7.215 -28.256  1.00  0.00     0.061 A 
HETATM   26  C   UNL     1      -1.233   8.243 -27.487  1.00  0.00     0.065 A 
HETATM   27  C   UNL     1       0.089   8.666 -27.575  1.00  0.00     0.063 A 
HETATM   28  N   UNL     1      -1.872   9.028 -26.535  1.00  0.00    -0.306 N 
HETATM   29  N   UNL     1       0.264   9.714 -26.679  1.00  0.00    -0.307 N 
HETATM   30  C   UNL     1       0.983   8.082 -28.434  1.00  0.00     0.034 A 
HETATM   31  C   UNL     1      -0.951   9.953 -26.021  1.00  0.00     0.325 A 
HETATM   32  H   UNL     1       1.104  10.241 -26.501  1.00  0.00     0.170 HD
HETATM   33  O   UNL     1      -1.167  10.798 -25.173  1.00  0.00    -0.247 OA
HETATM   34  C   UNL     1       0.498   7.033 -29.229  1.00  0.00     0.032 A 
HETATM   35  H   UNL     1      -2.832   8.977 -26.233  1.00  0.00     0.170 HD
ENDBRANCH  21  24
ENDBRANCH  19  20
ENDBRANCH   1  19
TORSDOF 8
ENDMDL
MODEL 10
REMARK VINA RESULT:      -7.3      3.112      7.183
REMARK  8 active torsions:
REMARK  status: ('A' for Active; 'I' for Inactive)
REMARK    1  A    between atoms: C_2  and  C_3 
REMARK    2  A    between atoms: C_3  and  C_4 
REMARK    3  A    between atoms: C_7  and  C_8 
REMARK    4  A    between atoms: C_8  and  N_9 
REMARK    5  A    between atoms: C_8  and  C_26 
REMARK    6  A    between atoms: N_9  and  C_12 
REMARK    7  A    between atoms: C_12  and  C_13 
REMARK       I    between atoms: C_13  and  N_14 
REMARK    8  A    between atoms: N_14  and  C_15 
ROOT
HETATM    1  N   UNL     1      -8.568   1.901 -31.233  1.00  0.00    -0.054 N 
HETATM    2  H   UNL     1      -9.296   1.182 -31.137  1.00  0.00     0.278 HD
HETATM    3  H   UNL     1      -7.755   1.507 -30.737  1.00  0.00     0.278 HD
ENDROOT
BRANCH   1   4
HETATM    4  C   UNL     1      -8.257   2.059 -32.681  1.00  0.00     0.259 C 
BRANCH   4   5
HETATM    5  C   UNL     1      -7.508   0.862 -33.251  1.00  0.00    -0.023 A 
HETATM    6  C   UNL     1      -6.731   0.002 -32.455  1.00  0.00     0.010 A 
HETATM    7  C   UNL     1      -6.087  -1.103 -33.015  1.00  0.00     0.007 A 
HETATM    8  C   UNL     1      -6.218  -1.394 -34.376  1.00  0.00    -0.058 A 
HETATM    9  C   UNL     1      -6.994  -0.549 -35.174  1.00  0.00     0.007 A 
HETATM   10  C   UNL     1      -7.631   0.566 -34.620  1.00  0.00     0.010 A 
BRANCH   8  11
HETATM   11  C   UNL     1      -5.556  -2.619 -34.962  1.00  0.00     0.038 C 
BRANCH  11  12
HETATM   12  C   UNL     1      -6.301  -3.901 -34.584  1.00  0.00     0.000 C 
HETATM   13  C   UNL     1      -6.399  -4.856 -35.762  1.00  0.00     0.005 C 
ENDBRANCH  11  12
ENDBRANCH   8  11
ENDBRANCH   4   5
BRANCH   4  14
HETATM   14  C   UNL     1      -9.493   2.392 -33.482  1.00  0.00     0.017 A 
HETATM   15  S   UNL     1     -10.862   1.348 -33.464  1.00  0.00    -0.104 SA
HETATM   16  C   UNL     1     -11.731   2.358 -34.529  1.00  0.00     0.050 A 
HETATM   17  C   UNL     1     -11.008   3.471 -34.894  1.00  0.00     0.008 A 
HETATM   18  C   UNL     1      -9.717   3.493 -34.290  1.00  0.00     0.017 A 
ENDBRANCH   4  14
ENDBRANCH   1   4
BRANCH   1  19
HETATM   19  C   UNL     1      -9.014   3.119 -30.472  1.00  0.00     0.336 C 
BRANCH  19  20
HETATM   20  C   UNL     1      -8.099   4.287 -30.849  1.00  0.00     0.248 C 
HETATM   21  N   UNL     1      -6.757   4.073 -30.620  1.00  0.00    -0.326 N 
HETATM   22  H   UNL     1      -6.466   3.202 -30.189  1.00  0.00     0.169 HD
HETATM   23  O   UNL     1      -8.627   5.277 -31.355  1.00  0.00    -0.271 OA
BRANCH  21  24
HETATM   24  C   UNL     1      -5.694   4.943 -30.968  1.00  0.00     0.037 A 
HETATM   25  C   UNL     1      -5.144   5.020 -32.255  1.00  0.00     0.061 A 
HETATM   26  C   UNL     1      -4.093   5.893 -32.439  1.00  0.00     0.065 A 
HETATM   27  C   UNL     1      -3.584   6.678 -31.410  1.00  0.00     0.063 A 
HETATM   28  N   UNL     1      -3.361   6.165 -33.588  1.00  0.00    -0.306 N 
HETATM   29  N   UNL     1      -2.536   7.431 -31.924  1.00  0.00    -0.307 N 
HETATM   30  C   UNL     1      -4.100   6.636 -30.141  1.00  0.00     0.034 A 
HETATM   31  C   UNL     1      -2.383   7.124 -33.283  1.00  0.00     0.325 A 
HETATM   32  H   UNL     1      -1.957   8.097 -31.438  1.00  0.00     0.170 HD
HETATM   33  O   UNL     1      -1.562   7.592 -34.050  1.00  0.00    -0.247 OA
HETATM   34  C   UNL     1      -5.170   5.755 -29.926  1.00  0.00     0.032 A 
HETATM   35  H   UNL     1      -3.477   5.766 -34.507  1.00  0.00     0.170 HD
ENDBRANCH  21  24
ENDBRANCH  19  20
ENDBRANCH   1  19
TORSDOF 8
ENDMDL
