MODEL 1
REMARK VINA RESULT:      -7.7      0.000      0.000
REMARK  7 active torsions:
REMARK  status: ('A' for Active; 'I' for Inactive)
REMARK    1  A    between atoms: C_2  and  C_3 
REMARK    2  A    between atoms: C_3  and  N_4 
REMARK    3  A    between atoms: C_7  and  C_8 
REMARK    4  A    between atoms: C_8  and  N_9 
REMARK       I    between atoms: N_9  and  C_10 
REMARK       I    between atoms: C_10  and  N_11 
REMARK    5  A    between atoms: N_11  and  C_12 
REMARK    6  A    between atoms: C_15  and  N_16 
REMARK       I    between atoms: N_16  and  C_17 
REMARK    7  A    between atoms: C_17  and  C_18 
ROOT
HETATM    1  N   UNL     1      -4.523   5.300 -33.676  1.00  0.00    -0.342 N 
HETATM    2  C   UNL     1      -3.778   5.390 -34.813  1.00  0.00     0.320 C 
HETATM    3  N   UNL     1      -2.511   5.881 -34.689  1.00  0.00    -0.309 N 
HETATM    4  O   UNL     1      -4.243   5.131 -35.920  1.00  0.00    -0.247 OA
HETATM    5  H   UNL     1      -4.208   5.859 -32.895  1.00  0.00     0.164 HD
HETATM    6  H   UNL     1      -2.119   6.145 -35.587  1.00  0.00     0.170 HD
ENDROOT
BRANCH   3   7
HETATM    7  C   UNL     1      -1.706   6.108 -33.557  1.00  0.00     0.036 A 
HETATM    8  C   UNL     1      -1.048   5.096 -32.859  1.00  0.00     0.032 A 
HETATM    9  C   UNL     1      -0.356   5.377 -31.674  1.00  0.00     0.032 A 
HETATM   10  C   UNL     1      -0.291   6.679 -31.185  1.00  0.00     0.035 A 
HETATM   11  C   UNL     1      -0.857   7.710 -31.942  1.00  0.00     0.032 A 
HETATM   12  C   UNL     1      -1.553   7.428 -33.125  1.00  0.00     0.032 A 
BRANCH  10  13
HETATM   13  N   UNL     1       0.288   7.024 -29.951  1.00  0.00    -0.321 N 
HETATM   14  C   UNL     1      -0.343   7.185 -28.728  1.00  0.00     0.279 C 
HETATM   15  O   UNL     1      -1.528   6.958 -28.507  1.00  0.00    -0.265 OA
HETATM   16  H   UNL     1       1.271   7.281 -29.951  1.00  0.00     0.169 HD
BRANCH  14  17
HETATM   17  C   UNL     1       0.545   7.711 -27.706  1.00  0.00     0.142 A 
HETATM   18  O   UNL     1       0.475   7.208 -26.430  1.00  0.00    -0.317 OA
HETATM   19  C   UNL     1       1.426   7.844 -25.698  1.00  0.00     0.143 A 
HETATM   20  C   UNL     1       2.110   8.748 -26.475  1.00  0.00     0.027 A 
HETATM   21  C   UNL     1       1.541   8.666 -27.769  1.00  0.00     0.045 A 
ENDBRANCH  14  17
ENDBRANCH  10  13
ENDBRANCH   3   7
BRANCH   1  22
HETATM   22  C   UNL     1      -5.883   4.812 -33.666  1.00  0.00     0.130 C 
BRANCH  22  23
HETATM   23  C   UNL     1      -5.942   3.304 -33.457  1.00  0.00     0.031 C 
HETATM   24  C   UNL     1      -7.146   2.891 -32.631  1.00  0.00     0.241 C 
HETATM   25  N   UNL     1      -6.809   1.482 -32.164  1.00  0.00    -0.071 N 
HETATM   26  H   UNL     1      -7.052   1.429 -31.164  1.00  0.00     0.279 HD
HETATM   27  C   UNL     1      -5.297   1.332 -32.289  1.00  0.00     0.235 C 
HETATM   28  C   UNL     1      -4.795   2.719 -32.645  1.00  0.00     0.035 C 
BRANCH  25  29
HETATM   29  C   UNL     1      -7.599   0.416 -32.885  1.00  0.00     0.234 C 
BRANCH  29  30
HETATM   30  C   UNL     1      -6.745  -0.245 -33.961  1.00  0.00     0.023 C 
HETATM   31  C   UNL     1      -7.196   0.187 -35.348  1.00  0.00     0.007 C 
ENDBRANCH  29  30
ENDBRANCH  25  29
ENDBRANCH  22  23
ENDBRANCH   1  22
TORSDOF 7
ENDMDL
MODEL 2
REMARK VINA RESULT:      -7.6      3.866      9.638
REMARK  7 active torsions:
REMARK  status: ('A' for Active; 'I' for Inactive)
REMARK    1  A    between atoms: C_2  and  C_3 
REMARK    2  A    between atoms: C_3  and  N_4 
REMARK    3  A    between atoms: C_7  and  C_8 
REMARK    4  A    between atoms: C_8  and  N_9 
REMARK       I    between atoms: N_9  and  C_10 
REMARK       I    between atoms: C_10  and  N_11 
REMARK    5  A    between atoms: N_11  and  C_12 
REMARK    6  A    between atoms: C_15  and  N_16 
REMARK       I    between atoms: N_16  and  C_17 
REMARK    7  A    between atoms: C_17  and  C_18 
ROOT
HETATM    1  N   UNL     1      -5.695   5.117 -30.295  1.00  0.00    -0.342 N 
HETATM    2  C   UNL     1      -6.489   4.701 -29.268  1.00  0.00     0.320 C 
HETATM    3  N   UNL     1      -7.082   3.479 -29.396  1.00  0.00    -0.309 N 
HETATM    4  O   UNL     1      -6.743   5.422 -28.306  1.00  0.00    -0.247 OA
HETATM    5  H   UNL     1      -5.830   4.645 -31.178  1.00  0.00     0.164 HD
HETATM    6  H   UNL     1      -7.834   3.352 -28.727  1.00  0.00     0.170 HD
ENDROOT
BRANCH   3   7
HETATM    7  C   UNL     1      -6.854   2.423 -30.298  1.00  0.00     0.036 A 
HETATM    8  C   UNL     1      -7.426   2.354 -31.569  1.00  0.00     0.032 A 
HETATM    9  C   UNL     1      -7.249   1.220 -32.372  1.00  0.00     0.032 A 
HETATM   10  C   UNL     1      -6.476   0.150 -31.926  1.00  0.00     0.035 A 
HETATM   11  C   UNL     1      -5.814   0.267 -30.699  1.00  0.00     0.032 A 
HETATM   12  C   UNL     1      -5.994   1.399 -29.895  1.00  0.00     0.032 A 
BRANCH  10  13
HETATM   13  N   UNL     1      -6.340  -1.063 -32.624  1.00  0.00    -0.321 N 
HETATM   14  C   UNL     1      -5.335  -1.433 -33.503  1.00  0.00     0.279 C 
HETATM   15  O   UNL     1      -4.328  -0.774 -33.746  1.00  0.00    -0.265 OA
HETATM   16  H   UNL     1      -7.108  -1.725 -32.564  1.00  0.00     0.169 HD
BRANCH  14  17
HETATM   17  C   UNL     1      -5.610  -2.693 -34.169  1.00  0.00     0.142 A 
HETATM   18  O   UNL     1      -4.662  -3.686 -34.151  1.00  0.00    -0.317 OA
HETATM   19  C   UNL     1      -5.187  -4.752 -34.809  1.00  0.00     0.143 A 
HETATM   20  C   UNL     1      -6.457  -4.468 -35.251  1.00  0.00     0.027 A 
HETATM   21  C   UNL     1      -6.730  -3.141 -34.843  1.00  0.00     0.045 A 
ENDBRANCH  14  17
ENDBRANCH  10  13
ENDBRANCH   3   7
BRANCH   1  22
HETATM   22  C   UNL     1      -5.020   6.394 -30.296  1.00  0.00     0.130 C 
BRANCH  22  23
HETATM   23  C   UNL     1      -3.971   6.479 -31.398  1.00  0.00     0.031 C 
HETATM   24  C   UNL     1      -2.820   5.519 -31.163  1.00  0.00     0.241 C 
HETATM   25  N   UNL     1      -1.712   6.040 -32.067  1.00  0.00    -0.071 N 
HETATM   26  H   UNL     1      -0.842   6.030 -31.515  1.00  0.00     0.279 HD
HETATM   27  C   UNL     1      -2.054   7.493 -32.380  1.00  0.00     0.235 C 
HETATM   28  C   UNL     1      -3.244   7.813 -31.496  1.00  0.00     0.035 C 
BRANCH  25  29
HETATM   29  C   UNL     1      -1.491   5.179 -33.287  1.00  0.00     0.234 C 
BRANCH  29  30
HETATM   30  C   UNL     1      -1.992   5.889 -34.540  1.00  0.00     0.023 C 
HETATM   31  C   UNL     1      -3.341   5.336 -34.971  1.00  0.00     0.007 C 
ENDBRANCH  29  30
ENDBRANCH  25  29
ENDBRANCH  22  23
ENDBRANCH   1  22
TORSDOF 7
ENDMDL
MODEL 3
REMARK VINA RESULT:      -7.5      2.914      5.567
REMARK  7 active torsions:
REMARK  status: ('A' for Active; 'I' for Inactive)
REMARK    1  A    between atoms: C_2  and  C_3 
REMARK    2  A    between atoms: C_3  and  N_4 
REMARK    3  A    between atoms: C_7  and  C_8 
REMARK    4  A    between atoms: C_8  and  N_9 
REMARK       I    between atoms: N_9  and  C_10 
REMARK       I    between atoms: C_10  and  N_11 
REMARK    5  A    between atoms: N_11  and  C_12 
REMARK    6  A    between atoms: C_15  and  N_16 
REMARK       I    between atoms: N_16  and  C_17 
REMARK    7  A    between atoms: C_17  and  C_18 
ROOT
HETATM    1  N   UNL     1      -7.671   0.638 -32.941  1.00  0.00    -0.342 N 
HETATM    2  C   UNL     1      -8.743   1.288 -32.408  1.00  0.00     0.320 C 
HETATM    3  N   UNL     1      -8.486   2.384 -31.637  1.00  0.00    -0.309 N 
HETATM    4  O   UNL     1      -9.890   0.865 -32.530  1.00  0.00    -0.247 OA
HETATM    5  H   UNL     1      -6.778   0.824 -32.505  1.00  0.00     0.164 HD
HETATM    6  H   UNL     1      -9.293   2.657 -31.087  1.00  0.00     0.170 HD
ENDROOT
BRANCH   3   7
HETATM    7  C   UNL     1      -7.314   3.143 -31.459  1.00  0.00     0.036 A 
HETATM    8  C   UNL     1      -6.982   4.250 -32.241  1.00  0.00     0.032 A 
HETATM    9  C   UNL     1      -5.746   4.891 -32.085  1.00  0.00     0.032 A 
HETATM   10  C   UNL     1      -4.837   4.451 -31.126  1.00  0.00     0.035 A 
HETATM   11  C   UNL     1      -5.216   3.413 -30.268  1.00  0.00     0.032 A 
HETATM   12  C   UNL     1      -6.449   2.769 -30.427  1.00  0.00     0.032 A 
BRANCH  10  13
HETATM   13  N   UNL     1      -3.538   4.971 -30.982  1.00  0.00    -0.321 N 
HETATM   14  C   UNL     1      -2.372   4.530 -31.586  1.00  0.00     0.279 C 
HETATM   15  O   UNL     1      -2.304   3.648 -32.436  1.00  0.00    -0.265 OA
HETATM   16  H   UNL     1      -3.400   5.697 -30.286  1.00  0.00     0.169 HD
BRANCH  14  17
HETATM   17  C   UNL     1      -1.189   5.198 -31.072  1.00  0.00     0.142 A 
HETATM   18  O   UNL     1      -0.262   4.475 -30.363  1.00  0.00    -0.317 OA
HETATM   19  C   UNL     1       0.744   5.327 -30.037  1.00  0.00     0.143 A 
HETATM   20  C   UNL     1       0.485   6.588 -30.521  1.00  0.00     0.027 A 
HETATM   21  C   UNL     1      -0.761   6.507 -31.186  1.00  0.00     0.045 A 
ENDBRANCH  14  17
ENDBRANCH  10  13
ENDBRANCH   3   7
BRANCH   1  22
HETATM   22  C   UNL     1      -7.799  -0.543 -33.763  1.00  0.00     0.130 C 
BRANCH  22  23
HETATM   23  C   UNL     1      -6.610  -1.481 -33.597  1.00  0.00     0.031 C 
HETATM   24  C   UNL     1      -5.309  -0.721 -33.410  1.00  0.00     0.241 C 
HETATM   25  N   UNL     1      -4.232  -1.754 -33.703  1.00  0.00    -0.071 N 
HETATM   26  H   UNL     1      -3.533  -1.299 -34.309  1.00  0.00     0.279 HD
HETATM   27  C   UNL     1      -4.900  -2.863 -34.509  1.00  0.00     0.235 C 
HETATM   28  C   UNL     1      -6.292  -2.341 -34.812  1.00  0.00     0.035 C 
BRANCH  25  29
HETATM   29  C   UNL     1      -3.518  -2.235 -32.462  1.00  0.00     0.234 C 
BRANCH  29  30
HETATM   30  C   UNL     1      -2.536  -1.178 -31.968  1.00  0.00     0.023 C 
HETATM   31  C   UNL     1      -3.237  -0.164 -31.077  1.00  0.00     0.007 C 
ENDBRANCH  29  30
ENDBRANCH  25  29
ENDBRANCH  22  23
ENDBRANCH   1  22
TORSDOF 7
ENDMDL
MODEL 4
REMARK VINA RESULT:      -7.4      2.944      5.273
REMARK  7 active torsions:
REMARK  status: ('A' for Active; 'I' for Inactive)
REMARK    1  A    between atoms: C_2  and  C_3 
REMARK    2  A    between atoms: C_3  and  N_4 
REMARK    3  A    between atoms: C_7  and  C_8 
REMARK    4  A    between atoms: C_8  and  N_9 
REMARK       I    between atoms: N_9  and  C_10 
REMARK       I    between atoms: C_10  and  N_11 
REMARK    5  A    between atoms: N_11  and  C_12 
REMARK    6  A    between atoms: C_15  and  N_16 
REMARK       I    between atoms: N_16  and  C_17 
REMARK    7  A    between atoms: C_17  and  C_18 
ROOT
HETATM    1  N   UNL     1      -8.674   1.847 -32.367  1.00  0.00    -0.342 N 
HETATM    2  C   UNL     1      -9.547   2.870 -32.595  1.00  0.00     0.320 C 
HETATM    3  N   UNL     1      -9.057   4.139 -32.492  1.00  0.00    -0.309 N 
HETATM    4  O   UNL     1     -10.743   2.675 -32.793  1.00  0.00    -0.247 OA
HETATM    5  H   UNL     1      -7.831   2.088 -31.865  1.00  0.00     0.164 HD
HETATM    6  H   UNL     1      -9.800   4.826 -32.429  1.00  0.00     0.170 HD
ENDROOT
BRANCH   3   7
HETATM    7  C   UNL     1      -7.739   4.626 -32.421  1.00  0.00     0.036 A 
HETATM    8  C   UNL     1      -6.984   4.982 -33.539  1.00  0.00     0.032 A 
HETATM    9  C   UNL     1      -5.639   5.351 -33.406  1.00  0.00     0.032 A 
HETATM   10  C   UNL     1      -5.038   5.396 -32.150  1.00  0.00     0.035 A 
HETATM   11  C   UNL     1      -5.825   5.147 -31.021  1.00  0.00     0.032 A 
HETATM   12  C   UNL     1      -7.168   4.773 -31.154  1.00  0.00     0.032 A 
BRANCH  10  13
HETATM   13  N   UNL     1      -3.671   5.650 -31.945  1.00  0.00    -0.321 N 
HETATM   14  C   UNL     1      -2.604   4.788 -32.142  1.00  0.00     0.279 C 
HETATM   15  O   UNL     1      -2.682   3.663 -32.627  1.00  0.00    -0.265 OA
HETATM   16  H   UNL     1      -3.419   6.534 -31.513  1.00  0.00     0.169 HD
BRANCH  14  17
HETATM   17  C   UNL     1      -1.347   5.335 -31.665  1.00  0.00     0.142 A 
HETATM   18  O   UNL     1      -0.511   4.548 -30.912  1.00  0.00    -0.317 OA
HETATM   19  C   UNL     1       0.592   5.288 -30.634  1.00  0.00     0.143 A 
HETATM   20  C   UNL     1       0.487   6.540 -31.191  1.00  0.00     0.027 A 
HETATM   21  C   UNL     1      -0.763   6.573 -31.854  1.00  0.00     0.045 A 
ENDBRANCH  14  17
ENDBRANCH  10  13
ENDBRANCH   3   7
BRANCH   1  22
HETATM   22  C   UNL     1      -9.063   0.457 -32.428  1.00  0.00     0.130 C 
BRANCH  22  23
HETATM   23  C   UNL     1      -8.136  -0.351 -33.329  1.00  0.00     0.031 C 
HETATM   24  C   UNL     1      -6.712  -0.374 -32.804  1.00  0.00     0.241 C 
HETATM   25  N   UNL     1      -5.883  -0.813 -34.002  1.00  0.00    -0.071 N 
HETATM   26  H   UNL     1      -5.058  -0.198 -34.041  1.00  0.00     0.279 HD
HETATM   27  C   UNL     1      -6.730  -0.542 -35.240  1.00  0.00     0.235 C 
HETATM   28  C   UNL     1      -7.940   0.217 -34.727  1.00  0.00     0.035 C 
BRANCH  25  29
HETATM   29  C   UNL     1      -5.390  -2.236 -33.889  1.00  0.00     0.234 C 
BRANCH  29  30
HETATM   30  C   UNL     1      -5.721  -3.018 -35.155  1.00  0.00     0.023 C 
HETATM   31  C   UNL     1      -6.690  -4.151 -34.852  1.00  0.00     0.007 C 
ENDBRANCH  29  30
ENDBRANCH  25  29
ENDBRANCH  22  23
ENDBRANCH   1  22
TORSDOF 7
ENDMDL
MODEL 5
REMARK VINA RESULT:      -7.4      2.949      9.854
REMARK  7 active torsions:
REMARK  status: ('A' for Active; 'I' for Inactive)
REMARK    1  A    between atoms: C_2  and  C_3 
REMARK    2  A    between atoms: C_3  and  N_4 
REMARK    3  A    between atoms: C_7  and  C_8 
REMARK    4  A    between atoms: C_8  and  N_9 
REMARK       I    between atoms: N_9  and  C_10 
REMARK       I    between atoms: C_10  and  N_11 
REMARK    5  A    between atoms: N_11  and  C_12 
REMARK    6  A    between atoms: C_15  and  N_16 
REMARK       I    between atoms: N_16  and  C_17 
REMARK    7  A    between atoms: C_17  and  C_18 
ROOT
HETATM    1  N   UNL     1      -3.413   5.205 -32.477  1.00  0.00    -0.342 N 
HETATM    2  C   UNL     1      -4.575   5.796 -32.081  1.00  0.00     0.320 C 
HETATM    3  N   UNL     1      -5.711   5.043 -32.150  1.00  0.00    -0.309 N 
HETATM    4  O   UNL     1      -4.628   6.982 -31.763  1.00  0.00    -0.247 OA
HETATM    5  H   UNL     1      -3.509   4.380 -33.053  1.00  0.00     0.164 HD
HETATM    6  H   UNL     1      -6.546   5.614 -32.080  1.00  0.00     0.170 HD
ENDROOT
BRANCH   3   7
HETATM    7  C   UNL     1      -5.903   3.662 -32.335  1.00  0.00     0.036 A 
HETATM    8  C   UNL     1      -5.693   2.710 -31.337  1.00  0.00     0.032 A 
HETATM    9  C   UNL     1      -5.792   1.342 -31.621  1.00  0.00     0.032 A 
HETATM   10  C   UNL     1      -6.129   0.907 -32.900  1.00  0.00     0.035 A 
HETATM   11  C   UNL     1      -6.447   1.862 -33.871  1.00  0.00     0.032 A 
HETATM   12  C   UNL     1      -6.343   3.230 -33.589  1.00  0.00     0.032 A 
BRANCH  10  13
HETATM   13  N   UNL     1      -6.142  -0.444 -33.290  1.00  0.00    -0.321 N 
HETATM   14  C   UNL     1      -5.074  -1.220 -33.711  1.00  0.00     0.279 C 
HETATM   15  O   UNL     1      -3.900  -0.863 -33.723  1.00  0.00    -0.265 OA
HETATM   16  H   UNL     1      -7.046  -0.899 -33.369  1.00  0.00     0.169 HD
BRANCH  14  17
HETATM   17  C   UNL     1      -5.489  -2.524 -34.196  1.00  0.00     0.142 A 
HETATM   18  O   UNL     1      -4.602  -3.572 -34.154  1.00  0.00    -0.317 OA
HETATM   19  C   UNL     1      -5.252  -4.665 -34.630  1.00  0.00     0.143 A 
HETATM   20  C   UNL     1      -6.543  -4.345 -34.980  1.00  0.00     0.027 A 
HETATM   21  C   UNL     1      -6.696  -2.965 -34.704  1.00  0.00     0.045 A 
ENDBRANCH  14  17
ENDBRANCH  10  13
ENDBRANCH   3   7
BRANCH   1  22
HETATM   22  C   UNL     1      -2.141   5.891 -32.469  1.00  0.00     0.130 C 
BRANCH  22  23
HETATM   23  C   UNL     1      -1.395   5.686 -31.157  1.00  0.00     0.031 C 
HETATM   24  C   UNL     1      -1.097   7.001 -30.461  1.00  0.00     0.241 C 
HETATM   25  N   UNL     1      -0.009   6.651 -29.457  1.00  0.00    -0.071 N 
HETATM   26  H   UNL     1       0.708   7.389 -29.518  1.00  0.00     0.279 HD
HETATM   27  C   UNL     1       0.618   5.345 -29.933  1.00  0.00     0.235 C 
HETATM   28  C   UNL     1      -0.002   5.087 -31.293  1.00  0.00     0.035 C 
BRANCH  25  29
HETATM   29  C   UNL     1      -0.508   6.615 -28.032  1.00  0.00     0.234 C 
BRANCH  29  30
HETATM   30  C   UNL     1       0.321   7.544 -27.152  1.00  0.00     0.023 C 
HETATM   31  C   UNL     1       1.304   8.347 -27.990  1.00  0.00     0.007 C 
ENDBRANCH  29  30
ENDBRANCH  25  29
ENDBRANCH  22  23
ENDBRANCH   1  22
TORSDOF 7
ENDMDL
MODEL 6
REMARK VINA RESULT:      -7.4      4.184     10.945
REMARK  7 active torsions:
REMARK  status: ('A' for Active; 'I' for Inactive)
REMARK    1  A    between atoms: C_2  and  C_3 
REMARK    2  A    between atoms: C_3  and  N_4 
REMARK    3  A    between atoms: C_7  and  C_8 
REMARK    4  A    between atoms: C_8  and  N_9 
REMARK       I    between atoms: N_9  and  C_10 
REMARK       I    between atoms: C_10  and  N_11 
REMARK    5  A    between atoms: N_11  and  C_12 
REMARK    6  A    between atoms: C_15  and  N_16 
REMARK       I    between atoms: N_16  and  C_17 
REMARK    7  A    between atoms: C_17  and  C_18 
ROOT
HETATM    1  N   UNL     1      -4.349   1.443 -31.566  1.00  0.00    -0.342 N 
HETATM    2  C   UNL     1      -4.197   0.097 -31.715  1.00  0.00     0.320 C 
HETATM    3  N   UNL     1      -5.332  -0.644 -31.871  1.00  0.00    -0.309 N 
HETATM    4  O   UNL     1      -3.100  -0.449 -31.623  1.00  0.00    -0.247 OA
HETATM    5  H   UNL     1      -5.270   1.756 -31.291  1.00  0.00     0.164 HD
HETATM    6  H   UNL     1      -5.159  -1.633 -31.728  1.00  0.00     0.170 HD
ENDROOT
BRANCH   3   7
HETATM    7  C   UNL     1      -6.659  -0.268 -32.147  1.00  0.00     0.036 A 
HETATM    8  C   UNL     1      -7.489   0.376 -31.229  1.00  0.00     0.032 A 
HETATM    9  C   UNL     1      -8.835   0.620 -31.529  1.00  0.00     0.032 A 
HETATM   10  C   UNL     1      -9.364   0.246 -32.762  1.00  0.00     0.035 A 
HETATM   11  C   UNL     1      -8.506  -0.299 -33.723  1.00  0.00     0.032 A 
HETATM   12  C   UNL     1      -7.161  -0.546 -33.421  1.00  0.00     0.032 A 
BRANCH  10  13
HETATM   13  N   UNL     1     -10.726   0.357 -33.096  1.00  0.00    -0.321 N 
HETATM   14  C   UNL     1     -11.390   1.459 -33.610  1.00  0.00     0.279 C 
HETATM   15  O   UNL     1     -10.859   2.512 -33.949  1.00  0.00    -0.265 OA
HETATM   16  H   UNL     1     -11.332  -0.420 -32.852  1.00  0.00     0.169 HD
BRANCH  14  17
HETATM   17  C   UNL     1     -12.828   1.266 -33.672  1.00  0.00     0.142 A 
HETATM   18  O   UNL     1     -13.642   1.995 -32.840  1.00  0.00    -0.317 OA
HETATM   19  C   UNL     1     -14.922   1.646 -33.128  1.00  0.00     0.143 A 
HETATM   20  C   UNL     1     -14.953   0.705 -34.131  1.00  0.00     0.027 A 
HETATM   21  C   UNL     1     -13.604   0.457 -34.479  1.00  0.00     0.045 A 
ENDBRANCH  14  17
ENDBRANCH  10  13
ENDBRANCH   3   7
BRANCH   1  22
HETATM   22  C   UNL     1      -3.235   2.343 -31.378  1.00  0.00     0.130 C 
BRANCH  22  23
HETATM   23  C   UNL     1      -3.210   3.442 -32.433  1.00  0.00     0.031 C 
HETATM   24  C   UNL     1      -2.833   4.788 -31.842  1.00  0.00     0.241 C 
HETATM   25  N   UNL     1      -3.282   5.792 -32.893  1.00  0.00    -0.071 N 
HETATM   26  H   UNL     1      -3.762   6.557 -32.396  1.00  0.00     0.279 HD
HETATM   27  C   UNL     1      -4.310   5.080 -33.766  1.00  0.00     0.235 C 
HETATM   28  C   UNL     1      -4.556   3.753 -33.073  1.00  0.00     0.035 C 
BRANCH  25  29
HETATM   29  C   UNL     1      -2.131   6.398 -33.662  1.00  0.00     0.234 C 
BRANCH  29  30
HETATM   30  C   UNL     1      -1.525   7.563 -32.887  1.00  0.00     0.023 C 
HETATM   31  C   UNL     1      -0.337   7.100 -32.057  1.00  0.00     0.007 C 
ENDBRANCH  29  30
ENDBRANCH  25  29
ENDBRANCH  22  23
ENDBRANCH   1  22
TORSDOF 7
ENDMDL
MODEL 7
REMARK VINA RESULT:      -7.3      3.312      9.826
REMARK  7 active torsions:
REMARK  status: ('A' for Active; 'I' for Inactive)
REMARK    1  A    between atoms: C_2  and  C_3 
REMARK    2  A    between atoms: C_3  and  N_4 
REMARK    3  A    between atoms: C_7  and  C_8 
REMARK    4  A    between atoms: C_8  and  N_9 
REMARK       I    between atoms: N_9  and  C_10 
REMARK       I    between atoms: C_10  and  N_11 
REMARK    5  A    between atoms: N_11  and  C_12 
REMARK    6  A    between atoms: C_15  and  N_16 
REMARK       I    between atoms: N_16  and  C_17 
REMARK    7  A    between atoms: C_17  and  C_18 
ROOT
HETATM    1  N   UNL     1      -5.263   4.952 -30.830  1.00  0.00    -0.342 N 
HETATM    2  C   UNL     1      -6.057   4.847 -29.727  1.00  0.00     0.320 C 
HETATM    3  N   UNL     1      -6.680   3.651 -29.521  1.00  0.00    -0.309 N 
HETATM    4  O   UNL     1      -6.283   5.806 -28.993  1.00  0.00    -0.247 OA
HETATM    5  H   UNL     1      -5.419   4.265 -31.555  1.00  0.00     0.164 HD
HETATM    6  H   UNL     1      -7.428   3.728 -28.840  1.00  0.00     0.170 HD
ENDROOT
BRANCH   3   7
HETATM    7  C   UNL     1      -6.488   2.387 -30.108  1.00  0.00     0.036 A 
HETATM    8  C   UNL     1      -5.382   1.576 -29.854  1.00  0.00     0.032 A 
HETATM    9  C   UNL     1      -5.196   0.380 -30.559  1.00  0.00     0.032 A 
HETATM   10  C   UNL     1      -6.127  -0.035 -31.508  1.00  0.00     0.035 A 
HETATM   11  C   UNL     1      -7.289   0.722 -31.683  1.00  0.00     0.032 A 
HETATM   12  C   UNL     1      -7.473   1.920 -30.982  1.00  0.00     0.032 A 
BRANCH  10  13
HETATM   13  N   UNL     1      -5.957  -1.163 -32.331  1.00  0.00    -0.321 N 
HETATM   14  C   UNL     1      -5.865  -1.204 -33.713  1.00  0.00     0.279 C 
HETATM   15  O   UNL     1      -5.826  -0.224 -34.450  1.00  0.00    -0.265 OA
HETATM   16  H   UNL     1      -5.997  -2.076 -31.887  1.00  0.00     0.169 HD
BRANCH  14  17
HETATM   17  C   UNL     1      -5.865  -2.560 -34.233  1.00  0.00     0.142 A 
HETATM   18  O   UNL     1      -4.743  -3.338 -34.087  1.00  0.00    -0.317 OA
HETATM   19  C   UNL     1      -5.026  -4.552 -34.624  1.00  0.00     0.143 A 
HETATM   20  C   UNL     1      -6.309  -4.575 -35.117  1.00  0.00     0.027 A 
HETATM   21  C   UNL     1      -6.850  -3.291 -34.868  1.00  0.00     0.045 A 
ENDBRANCH  14  17
ENDBRANCH  10  13
ENDBRANCH   3   7
BRANCH   1  22
HETATM   22  C   UNL     1      -4.556   6.164 -31.176  1.00  0.00     0.130 C 
BRANCH  22  23
HETATM   23  C   UNL     1      -3.073   5.907 -31.411  1.00  0.00     0.031 C 
HETATM   24  C   UNL     1      -2.296   7.196 -31.606  1.00  0.00     0.241 C 
HETATM   25  N   UNL     1      -0.992   6.750 -32.248  1.00  0.00    -0.071 N 
HETATM   26  H   UNL     1      -0.797   7.401 -33.023  1.00  0.00     0.279 HD
HETATM   27  C   UNL     1      -1.250   5.371 -32.846  1.00  0.00     0.235 C 
HETATM   28  C   UNL     1      -2.744   5.154 -32.692  1.00  0.00     0.035 C 
BRANCH  25  29
HETATM   29  C   UNL     1       0.183   6.802 -31.300  1.00  0.00     0.234 C 
BRANCH  29  30
HETATM   30  C   UNL     1       0.642   5.394 -30.940  1.00  0.00     0.023 C 
HETATM   31  C   UNL     1       0.581   5.174 -29.436  1.00  0.00     0.007 C 
ENDBRANCH  29  30
ENDBRANCH  25  29
ENDBRANCH  22  23
ENDBRANCH   1  22
TORSDOF 7
ENDMDL
MODEL 8
REMARK VINA RESULT:      -7.2      4.683      9.669
REMARK  7 active torsions:
REMARK  status: ('A' for Active; 'I' for Inactive)
REMARK    1  A    between atoms: C_2  and  C_3 
REMARK    2  A    between atoms: C_3  and  N_4 
REMARK    3  A    between atoms: C_7  and  C_8 
REMARK    4  A    between atoms: C_8  and  N_9 
REMARK       I    between atoms: N_9  and  C_10 
REMARK       I    between atoms: C_10  and  N_11 
REMARK    5  A    between atoms: N_11  and  C_12 
REMARK    6  A    between atoms: C_15  and  N_16 
REMARK       I    between atoms: N_16  and  C_17 
REMARK    7  A    between atoms: C_17  and  C_18 
ROOT
HETATM    1  N   UNL     1      -7.641   5.095 -32.872  1.00  0.00    -0.342 N 
HETATM    2  C   UNL     1      -8.987   5.115 -32.653  1.00  0.00     0.320 C 
HETATM    3  N   UNL     1      -9.658   3.937 -32.801  1.00  0.00    -0.309 N 
HETATM    4  O   UNL     1      -9.595   6.158 -32.423  1.00  0.00    -0.247 OA
HETATM    5  H   UNL     1      -7.291   4.307 -33.399  1.00  0.00     0.164 HD
HETATM    6  H   UNL     1     -10.661   4.080 -32.866  1.00  0.00     0.170 HD
ENDROOT
BRANCH   3   7
HETATM    7  C   UNL     1      -9.200   2.611 -32.914  1.00  0.00     0.036 A 
HETATM    8  C   UNL     1      -8.806   1.833 -31.825  1.00  0.00     0.032 A 
HETATM    9  C   UNL     1      -8.252   0.561 -32.019  1.00  0.00     0.032 A 
HETATM   10  C   UNL     1      -8.111   0.038 -33.302  1.00  0.00     0.035 A 
HETATM   11  C   UNL     1      -8.608   0.772 -34.384  1.00  0.00     0.032 A 
HETATM   12  C   UNL     1      -9.157   2.046 -34.191  1.00  0.00     0.032 A 
BRANCH  10  13
HETATM   13  N   UNL     1      -7.468  -1.180 -33.585  1.00  0.00    -0.321 N 
HETATM   14  C   UNL     1      -6.151  -1.380 -33.970  1.00  0.00     0.279 C 
HETATM   15  O   UNL     1      -5.292  -0.506 -34.038  1.00  0.00    -0.265 OA
HETATM   16  H   UNL     1      -8.041  -2.017 -33.607  1.00  0.00     0.169 HD
BRANCH  14  17
HETATM   17  C   UNL     1      -5.881  -2.757 -34.342  1.00  0.00     0.142 A 
HETATM   18  O   UNL     1      -4.663  -3.312 -34.035  1.00  0.00    -0.317 OA
HETATM   19  C   UNL     1      -4.693  -4.601 -34.460  1.00  0.00     0.143 A 
HETATM   20  C   UNL     1      -5.906  -4.891 -35.037  1.00  0.00     0.027 A 
HETATM   21  C   UNL     1      -6.672  -3.703 -34.965  1.00  0.00     0.045 A 
ENDBRANCH  14  17
ENDBRANCH  10  13
ENDBRANCH   3   7
BRANCH   1  22
HETATM   22  C   UNL     1      -6.812   6.273 -32.764  1.00  0.00     0.130 C 
BRANCH  22  23
HETATM   23  C   UNL     1      -5.337   5.916 -32.623  1.00  0.00     0.031 C 
HETATM   24  C   UNL     1      -5.132   4.430 -32.391  1.00  0.00     0.241 C 
HETATM   25  N   UNL     1      -3.714   4.332 -31.847  1.00  0.00    -0.071 N 
HETATM   26  H   UNL     1      -3.742   3.686 -31.045  1.00  0.00     0.279 HD
HETATM   27  C   UNL     1      -3.354   5.718 -31.322  1.00  0.00     0.235 C 
HETATM   28  C   UNL     1      -4.641   6.516 -31.410  1.00  0.00     0.035 C 
BRANCH  25  29
HETATM   29  C   UNL     1      -2.733   3.776 -32.850  1.00  0.00     0.234 C 
BRANCH  29  30
HETATM   30  C   UNL     1      -1.812   4.877 -33.364  1.00  0.00     0.023 C 
HETATM   31  C   UNL     1      -2.063   5.147 -34.839  1.00  0.00     0.007 C 
ENDBRANCH  29  30
ENDBRANCH  25  29
ENDBRANCH  22  23
ENDBRANCH   1  22
TORSDOF 7
ENDMDL
MODEL 9
REMARK VINA RESULT:      -7.1      5.753      9.465
REMARK  7 active torsions:
REMARK  status: ('A' for Active; 'I' for Inactive)
REMARK    1  A    between atoms: C_2  and  C_3 
REMARK    2  A    between atoms: C_3  and  N_4 
REMARK    3  A    between atoms: C_7  and  C_8 
REMARK    4  A    between atoms: C_8  and  N_9 
REMARK       I    between atoms: N_9  and  C_10 
REMARK       I    between atoms: C_10  and  N_11 
REMARK    5  A    between atoms: N_11  and  C_12 
REMARK    6  A    between atoms: C_15  and  N_16 
REMARK       I    between atoms: N_16  and  C_17 
REMARK    7  A    between atoms: C_17  and  C_18 
ROOT
HETATM    1  N   UNL     1      -7.741   4.208 -30.059  1.00  0.00    -0.342 N 
HETATM    2  C   UNL     1      -6.627   4.483 -29.324  1.00  0.00     0.320 C 
HETATM    3  N   UNL     1      -5.623   3.560 -29.349  1.00  0.00    -0.309 N 
HETATM    4  O   UNL     1      -6.554   5.468 -28.594  1.00  0.00    -0.247 OA
HETATM    5  H   UNL     1      -7.870   3.241 -30.324  1.00  0.00     0.164 HD
HETATM    6  H   UNL     1      -4.953   3.711 -28.602  1.00  0.00     0.170 HD
ENDROOT
BRANCH   3   7
HETATM    7  C   UNL     1      -5.396   2.451 -30.186  1.00  0.00     0.036 A 
HETATM    8  C   UNL     1      -4.693   2.520 -31.389  1.00  0.00     0.032 A 
HETATM    9  C   UNL     1      -4.602   1.403 -32.229  1.00  0.00     0.032 A 
HETATM   10  C   UNL     1      -5.191   0.194 -31.865  1.00  0.00     0.035 A 
HETATM   11  C   UNL     1      -5.801   0.096 -30.610  1.00  0.00     0.032 A 
HETATM   12  C   UNL     1      -5.895   1.214 -29.772  1.00  0.00     0.032 A 
BRANCH  10  13
HETATM   13  N   UNL     1      -5.237  -0.937 -32.700  1.00  0.00    -0.321 N 
HETATM   14  C   UNL     1      -6.210  -1.272 -33.628  1.00  0.00     0.279 C 
HETATM   15  O   UNL     1      -7.166  -0.568 -33.939  1.00  0.00    -0.265 OA
HETATM   16  H   UNL     1      -4.532  -1.653 -32.557  1.00  0.00     0.169 HD
BRANCH  14  17
HETATM   17  C   UNL     1      -6.017  -2.598 -34.186  1.00  0.00     0.142 A 
HETATM   18  O   UNL     1      -4.789  -3.203 -34.076  1.00  0.00    -0.317 OA
HETATM   19  C   UNL     1      -4.897  -4.432 -34.644  1.00  0.00     0.143 A 
HETATM   20  C   UNL     1      -6.170  -4.634 -35.121  1.00  0.00     0.027 A 
HETATM   21  C   UNL     1      -6.892  -3.452 -34.829  1.00  0.00     0.045 A 
ENDBRANCH  14  17
ENDBRANCH  10  13
ENDBRANCH   3   7
BRANCH   1  22
HETATM   22  C   UNL     1      -8.884   5.091 -30.111  1.00  0.00     0.130 C 
BRANCH  22  23
HETATM   23  C   UNL     1      -9.892   4.651 -31.165  1.00  0.00     0.031 C 
HETATM   24  C   UNL     1     -11.175   4.131 -30.542  1.00  0.00     0.241 C 
HETATM   25  N   UNL     1     -11.844   3.354 -31.666  1.00  0.00    -0.071 N 
HETATM   26  H   UNL     1     -12.179   2.467 -31.263  1.00  0.00     0.279 HD
HETATM   27  C   UNL     1     -10.753   3.028 -32.680  1.00  0.00     0.235 C 
HETATM   28  C   UNL     1      -9.460   3.464 -32.015  1.00  0.00     0.035 C 
BRANCH  25  29
HETATM   29  C   UNL     1     -13.038   4.070 -32.251  1.00  0.00     0.234 C 
BRANCH  29  30
HETATM   30  C   UNL     1     -14.331   3.534 -31.648  1.00  0.00     0.023 C 
HETATM   31  C   UNL     1     -14.753   2.243 -32.333  1.00  0.00     0.007 C 
ENDBRANCH  29  30
ENDBRANCH  25  29
ENDBRANCH  22  23
ENDBRANCH   1  22
TORSDOF 7
ENDMDL
MODEL 10
REMARK VINA RESULT:      -7.0     19.419     23.350
REMARK  7 active torsions:
REMARK  status: ('A' for Active; 'I' for Inactive)
REMARK    1  A    between atoms: C_2  and  C_3 
REMARK    2  A    between atoms: C_3  and  N_4 
REMARK    3  A    between atoms: C_7  and  C_8 
REMARK    4  A    between atoms: C_8  and  N_9 
REMARK       I    between atoms: N_9  and  C_10 
REMARK       I    between atoms: C_10  and  N_11 
REMARK    5  A    between atoms: N_11  and  C_12 
REMARK    6  A    between atoms: C_15  and  N_16 
REMARK       I    between atoms: N_16  and  C_17 
REMARK    7  A    between atoms: C_17  and  C_18 
ROOT
HETATM    1  N   UNL     1      -4.485 -14.062 -37.963  1.00  0.00    -0.342 N 
HETATM    2  C   UNL     1      -4.576 -12.729 -37.694  1.00  0.00     0.320 C 
HETATM    3  N   UNL     1      -5.669 -12.071 -38.176  1.00  0.00    -0.309 N 
HETATM    4  O   UNL     1      -3.676 -12.116 -37.124  1.00  0.00    -0.247 OA
HETATM    5  H   UNL     1      -5.058 -14.400 -38.724  1.00  0.00     0.164 HD
HETATM    6  H   UNL     1      -5.544 -11.064 -38.152  1.00  0.00     0.170 HD
ENDROOT
BRANCH   3   7
HETATM    7  C   UNL     1      -6.878 -12.544 -38.717  1.00  0.00     0.036 A 
HETATM    8  C   UNL     1      -7.917 -13.070 -37.949  1.00  0.00     0.032 A 
HETATM    9  C   UNL     1      -9.047 -13.629 -38.560  1.00  0.00     0.032 A 
HETATM   10  C   UNL     1      -9.166 -13.645 -39.947  1.00  0.00     0.035 A 
HETATM   11  C   UNL     1      -8.176 -13.020 -40.713  1.00  0.00     0.032 A 
HETATM   12  C   UNL     1      -7.045 -12.465 -40.102  1.00  0.00     0.032 A 
BRANCH  10  13
HETATM   13  N   UNL     1     -10.213 -14.282 -40.636  1.00  0.00    -0.321 N 
HETATM   14  C   UNL     1     -10.182 -15.498 -41.300  1.00  0.00     0.279 C 
HETATM   15  O   UNL     1      -9.231 -16.274 -41.313  1.00  0.00    -0.265 OA
HETATM   16  H   UNL     1     -11.079 -13.765 -40.753  1.00  0.00     0.169 HD
BRANCH  14  17
HETATM   17  C   UNL     1     -11.402 -15.762 -42.042  1.00  0.00     0.142 A 
HETATM   18  O   UNL     1     -12.595 -15.269 -41.574  1.00  0.00    -0.317 OA
HETATM   19  C   UNL     1     -13.553 -15.629 -42.467  1.00  0.00     0.143 A 
HETATM   20  C   UNL     1     -13.003 -16.345 -43.503  1.00  0.00     0.027 A 
HETATM   21  C   UNL     1     -11.617 -16.435 -43.229  1.00  0.00     0.045 A 
ENDBRANCH  14  17
ENDBRANCH  10  13
ENDBRANCH   3   7
BRANCH   1  22
HETATM   22  C   UNL     1      -3.375 -14.877 -37.526  1.00  0.00     0.130 C 
BRANCH  22  23
HETATM   23  C   UNL     1      -2.349 -15.077 -38.634  1.00  0.00     0.031 C 
HETATM   24  C   UNL     1      -1.192 -14.101 -38.521  1.00  0.00     0.241 C 
HETATM   25  N   UNL     1      -0.538 -14.142 -39.894  1.00  0.00    -0.071 N 
HETATM   26  H   UNL     1      -0.347 -13.167 -40.168  1.00  0.00     0.279 HD
HETATM   27  C   UNL     1      -1.578 -14.706 -40.856  1.00  0.00     0.235 C 
HETATM   28  C   UNL     1      -2.855 -14.793 -40.041  1.00  0.00     0.035 C 
BRANCH  25  29
HETATM   29  C   UNL     1       0.777 -14.885 -39.900  1.00  0.00     0.234 C 
BRANCH  29  30
HETATM   30  C   UNL     1       1.563 -14.589 -38.627  1.00  0.00     0.023 C 
HETATM   31  C   UNL     1       1.815 -15.865 -37.839  1.00  0.00     0.007 C 
ENDBRANCH  29  30
ENDBRANCH  25  29
ENDBRANCH  22  23
ENDBRANCH   1  22
TORSDOF 7
ENDMDL
