MODEL 1
REMARK VINA RESULT:      -7.8      0.000      0.000
REMARK  9 active torsions:
REMARK  status: ('A' for Active; 'I' for Inactive)
REMARK    1  A    between atoms: C_2  and  N_3 
REMARK    2  A    between atoms: C_6  and  C_7 
REMARK    3  A    between atoms: C_7  and  O_8 
REMARK    4  A    between atoms: O_8  and  C_9 
REMARK    5  A    between atoms: C_12  and  C_13 
REMARK    6  A    between atoms: C_14  and  C_15 
REMARK       I    between atoms: C_15  and  N_16 
REMARK    7  A    between atoms: N_16  and  C_17 
REMARK    8  A    between atoms: C_18  and  C_19 
REMARK       I    between atoms: C_19  and  N_20 
REMARK    9  A    between atoms: N_20  and  C_21 
ROOT
HETATM    1  C   UNL     1      -5.227   2.305 -30.902  1.00  0.00     0.245 C 
HETATM    2  N   UNL     1      -4.862   3.105 -31.973  1.00  0.00    -0.323 N 
HETATM    3  O   UNL     1      -5.553   2.689 -29.789  1.00  0.00    -0.268 OA
HETATM    4  H   UNL     1      -4.997   2.674 -32.880  1.00  0.00     0.169 HD
ENDROOT
BRANCH   1   5
HETATM    5  C   UNL     1      -5.315   0.876 -31.296  1.00  0.00     0.075 C 
HETATM    6  C   UNL     1      -5.160   0.566 -32.591  1.00  0.00     0.020 C 
BRANCH   6   7
HETATM    7  C   UNL     1      -5.211  -0.747 -33.157  1.00  0.00     0.005 A 
HETATM    8  C   UNL     1      -6.270  -1.270 -33.972  1.00  0.00     0.073 A 
HETATM    9  C   UNL     1      -5.864  -2.545 -34.367  1.00  0.00     0.025 A 
HETATM   10  N   UNL     1      -4.603  -2.775 -33.853  1.00  0.00    -0.353 N 
HETATM   11  C   UNL     1      -6.606  -3.524 -35.222  1.00  0.00     0.069 C 
HETATM   12  C   UNL     1      -4.205  -1.698 -33.079  1.00  0.00     0.019 A 
HETATM   13  C   UNL     1      -2.876  -1.665 -32.399  1.00  0.00     0.069 C 
BRANCH   8  14
HETATM   14  C   UNL     1      -7.546  -0.649 -34.363  1.00  0.00     0.296 C 
HETATM   15  O   UNL     1      -7.765  -0.194 -35.482  1.00  0.00    -0.259 OA
BRANCH  14  16
HETATM   16  O   UNL     1      -8.456  -0.619 -33.349  1.00  0.00    -0.318 OA
BRANCH  16  17
HETATM   17  C   UNL     1      -9.139   0.623 -33.134  1.00  0.00     0.174 C 
HETATM   18  C   UNL     1      -8.977   1.064 -31.691  1.00  0.00     0.034 C 
ENDBRANCH  16  17
ENDBRANCH  14  16
ENDBRANCH   8  14
BRANCH  10  19
HETATM   19  C   UNL     1      -3.778  -3.944 -34.145  1.00  0.00     0.124 C 
HETATM   20  C   UNL     1      -3.986  -5.072 -33.149  1.00  0.00     0.027 C 
ENDBRANCH  10  19
ENDBRANCH   6   7
ENDBRANCH   1   5
BRANCH   2  21
HETATM   21  C   UNL     1      -4.997   4.519 -31.936  1.00  0.00     0.050 A 
HETATM   22  C   UNL     1      -4.017   5.430 -31.494  1.00  0.00     0.058 A 
HETATM   23  C   UNL     1      -4.355   6.793 -31.378  1.00  0.00     0.019 A 
HETATM   24  C   UNL     1      -5.621   7.256 -31.736  1.00  0.00     0.001 A 
HETATM   25  C   UNL     1      -6.563   6.366 -32.237  1.00  0.00     0.002 A 
HETATM   26  C   UNL     1      -6.249   5.010 -32.347  1.00  0.00     0.030 A 
BRANCH  22  27
HETATM   27  C   UNL     1      -2.574   5.118 -31.260  1.00  0.00     0.254 C 
HETATM   28  N   UNL     1      -1.880   5.998 -30.450  1.00  0.00    -0.352 N 
HETATM   29  H   UNL     1      -2.350   6.831 -30.121  1.00  0.00     0.163 HD
HETATM   30  O   UNL     1      -2.095   4.066 -31.676  1.00  0.00    -0.268 OA
BRANCH  28  31
HETATM   31  C   UNL     1      -0.514   5.788 -30.099  1.00  0.00     0.084 A 
HETATM   32  C   UNL     1       0.587   6.336 -30.964  1.00  0.00     0.027 A 
HETATM   33  C   UNL     1       0.342   6.921 -29.604  1.00  0.00     0.027 A 
ENDBRANCH  28  31
ENDBRANCH  22  27
ENDBRANCH   2  21
TORSDOF 9
ENDMDL
MODEL 2
REMARK VINA RESULT:      -7.8      3.721      7.905
REMARK  9 active torsions:
REMARK  status: ('A' for Active; 'I' for Inactive)
REMARK    1  A    between atoms: C_2  and  N_3 
REMARK    2  A    between atoms: C_6  and  C_7 
REMARK    3  A    between atoms: C_7  and  O_8 
REMARK    4  A    between atoms: O_8  and  C_9 
REMARK    5  A    between atoms: C_12  and  C_13 
REMARK    6  A    between atoms: C_14  and  C_15 
REMARK       I    between atoms: C_15  and  N_16 
REMARK    7  A    between atoms: N_16  and  C_17 
REMARK    8  A    between atoms: C_18  and  C_19 
REMARK       I    between atoms: C_19  and  N_20 
REMARK    9  A    between atoms: N_20  and  C_21 
ROOT
HETATM    1  C   UNL     1      -7.735  -0.556 -34.075  1.00  0.00     0.245 C 
HETATM    2  N   UNL     1      -6.883  -1.173 -34.977  1.00  0.00    -0.323 N 
HETATM    3  O   UNL     1      -7.997  -0.941 -32.946  1.00  0.00    -0.268 OA
HETATM    4  H   UNL     1      -6.495  -0.551 -35.677  1.00  0.00     0.169 HD
ENDROOT
BRANCH   1   5
HETATM    5  C   UNL     1      -8.217   0.751 -34.590  1.00  0.00     0.075 C 
HETATM    6  C   UNL     1      -9.170   1.391 -33.896  1.00  0.00     0.020 C 
BRANCH   6   7
HETATM    7  C   UNL     1      -9.756   2.652 -34.233  1.00  0.00     0.005 A 
HETATM    8  C   UNL     1     -11.117   2.865 -34.635  1.00  0.00     0.073 A 
HETATM    9  C   UNL     1     -11.268   4.245 -34.780  1.00  0.00     0.025 A 
HETATM   10  N   UNL     1     -10.072   4.848 -34.445  1.00  0.00    -0.353 N 
HETATM   11  C   UNL     1     -12.494   4.998 -35.192  1.00  0.00     0.069 C 
HETATM   12  C   UNL     1      -9.125   3.883 -34.145  1.00  0.00     0.019 A 
HETATM   13  C   UNL     1      -7.734   4.245 -33.740  1.00  0.00     0.069 C 
BRANCH   8  14
HETATM   14  C   UNL     1     -12.193   1.886 -34.860  1.00  0.00     0.296 C 
HETATM   15  O   UNL     1     -12.604   1.575 -35.973  1.00  0.00    -0.259 OA
BRANCH  14  16
HETATM   16  O   UNL     1     -12.694   1.370 -33.703  1.00  0.00    -0.318 OA
BRANCH  16  17
HETATM   17  C   UNL     1     -14.067   1.660 -33.411  1.00  0.00     0.174 C 
HETATM   18  C   UNL     1     -14.159   2.783 -32.394  1.00  0.00     0.034 C 
ENDBRANCH  16  17
ENDBRANCH  14  16
ENDBRANCH   8  14
BRANCH  10  19
HETATM   19  C   UNL     1      -9.857   6.289 -34.347  1.00  0.00     0.124 C 
HETATM   20  C   UNL     1     -10.208   6.842 -32.977  1.00  0.00     0.027 C 
ENDBRANCH  10  19
ENDBRANCH   6   7
ENDBRANCH   1   5
BRANCH   2  21
HETATM   21  C   UNL     1      -6.064  -2.273 -34.607  1.00  0.00     0.050 A 
HETATM   22  C   UNL     1      -4.885  -2.201 -33.839  1.00  0.00     0.058 A 
HETATM   23  C   UNL     1      -4.101  -3.362 -33.681  1.00  0.00     0.019 A 
HETATM   24  C   UNL     1      -4.497  -4.580 -34.232  1.00  0.00     0.001 A 
HETATM   25  C   UNL     1      -5.694  -4.663 -34.931  1.00  0.00     0.002 A 
HETATM   26  C   UNL     1      -6.477  -3.521 -35.107  1.00  0.00     0.030 A 
BRANCH  22  27
HETATM   27  C   UNL     1      -4.435  -1.025 -33.033  1.00  0.00     0.254 C 
HETATM   28  N   UNL     1      -5.136  -0.776 -31.868  1.00  0.00    -0.352 N 
HETATM   29  H   UNL     1      -5.947  -1.342 -31.656  1.00  0.00     0.163 HD
HETATM   30  O   UNL     1      -3.420  -0.411 -33.352  1.00  0.00    -0.268 OA
BRANCH  28  31
HETATM   31  C   UNL     1      -4.776   0.280 -30.978  1.00  0.00     0.084 A 
HETATM   32  C   UNL     1      -5.508   1.592 -31.017  1.00  0.00     0.027 A 
HETATM   33  C   UNL     1      -5.677   0.676 -29.841  1.00  0.00     0.027 A 
ENDBRANCH  28  31
ENDBRANCH  22  27
ENDBRANCH   2  21
TORSDOF 9
ENDMDL
MODEL 3
REMARK VINA RESULT:      -7.7      2.068      8.604
REMARK  9 active torsions:
REMARK  status: ('A' for Active; 'I' for Inactive)
REMARK    1  A    between atoms: C_2  and  N_3 
REMARK    2  A    between atoms: C_6  and  C_7 
REMARK    3  A    between atoms: C_7  and  O_8 
REMARK    4  A    between atoms: O_8  and  C_9 
REMARK    5  A    between atoms: C_12  and  C_13 
REMARK    6  A    between atoms: C_14  and  C_15 
REMARK       I    between atoms: C_15  and  N_16 
REMARK    7  A    between atoms: N_16  and  C_17 
REMARK    8  A    between atoms: C_18  and  C_19 
REMARK       I    between atoms: C_19  and  N_20 
REMARK    9  A    between atoms: N_20  and  C_21 
ROOT
HETATM    1  C   UNL     1      -3.516  -0.240 -32.776  1.00  0.00     0.245 C 
HETATM    2  N   UNL     1      -4.646  -1.012 -32.556  1.00  0.00    -0.323 N 
HETATM    3  O   UNL     1      -2.683  -0.409 -33.654  1.00  0.00    -0.268 OA
HETATM    4  H   UNL     1      -5.391  -0.529 -32.067  1.00  0.00     0.169 HD
ENDROOT
BRANCH   1   5
HETATM    5  C   UNL     1      -3.485   0.946 -31.883  1.00  0.00     0.075 C 
HETATM    6  C   UNL     1      -4.081   2.071 -32.304  1.00  0.00     0.020 C 
BRANCH   6   7
HETATM    7  C   UNL     1      -4.153   3.307 -31.587  1.00  0.00     0.005 A 
HETATM    8  C   UNL     1      -3.214   4.387 -31.678  1.00  0.00     0.073 A 
HETATM    9  C   UNL     1      -3.721   5.412 -30.878  1.00  0.00     0.025 A 
HETATM   10  N   UNL     1      -4.930   4.995 -30.357  1.00  0.00    -0.353 N 
HETATM   11  C   UNL     1      -3.122   6.759 -30.619  1.00  0.00     0.069 C 
HETATM   12  C   UNL     1      -5.190   3.694 -30.751  1.00  0.00     0.019 A 
HETATM   13  C   UNL     1      -6.436   2.981 -30.341  1.00  0.00     0.069 C 
BRANCH   8  14
HETATM   14  C   UNL     1      -1.958   4.476 -32.440  1.00  0.00     0.296 C 
HETATM   15  O   UNL     1      -0.866   4.695 -31.925  1.00  0.00    -0.259 OA
BRANCH  14  16
HETATM   16  O   UNL     1      -2.135   4.304 -33.780  1.00  0.00    -0.318 OA
BRANCH  16  17
HETATM   17  C   UNL     1      -2.509   5.464 -34.534  1.00  0.00     0.174 C 
HETATM   18  C   UNL     1      -3.840   5.231 -35.224  1.00  0.00     0.034 C 
ENDBRANCH  16  17
ENDBRANCH  14  16
ENDBRANCH   8  14
BRANCH  10  19
HETATM   19  C   UNL     1      -5.836   5.827 -29.571  1.00  0.00     0.124 C 
HETATM   20  C   UNL     1      -6.789   6.635 -30.435  1.00  0.00     0.027 C 
ENDBRANCH  10  19
ENDBRANCH   6   7
ENDBRANCH   1   5
BRANCH   2  21
HETATM   21  C   UNL     1      -5.058  -2.020 -33.468  1.00  0.00     0.050 A 
HETATM   22  C   UNL     1      -6.231  -1.997 -34.247  1.00  0.00     0.058 A 
HETATM   23  C   UNL     1      -6.577  -3.141 -34.994  1.00  0.00     0.019 A 
HETATM   24  C   UNL     1      -5.757  -4.269 -35.009  1.00  0.00     0.001 A 
HETATM   25  C   UNL     1      -4.566  -4.262 -34.294  1.00  0.00     0.002 A 
HETATM   26  C   UNL     1      -4.213  -3.142 -33.539  1.00  0.00     0.030 A 
BRANCH  22  27
HETATM   27  C   UNL     1      -7.103  -0.806 -34.483  1.00  0.00     0.254 C 
HETATM   28  N   UNL     1      -8.108  -0.588 -33.558  1.00  0.00    -0.352 N 
HETATM   29  H   UNL     1      -8.250  -1.269 -32.824  1.00  0.00     0.163 HD
HETATM   30  O   UNL     1      -6.837  -0.016 -35.385  1.00  0.00    -0.268 OA
BRANCH  28  31
HETATM   31  C   UNL     1      -8.974   0.543 -33.634  1.00  0.00     0.084 A 
HETATM   32  C   UNL     1     -10.404   0.439 -33.181  1.00  0.00     0.027 A 
HETATM   33  C   UNL     1      -9.426   1.256 -32.389  1.00  0.00     0.027 A 
ENDBRANCH  28  31
ENDBRANCH  22  27
ENDBRANCH   2  21
TORSDOF 9
ENDMDL
MODEL 4
REMARK VINA RESULT:      -7.6      3.701      7.923
REMARK  9 active torsions:
REMARK  status: ('A' for Active; 'I' for Inactive)
REMARK    1  A    between atoms: C_2  and  N_3 
REMARK    2  A    between atoms: C_6  and  C_7 
REMARK    3  A    between atoms: C_7  and  O_8 
REMARK    4  A    between atoms: O_8  and  C_9 
REMARK    5  A    between atoms: C_12  and  C_13 
REMARK    6  A    between atoms: C_14  and  C_15 
REMARK       I    between atoms: C_15  and  N_16 
REMARK    7  A    between atoms: N_16  and  C_17 
REMARK    8  A    between atoms: C_18  and  C_19 
REMARK       I    between atoms: C_19  and  N_20 
REMARK    9  A    between atoms: N_20  and  C_21 
ROOT
HETATM    1  C   UNL     1      -7.701   0.223 -34.911  1.00  0.00     0.245 C 
HETATM    2  N   UNL     1      -7.728  -0.850 -34.035  1.00  0.00    -0.323 N 
HETATM    3  O   UNL     1      -6.813   0.485 -35.709  1.00  0.00    -0.268 OA
HETATM    4  H   UNL     1      -8.658  -1.125 -33.742  1.00  0.00     0.169 HD
ENDROOT
BRANCH   1   5
HETATM    5  C   UNL     1      -8.974   0.985 -34.877  1.00  0.00     0.075 C 
HETATM    6  C   UNL     1      -9.744   0.882 -33.784  1.00  0.00     0.020 C 
BRANCH   6   7
HETATM    7  C   UNL     1     -10.998   1.538 -33.570  1.00  0.00     0.005 A 
HETATM    8  C   UNL     1     -11.204   2.956 -33.500  1.00  0.00     0.073 A 
HETATM    9  C   UNL     1     -12.580   3.143 -33.366  1.00  0.00     0.025 A 
HETATM   10  N   UNL     1     -13.189   1.905 -33.392  1.00  0.00    -0.353 N 
HETATM   11  C   UNL     1     -13.324   4.436 -33.243  1.00  0.00     0.069 C 
HETATM   12  C   UNL     1     -12.231   0.909 -33.479  1.00  0.00     0.019 A 
HETATM   13  C   UNL     1     -12.600  -0.537 -33.532  1.00  0.00     0.069 C 
BRANCH   8  14
HETATM   14  C   UNL     1     -10.220   4.050 -33.560  1.00  0.00     0.296 C 
HETATM   15  O   UNL     1      -9.806   4.532 -34.609  1.00  0.00    -0.259 OA
BRANCH  14  16
HETATM   16  O   UNL     1      -9.807   4.462 -32.328  1.00  0.00    -0.318 OA
BRANCH  16  17
HETATM   17  C   UNL     1      -8.649   3.815 -31.788  1.00  0.00     0.174 C 
HETATM   18  C   UNL     1      -9.012   3.074 -30.515  1.00  0.00     0.034 C 
ENDBRANCH  16  17
ENDBRANCH  14  16
ENDBRANCH   8  14
BRANCH  10  19
HETATM   19  C   UNL     1     -14.632   1.679 -33.406  1.00  0.00     0.124 C 
HETATM   20  C   UNL     1     -15.279   1.936 -32.056  1.00  0.00     0.027 C 
ENDBRANCH  10  19
ENDBRANCH   6   7
ENDBRANCH   1   5
BRANCH   2  21
HETATM   21  C   UNL     1      -6.766  -1.894 -34.094  1.00  0.00     0.050 A 
HETATM   22  C   UNL     1      -5.428  -1.808 -33.662  1.00  0.00     0.058 A 
HETATM   23  C   UNL     1      -4.556  -2.884 -33.924  1.00  0.00     0.019 A 
HETATM   24  C   UNL     1      -5.006  -4.041 -34.558  1.00  0.00     0.001 A 
HETATM   25  C   UNL     1      -6.343  -4.150 -34.921  1.00  0.00     0.002 A 
HETATM   26  C   UNL     1      -7.218  -3.090 -34.681  1.00  0.00     0.030 A 
BRANCH  22  27
HETATM   27  C   UNL     1      -4.852  -0.725 -32.808  1.00  0.00     0.254 C 
HETATM   28  N   UNL     1      -5.449  -0.533 -31.575  1.00  0.00    -0.352 N 
HETATM   29  H   UNL     1      -6.273  -1.071 -31.345  1.00  0.00     0.163 HD
HETATM   30  O   UNL     1      -3.828  -0.142 -33.158  1.00  0.00    -0.268 OA
BRANCH  28  31
HETATM   31  C   UNL     1      -4.962   0.428 -30.640  1.00  0.00     0.084 A 
HETATM   32  C   UNL     1      -5.384   1.867 -30.737  1.00  0.00     0.027 A 
HETATM   33  C   UNL     1      -5.868   1.020 -29.596  1.00  0.00     0.027 A 
ENDBRANCH  28  31
ENDBRANCH  22  27
ENDBRANCH   2  21
TORSDOF 9
ENDMDL
MODEL 5
REMARK VINA RESULT:      -7.6      3.278      8.107
REMARK  9 active torsions:
REMARK  status: ('A' for Active; 'I' for Inactive)
REMARK    1  A    between atoms: C_2  and  N_3 
REMARK    2  A    between atoms: C_6  and  C_7 
REMARK    3  A    between atoms: C_7  and  O_8 
REMARK    4  A    between atoms: O_8  and  C_9 
REMARK    5  A    between atoms: C_12  and  C_13 
REMARK    6  A    between atoms: C_14  and  C_15 
REMARK       I    between atoms: C_15  and  N_16 
REMARK    7  A    between atoms: N_16  and  C_17 
REMARK    8  A    between atoms: C_18  and  C_19 
REMARK       I    between atoms: C_19  and  N_20 
REMARK    9  A    between atoms: N_20  and  C_21 
ROOT
HETATM    1  C   UNL     1      -7.769  -0.555 -33.992  1.00  0.00     0.245 C 
HETATM    2  N   UNL     1      -6.939  -1.160 -34.923  1.00  0.00    -0.323 N 
HETATM    3  O   UNL     1      -8.004  -0.957 -32.862  1.00  0.00    -0.268 OA
HETATM    4  H   UNL     1      -6.567  -0.527 -35.621  1.00  0.00     0.169 HD
ENDROOT
BRANCH   1   5
HETATM    5  C   UNL     1      -8.261   0.760 -34.475  1.00  0.00     0.075 C 
HETATM    6  C   UNL     1      -9.204   1.385 -33.756  1.00  0.00     0.020 C 
BRANCH   6   7
HETATM    7  C   UNL     1      -9.797   2.651 -34.061  1.00  0.00     0.005 A 
HETATM    8  C   UNL     1      -9.177   3.933 -33.888  1.00  0.00     0.073 A 
HETATM    9  C   UNL     1     -10.079   4.873 -34.389  1.00  0.00     0.025 A 
HETATM   10  N   UNL     1     -11.178   4.197 -34.880  1.00  0.00    -0.353 N 
HETATM   11  C   UNL     1      -9.924   6.360 -34.441  1.00  0.00     0.069 C 
HETATM   12  C   UNL     1     -11.037   2.838 -34.652  1.00  0.00     0.019 A 
HETATM   13  C   UNL     1     -12.076   1.855 -35.084  1.00  0.00     0.069 C 
BRANCH   8  14
HETATM   14  C   UNL     1      -7.862   4.269 -33.318  1.00  0.00     0.296 C 
HETATM   15  O   UNL     1      -7.607   4.207 -32.119  1.00  0.00    -0.259 OA
BRANCH  14  16
HETATM   16  O   UNL     1      -6.960   4.670 -34.258  1.00  0.00    -0.318 OA
BRANCH  16  17
HETATM   17  C   UNL     1      -5.683   4.021 -34.242  1.00  0.00     0.174 C 
HETATM   18  C   UNL     1      -4.573   5.053 -34.325  1.00  0.00     0.034 C 
ENDBRANCH  16  17
ENDBRANCH  14  16
ENDBRANCH   8  14
BRANCH  10  19
HETATM   19  C   UNL     1     -12.288   4.812 -35.602  1.00  0.00     0.124 C 
HETATM   20  C   UNL     1     -13.333   5.408 -34.675  1.00  0.00     0.027 C 
ENDBRANCH  10  19
ENDBRANCH   6   7
ENDBRANCH   1   5
BRANCH   2  21
HETATM   21  C   UNL     1      -6.113  -2.266 -34.589  1.00  0.00     0.050 A 
HETATM   22  C   UNL     1      -4.913  -2.207 -33.854  1.00  0.00     0.058 A 
HETATM   23  C   UNL     1      -4.129  -3.372 -33.732  1.00  0.00     0.019 A 
HETATM   24  C   UNL     1      -4.544  -4.583 -34.284  1.00  0.00     0.001 A 
HETATM   25  C   UNL     1      -5.762  -4.653 -34.949  1.00  0.00     0.002 A 
HETATM   26  C   UNL     1      -6.545  -3.507 -35.090  1.00  0.00     0.030 A 
BRANCH  22  27
HETATM   27  C   UNL     1      -4.436  -1.041 -33.049  1.00  0.00     0.254 C 
HETATM   28  N   UNL     1      -5.104  -0.801 -31.861  1.00  0.00    -0.352 N 
HETATM   29  H   UNL     1      -5.910  -1.367 -31.634  1.00  0.00     0.163 HD
HETATM   30  O   UNL     1      -3.427  -0.428 -33.388  1.00  0.00    -0.268 OA
BRANCH  28  31
HETATM   31  C   UNL     1      -4.714   0.243 -30.971  1.00  0.00     0.084 A 
HETATM   32  C   UNL     1      -5.289   1.624 -31.120  1.00  0.00     0.027 A 
HETATM   33  C   UNL     1      -5.670   0.779 -29.941  1.00  0.00     0.027 A 
ENDBRANCH  28  31
ENDBRANCH  22  27
ENDBRANCH   2  21
TORSDOF 9
ENDMDL
MODEL 6
REMARK VINA RESULT:      -7.4      1.898      8.807
REMARK  9 active torsions:
REMARK  status: ('A' for Active; 'I' for Inactive)
REMARK    1  A    between atoms: C_2  and  N_3 
REMARK    2  A    between atoms: C_6  and  C_7 
REMARK    3  A    between atoms: C_7  and  O_8 
REMARK    4  A    between atoms: O_8  and  C_9 
REMARK    5  A    between atoms: C_12  and  C_13 
REMARK    6  A    between atoms: C_14  and  C_15 
REMARK       I    between atoms: C_15  and  N_16 
REMARK    7  A    between atoms: N_16  and  C_17 
REMARK    8  A    between atoms: C_18  and  C_19 
REMARK       I    between atoms: C_19  and  N_20 
REMARK    9  A    between atoms: N_20  and  C_21 
ROOT
HETATM    1  C   UNL     1      -5.958   1.033 -31.551  1.00  0.00     0.245 C 
HETATM    2  N   UNL     1      -5.221   0.786 -32.698  1.00  0.00    -0.323 N 
HETATM    3  O   UNL     1      -6.828   0.314 -31.081  1.00  0.00    -0.268 OA
HETATM    4  H   UNL     1      -4.325   1.257 -32.726  1.00  0.00     0.169 HD
ENDROOT
BRANCH   1   5
HETATM    5  C   UNL     1      -5.474   2.244 -30.843  1.00  0.00     0.075 C 
HETATM    6  C   UNL     1      -5.139   3.315 -31.579  1.00  0.00     0.020 C 
BRANCH   6   7
HETATM    7  C   UNL     1      -4.655   4.565 -31.078  1.00  0.00     0.005 A 
HETATM    8  C   UNL     1      -3.317   5.063 -31.214  1.00  0.00     0.073 A 
HETATM    9  C   UNL     1      -3.319   6.342 -30.655  1.00  0.00     0.025 A 
HETATM   10  N   UNL     1      -4.602   6.627 -30.235  1.00  0.00    -0.353 N 
HETATM   11  C   UNL     1      -2.171   7.295 -30.534  1.00  0.00     0.069 C 
HETATM   12  C   UNL     1      -5.424   5.534 -30.452  1.00  0.00     0.019 A 
HETATM   13  C   UNL     1      -6.875   5.557 -30.099  1.00  0.00     0.069 C 
BRANCH   8  14
HETATM   14  C   UNL     1      -2.134   4.423 -31.814  1.00  0.00     0.296 C 
HETATM   15  O   UNL     1      -1.075   4.259 -31.216  1.00  0.00    -0.259 OA
BRANCH  14  16
HETATM   16  O   UNL     1      -2.333   4.044 -33.108  1.00  0.00    -0.318 OA
BRANCH  16  17
HETATM   17  C   UNL     1      -2.581   5.091 -34.054  1.00  0.00     0.174 C 
HETATM   18  C   UNL     1      -1.287   5.492 -34.738  1.00  0.00     0.034 C 
ENDBRANCH  16  17
ENDBRANCH  14  16
ENDBRANCH   8  14
BRANCH  10  19
HETATM   19  C   UNL     1      -5.047   7.916 -29.711  1.00  0.00     0.124 C 
HETATM   20  C   UNL     1      -5.459   8.884 -30.805  1.00  0.00     0.027 C 
ENDBRANCH  10  19
ENDBRANCH   6   7
ENDBRANCH   1   5
BRANCH   2  21
HETATM   21  C   UNL     1      -5.286  -0.457 -33.382  1.00  0.00     0.050 A 
HETATM   22  C   UNL     1      -6.353  -0.901 -34.188  1.00  0.00     0.058 A 
HETATM   23  C   UNL     1      -6.335  -2.222 -34.678  1.00  0.00     0.019 A 
HETATM   24  C   UNL     1      -5.262  -3.074 -34.418  1.00  0.00     0.001 A 
HETATM   25  C   UNL     1      -4.179  -2.611 -33.681  1.00  0.00     0.002 A 
HETATM   26  C   UNL     1      -4.186  -1.310 -33.177  1.00  0.00     0.030 A 
BRANCH  22  27
HETATM   27  C   UNL     1      -7.469  -0.053 -34.708  1.00  0.00     0.254 C 
HETATM   28  N   UNL     1      -8.546   0.132 -33.860  1.00  0.00    -0.352 N 
HETATM   29  H   UNL     1      -8.561  -0.361 -32.978  1.00  0.00     0.163 HD
HETATM   30  O   UNL     1      -7.350   0.532 -35.782  1.00  0.00    -0.268 OA
BRANCH  28  31
HETATM   31  C   UNL     1      -9.650   0.965 -34.210  1.00  0.00     0.084 A 
HETATM   32  C   UNL     1     -10.963   0.830 -33.490  1.00  0.00     0.027 A 
HETATM   33  C   UNL     1     -10.120   2.055 -33.287  1.00  0.00     0.027 A 
ENDBRANCH  28  31
ENDBRANCH  22  27
ENDBRANCH   2  21
TORSDOF 9
ENDMDL
MODEL 7
REMARK VINA RESULT:      -7.2      1.757      3.489
REMARK  9 active torsions:
REMARK  status: ('A' for Active; 'I' for Inactive)
REMARK    1  A    between atoms: C_2  and  N_3 
REMARK    2  A    between atoms: C_6  and  C_7 
REMARK    3  A    between atoms: C_7  and  O_8 
REMARK    4  A    between atoms: O_8  and  C_9 
REMARK    5  A    between atoms: C_12  and  C_13 
REMARK    6  A    between atoms: C_14  and  C_15 
REMARK       I    between atoms: C_15  and  N_16 
REMARK    7  A    between atoms: N_16  and  C_17 
REMARK    8  A    between atoms: C_18  and  C_19 
REMARK       I    between atoms: C_19  and  N_20 
REMARK    9  A    between atoms: N_20  and  C_21 
ROOT
HETATM    1  C   UNL     1      -3.405   3.132 -31.542  1.00  0.00     0.245 C 
HETATM    2  N   UNL     1      -2.269   3.733 -32.061  1.00  0.00    -0.323 N 
HETATM    3  O   UNL     1      -4.332   3.698 -30.982  1.00  0.00    -0.268 OA
HETATM    4  H   UNL     1      -1.817   3.203 -32.797  1.00  0.00     0.169 HD
ENDROOT
BRANCH   1   5
HETATM    5  C   UNL     1      -3.451   1.685 -31.867  1.00  0.00     0.075 C 
HETATM    6  C   UNL     1      -4.483   1.232 -32.594  1.00  0.00     0.020 C 
BRANCH   6   7
HETATM    7  C   UNL     1      -4.697  -0.123 -33.003  1.00  0.00     0.005 A 
HETATM    8  C   UNL     1      -5.779  -0.592 -33.820  1.00  0.00     0.073 A 
HETATM    9  C   UNL     1      -5.544  -1.951 -34.034  1.00  0.00     0.025 A 
HETATM   10  N   UNL     1      -4.357  -2.287 -33.413  1.00  0.00    -0.353 N 
HETATM   11  C   UNL     1      -6.378  -2.917 -34.815  1.00  0.00     0.069 C 
HETATM   12  C   UNL     1      -3.846  -1.186 -32.746  1.00  0.00     0.019 A 
HETATM   13  C   UNL     1      -2.561  -1.252 -31.987  1.00  0.00     0.069 C 
BRANCH   8  14
HETATM   14  C   UNL     1      -6.930   0.145 -34.367  1.00  0.00     0.296 C 
HETATM   15  O   UNL     1      -6.866   0.862 -35.361  1.00  0.00    -0.259 OA
BRANCH  14  16
HETATM   16  O   UNL     1      -8.071  -0.039 -33.646  1.00  0.00    -0.318 OA
BRANCH  16  17
HETATM   17  C   UNL     1      -8.178   0.684 -32.414  1.00  0.00     0.174 C 
HETATM   18  C   UNL     1      -9.627   1.042 -32.142  1.00  0.00     0.034 C 
ENDBRANCH  16  17
ENDBRANCH  14  16
ENDBRANCH   8  14
BRANCH  10  19
HETATM   19  C   UNL     1      -3.698  -3.586 -33.508  1.00  0.00     0.124 C 
HETATM   20  C   UNL     1      -3.312  -4.149 -32.152  1.00  0.00     0.027 C 
ENDBRANCH  10  19
ENDBRANCH   6   7
ENDBRANCH   1   5
BRANCH   2  21
HETATM   21  C   UNL     1      -2.136   5.145 -32.147  1.00  0.00     0.050 A 
HETATM   22  C   UNL     1      -2.854   5.989 -33.017  1.00  0.00     0.058 A 
HETATM   23  C   UNL     1      -2.503   7.353 -33.088  1.00  0.00     0.019 A 
HETATM   24  C   UNL     1      -1.495   7.882 -32.283  1.00  0.00     0.001 A 
HETATM   25  C   UNL     1      -0.836   7.061 -31.376  1.00  0.00     0.002 A 
HETATM   26  C   UNL     1      -1.163   5.706 -31.301  1.00  0.00     0.030 A 
BRANCH  22  27
HETATM   27  C   UNL     1      -4.074   5.613 -33.793  1.00  0.00     0.254 C 
HETATM   28  N   UNL     1      -5.267   5.597 -33.092  1.00  0.00    -0.352 N 
HETATM   29  H   UNL     1      -5.247   5.765 -32.095  1.00  0.00     0.163 HD
HETATM   30  O   UNL     1      -4.007   5.454 -35.009  1.00  0.00    -0.268 OA
BRANCH  28  31
HETATM   31  C   UNL     1      -6.513   5.311 -33.724  1.00  0.00     0.084 A 
HETATM   32  C   UNL     1      -7.070   3.915 -33.712  1.00  0.00     0.027 A 
HETATM   33  C   UNL     1      -7.738   4.994 -32.912  1.00  0.00     0.027 A 
ENDBRANCH  28  31
ENDBRANCH  22  27
ENDBRANCH   2  21
TORSDOF 9
ENDMDL
MODEL 8
REMARK VINA RESULT:      -7.2      2.234      3.675
REMARK  9 active torsions:
REMARK  status: ('A' for Active; 'I' for Inactive)
REMARK    1  A    between atoms: C_2  and  N_3 
REMARK    2  A    between atoms: C_6  and  C_7 
REMARK    3  A    between atoms: C_7  and  O_8 
REMARK    4  A    between atoms: O_8  and  C_9 
REMARK    5  A    between atoms: C_12  and  C_13 
REMARK    6  A    between atoms: C_14  and  C_15 
REMARK       I    between atoms: C_15  and  N_16 
REMARK    7  A    between atoms: N_16  and  C_17 
REMARK    8  A    between atoms: C_18  and  C_19 
REMARK       I    between atoms: C_19  and  N_20 
REMARK    9  A    between atoms: N_20  and  C_21 
ROOT
HETATM    1  C   UNL     1      -7.042   4.072 -33.433  1.00  0.00     0.245 C 
HETATM    2  N   UNL     1      -6.804   4.298 -32.087  1.00  0.00    -0.323 N 
HETATM    3  O   UNL     1      -7.612   4.829 -34.205  1.00  0.00    -0.268 OA
HETATM    4  H   UNL     1      -6.020   3.777 -31.710  1.00  0.00     0.169 HD
ENDROOT
BRANCH   1   5
HETATM    5  C   UNL     1      -6.392   2.821 -33.898  1.00  0.00     0.075 C 
HETATM    6  C   UNL     1      -6.381   1.768 -33.069  1.00  0.00     0.020 C 
BRANCH   6   7
HETATM    7  C   UNL     1      -5.805   0.486 -33.340  1.00  0.00     0.005 A 
HETATM    8  C   UNL     1      -4.789  -0.160 -32.560  1.00  0.00     0.073 A 
HETATM    9  C   UNL     1      -4.594  -1.415 -33.138  1.00  0.00     0.025 A 
HETATM   10  N   UNL     1      -5.475  -1.546 -34.193  1.00  0.00    -0.353 N 
HETATM   11  C   UNL     1      -3.637  -2.485 -32.714  1.00  0.00     0.069 C 
HETATM   12  C   UNL     1      -6.197  -0.376 -34.353  1.00  0.00     0.019 A 
HETATM   13  C   UNL     1      -7.235  -0.229 -35.417  1.00  0.00     0.069 C 
BRANCH   8  14
HETATM   14  C   UNL     1      -4.061   0.330 -31.378  1.00  0.00     0.296 C 
HETATM   15  O   UNL     1      -4.337   0.003 -30.228  1.00  0.00    -0.259 OA
BRANCH  14  16
HETATM   16  O   UNL     1      -3.056   1.195 -31.692  1.00  0.00    -0.318 OA
BRANCH  16  17
HETATM   17  C   UNL     1      -3.271   2.575 -31.371  1.00  0.00     0.174 C 
HETATM   18  C   UNL     1      -2.952   3.445 -32.572  1.00  0.00     0.034 C 
ENDBRANCH  16  17
ENDBRANCH  14  16
ENDBRANCH   8  14
BRANCH  10  19
HETATM   19  C   UNL     1      -5.672  -2.763 -34.976  1.00  0.00     0.124 C 
HETATM   20  C   UNL     1      -6.866  -3.576 -34.505  1.00  0.00     0.027 C 
ENDBRANCH  10  19
ENDBRANCH   6   7
ENDBRANCH   1   5
BRANCH   2  21
HETATM   21  C   UNL     1      -7.058   5.556 -31.478  1.00  0.00     0.050 A 
HETATM   22  C   UNL     1      -6.122   6.595 -31.309  1.00  0.00     0.058 A 
HETATM   23  C   UNL     1      -6.488   7.727 -30.552  1.00  0.00     0.019 A 
HETATM   24  C   UNL     1      -7.767   7.852 -30.012  1.00  0.00     0.001 A 
HETATM   25  C   UNL     1      -8.709   6.856 -30.238  1.00  0.00     0.002 A 
HETATM   26  C   UNL     1      -8.362   5.723 -30.976  1.00  0.00     0.030 A 
BRANCH  22  27
HETATM   27  C   UNL     1      -4.791   6.693 -31.982  1.00  0.00     0.254 C 
HETATM   28  N   UNL     1      -3.697   6.868 -31.154  1.00  0.00    -0.352 N 
HETATM   29  H   UNL     1      -3.851   6.992 -30.163  1.00  0.00     0.163 HD
HETATM   30  O   UNL     1      -4.696   6.499 -33.191  1.00  0.00    -0.268 OA
BRANCH  28  31
HETATM   31  C   UNL     1      -2.365   6.920 -31.662  1.00  0.00     0.084 A 
HETATM   32  C   UNL     1      -1.779   8.221 -32.133  1.00  0.00     0.027 A 
HETATM   33  C   UNL     1      -1.263   7.579 -30.879  1.00  0.00     0.027 A 
ENDBRANCH  28  31
ENDBRANCH  22  27
ENDBRANCH   2  21
TORSDOF 9
ENDMDL
MODEL 9
REMARK VINA RESULT:      -6.9      2.481      8.960
REMARK  9 active torsions:
REMARK  status: ('A' for Active; 'I' for Inactive)
REMARK    1  A    between atoms: C_2  and  N_3 
REMARK    2  A    between atoms: C_6  and  C_7 
REMARK    3  A    between atoms: C_7  and  O_8 
REMARK    4  A    between atoms: O_8  and  C_9 
REMARK    5  A    between atoms: C_12  and  C_13 
REMARK    6  A    between atoms: C_14  and  C_15 
REMARK       I    between atoms: C_15  and  N_16 
REMARK    7  A    between atoms: N_16  and  C_17 
REMARK    8  A    between atoms: C_18  and  C_19 
REMARK       I    between atoms: C_19  and  N_20 
REMARK    9  A    between atoms: N_20  and  C_21 
ROOT
HETATM    1  C   UNL     1      -6.217   2.773 -32.231  1.00  0.00     0.245 C 
HETATM    2  N   UNL     1      -6.221   2.235 -33.508  1.00  0.00    -0.323 N 
HETATM    3  O   UNL     1      -6.648   2.240 -31.219  1.00  0.00    -0.268 OA
HETATM    4  H   UNL     1      -5.512   2.618 -34.123  1.00  0.00     0.169 HD
ENDROOT
BRANCH   1   5
HETATM    5  C   UNL     1      -5.486   4.064 -32.186  1.00  0.00     0.075 C 
HETATM    6  C   UNL     1      -4.410   4.154 -31.391  1.00  0.00     0.020 C 
BRANCH   6   7
HETATM    7  C   UNL     1      -3.583   5.309 -31.217  1.00  0.00     0.005 A 
HETATM    8  C   UNL     1      -3.764   6.331 -30.227  1.00  0.00     0.073 A 
HETATM    9  C   UNL     1      -2.687   7.207 -30.371  1.00  0.00     0.025 A 
HETATM   10  N   UNL     1      -1.868   6.725 -31.372  1.00  0.00    -0.353 N 
HETATM   11  C   UNL     1      -2.402   8.450 -29.587  1.00  0.00     0.069 C 
HETATM   12  C   UNL     1      -2.423   5.583 -31.926  1.00  0.00     0.019 A 
HETATM   13  C   UNL     1      -1.750   4.837 -33.031  1.00  0.00     0.069 C 
BRANCH   8  14
HETATM   14  C   UNL     1      -4.831   6.487 -29.225  1.00  0.00     0.296 C 
HETATM   15  O   UNL     1      -4.665   6.300 -28.023  1.00  0.00    -0.259 OA
BRANCH  14  16
HETATM   16  O   UNL     1      -6.026   6.848 -29.771  1.00  0.00    -0.318 OA
BRANCH  16  17
HETATM   17  C   UNL     1      -7.201   6.526 -29.018  1.00  0.00     0.174 C 
HETATM   18  C   UNL     1      -7.731   5.166 -29.432  1.00  0.00     0.034 C 
ENDBRANCH  16  17
ENDBRANCH  14  16
ENDBRANCH   8  14
BRANCH  10  19
HETATM   19  C   UNL     1      -0.573   7.288 -31.741  1.00  0.00     0.124 C 
HETATM   20  C   UNL     1       0.574   6.697 -30.939  1.00  0.00     0.027 C 
ENDBRANCH  10  19
ENDBRANCH   6   7
ENDBRANCH   1   5
BRANCH   2  21
HETATM   21  C   UNL     1      -6.588   0.886 -33.755  1.00  0.00     0.050 A 
HETATM   22  C   UNL     1      -7.905   0.394 -33.853  1.00  0.00     0.058 A 
HETATM   23  C   UNL     1      -8.108  -0.997 -33.953  1.00  0.00     0.019 A 
HETATM   24  C   UNL     1      -7.032  -1.883 -34.004  1.00  0.00     0.001 A 
HETATM   25  C   UNL     1      -5.734  -1.389 -33.976  1.00  0.00     0.002 A 
HETATM   26  C   UNL     1      -5.514  -0.015 -33.865  1.00  0.00     0.030 A 
BRANCH  22  27
HETATM   27  C   UNL     1      -9.140   1.222 -34.006  1.00  0.00     0.254 C 
HETATM   28  N   UNL     1     -10.329   0.627 -33.624  1.00  0.00    -0.352 N 
HETATM   29  H   UNL     1     -10.317  -0.341 -33.334  1.00  0.00     0.163 HD
HETATM   30  O   UNL     1      -9.054   2.402 -34.337  1.00  0.00    -0.268 OA
BRANCH  28  31
HETATM   31  C   UNL     1     -11.572   1.325 -33.664  1.00  0.00     0.084 A 
HETATM   32  C   UNL     1     -12.387   1.355 -34.927  1.00  0.00     0.027 A 
HETATM   33  C   UNL     1     -12.876   0.580 -33.739  1.00  0.00     0.027 A 
ENDBRANCH  28  31
ENDBRANCH  22  27
ENDBRANCH   2  21
TORSDOF 9
ENDMDL
MODEL 10
REMARK VINA RESULT:      -6.9      2.959      5.099
REMARK  9 active torsions:
REMARK  status: ('A' for Active; 'I' for Inactive)
REMARK    1  A    between atoms: C_2  and  N_3 
REMARK    2  A    between atoms: C_6  and  C_7 
REMARK    3  A    between atoms: C_7  and  O_8 
REMARK    4  A    between atoms: O_8  and  C_9 
REMARK    5  A    between atoms: C_12  and  C_13 
REMARK    6  A    between atoms: C_14  and  C_15 
REMARK       I    between atoms: C_15  and  N_16 
REMARK    7  A    between atoms: N_16  and  C_17 
REMARK    8  A    between atoms: C_18  and  C_19 
REMARK       I    between atoms: C_19  and  N_20 
REMARK    9  A    between atoms: N_20  and  C_21 
ROOT
HETATM    1  C   UNL     1      -3.913   6.863 -30.533  1.00  0.00     0.245 C 
HETATM    2  N   UNL     1      -3.124   6.409 -29.489  1.00  0.00    -0.323 N 
HETATM    3  O   UNL     1      -3.716   7.863 -31.208  1.00  0.00    -0.268 OA
HETATM    4  H   UNL     1      -3.206   5.415 -29.308  1.00  0.00     0.169 HD
ENDROOT
BRANCH   1   5
HETATM    5  C   UNL     1      -4.999   5.902 -30.854  1.00  0.00     0.075 C 
HETATM    6  C   UNL     1      -4.657   4.707 -31.356  1.00  0.00     0.020 C 
BRANCH   6   7
HETATM    7  C   UNL     1      -5.558   3.657 -31.724  1.00  0.00     0.005 A 
HETATM    8  C   UNL     1      -6.319   3.590 -32.938  1.00  0.00     0.073 A 
HETATM    9  C   UNL     1      -6.987   2.365 -32.911  1.00  0.00     0.025 A 
HETATM   10  N   UNL     1      -6.621   1.699 -31.759  1.00  0.00    -0.353 N 
HETATM   11  C   UNL     1      -7.922   1.805 -33.937  1.00  0.00     0.069 C 
HETATM   12  C   UNL     1      -5.775   2.493 -31.003  1.00  0.00     0.019 A 
HETATM   13  C   UNL     1      -5.212   2.027 -29.701  1.00  0.00     0.069 C 
BRANCH   8  14
HETATM   14  C   UNL     1      -6.421   4.566 -34.036  1.00  0.00     0.296 C 
HETATM   15  O   UNL     1      -5.491   4.840 -34.788  1.00  0.00    -0.259 OA
BRANCH  14  16
HETATM   16  O   UNL     1      -7.652   5.144 -34.121  1.00  0.00    -0.318 OA
BRANCH  16  17
HETATM   17  C   UNL     1      -8.050   5.975 -33.024  1.00  0.00     0.174 C 
HETATM   18  C   UNL     1      -9.369   5.488 -32.453  1.00  0.00     0.034 C 
ENDBRANCH  16  17
ENDBRANCH  14  16
ENDBRANCH   8  14
BRANCH  10  19
HETATM   19  C   UNL     1      -7.004   0.331 -31.423  1.00  0.00     0.124 C 
HETATM   20  C   UNL     1      -6.048  -0.703 -31.991  1.00  0.00     0.027 C 
ENDBRANCH  10  19
ENDBRANCH   6   7
ENDBRANCH   1   5
BRANCH   2  21
HETATM   21  C   UNL     1      -1.862   6.988 -29.191  1.00  0.00     0.050 A 
HETATM   22  C   UNL     1      -0.620   6.572 -29.709  1.00  0.00     0.058 A 
HETATM   23  C   UNL     1       0.560   7.152 -29.203  1.00  0.00     0.019 A 
HETATM   24  C   UNL     1       0.514   8.157 -28.237  1.00  0.00     0.001 A 
HETATM   25  C   UNL     1      -0.715   8.613 -27.778  1.00  0.00     0.002 A 
HETATM   26  C   UNL     1      -1.894   8.042 -28.260  1.00  0.00     0.030 A 
BRANCH  22  27
HETATM   27  C   UNL     1      -0.421   5.653 -30.871  1.00  0.00     0.254 C 
HETATM   28  N   UNL     1      -1.095   5.979 -32.034  1.00  0.00    -0.352 N 
HETATM   29  H   UNL     1      -1.732   6.764 -32.023  1.00  0.00     0.163 HD
HETATM   30  O   UNL     1       0.399   4.740 -30.803  1.00  0.00    -0.268 OA
BRANCH  28  31
HETATM   31  C   UNL     1      -0.947   5.220 -33.233  1.00  0.00     0.084 A 
HETATM   32  C   UNL     1      -2.158   4.742 -33.985  1.00  0.00     0.027 A 
HETATM   33  C   UNL     1      -1.288   5.814 -34.572  1.00  0.00     0.027 A 
ENDBRANCH  28  31
ENDBRANCH  22  27
ENDBRANCH   2  21
TORSDOF 9
ENDMDL
