MODEL 1
REMARK VINA RESULT:      -8.6      0.000      0.000
REMARK  6 active torsions:
REMARK  status: ('A' for Active; 'I' for Inactive)
REMARK    1  A    between atoms: C_2  and  C_3 
REMARK    2  A    between atoms: C_6  and  C_7 
REMARK    3  A    between atoms: C_11  and  C_12 
REMARK       I    between atoms: C_12  and  N_13 
REMARK    4  A    between atoms: N_13  and  N_14 
REMARK    5  A    between atoms: C_15  and  C_16 
REMARK    6  A    between atoms: C_17  and  O_18 
ROOT
HETATM    1  C   UNL     1      -2.562   4.016 -32.354  1.00  0.00     0.289 C 
HETATM    2  N   UNL     1      -3.352   3.021 -31.798  1.00  0.00    -0.241 N 
HETATM    3  O   UNL     1      -2.261   4.063 -33.544  1.00  0.00    -0.264 OA
HETATM    4  H   UNL     1      -3.551   3.026 -30.809  1.00  0.00     0.192 HD
ENDROOT
BRANCH   1   5
HETATM    5  C   UNL     1      -2.090   5.004 -31.417  1.00  0.00     0.121 A 
HETATM    6  N   UNL     1      -2.722   6.206 -31.271  1.00  0.00    -0.272 N 
HETATM    7  N   UNL     1      -2.153   7.022 -30.372  1.00  0.00    -0.174 NA
HETATM    8  H   UNL     1      -3.548   6.524 -31.772  1.00  0.00     0.189 HD
HETATM    9  C   UNL     1      -1.122   6.319 -29.877  1.00  0.00     0.089 A 
HETATM   10  C   UNL     1      -1.042   5.050 -30.518  1.00  0.00     0.071 A 
BRANCH   9  11
HETATM   11  C   UNL     1      -0.248   6.858 -28.830  1.00  0.00    -0.006 A 
HETATM   12  C   UNL     1       0.655   7.895 -29.102  1.00  0.00     0.014 A 
HETATM   13  C   UNL     1       1.484   8.406 -28.097  1.00  0.00     0.008 A 
HETATM   14  C   UNL     1       1.430   7.888 -26.799  1.00  0.00    -0.059 A 
HETATM   15  C   UNL     1       0.528   6.855 -26.521  1.00  0.00     0.008 A 
HETATM   16  C   UNL     1      -0.298   6.343 -27.527  1.00  0.00     0.014 A 
BRANCH  14  17
HETATM   17  C   UNL     1       2.311   8.451 -25.713  1.00  0.00     0.034 C 
HETATM   18  C   UNL     1       1.531   9.332 -24.751  1.00  0.00     0.010 C 
ENDBRANCH  14  17
ENDBRANCH   9  11
ENDBRANCH   1   5
BRANCH   2  19
HETATM   19  N   UNL     1      -3.910   2.072 -32.599  1.00  0.00    -0.176 NA
HETATM   20  C   UNL     1      -3.898   0.823 -32.228  1.00  0.00     0.064 C 
HETATM   21  C   UNL     1      -3.221   0.330 -30.964  1.00  0.00     0.073 C 
BRANCH  20  22
HETATM   22  C   UNL     1      -4.591  -0.172 -33.115  1.00  0.00     0.023 A 
HETATM   23  C   UNL     1      -5.812   0.148 -33.732  1.00  0.00     0.077 A 
HETATM   24  C   UNL     1      -6.452  -0.768 -34.567  1.00  0.00     0.037 A 
HETATM   25  C   UNL     1      -5.891  -2.023 -34.785  1.00  0.00     0.003 A 
HETATM   26  C   UNL     1      -4.692  -2.365 -34.164  1.00  0.00     0.001 A 
HETATM   27  C   UNL     1      -4.047  -1.448 -33.328  1.00  0.00     0.016 A 
BRANCH  23  28
HETATM   28  O   UNL     1      -6.453   1.348 -33.571  1.00  0.00    -0.360 OA
HETATM   29  H   UNL     1      -7.071   1.474 -34.327  1.00  0.00     0.217 HD
ENDBRANCH  23  28
ENDBRANCH  20  22
ENDBRANCH   2  19
TORSDOF 6
ENDMDL
MODEL 2
REMARK VINA RESULT:      -8.4      1.375      1.898
REMARK  6 active torsions:
REMARK  status: ('A' for Active; 'I' for Inactive)
REMARK    1  A    between atoms: C_2  and  C_3 
REMARK    2  A    between atoms: C_6  and  C_7 
REMARK    3  A    between atoms: C_11  and  C_12 
REMARK       I    between atoms: C_12  and  N_13 
REMARK    4  A    between atoms: N_13  and  N_14 
REMARK    5  A    between atoms: C_15  and  C_16 
REMARK    6  A    between atoms: C_17  and  O_18 
ROOT
HETATM    1  C   UNL     1      -4.572   3.483 -32.818  1.00  0.00     0.289 C 
HETATM    2  N   UNL     1      -4.252   2.191 -32.430  1.00  0.00    -0.241 N 
HETATM    3  O   UNL     1      -5.302   3.749 -33.770  1.00  0.00    -0.264 OA
HETATM    4  H   UNL     1      -3.632   2.036 -31.649  1.00  0.00     0.192 HD
ENDROOT
BRANCH   1   5
HETATM    5  C   UNL     1      -3.962   4.520 -32.025  1.00  0.00     0.121 A 
HETATM    6  N   UNL     1      -4.671   5.615 -31.618  1.00  0.00    -0.272 N 
HETATM    7  N   UNL     1      -3.959   6.496 -30.900  1.00  0.00    -0.174 NA
HETATM    8  H   UNL     1      -5.648   5.814 -31.814  1.00  0.00     0.189 HD
HETATM    9  C   UNL     1      -2.740   5.947 -30.796  1.00  0.00     0.089 A 
HETATM   10  C   UNL     1      -2.698   4.709 -31.501  1.00  0.00     0.071 A 
BRANCH   9  11
HETATM   11  C   UNL     1      -1.657   6.597 -30.050  1.00  0.00    -0.006 A 
HETATM   12  C   UNL     1      -0.338   6.583 -30.525  1.00  0.00     0.014 A 
HETATM   13  C   UNL     1       0.688   7.208 -29.809  1.00  0.00     0.008 A 
HETATM   14  C   UNL     1       0.418   7.858 -28.600  1.00  0.00    -0.059 A 
HETATM   15  C   UNL     1      -0.897   7.878 -28.123  1.00  0.00     0.008 A 
HETATM   16  C   UNL     1      -1.921   7.250 -28.838  1.00  0.00     0.014 A 
BRANCH  14  17
HETATM   17  C   UNL     1       1.522   8.546 -27.839  1.00  0.00     0.034 C 
HETATM   18  C   UNL     1       1.737   7.924 -26.468  1.00  0.00     0.010 C 
ENDBRANCH  14  17
ENDBRANCH   9  11
ENDBRANCH   1   5
BRANCH   2  19
HETATM   19  N   UNL     1      -4.823   1.132 -33.065  1.00  0.00    -0.176 NA
HETATM   20  C   UNL     1      -4.385  -0.074 -32.834  1.00  0.00     0.064 C 
HETATM   21  C   UNL     1      -3.202  -0.380 -31.937  1.00  0.00     0.073 C 
BRANCH  20  22
HETATM   22  C   UNL     1      -5.099  -1.212 -33.506  1.00  0.00     0.023 A 
HETATM   23  C   UNL     1      -6.502  -1.223 -33.598  1.00  0.00     0.077 A 
HETATM   24  C   UNL     1      -7.167  -2.272 -34.233  1.00  0.00     0.037 A 
HETATM   25  C   UNL     1      -6.444  -3.333 -34.772  1.00  0.00     0.003 A 
HETATM   26  C   UNL     1      -5.055  -3.349 -34.671  1.00  0.00     0.001 A 
HETATM   27  C   UNL     1      -4.384  -2.298 -34.036  1.00  0.00     0.016 A 
BRANCH  23  28
HETATM   28  O   UNL     1      -7.304  -0.237 -33.089  1.00  0.00    -0.360 OA
HETATM   29  H   UNL     1      -8.162  -0.640 -32.824  1.00  0.00     0.217 HD
ENDBRANCH  23  28
ENDBRANCH  20  22
ENDBRANCH   2  19
TORSDOF 6
ENDMDL
MODEL 3
REMARK VINA RESULT:      -8.4      1.936     10.442
REMARK  6 active torsions:
REMARK  status: ('A' for Active; 'I' for Inactive)
REMARK    1  A    between atoms: C_2  and  C_3 
REMARK    2  A    between atoms: C_6  and  C_7 
REMARK    3  A    between atoms: C_11  and  C_12 
REMARK       I    between atoms: C_12  and  N_13 
REMARK    4  A    between atoms: N_13  and  N_14 
REMARK    5  A    between atoms: C_15  and  C_16 
REMARK    6  A    between atoms: C_17  and  O_18 
ROOT
HETATM    1  C   UNL     1      -2.192   4.650 -31.399  1.00  0.00     0.289 C 
HETATM    2  N   UNL     1      -2.596   5.629 -30.504  1.00  0.00    -0.241 N 
HETATM    3  O   UNL     1      -1.038   4.526 -31.800  1.00  0.00    -0.264 OA
HETATM    4  H   UNL     1      -3.564   5.691 -30.224  1.00  0.00     0.192 HD
ENDROOT
BRANCH   1   5
HETATM    5  C   UNL     1      -3.246   3.778 -31.855  1.00  0.00     0.121 A 
HETATM    6  N   UNL     1      -4.537   4.213 -31.956  1.00  0.00    -0.272 N 
HETATM    7  N   UNL     1      -5.401   3.280 -32.380  1.00  0.00    -0.174 NA
HETATM    8  H   UNL     1      -4.883   5.143 -31.737  1.00  0.00     0.189 HD
HETATM    9  C   UNL     1      -4.648   2.192 -32.603  1.00  0.00     0.089 A 
HETATM   10  C   UNL     1      -3.288   2.462 -32.272  1.00  0.00     0.071 A 
BRANCH   9  11
HETATM   11  C   UNL     1      -5.222   0.942 -33.109  1.00  0.00    -0.006 A 
HETATM   12  C   UNL     1      -6.485   0.917 -33.717  1.00  0.00     0.014 A 
HETATM   13  C   UNL     1      -7.025  -0.280 -34.200  1.00  0.00     0.008 A 
HETATM   14  C   UNL     1      -6.315  -1.480 -34.082  1.00  0.00    -0.059 A 
HETATM   15  C   UNL     1      -5.052  -1.460 -33.478  1.00  0.00     0.008 A 
HETATM   16  C   UNL     1      -4.516  -0.264 -32.993  1.00  0.00     0.014 A 
BRANCH  14  17
HETATM   17  C   UNL     1      -6.890  -2.765 -34.618  1.00  0.00     0.034 C 
HETATM   18  C   UNL     1      -5.802  -3.754 -35.005  1.00  0.00     0.010 C 
ENDBRANCH  14  17
ENDBRANCH   9  11
ENDBRANCH   1   5
BRANCH   2  19
HETATM   19  N   UNL     1      -1.674   6.467 -29.955  1.00  0.00    -0.176 NA
HETATM   20  C   UNL     1      -1.987   7.176 -28.907  1.00  0.00     0.064 C 
HETATM   21  C   UNL     1      -3.369   7.187 -28.284  1.00  0.00     0.073 C 
BRANCH  20  22
HETATM   22  C   UNL     1      -0.910   8.028 -28.299  1.00  0.00     0.023 A 
HETATM   23  C   UNL     1       0.413   7.561 -28.219  1.00  0.00     0.077 A 
HETATM   24  C   UNL     1       1.418   8.355 -27.667  1.00  0.00     0.037 A 
HETATM   25  C   UNL     1       1.116   9.621 -27.174  1.00  0.00     0.003 A 
HETATM   26  C   UNL     1      -0.195  10.091 -27.226  1.00  0.00     0.001 A 
HETATM   27  C   UNL     1      -1.205   9.298 -27.780  1.00  0.00     0.016 A 
BRANCH  23  28
HETATM   28  O   UNL     1       0.811   6.328 -28.662  1.00  0.00    -0.360 OA
HETATM   29  H   UNL     1       0.989   6.387 -29.628  1.00  0.00     0.217 HD
ENDBRANCH  23  28
ENDBRANCH  20  22
ENDBRANCH   2  19
TORSDOF 6
ENDMDL
MODEL 4
REMARK VINA RESULT:      -8.2      2.412     10.523
REMARK  6 active torsions:
REMARK  status: ('A' for Active; 'I' for Inactive)
REMARK    1  A    between atoms: C_2  and  C_3 
REMARK    2  A    between atoms: C_6  and  C_7 
REMARK    3  A    between atoms: C_11  and  C_12 
REMARK       I    between atoms: C_12  and  N_13 
REMARK    4  A    between atoms: N_13  and  N_14 
REMARK    5  A    between atoms: C_15  and  C_16 
REMARK    6  A    between atoms: C_17  and  O_18 
ROOT
HETATM    1  C   UNL     1      -4.490   4.468 -31.348  1.00  0.00     0.289 C 
HETATM    2  N   UNL     1      -3.316   4.930 -30.773  1.00  0.00    -0.241 N 
HETATM    3  O   UNL     1      -5.519   5.134 -31.429  1.00  0.00    -0.264 OA
HETATM    4  H   UNL     1      -2.507   4.329 -30.719  1.00  0.00     0.192 HD
ENDROOT
BRANCH   1   5
HETATM    5  C   UNL     1      -4.428   3.114 -31.838  1.00  0.00     0.121 A 
HETATM    6  N   UNL     1      -3.292   2.364 -31.719  1.00  0.00    -0.272 N 
HETATM    7  N   UNL     1      -3.389   1.131 -32.236  1.00  0.00    -0.174 NA
HETATM    8  H   UNL     1      -2.415   2.654 -31.296  1.00  0.00     0.189 HD
HETATM    9  C   UNL     1      -4.651   1.047 -32.686  1.00  0.00     0.089 A 
HETATM   10  C   UNL     1      -5.332   2.279 -32.464  1.00  0.00     0.071 A 
BRANCH   9  11
HETATM   11  C   UNL     1      -5.172  -0.173 -33.309  1.00  0.00    -0.006 A 
HETATM   12  C   UNL     1      -4.383  -1.327 -33.418  1.00  0.00     0.014 A 
HETATM   13  C   UNL     1      -4.889  -2.489 -34.012  1.00  0.00     0.008 A 
HETATM   14  C   UNL     1      -6.195  -2.520 -34.514  1.00  0.00    -0.059 A 
HETATM   15  C   UNL     1      -6.988  -1.372 -34.405  1.00  0.00     0.008 A 
HETATM   16  C   UNL     1      -6.480  -0.211 -33.814  1.00  0.00     0.014 A 
BRANCH  14  17
HETATM   17  C   UNL     1      -6.744  -3.777 -35.137  1.00  0.00     0.034 C 
HETATM   18  C   UNL     1      -5.769  -4.939 -35.022  1.00  0.00     0.010 C 
ENDBRANCH  14  17
ENDBRANCH   9  11
ENDBRANCH   1   5
BRANCH   2  19
HETATM   19  N   UNL     1      -3.237   6.217 -30.336  1.00  0.00    -0.176 NA
HETATM   20  C   UNL     1      -2.072   6.746 -30.088  1.00  0.00     0.064 C 
HETATM   21  C   UNL     1      -0.766   5.983 -30.186  1.00  0.00     0.073 C 
BRANCH  20  22
HETATM   22  C   UNL     1      -2.039   8.191 -29.678  1.00  0.00     0.023 A 
HETATM   23  C   UNL     1      -2.445   9.198 -30.571  1.00  0.00     0.077 A 
HETATM   24  C   UNL     1      -2.428  10.539 -30.189  1.00  0.00     0.037 A 
HETATM   25  C   UNL     1      -1.990  10.898 -28.917  1.00  0.00     0.003 A 
HETATM   26  C   UNL     1      -1.563   9.914 -28.028  1.00  0.00     0.001 A 
HETATM   27  C   UNL     1      -1.581   8.568 -28.407  1.00  0.00     0.016 A 
BRANCH  23  28
HETATM   28  O   UNL     1      -2.878   8.952 -31.847  1.00  0.00    -0.360 OA
HETATM   29  H   UNL     1      -2.091   8.810 -32.420  1.00  0.00     0.217 HD
ENDBRANCH  23  28
ENDBRANCH  20  22
ENDBRANCH   2  19
TORSDOF 6
ENDMDL
MODEL 5
REMARK VINA RESULT:      -8.1      8.270     11.449
REMARK  6 active torsions:
REMARK  status: ('A' for Active; 'I' for Inactive)
REMARK    1  A    between atoms: C_2  and  C_3 
REMARK    2  A    between atoms: C_6  and  C_7 
REMARK    3  A    between atoms: C_11  and  C_12 
REMARK       I    between atoms: C_12  and  N_13 
REMARK    4  A    between atoms: N_13  and  N_14 
REMARK    5  A    between atoms: C_15  and  C_16 
REMARK    6  A    between atoms: C_17  and  O_18 
ROOT
HETATM    1  C   UNL     1     -10.095   2.596 -33.179  1.00  0.00     0.289 C 
HETATM    2  N   UNL     1     -11.282   1.886 -33.076  1.00  0.00    -0.241 N 
HETATM    3  O   UNL     1     -10.013   3.814 -33.042  1.00  0.00    -0.264 OA
HETATM    4  H   UNL     1     -11.288   0.887 -33.216  1.00  0.00     0.192 HD
ENDROOT
BRANCH   1   5
HETATM    5  C   UNL     1      -8.937   1.793 -33.485  1.00  0.00     0.121 A 
HETATM    6  N   UNL     1      -7.743   2.365 -33.820  1.00  0.00    -0.272 N 
HETATM    7  N   UNL     1      -6.768   1.485 -34.089  1.00  0.00    -0.174 NA
HETATM    8  H   UNL     1      -7.542   3.359 -33.886  1.00  0.00     0.189 HD
HETATM    9  C   UNL     1      -7.328   0.282 -33.892  1.00  0.00     0.089 A 
HETATM   10  C   UNL     1      -8.696   0.434 -33.523  1.00  0.00     0.071 A 
BRANCH   9  11
HETATM   11  C   UNL     1      -6.572  -0.963 -34.061  1.00  0.00    -0.006 A 
HETATM   12  C   UNL     1      -5.207  -1.031 -33.748  1.00  0.00     0.014 A 
HETATM   13  C   UNL     1      -4.493  -2.224 -33.909  1.00  0.00     0.008 A 
HETATM   14  C   UNL     1      -5.129  -3.374 -34.390  1.00  0.00    -0.059 A 
HETATM   15  C   UNL     1      -6.492  -3.312 -34.701  1.00  0.00     0.008 A 
HETATM   16  C   UNL     1      -7.203  -2.119 -34.543  1.00  0.00     0.014 A 
BRANCH  14  17
HETATM   17  C   UNL     1      -4.362  -4.662 -34.546  1.00  0.00     0.034 C 
HETATM   18  C   UNL     1      -3.348  -4.856 -33.431  1.00  0.00     0.010 C 
ENDBRANCH  14  17
ENDBRANCH   9  11
ENDBRANCH   1   5
BRANCH   2  19
HETATM   19  N   UNL     1     -12.428   2.531 -32.724  1.00  0.00    -0.176 NA
HETATM   20  C   UNL     1     -13.578   2.078 -33.136  1.00  0.00     0.064 C 
HETATM   21  C   UNL     1     -13.727   0.891 -34.067  1.00  0.00     0.073 C 
BRANCH  20  22
HETATM   22  C   UNL     1     -14.815   2.785 -32.659  1.00  0.00     0.023 A 
HETATM   23  C   UNL     1     -14.799   4.170 -32.417  1.00  0.00     0.077 A 
HETATM   24  C   UNL     1     -15.948   4.832 -31.987  1.00  0.00     0.037 A 
HETATM   25  C   UNL     1     -17.126   4.120 -31.776  1.00  0.00     0.003 A 
HETATM   26  C   UNL     1     -17.154   2.744 -31.989  1.00  0.00     0.001 A 
HETATM   27  C   UNL     1     -16.003   2.077 -32.423  1.00  0.00     0.016 A 
BRANCH  23  28
HETATM   28  O   UNL     1     -13.690   4.957 -32.580  1.00  0.00    -0.360 OA
HETATM   29  H   UNL     1     -13.588   5.520 -31.779  1.00  0.00     0.217 HD
ENDBRANCH  23  28
ENDBRANCH  20  22
ENDBRANCH   2  19
TORSDOF 6
ENDMDL
MODEL 6
REMARK VINA RESULT:      -8.0      8.146     11.847
REMARK  6 active torsions:
REMARK  status: ('A' for Active; 'I' for Inactive)
REMARK    1  A    between atoms: C_2  and  C_3 
REMARK    2  A    between atoms: C_6  and  C_7 
REMARK    3  A    between atoms: C_11  and  C_12 
REMARK       I    between atoms: C_12  and  N_13 
REMARK    4  A    between atoms: N_13  and  N_14 
REMARK    5  A    between atoms: C_15  and  C_16 
REMARK    6  A    between atoms: C_17  and  O_18 
ROOT
HETATM    1  C   UNL     1     -12.271   1.156 -33.479  1.00  0.00     0.289 C 
HETATM    2  N   UNL     1     -12.611   2.446 -33.102  1.00  0.00    -0.241 N 
HETATM    3  O   UNL     1     -13.090   0.258 -33.659  1.00  0.00    -0.264 OA
HETATM    4  H   UNL     1     -11.891   3.136 -32.952  1.00  0.00     0.192 HD
ENDROOT
BRANCH   1   5
HETATM    5  C   UNL     1     -10.856   0.925 -33.630  1.00  0.00     0.121 A 
HETATM    6  N   UNL     1     -10.101   1.672 -34.489  1.00  0.00    -0.272 N 
HETATM    7  N   UNL     1      -8.805   1.327 -34.526  1.00  0.00    -0.174 NA
HETATM    8  H   UNL     1     -10.426   2.431 -35.082  1.00  0.00     0.189 HD
HETATM    9  C   UNL     1      -8.690   0.334 -33.631  1.00  0.00     0.089 A 
HETATM   10  C   UNL     1      -9.961   0.044 -33.055  1.00  0.00     0.071 A 
BRANCH   9  11
HETATM   11  C   UNL     1      -7.404  -0.312 -33.350  1.00  0.00    -0.006 A 
HETATM   12  C   UNL     1      -6.847  -1.238 -34.243  1.00  0.00     0.014 A 
HETATM   13  C   UNL     1      -5.617  -1.847 -33.968  1.00  0.00     0.008 A 
HETATM   14  C   UNL     1      -4.920  -1.546 -32.794  1.00  0.00    -0.059 A 
HETATM   15  C   UNL     1      -5.471  -0.620 -31.901  1.00  0.00     0.008 A 
HETATM   16  C   UNL     1      -6.701  -0.014 -32.174  1.00  0.00     0.014 A 
BRANCH  14  17
HETATM   17  C   UNL     1      -3.588  -2.190 -32.508  1.00  0.00     0.034 C 
HETATM   18  C   UNL     1      -3.551  -3.641 -32.964  1.00  0.00     0.010 C 
ENDBRANCH  14  17
ENDBRANCH   9  11
ENDBRANCH   1   5
BRANCH   2  19
HETATM   19  N   UNL     1     -13.922   2.797 -32.995  1.00  0.00    -0.176 NA
HETATM   20  C   UNL     1     -14.329   3.470 -31.957  1.00  0.00     0.064 C 
HETATM   21  C   UNL     1     -13.433   3.837 -30.791  1.00  0.00     0.073 C 
BRANCH  20  22
HETATM   22  C   UNL     1     -15.770   3.893 -31.925  1.00  0.00     0.023 A 
HETATM   23  C   UNL     1     -16.775   3.052 -32.433  1.00  0.00     0.077 A 
HETATM   24  C   UNL     1     -18.115   3.436 -32.393  1.00  0.00     0.037 A 
HETATM   25  C   UNL     1     -18.472   4.671 -31.860  1.00  0.00     0.003 A 
HETATM   26  C   UNL     1     -17.487   5.527 -31.372  1.00  0.00     0.001 A 
HETATM   27  C   UNL     1     -16.142   5.144 -31.409  1.00  0.00     0.016 A 
BRANCH  23  28
HETATM   28  O   UNL     1     -16.528   1.825 -32.990  1.00  0.00    -0.360 OA
HETATM   29  H   UNL     1     -15.583   1.597 -32.834  1.00  0.00     0.217 HD
ENDBRANCH  23  28
ENDBRANCH  20  22
ENDBRANCH   2  19
TORSDOF 6
ENDMDL
MODEL 7
REMARK VINA RESULT:      -7.9      3.005     10.488
REMARK  6 active torsions:
REMARK  status: ('A' for Active; 'I' for Inactive)
REMARK    1  A    between atoms: C_2  and  C_3 
REMARK    2  A    between atoms: C_6  and  C_7 
REMARK    3  A    between atoms: C_11  and  C_12 
REMARK       I    between atoms: C_12  and  N_13 
REMARK    4  A    between atoms: N_13  and  N_14 
REMARK    5  A    between atoms: C_15  and  C_16 
REMARK    6  A    between atoms: C_17  and  O_18 
ROOT
HETATM    1  C   UNL     1      -5.418   4.158 -29.874  1.00  0.00     0.289 C 
HETATM    2  N   UNL     1      -4.282   4.779 -30.372  1.00  0.00    -0.241 N 
HETATM    3  O   UNL     1      -6.174   4.673 -29.054  1.00  0.00    -0.264 OA
HETATM    4  H   UNL     1      -3.690   4.297 -31.032  1.00  0.00     0.192 HD
ENDROOT
BRANCH   1   5
HETATM    5  C   UNL     1      -5.650   2.828 -30.380  1.00  0.00     0.121 A 
HETATM    6  N   UNL     1      -6.363   1.909 -29.665  1.00  0.00    -0.272 N 
HETATM    7  N   UNL     1      -6.479   0.715 -30.264  1.00  0.00    -0.174 NA
HETATM    8  H   UNL     1      -6.790   2.046 -28.753  1.00  0.00     0.189 HD
HETATM    9  C   UNL     1      -5.845   0.859 -31.438  1.00  0.00     0.089 A 
HETATM   10  C   UNL     1      -5.300   2.171 -31.543  1.00  0.00     0.071 A 
BRANCH   9  11
HETATM   11  C   UNL     1      -5.767  -0.232 -32.415  1.00  0.00    -0.006 A 
HETATM   12  C   UNL     1      -4.558  -0.898 -32.664  1.00  0.00     0.014 A 
HETATM   13  C   UNL     1      -4.493  -1.940 -33.596  1.00  0.00     0.008 A 
HETATM   14  C   UNL     1      -5.633  -2.336 -34.302  1.00  0.00    -0.059 A 
HETATM   15  C   UNL     1      -6.843  -1.677 -34.056  1.00  0.00     0.008 A 
HETATM   16  C   UNL     1      -6.907  -0.633 -33.126  1.00  0.00     0.014 A 
BRANCH  14  17
HETATM   17  C   UNL     1      -5.564  -3.469 -35.293  1.00  0.00     0.034 C 
HETATM   18  C   UNL     1      -6.721  -4.441 -35.123  1.00  0.00     0.010 C 
ENDBRANCH  14  17
ENDBRANCH   9  11
ENDBRANCH   1   5
BRANCH   2  19
HETATM   19  N   UNL     1      -4.000   6.062 -30.016  1.00  0.00    -0.176 NA
HETATM   20  C   UNL     1      -2.829   6.566 -30.285  1.00  0.00     0.064 C 
HETATM   21  C   UNL     1      -1.702   5.776 -30.919  1.00  0.00     0.073 C 
BRANCH  20  22
HETATM   22  C   UNL     1      -2.597   8.008 -29.935  1.00  0.00     0.023 A 
HETATM   23  C   UNL     1      -2.033   8.363 -28.697  1.00  0.00     0.077 A 
HETATM   24  C   UNL     1      -1.804   9.700 -28.375  1.00  0.00     0.037 A 
HETATM   25  C   UNL     1      -2.148  10.705 -29.275  1.00  0.00     0.003 A 
HETATM   26  C   UNL     1      -2.728  10.372 -30.498  1.00  0.00     0.001 A 
HETATM   27  C   UNL     1      -2.957   9.032 -30.825  1.00  0.00     0.016 A 
BRANCH  23  28
HETATM   28  O   UNL     1      -1.673   7.454 -27.738  1.00  0.00    -0.360 OA
HETATM   29  H   UNL     1      -1.042   7.888 -27.120  1.00  0.00     0.217 HD
ENDBRANCH  23  28
ENDBRANCH  20  22
ENDBRANCH   2  19
TORSDOF 6
ENDMDL
MODEL 8
REMARK VINA RESULT:      -7.6      8.452     11.615
REMARK  6 active torsions:
REMARK  status: ('A' for Active; 'I' for Inactive)
REMARK    1  A    between atoms: C_2  and  C_3 
REMARK    2  A    between atoms: C_6  and  C_7 
REMARK    3  A    between atoms: C_11  and  C_12 
REMARK       I    between atoms: C_12  and  N_13 
REMARK    4  A    between atoms: N_13  and  N_14 
REMARK    5  A    between atoms: C_15  and  C_16 
REMARK    6  A    between atoms: C_17  and  O_18 
ROOT
HETATM    1  C   UNL     1     -11.132   1.552 -33.459  1.00  0.00     0.289 C 
HETATM    2  N   UNL     1     -11.149   2.903 -33.147  1.00  0.00    -0.241 N 
HETATM    3  O   UNL     1     -12.126   0.831 -33.428  1.00  0.00    -0.264 OA
HETATM    4  H   UNL     1     -10.296   3.440 -33.174  1.00  0.00     0.192 HD
ENDROOT
BRANCH   1   5
HETATM    5  C   UNL     1      -9.835   1.031 -33.813  1.00  0.00     0.121 A 
HETATM    6  N   UNL     1      -8.989   1.724 -34.632  1.00  0.00    -0.272 N 
HETATM    7  N   UNL     1      -7.828   1.101 -34.877  1.00  0.00    -0.174 NA
HETATM    8  H   UNL     1      -9.162   2.630 -35.059  1.00  0.00     0.189 HD
HETATM    9  C   UNL     1      -7.892  -0.035 -34.165  1.00  0.00     0.089 A 
HETATM   10  C   UNL     1      -9.144  -0.120 -33.492  1.00  0.00     0.071 A 
BRANCH   9  11
HETATM   11  C   UNL     1      -6.788  -1.000 -34.143  1.00  0.00    -0.006 A 
HETATM   12  C   UNL     1      -5.537  -0.660 -33.608  1.00  0.00     0.014 A 
HETATM   13  C   UNL     1      -4.490  -1.588 -33.588  1.00  0.00     0.008 A 
HETATM   14  C   UNL     1      -4.669  -2.874 -34.107  1.00  0.00    -0.059 A 
HETATM   15  C   UNL     1      -5.916  -3.220 -34.640  1.00  0.00     0.008 A 
HETATM   16  C   UNL     1      -6.961  -2.291 -34.662  1.00  0.00     0.014 A 
BRANCH  14  17
HETATM   17  C   UNL     1      -3.545  -3.877 -34.069  1.00  0.00     0.034 C 
HETATM   18  C   UNL     1      -4.008  -5.226 -33.542  1.00  0.00     0.010 C 
ENDBRANCH  14  17
ENDBRANCH   9  11
ENDBRANCH   1   5
BRANCH   2  19
HETATM   19  N   UNL     1     -12.330   3.518 -32.863  1.00  0.00    -0.176 NA
HETATM   20  C   UNL     1     -12.511   4.064 -31.694  1.00  0.00     0.064 C 
HETATM   21  C   UNL     1     -11.496   3.996 -30.570  1.00  0.00     0.073 C 
BRANCH  20  22
HETATM   22  C   UNL     1     -13.805   4.791 -31.460  1.00  0.00     0.023 A 
HETATM   23  C   UNL     1     -15.009   4.300 -31.994  1.00  0.00     0.077 A 
HETATM   24  C   UNL     1     -16.213   4.966 -31.768  1.00  0.00     0.037 A 
HETATM   25  C   UNL     1     -16.233   6.140 -31.020  1.00  0.00     0.003 A 
HETATM   26  C   UNL     1     -15.045   6.652 -30.502  1.00  0.00     0.001 A 
HETATM   27  C   UNL     1     -13.836   5.986 -30.725  1.00  0.00     0.016 A 
BRANCH  23  28
HETATM   28  O   UNL     1     -15.095   3.164 -32.753  1.00  0.00    -0.360 OA
HETATM   29  H   UNL     1     -14.281   3.095 -33.303  1.00  0.00     0.217 HD
ENDBRANCH  23  28
ENDBRANCH  20  22
ENDBRANCH   2  19
TORSDOF 6
ENDMDL
MODEL 9
REMARK VINA RESULT:      -7.6      3.413     10.643
REMARK  6 active torsions:
REMARK  status: ('A' for Active; 'I' for Inactive)
REMARK    1  A    between atoms: C_2  and  C_3 
REMARK    2  A    between atoms: C_6  and  C_7 
REMARK    3  A    between atoms: C_11  and  C_12 
REMARK       I    between atoms: C_12  and  N_13 
REMARK    4  A    between atoms: N_13  and  N_14 
REMARK    5  A    between atoms: C_15  and  C_16 
REMARK    6  A    between atoms: C_17  and  O_18 
ROOT
HETATM    1  C   UNL     1      -3.959   2.158 -31.765  1.00  0.00     0.289 C 
HETATM    2  N   UNL     1      -3.866   3.533 -31.919  1.00  0.00    -0.241 N 
HETATM    3  O   UNL     1      -3.060   1.461 -31.300  1.00  0.00    -0.264 OA
HETATM    4  H   UNL     1      -4.632   4.050 -32.324  1.00  0.00     0.192 HD
ENDROOT
BRANCH   1   5
HETATM    5  C   UNL     1      -5.201   1.583 -32.216  1.00  0.00     0.121 A 
HETATM    6  N   UNL     1      -5.299   0.257 -32.530  1.00  0.00    -0.272 N 
HETATM    7  N   UNL     1      -6.516  -0.121 -32.947  1.00  0.00    -0.174 NA
HETATM    8  H   UNL     1      -4.557  -0.435 -32.485  1.00  0.00     0.189 HD
HETATM    9  C   UNL     1      -7.264   0.990 -32.872  1.00  0.00     0.089 A 
HETATM   10  C   UNL     1      -6.469   2.086 -32.428  1.00  0.00     0.071 A 
BRANCH   9  11
HETATM   11  C   UNL     1      -8.688   0.992 -33.223  1.00  0.00    -0.006 A 
HETATM   12  C   UNL     1      -9.225   1.968 -34.074  1.00  0.00     0.014 A 
HETATM   13  C   UNL     1     -10.584   1.960 -34.407  1.00  0.00     0.008 A 
HETATM   14  C   UNL     1     -11.437   0.978 -33.892  1.00  0.00    -0.059 A 
HETATM   15  C   UNL     1     -10.906  -0.000 -33.044  1.00  0.00     0.008 A 
HETATM   16  C   UNL     1      -9.548   0.010 -32.710  1.00  0.00     0.014 A 
BRANCH  14  17
HETATM   17  C   UNL     1     -12.897   0.962 -34.264  1.00  0.00     0.034 C 
HETATM   18  C   UNL     1     -13.620  -0.236 -33.667  1.00  0.00     0.010 C 
ENDBRANCH  14  17
ENDBRANCH   9  11
ENDBRANCH   1   5
BRANCH   2  19
HETATM   19  N   UNL     1      -2.765   4.193 -31.466  1.00  0.00    -0.176 NA
HETATM   20  C   UNL     1      -2.762   5.495 -31.427  1.00  0.00     0.064 C 
HETATM   21  C   UNL     1      -3.905   6.353 -31.933  1.00  0.00     0.073 C 
BRANCH  20  22
HETATM   22  C   UNL     1      -1.549   6.170 -30.851  1.00  0.00     0.023 A 
HETATM   23  C   UNL     1      -1.578   6.707 -29.553  1.00  0.00     0.077 A 
HETATM   24  C   UNL     1      -0.450   7.322 -29.010  1.00  0.00     0.037 A 
HETATM   25  C   UNL     1       0.719   7.424 -29.760  1.00  0.00     0.003 A 
HETATM   26  C   UNL     1       0.758   6.915 -31.056  1.00  0.00     0.001 A 
HETATM   27  C   UNL     1      -0.371   6.297 -31.603  1.00  0.00     0.016 A 
BRANCH  23  28
HETATM   28  O   UNL     1      -2.680   6.672 -28.740  1.00  0.00    -0.360 OA
HETATM   29  H   UNL     1      -2.376   6.577 -27.808  1.00  0.00     0.217 HD
ENDBRANCH  23  28
ENDBRANCH  20  22
ENDBRANCH   2  19
TORSDOF 6
ENDMDL
MODEL 10
REMARK VINA RESULT:      -7.5      2.521     10.274
REMARK  6 active torsions:
REMARK  status: ('A' for Active; 'I' for Inactive)
REMARK    1  A    between atoms: C_2  and  C_3 
REMARK    2  A    between atoms: C_6  and  C_7 
REMARK    3  A    between atoms: C_11  and  C_12 
REMARK       I    between atoms: C_12  and  N_13 
REMARK    4  A    between atoms: N_13  and  N_14 
REMARK    5  A    between atoms: C_15  and  C_16 
REMARK    6  A    between atoms: C_17  and  O_18 
ROOT
HETATM    1  C   UNL     1      -3.853   6.403 -30.367  1.00  0.00     0.289 C 
HETATM    2  N   UNL     1      -2.680   6.068 -29.708  1.00  0.00    -0.241 N 
HETATM    3  O   UNL     1      -4.419   7.486 -30.244  1.00  0.00    -0.264 OA
HETATM    4  H   UNL     1      -2.270   5.155 -29.837  1.00  0.00     0.192 HD
ENDROOT
BRANCH   1   5
HETATM    5  C   UNL     1      -4.388   5.365 -31.212  1.00  0.00     0.121 A 
HETATM    6  N   UNL     1      -5.276   5.648 -32.211  1.00  0.00    -0.272 N 
HETATM    7  N   UNL     1      -5.692   4.574 -32.898  1.00  0.00    -0.174 NA
HETATM    8  H   UNL     1      -5.639   6.563 -32.461  1.00  0.00     0.189 HD
HETATM    9  C   UNL     1      -5.026   3.542 -32.356  1.00  0.00     0.089 A 
HETATM   10  C   UNL     1      -4.205   3.998 -31.284  1.00  0.00     0.071 A 
BRANCH   9  11
HETATM   11  C   UNL     1      -5.184   2.171 -32.851  1.00  0.00    -0.006 A 
HETATM   12  C   UNL     1      -6.232   1.829 -33.718  1.00  0.00     0.014 A 
HETATM   13  C   UNL     1      -6.373   0.518 -34.189  1.00  0.00     0.008 A 
HETATM   14  C   UNL     1      -5.472  -0.478 -33.800  1.00  0.00    -0.059 A 
HETATM   15  C   UNL     1      -4.423  -0.141 -32.937  1.00  0.00     0.008 A 
HETATM   16  C   UNL     1      -4.284   1.168 -32.465  1.00  0.00     0.014 A 
BRANCH  14  17
HETATM   17  C   UNL     1      -5.616  -1.885 -34.321  1.00  0.00     0.034 C 
HETATM   18  C   UNL     1      -7.072  -2.322 -34.377  1.00  0.00     0.010 C 
ENDBRANCH  14  17
ENDBRANCH   9  11
ENDBRANCH   1   5
BRANCH   2  19
HETATM   19  N   UNL     1      -2.048   6.994 -28.936  1.00  0.00    -0.176 NA
HETATM   20  C   UNL     1      -0.794   7.273 -29.156  1.00  0.00     0.064 C 
HETATM   21  C   UNL     1       0.053   6.565 -30.195  1.00  0.00     0.073 C 
BRANCH  20  22
HETATM   22  C   UNL     1      -0.167   8.354 -28.322  1.00  0.00     0.023 A 
HETATM   23  C   UNL     1      -0.924   9.458 -27.895  1.00  0.00     0.077 A 
HETATM   24  C   UNL     1      -0.349  10.457 -27.110  1.00  0.00     0.037 A 
HETATM   25  C   UNL     1       0.994  10.377 -26.752  1.00  0.00     0.003 A 
HETATM   26  C   UNL     1       1.765   9.300 -27.185  1.00  0.00     0.001 A 
HETATM   27  C   UNL     1       1.190   8.296 -27.972  1.00  0.00     0.016 A 
BRANCH  23  28
HETATM   28  O   UNL     1      -2.247   9.638 -28.204  1.00  0.00    -0.360 OA
HETATM   29  H   UNL     1      -2.477  10.582 -28.047  1.00  0.00     0.217 HD
ENDBRANCH  23  28
ENDBRANCH  20  22
ENDBRANCH   2  19
TORSDOF 6
ENDMDL
