MODEL 1
REMARK VINA RESULT:     -10.1      0.000      0.000
REMARK  5 active torsions:
REMARK  status: ('A' for Active; 'I' for Inactive)
REMARK    1  A    between atoms: C_5  and  C_6 
REMARK    2  A    between atoms: C_11  and  C_12 
REMARK       I    between atoms: C_12  and  N_13 
REMARK    3  A    between atoms: N_13  and  C_14 
REMARK    4  A    between atoms: C_16  and  O_17 
REMARK    5  A    between atoms: C_23  and  C_24 
ROOT
HETATM    1  C   UNL     1      -1.941   6.217 -31.327  1.00  0.00     0.118 C 
HETATM    2  N   UNL     1      -3.032   5.358 -30.856  1.00  0.00    -0.366 N 
HETATM    3  C   UNL     1      -3.323   4.179 -31.443  1.00  0.00     0.123 A 
HETATM    4  N   UNL     1      -2.858   3.884 -32.692  1.00  0.00    -0.240 N 
HETATM    5  N   UNL     1      -3.094   2.618 -33.081  1.00  0.00    -0.165 NA
HETATM    6  C   UNL     1      -3.835   2.116 -32.064  1.00  0.00     0.148 A 
HETATM    7  C   UNL     1      -4.032   3.082 -31.037  1.00  0.00     0.089 A 
HETATM    8  C   UNL     1      -2.017   4.788 -33.449  1.00  0.00     0.221 C 
HETATM    9  C   UNL     1      -1.130   5.564 -32.467  1.00  0.00     0.066 C 
HETATM   10  H   UNL     1      -3.365   5.568 -29.914  1.00  0.00     0.161 HD
ENDROOT
BRANCH   6  11
HETATM   11  C   UNL     1      -4.299   0.715 -32.053  1.00  0.00     0.276 C 
HETATM   12  N   UNL     1      -4.595   0.267 -33.325  1.00  0.00    -0.322 N 
HETATM   13  H   UNL     1      -4.482   0.983 -34.040  1.00  0.00     0.169 HD
HETATM   14  O   UNL     1      -4.368   0.071 -31.012  1.00  0.00    -0.266 OA
BRANCH  12  15
HETATM   15  C   UNL     1      -4.977  -1.022 -33.733  1.00  0.00     0.037 A 
HETATM   16  C   UNL     1      -4.111  -2.118 -33.749  1.00  0.00     0.066 A 
HETATM   17  C   UNL     1      -4.573  -3.358 -34.188  1.00  0.00     0.067 A 
HETATM   18  C   UNL     1      -5.885  -3.527 -34.611  1.00  0.00     0.036 A 
HETATM   19  C   UNL     1      -6.754  -2.439 -34.596  1.00  0.00     0.005 A 
HETATM   20  C   UNL     1      -6.300  -1.192 -34.158  1.00  0.00     0.029 A 
BRANCH  17  21
HETATM   21  O   UNL     1      -3.751  -4.447 -34.223  1.00  0.00    -0.361 OA
HETATM   22  H   UNL     1      -2.868  -4.155 -34.508  1.00  0.00     0.217 HD
ENDBRANCH  17  21
ENDBRANCH  12  15
ENDBRANCH   6  11
BRANCH   8  23
HETATM   23  C   UNL     1      -2.865   5.691 -34.315  1.00  0.00     0.409 C 
HETATM   24  F   UNL     1      -3.042   5.189 -35.558  1.00  0.00    -0.169 F 
HETATM   25  F   UNL     1      -4.082   5.956 -33.800  1.00  0.00    -0.169 F 
HETATM   26  F   UNL     1      -2.243   6.889 -34.469  1.00  0.00    -0.169 F 
ENDBRANCH   8  23
BRANCH   1  27
HETATM   27  C   UNL     1      -1.024   6.551 -30.161  1.00  0.00    -0.035 A 
HETATM   28  C   UNL     1      -1.109   7.793 -29.507  1.00  0.00     0.010 A 
HETATM   29  C   UNL     1      -0.284   8.090 -28.421  1.00  0.00     0.007 A 
HETATM   30  C   UNL     1       0.649   7.155 -27.966  1.00  0.00    -0.062 A 
HETATM   31  C   UNL     1       1.509   7.459 -26.775  1.00  0.00     0.048 C 
HETATM   32  C   UNL     1       0.727   5.910 -28.600  1.00  0.00     0.007 A 
HETATM   33  C   UNL     1      -0.098   5.611 -29.689  1.00  0.00     0.010 A 
ENDBRANCH   1  27
TORSDOF 5
ENDMDL
MODEL 2
REMARK VINA RESULT:      -9.3      4.411      9.583
REMARK  5 active torsions:
REMARK  status: ('A' for Active; 'I' for Inactive)
REMARK    1  A    between atoms: C_5  and  C_6 
REMARK    2  A    between atoms: C_11  and  C_12 
REMARK       I    between atoms: C_12  and  N_13 
REMARK    3  A    between atoms: N_13  and  C_14 
REMARK    4  A    between atoms: C_16  and  O_17 
REMARK    5  A    between atoms: C_23  and  C_24 
ROOT
HETATM    1  C   UNL     1      -7.554  -0.699 -34.221  1.00  0.00     0.118 C 
HETATM    2  N   UNL     1      -6.990   0.537 -34.775  1.00  0.00    -0.366 N 
HETATM    3  C   UNL     1      -7.053   1.712 -34.116  1.00  0.00     0.123 A 
HETATM    4  N   UNL     1      -7.925   1.892 -33.082  1.00  0.00    -0.240 N 
HETATM    5  N   UNL     1      -7.765   3.054 -32.423  1.00  0.00    -0.165 NA
HETATM    6  C   UNL     1      -6.806   3.686 -33.143  1.00  0.00     0.148 A 
HETATM    7  C   UNL     1      -6.365   2.888 -34.236  1.00  0.00     0.089 A 
HETATM    8  C   UNL     1      -8.811   0.846 -32.614  1.00  0.00     0.221 C 
HETATM    9  C   UNL     1      -8.105  -0.504 -32.791  1.00  0.00     0.066 C 
HETATM   10  H   UNL     1      -6.323   0.398 -35.534  1.00  0.00     0.161 HD
ENDROOT
BRANCH   6  11
HETATM   11  C   UNL     1      -6.283   5.010 -32.753  1.00  0.00     0.276 C 
HETATM   12  N   UNL     1      -4.948   4.949 -32.408  1.00  0.00    -0.322 N 
HETATM   13  H   UNL     1      -4.566   4.006 -32.443  1.00  0.00     0.169 HD
HETATM   14  O   UNL     1      -6.991   6.011 -32.777  1.00  0.00    -0.266 OA
BRANCH  12  15
HETATM   15  C   UNL     1      -4.082   6.002 -32.070  1.00  0.00     0.037 A 
HETATM   16  C   UNL     1      -3.200   6.601 -32.973  1.00  0.00     0.066 A 
HETATM   17  C   UNL     1      -2.362   7.629 -32.544  1.00  0.00     0.067 A 
HETATM   18  C   UNL     1      -2.388   8.074 -31.228  1.00  0.00     0.036 A 
HETATM   19  C   UNL     1      -3.265   7.483 -30.323  1.00  0.00     0.005 A 
HETATM   20  C   UNL     1      -4.109   6.451 -30.744  1.00  0.00     0.029 A 
BRANCH  17  21
HETATM   21  O   UNL     1      -1.485   8.231 -33.399  1.00  0.00    -0.361 OA
HETATM   22  H   UNL     1      -0.591   7.903 -33.199  1.00  0.00     0.217 HD
ENDBRANCH  17  21
ENDBRANCH  12  15
ENDBRANCH   6  11
BRANCH   8  23
HETATM   23  C   UNL     1     -10.135   0.918 -33.337  1.00  0.00     0.409 C 
HETATM   24  F   UNL     1     -10.918   1.918 -32.875  1.00  0.00    -0.169 F 
HETATM   25  F   UNL     1     -10.022   1.066 -34.672  1.00  0.00    -0.169 F 
HETATM   26  F   UNL     1     -10.827  -0.236 -33.136  1.00  0.00    -0.169 F 
ENDBRANCH   8  23
BRANCH   1  27
HETATM   27  C   UNL     1      -6.489  -1.784 -34.225  1.00  0.00    -0.035 A 
HETATM   28  C   UNL     1      -5.214  -1.549 -33.681  1.00  0.00     0.010 A 
HETATM   29  C   UNL     1      -4.245  -2.553 -33.662  1.00  0.00     0.007 A 
HETATM   30  C   UNL     1      -4.526  -3.816 -34.190  1.00  0.00    -0.062 A 
HETATM   31  C   UNL     1      -3.498  -4.907 -34.135  1.00  0.00     0.048 C 
HETATM   32  C   UNL     1      -5.799  -4.064 -34.715  1.00  0.00     0.007 A 
HETATM   33  C   UNL     1      -6.770  -3.058 -34.737  1.00  0.00     0.010 A 
ENDBRANCH   1  27
TORSDOF 5
ENDMDL
MODEL 3
REMARK VINA RESULT:      -9.3      3.608      9.274
REMARK  5 active torsions:
REMARK  status: ('A' for Active; 'I' for Inactive)
REMARK    1  A    between atoms: C_5  and  C_6 
REMARK    2  A    between atoms: C_11  and  C_12 
REMARK       I    between atoms: C_12  and  N_13 
REMARK    3  A    between atoms: N_13  and  C_14 
REMARK    4  A    between atoms: C_16  and  O_17 
REMARK    5  A    between atoms: C_23  and  C_24 
ROOT
HETATM    1  C   UNL     1      -6.922   0.165 -33.184  1.00  0.00     0.118 C 
HETATM    2  N   UNL     1      -6.263   1.339 -33.766  1.00  0.00    -0.366 N 
HETATM    3  C   UNL     1      -5.927   2.415 -33.026  1.00  0.00     0.123 A 
HETATM    4  N   UNL     1      -6.476   2.618 -31.793  1.00  0.00    -0.240 N 
HETATM    5  N   UNL     1      -5.931   3.640 -31.109  1.00  0.00    -0.165 NA
HETATM    6  C   UNL     1      -5.059   4.175 -31.999  1.00  0.00     0.148 A 
HETATM    7  C   UNL     1      -5.061   3.454 -33.227  1.00  0.00     0.089 A 
HETATM    8  C   UNL     1      -7.422   1.698 -31.196  1.00  0.00     0.221 C 
HETATM    9  C   UNL     1      -7.070   0.275 -31.650  1.00  0.00     0.066 C 
HETATM   10  H   UNL     1      -5.836   1.179 -34.680  1.00  0.00     0.161 HD
ENDROOT
BRANCH   6  11
HETATM   11  C   UNL     1      -4.199   5.323 -31.655  1.00  0.00     0.276 C 
HETATM   12  N   UNL     1      -2.990   4.915 -31.129  1.00  0.00    -0.322 N 
HETATM   13  H   UNL     1      -2.914   3.904 -31.032  1.00  0.00     0.169 HD
HETATM   14  O   UNL     1      -4.560   6.477 -31.859  1.00  0.00    -0.266 OA
BRANCH  12  15
HETATM   15  C   UNL     1      -1.882   5.700 -30.767  1.00  0.00     0.037 A 
HETATM   16  C   UNL     1      -1.957   6.796 -29.905  1.00  0.00     0.066 A 
HETATM   17  C   UNL     1      -0.807   7.530 -29.617  1.00  0.00     0.067 A 
HETATM   18  C   UNL     1       0.420   7.190 -30.173  1.00  0.00     0.036 A 
HETATM   19  C   UNL     1       0.502   6.098 -31.032  1.00  0.00     0.005 A 
HETATM   20  C   UNL     1      -0.646   5.356 -31.327  1.00  0.00     0.029 A 
BRANCH  17  21
HETATM   21  O   UNL     1      -0.847   8.610 -28.784  1.00  0.00    -0.361 OA
HETATM   22  H   UNL     1      -0.729   8.295 -27.870  1.00  0.00     0.217 HD
ENDBRANCH  17  21
ENDBRANCH  12  15
ENDBRANCH   6  11
BRANCH   8  23
HETATM   23  C   UNL     1      -8.836   2.096 -31.550  1.00  0.00     0.409 C 
HETATM   24  F   UNL     1      -8.877   3.004 -32.550  1.00  0.00    -0.169 F 
HETATM   25  F   UNL     1      -9.624   1.060 -31.900  1.00  0.00    -0.169 F 
HETATM   26  F   UNL     1      -9.426   2.682 -30.474  1.00  0.00    -0.169 F 
ENDBRANCH   8  23
BRANCH   1  27
HETATM   27  C   UNL     1      -6.135  -1.084 -33.542  1.00  0.00    -0.035 A 
HETATM   28  C   UNL     1      -4.832  -1.284 -33.052  1.00  0.00     0.010 A 
HETATM   29  C   UNL     1      -4.118  -2.443 -33.360  1.00  0.00     0.007 A 
HETATM   30  C   UNL     1      -4.688  -3.429 -34.170  1.00  0.00    -0.062 A 
HETATM   31  C   UNL     1      -3.936  -4.692 -34.470  1.00  0.00     0.048 C 
HETATM   32  C   UNL     1      -5.991  -3.246 -34.646  1.00  0.00     0.007 A 
HETATM   33  C   UNL     1      -6.707  -2.085 -34.340  1.00  0.00     0.010 A 
ENDBRANCH   1  27
TORSDOF 5
ENDMDL
MODEL 4
REMARK VINA RESULT:      -9.3      6.526     10.085
REMARK  5 active torsions:
REMARK  status: ('A' for Active; 'I' for Inactive)
REMARK    1  A    between atoms: C_5  and  C_6 
REMARK    2  A    between atoms: C_11  and  C_12 
REMARK       I    between atoms: C_12  and  N_13 
REMARK    3  A    between atoms: N_13  and  C_14 
REMARK    4  A    between atoms: C_16  and  O_17 
REMARK    5  A    between atoms: C_23  and  C_24 
ROOT
HETATM    1  C   UNL     1      -6.584   0.132 -33.388  1.00  0.00     0.118 C 
HETATM    2  N   UNL     1      -7.862   0.066 -32.671  1.00  0.00    -0.366 N 
HETATM    3  C   UNL     1      -8.915   0.839 -33.008  1.00  0.00     0.123 A 
HETATM    4  N   UNL     1      -8.752   1.945 -33.790  1.00  0.00    -0.240 N 
HETATM    5  N   UNL     1      -9.905   2.524 -34.172  1.00  0.00    -0.165 NA
HETATM    6  C   UNL     1     -10.844   1.802 -33.513  1.00  0.00     0.148 A 
HETATM    7  C   UNL     1     -10.254   0.761 -32.741  1.00  0.00     0.089 A 
HETATM    8  C   UNL     1      -7.466   2.346 -34.322  1.00  0.00     0.221 C 
HETATM    9  C   UNL     1      -6.641   1.083 -34.604  1.00  0.00     0.066 C 
HETATM   10  H   UNL     1      -7.989  -0.772 -32.102  1.00  0.00     0.161 HD
ENDROOT
BRANCH   6  11
HETATM   11  C   UNL     1     -12.286   2.073 -33.666  1.00  0.00     0.276 C 
HETATM   12  N   UNL     1     -12.820   2.648 -32.531  1.00  0.00    -0.322 N 
HETATM   13  H   UNL     1     -12.145   2.750 -31.776  1.00  0.00     0.169 HD
HETATM   14  O   UNL     1     -12.878   1.818 -34.710  1.00  0.00    -0.266 OA
BRANCH  12  15
HETATM   15  C   UNL     1     -14.124   3.129 -32.323  1.00  0.00     0.037 A 
HETATM   16  C   UNL     1     -15.260   2.316 -32.326  1.00  0.00     0.066 A 
HETATM   17  C   UNL     1     -16.518   2.884 -32.130  1.00  0.00     0.067 A 
HETATM   18  C   UNL     1     -16.666   4.251 -31.929  1.00  0.00     0.036 A 
HETATM   19  C   UNL     1     -15.537   5.067 -31.924  1.00  0.00     0.005 A 
HETATM   20  C   UNL     1     -14.272   4.507 -32.120  1.00  0.00     0.029 A 
BRANCH  17  21
HETATM   21  O   UNL     1     -17.648   2.120 -32.132  1.00  0.00    -0.361 OA
HETATM   22  H   UNL     1     -18.212   2.405 -31.392  1.00  0.00     0.217 HD
ENDBRANCH  17  21
ENDBRANCH  12  15
ENDBRANCH   6  11
BRANCH   8  23
HETATM   23  C   UNL     1      -6.778   3.298 -33.371  1.00  0.00     0.409 C 
HETATM   24  F   UNL     1      -7.299   3.242 -32.125  1.00  0.00    -0.169 F 
HETATM   25  F   UNL     1      -5.448   3.104 -33.271  1.00  0.00    -0.169 F 
HETATM   26  F   UNL     1      -6.950   4.576 -33.802  1.00  0.00    -0.169 F 
ENDBRANCH   8  23
BRANCH   1  27
HETATM   27  C   UNL     1      -6.187  -1.265 -33.840  1.00  0.00    -0.035 A 
HETATM   28  C   UNL     1      -4.851  -1.697 -33.764  1.00  0.00     0.010 A 
HETATM   29  C   UNL     1      -4.491  -2.988 -34.155  1.00  0.00     0.007 A 
HETATM   30  C   UNL     1      -5.457  -3.875 -34.635  1.00  0.00    -0.062 A 
HETATM   31  C   UNL     1      -5.077  -5.275 -35.018  1.00  0.00     0.048 C 
HETATM   32  C   UNL     1      -6.792  -3.460 -34.695  1.00  0.00     0.007 A 
HETATM   33  C   UNL     1      -7.154  -2.166 -34.305  1.00  0.00     0.010 A 
ENDBRANCH   1  27
TORSDOF 5
ENDMDL
MODEL 5
REMARK VINA RESULT:      -9.3      4.431      9.729
REMARK  5 active torsions:
REMARK  status: ('A' for Active; 'I' for Inactive)
REMARK    1  A    between atoms: C_5  and  C_6 
REMARK    2  A    between atoms: C_11  and  C_12 
REMARK       I    between atoms: C_12  and  N_13 
REMARK    3  A    between atoms: N_13  and  C_14 
REMARK    4  A    between atoms: C_16  and  O_17 
REMARK    5  A    between atoms: C_23  and  C_24 
ROOT
HETATM    1  C   UNL     1      -8.526   0.001 -33.059  1.00  0.00     0.118 C 
HETATM    2  N   UNL     1      -8.112   0.741 -31.863  1.00  0.00    -0.366 N 
HETATM    3  C   UNL     1      -6.981   1.475 -31.828  1.00  0.00     0.123 A 
HETATM    4  N   UNL     1      -6.001   1.298 -32.762  1.00  0.00    -0.240 N 
HETATM    5  N   UNL     1      -5.008   2.203 -32.695  1.00  0.00    -0.165 NA
HETATM    6  C   UNL     1      -5.328   2.930 -31.597  1.00  0.00     0.148 A 
HETATM    7  C   UNL     1      -6.539   2.473 -31.005  1.00  0.00     0.089 A 
HETATM    8  C   UNL     1      -6.116   0.345 -33.847  1.00  0.00     0.221 C 
HETATM    9  C   UNL     1      -7.590   0.255 -34.261  1.00  0.00     0.066 C 
HETATM   10  H   UNL     1      -8.851   0.889 -31.175  1.00  0.00     0.161 HD
ENDROOT
BRANCH   6  11
HETATM   11  C   UNL     1      -4.512   4.079 -31.157  1.00  0.00     0.276 C 
HETATM   12  N   UNL     1      -3.351   4.191 -31.895  1.00  0.00    -0.322 N 
HETATM   13  H   UNL     1      -3.238   3.449 -32.582  1.00  0.00     0.169 HD
HETATM   14  O   UNL     1      -4.886   4.822 -30.256  1.00  0.00    -0.266 OA
BRANCH  12  15
HETATM   15  C   UNL     1      -2.371   5.196 -31.838  1.00  0.00     0.037 A 
HETATM   16  C   UNL     1      -2.573   6.503 -32.288  1.00  0.00     0.066 A 
HETATM   17  C   UNL     1      -1.535   7.430 -32.210  1.00  0.00     0.067 A 
HETATM   18  C   UNL     1      -0.296   7.080 -31.687  1.00  0.00     0.036 A 
HETATM   19  C   UNL     1      -0.089   5.779 -31.234  1.00  0.00     0.005 A 
HETATM   20  C   UNL     1      -1.123   4.842 -31.310  1.00  0.00     0.029 A 
BRANCH  17  21
HETATM   21  O   UNL     1      -1.697   8.713 -32.647  1.00  0.00    -0.361 OA
HETATM   22  H   UNL     1      -1.534   9.313 -31.899  1.00  0.00     0.217 HD
ENDBRANCH  17  21
ENDBRANCH  12  15
ENDBRANCH   6  11
BRANCH   8  23
HETATM   23  C   UNL     1      -5.537  -0.988 -33.438  1.00  0.00     0.409 C 
HETATM   24  F   UNL     1      -5.466  -1.126 -32.095  1.00  0.00    -0.169 F 
HETATM   25  F   UNL     1      -6.210  -2.050 -33.926  1.00  0.00    -0.169 F 
HETATM   26  F   UNL     1      -4.263  -1.094 -33.903  1.00  0.00    -0.169 F 
ENDBRANCH   8  23
BRANCH   1  27
HETATM   27  C   UNL     1      -9.952   0.384 -33.420  1.00  0.00    -0.035 A 
HETATM   28  C   UNL     1     -10.221   1.530 -34.189  1.00  0.00     0.010 A 
HETATM   29  C   UNL     1     -11.529   1.869 -34.541  1.00  0.00     0.007 A 
HETATM   30  C   UNL     1     -12.599   1.071 -34.129  1.00  0.00    -0.062 A 
HETATM   31  C   UNL     1     -14.001   1.412 -34.540  1.00  0.00     0.048 C 
HETATM   32  C   UNL     1     -12.339  -0.082 -33.380  1.00  0.00     0.007 A 
HETATM   33  C   UNL     1     -11.030  -0.421 -33.025  1.00  0.00     0.010 A 
ENDBRANCH   1  27
TORSDOF 5
ENDMDL
MODEL 6
REMARK VINA RESULT:      -8.9      3.702      9.445
REMARK  5 active torsions:
REMARK  status: ('A' for Active; 'I' for Inactive)
REMARK    1  A    between atoms: C_5  and  C_6 
REMARK    2  A    between atoms: C_11  and  C_12 
REMARK       I    between atoms: C_12  and  N_13 
REMARK    3  A    between atoms: N_13  and  C_14 
REMARK    4  A    between atoms: C_16  and  O_17 
REMARK    5  A    between atoms: C_23  and  C_24 
ROOT
HETATM    1  C   UNL     1      -7.169  -0.185 -33.899  1.00  0.00     0.118 C 
HETATM    2  N   UNL     1      -6.357   0.996 -34.209  1.00  0.00    -0.366 N 
HETATM    3  C   UNL     1      -6.289   2.058 -33.379  1.00  0.00     0.123 A 
HETATM    4  N   UNL     1      -7.217   2.241 -32.396  1.00  0.00    -0.240 N 
HETATM    5  N   UNL     1      -6.933   3.250 -31.552  1.00  0.00    -0.165 NA
HETATM    6  C   UNL     1      -5.816   3.797 -32.092  1.00  0.00     0.148 A 
HETATM    7  C   UNL     1      -5.408   3.097 -33.263  1.00  0.00     0.089 A 
HETATM    8  C   UNL     1      -8.305   1.314 -32.163  1.00  0.00     0.221 C 
HETATM    9  C   UNL     1      -7.818  -0.102 -32.500  1.00  0.00     0.066 C 
HETATM   10  H   UNL     1      -5.651   0.851 -34.931  1.00  0.00     0.161 HD
ENDROOT
BRANCH   6  11
HETATM   11  C   UNL     1      -5.123   4.936 -31.462  1.00  0.00     0.276 C 
HETATM   12  N   UNL     1      -3.801   5.007 -31.852  1.00  0.00    -0.322 N 
HETATM   13  H   UNL     1      -3.522   4.247 -32.469  1.00  0.00     0.169 HD
HETATM   14  O   UNL     1      -5.710   5.708 -30.711  1.00  0.00    -0.266 OA
BRANCH  12  15
HETATM   15  C   UNL     1      -2.847   5.992 -31.541  1.00  0.00     0.037 A 
HETATM   16  C   UNL     1      -2.995   7.343 -31.862  1.00  0.00     0.066 A 
HETATM   17  C   UNL     1      -1.987   8.247 -31.531  1.00  0.00     0.067 A 
HETATM   18  C   UNL     1      -0.832   7.829 -30.883  1.00  0.00     0.036 A 
HETATM   19  C   UNL     1      -0.678   6.484 -30.559  1.00  0.00     0.005 A 
HETATM   20  C   UNL     1      -1.683   5.570 -30.887  1.00  0.00     0.029 A 
BRANCH  17  21
HETATM   21  O   UNL     1      -2.098   9.573 -31.835  1.00  0.00    -0.361 OA
HETATM   22  H   UNL     1      -1.324   9.830 -32.367  1.00  0.00     0.217 HD
ENDBRANCH  17  21
ENDBRANCH  12  15
ENDBRANCH   6  11
BRANCH   8  23
HETATM   23  C   UNL     1      -9.522   1.723 -32.959  1.00  0.00     0.409 C 
HETATM   24  F   UNL     1     -10.353   2.520 -32.252  1.00  0.00    -0.169 F 
HETATM   25  F   UNL     1      -9.232   2.352 -34.116  1.00  0.00    -0.169 F 
HETATM   26  F   UNL     1     -10.241   0.618 -33.292  1.00  0.00    -0.169 F 
ENDBRANCH   8  23
BRANCH   1  27
HETATM   27  C   UNL     1      -6.303  -1.431 -33.996  1.00  0.00    -0.035 A 
HETATM   28  C   UNL     1      -6.761  -2.580 -34.667  1.00  0.00     0.010 A 
HETATM   29  C   UNL     1      -5.956  -3.715 -34.778  1.00  0.00     0.007 A 
HETATM   30  C   UNL     1      -4.676  -3.731 -34.218  1.00  0.00    -0.062 A 
HETATM   31  C   UNL     1      -3.797  -4.936 -34.370  1.00  0.00     0.048 C 
HETATM   32  C   UNL     1      -4.206  -2.585 -33.566  1.00  0.00     0.007 A 
HETATM   33  C   UNL     1      -5.012  -1.448 -33.452  1.00  0.00     0.010 A 
ENDBRANCH   1  27
TORSDOF 5
ENDMDL
MODEL 7
REMARK VINA RESULT:      -8.6      4.535      9.431
REMARK  5 active torsions:
REMARK  status: ('A' for Active; 'I' for Inactive)
REMARK    1  A    between atoms: C_5  and  C_6 
REMARK    2  A    between atoms: C_11  and  C_12 
REMARK       I    between atoms: C_12  and  N_13 
REMARK    3  A    between atoms: N_13  and  C_14 
REMARK    4  A    between atoms: C_16  and  O_17 
REMARK    5  A    between atoms: C_23  and  C_24 
ROOT
HETATM    1  C   UNL     1      -8.825   0.076 -33.204  1.00  0.00     0.118 C 
HETATM    2  N   UNL     1      -7.991   0.522 -32.084  1.00  0.00    -0.366 N 
HETATM    3  C   UNL     1      -6.701   0.881 -32.247  1.00  0.00     0.123 A 
HETATM    4  N   UNL     1      -6.012   0.528 -33.371  1.00  0.00    -0.240 N 
HETATM    5  N   UNL     1      -4.792   1.087 -33.466  1.00  0.00    -0.165 NA
HETATM    6  C   UNL     1      -4.664   1.748 -32.289  1.00  0.00     0.148 A 
HETATM    7  C   UNL     1      -5.829   1.606 -31.484  1.00  0.00     0.089 A 
HETATM    8  C   UNL     1      -6.612  -0.220 -34.456  1.00  0.00     0.221 C 
HETATM    9  C   UNL     1      -8.091   0.175 -34.560  1.00  0.00     0.066 C 
HETATM   10  H   UNL     1      -8.510   0.804 -31.251  1.00  0.00     0.161 HD
ENDROOT
BRANCH   6  11
HETATM   11  C   UNL     1      -3.466   2.548 -31.970  1.00  0.00     0.276 C 
HETATM   12  N   UNL     1      -3.380   3.675 -32.762  1.00  0.00    -0.322 N 
HETATM   13  H   UNL     1      -4.128   3.742 -33.450  1.00  0.00     0.169 HD
HETATM   14  O   UNL     1      -2.691   2.214 -31.081  1.00  0.00    -0.266 OA
BRANCH  12  15
HETATM   15  C   UNL     1      -2.443   4.720 -32.700  1.00  0.00     0.037 A 
HETATM   16  C   UNL     1      -1.852   5.163 -31.514  1.00  0.00     0.066 A 
HETATM   17  C   UNL     1      -0.945   6.221 -31.546  1.00  0.00     0.067 A 
HETATM   18  C   UNL     1      -0.612   6.847 -32.741  1.00  0.00     0.036 A 
HETATM   19  C   UNL     1      -1.196   6.409 -33.927  1.00  0.00     0.005 A 
HETATM   20  C   UNL     1      -2.107   5.350 -33.905  1.00  0.00     0.029 A 
BRANCH  17  21
HETATM   21  O   UNL     1      -0.355   6.683 -30.405  1.00  0.00    -0.361 OA
HETATM   22  H   UNL     1      -0.338   7.655 -30.441  1.00  0.00     0.217 HD
ENDBRANCH  17  21
ENDBRANCH  12  15
ENDBRANCH   6  11
BRANCH   8  23
HETATM   23  C   UNL     1      -6.413  -1.703 -34.244  1.00  0.00     0.409 C 
HETATM   24  F   UNL     1      -5.894  -2.311 -35.333  1.00  0.00    -0.169 F 
HETATM   25  F   UNL     1      -5.628  -2.003 -33.190  1.00  0.00    -0.169 F 
HETATM   26  F   UNL     1      -7.615  -2.294 -34.009  1.00  0.00    -0.169 F 
ENDBRANCH   8  23
BRANCH   1  27
HETATM   27  C   UNL     1     -10.102   0.901 -33.243  1.00  0.00    -0.035 A 
HETATM   28  C   UNL     1     -11.338   0.306 -33.551  1.00  0.00     0.010 A 
HETATM   29  C   UNL     1     -12.514   1.059 -33.561  1.00  0.00     0.007 A 
HETATM   30  C   UNL     1     -12.480   2.424 -33.269  1.00  0.00    -0.062 A 
HETATM   31  C   UNL     1     -13.749   3.225 -33.242  1.00  0.00     0.048 C 
HETATM   32  C   UNL     1     -11.257   3.019 -32.943  1.00  0.00     0.007 A 
HETATM   33  C   UNL     1     -10.078   2.267 -32.933  1.00  0.00     0.010 A 
ENDBRANCH   1  27
TORSDOF 5
ENDMDL
MODEL 8
REMARK VINA RESULT:      -8.6      3.315      9.411
REMARK  5 active torsions:
REMARK  status: ('A' for Active; 'I' for Inactive)
REMARK    1  A    between atoms: C_5  and  C_6 
REMARK    2  A    between atoms: C_11  and  C_12 
REMARK       I    between atoms: C_12  and  N_13 
REMARK    3  A    between atoms: N_13  and  C_14 
REMARK    4  A    between atoms: C_16  and  O_17 
REMARK    5  A    between atoms: C_23  and  C_24 
ROOT
HETATM    1  C   UNL     1      -6.801   1.084 -32.613  1.00  0.00     0.118 C 
HETATM    2  N   UNL     1      -6.004   2.143 -33.239  1.00  0.00    -0.366 N 
HETATM    3  C   UNL     1      -5.317   3.049 -32.512  1.00  0.00     0.123 A 
HETATM    4  N   UNL     1      -5.593   3.243 -31.190  1.00  0.00    -0.240 N 
HETATM    5  N   UNL     1      -4.727   4.059 -30.562  1.00  0.00    -0.165 NA
HETATM    6  C   UNL     1      -3.918   4.481 -31.565  1.00  0.00     0.148 A 
HETATM    7  C   UNL     1      -4.286   3.898 -32.810  1.00  0.00     0.089 A 
HETATM    8  C   UNL     1      -6.607   2.489 -30.482  1.00  0.00     0.221 C 
HETATM    9  C   UNL     1      -6.662   1.075 -31.074  1.00  0.00     0.066 C 
HETATM   10  H   UNL     1      -5.782   1.986 -34.222  1.00  0.00     0.161 HD
ENDROOT
BRANCH   6  11
HETATM   11  C   UNL     1      -2.779   5.386 -31.320  1.00  0.00     0.276 C 
HETATM   12  N   UNL     1      -2.870   5.997 -30.086  1.00  0.00    -0.322 N 
HETATM   13  H   UNL     1      -3.717   5.753 -29.577  1.00  0.00     0.169 HD
HETATM   14  O   UNL     1      -1.877   5.518 -32.141  1.00  0.00    -0.266 OA
BRANCH  12  15
HETATM   15  C   UNL     1      -1.944   6.848 -29.459  1.00  0.00     0.037 A 
HETATM   16  C   UNL     1      -0.789   6.398 -28.816  1.00  0.00     0.066 A 
HETATM   17  C   UNL     1       0.065   7.315 -28.203  1.00  0.00     0.067 A 
HETATM   18  C   UNL     1      -0.211   8.676 -28.222  1.00  0.00     0.036 A 
HETATM   19  C   UNL     1      -1.360   9.132 -28.864  1.00  0.00     0.005 A 
HETATM   20  C   UNL     1      -2.222   8.221 -29.480  1.00  0.00     0.029 A 
BRANCH  17  21
HETATM   21  O   UNL     1       1.198   6.907 -27.561  1.00  0.00    -0.361 OA
HETATM   22  H   UNL     1       1.059   7.008 -26.603  1.00  0.00     0.217 HD
ENDBRANCH  17  21
ENDBRANCH  12  15
ENDBRANCH   6  11
BRANCH   8  23
HETATM   23  C   UNL     1      -7.934   3.207 -30.547  1.00  0.00     0.409 C 
HETATM   24  F   UNL     1      -8.147   3.990 -29.465  1.00  0.00    -0.169 F 
HETATM   25  F   UNL     1      -8.089   3.972 -31.646  1.00  0.00    -0.169 F 
HETATM   26  F   UNL     1      -8.944   2.296 -30.566  1.00  0.00    -0.169 F 
ENDBRANCH   8  23
BRANCH   1  27
HETATM   27  C   UNL     1      -6.383  -0.263 -33.180  1.00  0.00    -0.035 A 
HETATM   28  C   UNL     1      -7.303  -1.077 -33.865  1.00  0.00     0.010 A 
HETATM   29  C   UNL     1      -6.914  -2.302 -34.408  1.00  0.00     0.007 A 
HETATM   30  C   UNL     1      -5.595  -2.746 -34.275  1.00  0.00    -0.062 A 
HETATM   31  C   UNL     1      -5.166  -4.044 -34.891  1.00  0.00     0.048 C 
HETATM   32  C   UNL     1      -4.669  -1.933 -33.611  1.00  0.00     0.007 A 
HETATM   33  C   UNL     1      -5.058  -0.706 -33.066  1.00  0.00     0.010 A 
ENDBRANCH   1  27
TORSDOF 5
ENDMDL
MODEL 9
REMARK VINA RESULT:      -8.5      4.548      9.654
REMARK  5 active torsions:
REMARK  status: ('A' for Active; 'I' for Inactive)
REMARK    1  A    between atoms: C_5  and  C_6 
REMARK    2  A    between atoms: C_11  and  C_12 
REMARK       I    between atoms: C_12  and  N_13 
REMARK    3  A    between atoms: N_13  and  C_14 
REMARK    4  A    between atoms: C_16  and  O_17 
REMARK    5  A    between atoms: C_23  and  C_24 
ROOT
HETATM    1  C   UNL     1      -7.657   0.273 -34.052  1.00  0.00     0.118 C 
HETATM    2  N   UNL     1      -6.940   1.526 -33.795  1.00  0.00    -0.366 N 
HETATM    3  C   UNL     1      -7.276   2.351 -32.782  1.00  0.00     0.123 A 
HETATM    4  N   UNL     1      -8.489   2.246 -32.165  1.00  0.00    -0.240 N 
HETATM    5  N   UNL     1      -8.621   3.025 -31.076  1.00  0.00    -0.165 NA
HETATM    6  C   UNL     1      -7.466   3.734 -31.062  1.00  0.00     0.148 A 
HETATM    7  C   UNL     1      -6.616   3.364 -32.143  1.00  0.00     0.089 A 
HETATM    8  C   UNL     1      -9.471   1.247 -32.532  1.00  0.00     0.221 C 
HETATM    9  C   UNL     1      -8.731  -0.019 -32.982  1.00  0.00     0.066 C 
HETATM   10  H   UNL     1      -6.025   1.594 -34.241  1.00  0.00     0.161 HD
ENDROOT
BRANCH   6  11
HETATM   11  C   UNL     1      -7.161   4.709 -29.998  1.00  0.00     0.276 C 
HETATM   12  N   UNL     1      -5.806   4.951 -29.901  1.00  0.00    -0.322 N 
HETATM   13  H   UNL     1      -5.250   4.393 -30.547  1.00  0.00     0.169 HD
HETATM   14  O   UNL     1      -8.050   5.227 -29.330  1.00  0.00    -0.266 OA
BRANCH  12  15
HETATM   15  C   UNL     1      -5.137   5.873 -29.079  1.00  0.00     0.037 A 
HETATM   16  C   UNL     1      -5.344   5.976 -27.701  1.00  0.00     0.066 A 
HETATM   17  C   UNL     1      -4.648   6.935 -26.967  1.00  0.00     0.067 A 
HETATM   18  C   UNL     1      -3.746   7.795 -27.580  1.00  0.00     0.036 A 
HETATM   19  C   UNL     1      -3.534   7.697 -28.953  1.00  0.00     0.005 A 
HETATM   20  C   UNL     1      -4.227   6.739 -29.698  1.00  0.00     0.029 A 
BRANCH  17  21
HETATM   21  O   UNL     1      -4.832   7.066 -25.620  1.00  0.00    -0.361 OA
HETATM   22  H   UNL     1      -4.960   8.010 -25.420  1.00  0.00     0.217 HD
ENDBRANCH  17  21
ENDBRANCH  12  15
ENDBRANCH   6  11
BRANCH   8  23
HETATM   23  C   UNL     1     -10.403   1.791 -33.590  1.00  0.00     0.409 C 
HETATM   24  F   UNL     1      -9.832   2.776 -34.319  1.00  0.00    -0.169 F 
HETATM   25  F   UNL     1     -10.862   0.857 -34.447  1.00  0.00    -0.169 F 
HETATM   26  F   UNL     1     -11.497   2.338 -32.995  1.00  0.00    -0.169 F 
ENDBRANCH   8  23
BRANCH   1  27
HETATM   27  C   UNL     1      -6.660  -0.873 -34.115  1.00  0.00    -0.035 A 
HETATM   28  C   UNL     1      -5.359  -0.730 -33.602  1.00  0.00     0.010 A 
HETATM   29  C   UNL     1      -4.452  -1.791 -33.638  1.00  0.00     0.007 A 
HETATM   30  C   UNL     1      -4.824  -3.019 -34.192  1.00  0.00    -0.062 A 
HETATM   31  C   UNL     1      -3.863  -4.171 -34.196  1.00  0.00     0.048 C 
HETATM   32  C   UNL     1      -6.123  -3.175 -34.688  1.00  0.00     0.007 A 
HETATM   33  C   UNL     1      -7.031  -2.113 -34.654  1.00  0.00     0.010 A 
ENDBRANCH   1  27
TORSDOF 5
ENDMDL
MODEL 10
REMARK VINA RESULT:      -8.5      2.855      4.157
REMARK  5 active torsions:
REMARK  status: ('A' for Active; 'I' for Inactive)
REMARK    1  A    between atoms: C_5  and  C_6 
REMARK    2  A    between atoms: C_11  and  C_12 
REMARK       I    between atoms: C_12  and  N_13 
REMARK    3  A    between atoms: N_13  and  C_14 
REMARK    4  A    between atoms: C_16  and  O_17 
REMARK    5  A    between atoms: C_23  and  C_24 
ROOT
HETATM    1  C   UNL     1      -5.009   5.520 -31.612  1.00  0.00     0.118 C 
HETATM    2  N   UNL     1      -5.534   4.378 -32.369  1.00  0.00    -0.366 N 
HETATM    3  C   UNL     1      -4.887   3.197 -32.427  1.00  0.00     0.123 A 
HETATM    4  N   UNL     1      -3.569   3.101 -32.083  1.00  0.00    -0.240 N 
HETATM    5  N   UNL     1      -3.103   1.839 -32.039  1.00  0.00    -0.165 NA
HETATM    6  C   UNL     1      -4.156   1.106 -32.476  1.00  0.00     0.148 A 
HETATM    7  C   UNL     1      -5.279   1.932 -32.767  1.00  0.00     0.089 A 
HETATM    8  C   UNL     1      -2.796   4.234 -31.618  1.00  0.00     0.221 C 
HETATM    9  C   UNL     1      -3.725   5.166 -30.830  1.00  0.00     0.066 C 
HETATM   10  H   UNL     1      -6.524   4.443 -32.608  1.00  0.00     0.161 HD
ENDROOT
BRANCH   6  11
HETATM   11  C   UNL     1      -4.102  -0.366 -32.559  1.00  0.00     0.276 C 
HETATM   12  N   UNL     1      -4.997  -0.857 -33.487  1.00  0.00    -0.322 N 
HETATM   13  H   UNL     1      -5.563  -0.132 -33.923  1.00  0.00     0.169 HD
HETATM   14  O   UNL     1      -3.317  -1.017 -31.877  1.00  0.00    -0.266 OA
BRANCH  12  15
HETATM   15  C   UNL     1      -5.177  -2.184 -33.913  1.00  0.00     0.037 A 
HETATM   16  C   UNL     1      -4.190  -3.169 -33.821  1.00  0.00     0.066 A 
HETATM   17  C   UNL     1      -4.452  -4.456 -34.288  1.00  0.00     0.067 A 
HETATM   18  C   UNL     1      -5.683  -4.783 -34.844  1.00  0.00     0.036 A 
HETATM   19  C   UNL     1      -6.671  -3.806 -34.937  1.00  0.00     0.005 A 
HETATM   20  C   UNL     1      -6.418  -2.512 -34.473  1.00  0.00     0.029 A 
BRANCH  17  21
HETATM   21  O   UNL     1      -3.508  -5.440 -34.218  1.00  0.00    -0.361 OA
HETATM   22  H   UNL     1      -3.419  -5.712 -33.288  1.00  0.00     0.217 HD
ENDBRANCH  17  21
ENDBRANCH  12  15
ENDBRANCH   6  11
BRANCH   8  23
HETATM   23  C   UNL     1      -2.123   4.922 -32.783  1.00  0.00     0.409 C 
HETATM   24  F   UNL     1      -0.775   4.846 -32.713  1.00  0.00    -0.169 F 
HETATM   25  F   UNL     1      -2.500   4.451 -33.988  1.00  0.00    -0.169 F 
HETATM   26  F   UNL     1      -2.434   6.245 -32.771  1.00  0.00    -0.169 F 
ENDBRANCH   8  23
BRANCH   1  27
HETATM   27  C   UNL     1      -6.078   6.025 -30.656  1.00  0.00    -0.035 A 
HETATM   28  C   UNL     1      -6.728   5.149 -29.769  1.00  0.00     0.010 A 
HETATM   29  C   UNL     1      -7.692   5.617 -28.874  1.00  0.00     0.007 A 
HETATM   30  C   UNL     1      -8.031   6.972 -28.848  1.00  0.00    -0.062 A 
HETATM   31  C   UNL     1      -9.039   7.482 -27.860  1.00  0.00     0.048 C 
HETATM   32  C   UNL     1      -7.376   7.854 -29.715  1.00  0.00     0.007 A 
HETATM   33  C   UNL     1      -6.412   7.385 -30.613  1.00  0.00     0.010 A 
ENDBRANCH   1  27
TORSDOF 5
ENDMDL
