MODEL 1
REMARK VINA RESULT:      -8.6      0.000      0.000
REMARK  11 active torsions:
REMARK  status: ('A' for Active; 'I' for Inactive)
REMARK    1  A    between atoms: C_2  and  O_3 
REMARK    2  A    between atoms: C_2  and  C_4 
REMARK    3  A    between atoms: C_8  and  C_9 
REMARK    4  A    between atoms: C_12  and  C_13 
REMARK    5  A    between atoms: C_13  and  C_14 
REMARK    6  A    between atoms: C_14  and  N_15 
REMARK    7  A    between atoms: C_14  and  C_29 
REMARK       I    between atoms: N_15  and  C_16 
REMARK    8  A    between atoms: C_16  and  C_17 
REMARK    9  A    between atoms: C_21  and  O_22 
REMARK   10  A    between atoms: O_22  and  C_23 
REMARK   11  A    between atoms: C_29  and  N_30 
ROOT
HETATM    1  C   UNL     1      -9.819   2.686 -34.415  1.00  0.00     0.114 C 
ENDROOT
BRANCH   1   2
HETATM    2  C   UNL     1      -9.431   3.708 -33.313  1.00  0.00     0.065 C 
BRANCH   2   3
HETATM    3  C   UNL     1      -7.967   4.014 -33.052  1.00  0.00    -0.056 A 
HETATM    4  C   UNL     1      -7.135   4.752 -33.903  1.00  0.00     0.008 A 
HETATM    5  C   UNL     1      -5.824   5.079 -33.528  1.00  0.00     0.014 A 
HETATM    6  C   UNL     1      -5.304   4.660 -32.301  1.00  0.00    -0.006 A 
HETATM    7  C   UNL     1      -6.106   3.866 -31.476  1.00  0.00     0.014 A 
HETATM    8  C   UNL     1      -7.419   3.549 -31.845  1.00  0.00     0.008 A 
BRANCH   6   9
HETATM    9  C   UNL     1      -3.976   5.046 -31.854  1.00  0.00     0.085 A 
HETATM   10  C   UNL     1      -2.782   4.685 -32.442  1.00  0.00     0.130 A 
HETATM   11  N   UNL     1      -1.806   5.335 -31.727  1.00  0.00    -0.315 N 
HETATM   12  C   UNL     1      -2.450   6.055 -30.730  1.00  0.00     0.143 A 
HETATM   13  C   UNL     1      -0.430   5.333 -31.909  1.00  0.00     0.098 A 
HETATM   14  C   UNL     1      -1.649   6.825 -29.809  1.00  0.00     0.017 A 
HETATM   15  N   UNL     1      -3.758   5.893 -30.792  1.00  0.00    -0.228 NA
HETATM   16  C   UNL     1      -0.306   6.806 -30.003  1.00  0.00     0.015 A 
HETATM   17  C   UNL     1       0.334   6.055 -31.074  1.00  0.00     0.018 A 
BRANCH  14  18
HETATM   18  C   UNL     1      -2.321   7.615 -28.688  1.00  0.00     0.150 C 
HETATM   19  C   UNL     1      -1.413   8.265 -27.650  1.00  0.00     0.044 C 
BRANCH  18  20
HETATM   20  O   UNL     1      -3.213   6.748 -27.980  1.00  0.00    -0.391 OA
HETATM   21  H   UNL     1      -4.009   7.281 -27.788  1.00  0.00     0.210 HD
ENDBRANCH  18  20
ENDBRANCH  14  18
ENDBRANCH   6   9
ENDBRANCH   2   3
ENDBRANCH   1   2
BRANCH   1  22
HETATM   22  N   UNL     1      -8.772   1.653 -34.527  1.00  0.00    -0.350 N 
HETATM   23  C   UNL     1      -8.548   0.613 -33.659  1.00  0.00     0.252 C 
HETATM   24  O   UNL     1      -9.294   0.400 -32.708  1.00  0.00    -0.268 OA
HETATM   25  H   UNL     1      -8.278   1.625 -35.414  1.00  0.00     0.163 HD
BRANCH  23  26
HETATM   26  C   UNL     1      -7.313  -0.201 -33.866  1.00  0.00     0.033 A 
HETATM   27  C   UNL     1      -7.450  -1.497 -34.370  1.00  0.00     0.043 A 
HETATM   28  C   UNL     1      -6.335  -2.337 -34.464  1.00  0.00     0.068 A 
HETATM   29 CL   UNL     1      -6.584  -3.939 -35.064  1.00  0.00    -0.081 Cl
HETATM   30  C   UNL     1      -5.068  -1.901 -34.044  1.00  0.00     0.091 A 
HETATM   31  C   UNL     1      -4.928  -0.592 -33.580  1.00  0.00     0.039 A 
HETATM   32  C   UNL     1      -6.044   0.251 -33.479  1.00  0.00     0.020 A 
BRANCH  30  33
HETATM   33  O   UNL     1      -4.041  -2.800 -34.131  1.00  0.00    -0.345 OA
BRANCH  33  34
HETATM   34  C   UNL     1      -3.924  -3.838 -33.149  1.00  0.00     0.121 C 
HETATM   35  C   UNL     1      -3.285  -5.091 -33.746  1.00  0.00     0.040 C 
HETATM   36  C   UNL     1      -3.031  -3.287 -32.039  1.00  0.00     0.040 C 
ENDBRANCH  33  34
ENDBRANCH  30  33
ENDBRANCH  23  26
ENDBRANCH   1  22
BRANCH   1  37
HETATM   37  C   UNL     1     -11.267   2.171 -34.178  1.00  0.00     0.254 C 
BRANCH  37  38
HETATM   38  N   UNL     1     -11.673   2.326 -32.755  1.00  0.00    -0.077 N 
HETATM   39  H   UNL     1     -10.888   2.322 -32.098  1.00  0.00     0.274 HD
HETATM   40  H   UNL     1     -12.134   3.255 -32.638  1.00  0.00     0.274 HD
HETATM   41  H   UNL     1     -12.361   1.626 -32.457  1.00  0.00     0.274 HD
ENDBRANCH  37  38
ENDBRANCH   1  37
TORSDOF 11
ENDMDL
MODEL 2
REMARK VINA RESULT:      -8.3      2.411      7.674
REMARK  11 active torsions:
REMARK  status: ('A' for Active; 'I' for Inactive)
REMARK    1  A    between atoms: C_2  and  O_3 
REMARK    2  A    between atoms: C_2  and  C_4 
REMARK    3  A    between atoms: C_8  and  C_9 
REMARK    4  A    between atoms: C_12  and  C_13 
REMARK    5  A    between atoms: C_13  and  C_14 
REMARK    6  A    between atoms: C_14  and  N_15 
REMARK    7  A    between atoms: C_14  and  C_29 
REMARK       I    between atoms: N_15  and  C_16 
REMARK    8  A    between atoms: C_16  and  C_17 
REMARK    9  A    between atoms: C_21  and  O_22 
REMARK   10  A    between atoms: O_22  and  C_23 
REMARK   11  A    between atoms: C_29  and  N_30 
ROOT
HETATM    1  C   UNL     1      -3.774   4.229 -31.385  1.00  0.00     0.114 C 
ENDROOT
BRANCH   1   2
HETATM    2  C   UNL     1      -4.813   5.334 -31.715  1.00  0.00     0.065 C 
BRANCH   2   3
HETATM    3  C   UNL     1      -6.208   4.946 -32.169  1.00  0.00    -0.056 A 
HETATM    4  C   UNL     1      -6.657   4.963 -33.495  1.00  0.00     0.008 A 
HETATM    5  C   UNL     1      -7.930   4.482 -33.835  1.00  0.00     0.014 A 
HETATM    6  C   UNL     1      -8.795   3.990 -32.855  1.00  0.00    -0.006 A 
HETATM    7  C   UNL     1      -8.380   4.033 -31.521  1.00  0.00     0.014 A 
HETATM    8  C   UNL     1      -7.104   4.502 -31.183  1.00  0.00     0.008 A 
BRANCH   6   9
HETATM    9  C   UNL     1     -10.088   3.417 -33.186  1.00  0.00     0.085 A 
HETATM   10  C   UNL     1     -10.354   2.551 -34.226  1.00  0.00     0.130 A 
HETATM   11  N   UNL     1     -11.682   2.224 -34.105  1.00  0.00    -0.315 N 
HETATM   12  C   UNL     1     -12.167   2.914 -33.004  1.00  0.00     0.143 A 
HETATM   13  C   UNL     1     -12.455   1.372 -34.883  1.00  0.00     0.098 A 
HETATM   14  C   UNL     1     -13.560   2.766 -32.656  1.00  0.00     0.017 A 
HETATM   15  N   UNL     1     -11.221   3.638 -32.437  1.00  0.00    -0.228 NA
HETATM   16  C   UNL     1     -14.299   1.931 -33.432  1.00  0.00     0.015 A 
HETATM   17  C   UNL     1     -13.749   1.207 -34.570  1.00  0.00     0.018 A 
BRANCH  14  18
HETATM   18  C   UNL     1     -14.135   3.523 -31.461  1.00  0.00     0.150 C 
HETATM   19  C   UNL     1     -14.509   4.985 -31.674  1.00  0.00     0.044 C 
BRANCH  18  20
HETATM   20  O   UNL     1     -13.186   3.485 -30.390  1.00  0.00    -0.391 OA
HETATM   21  H   UNL     1     -13.611   2.973 -29.674  1.00  0.00     0.210 HD
ENDBRANCH  18  20
ENDBRANCH  14  18
ENDBRANCH   6   9
ENDBRANCH   2   3
ENDBRANCH   1   2
BRANCH   1  22
HETATM   22  N   UNL     1      -4.077   3.012 -32.162  1.00  0.00    -0.350 N 
HETATM   23  C   UNL     1      -4.574   1.829 -31.675  1.00  0.00     0.252 C 
HETATM   24  O   UNL     1      -4.899   1.706 -30.497  1.00  0.00    -0.268 OA
HETATM   25  H   UNL     1      -4.064   3.124 -33.172  1.00  0.00     0.163 HD
BRANCH  23  26
HETATM   26  C   UNL     1      -4.623   0.667 -32.612  1.00  0.00     0.033 A 
HETATM   27  C   UNL     1      -5.758   0.510 -33.412  1.00  0.00     0.043 A 
HETATM   28  C   UNL     1      -5.901  -0.628 -34.213  1.00  0.00     0.068 A 
HETATM   29 CL   UNL     1      -7.345  -0.774 -35.152  1.00  0.00    -0.081 Cl
HETATM   30  C   UNL     1      -4.921  -1.633 -34.218  1.00  0.00     0.091 A 
HETATM   31  C   UNL     1      -3.771  -1.453 -33.448  1.00  0.00     0.039 A 
HETATM   32  C   UNL     1      -3.626  -0.317 -32.640  1.00  0.00     0.020 A 
BRANCH  30  33
HETATM   33  O   UNL     1      -5.160  -2.732 -34.997  1.00  0.00    -0.345 OA
BRANCH  33  34
HETATM   34  C   UNL     1      -5.677  -3.926 -34.396  1.00  0.00     0.121 C 
HETATM   35  C   UNL     1      -6.745  -4.569 -35.279  1.00  0.00     0.040 C 
HETATM   36  C   UNL     1      -4.495  -4.882 -34.245  1.00  0.00     0.040 C 
ENDBRANCH  33  34
ENDBRANCH  30  33
ENDBRANCH  23  26
ENDBRANCH   1  22
BRANCH   1  37
HETATM   37  C   UNL     1      -2.332   4.792 -31.529  1.00  0.00     0.254 C 
BRANCH  37  38
HETATM   38  N   UNL     1      -1.839   4.673 -32.928  1.00  0.00    -0.077 N 
HETATM   39  H   UNL     1      -2.524   4.270 -33.575  1.00  0.00     0.274 HD
HETATM   40  H   UNL     1      -1.635   5.629 -33.294  1.00  0.00     0.274 HD
HETATM   41  H   UNL     1      -0.962   4.147 -33.000  1.00  0.00     0.274 HD
ENDBRANCH  37  38
ENDBRANCH   1  37
TORSDOF 11
ENDMDL
MODEL 3
REMARK VINA RESULT:      -8.3      3.060      6.352
REMARK  11 active torsions:
REMARK  status: ('A' for Active; 'I' for Inactive)
REMARK    1  A    between atoms: C_2  and  O_3 
REMARK    2  A    between atoms: C_2  and  C_4 
REMARK    3  A    between atoms: C_8  and  C_9 
REMARK    4  A    between atoms: C_12  and  C_13 
REMARK    5  A    between atoms: C_13  and  C_14 
REMARK    6  A    between atoms: C_14  and  N_15 
REMARK    7  A    between atoms: C_14  and  C_29 
REMARK       I    between atoms: N_15  and  C_16 
REMARK    8  A    between atoms: C_16  and  C_17 
REMARK    9  A    between atoms: C_21  and  O_22 
REMARK   10  A    between atoms: O_22  and  C_23 
REMARK   11  A    between atoms: C_29  and  N_30 
ROOT
HETATM    1  C   UNL     1      -7.488  -1.090 -33.798  1.00  0.00     0.114 C 
ENDROOT
BRANCH   1   2
HETATM    2  C   UNL     1      -6.742  -0.887 -32.452  1.00  0.00     0.065 C 
BRANCH   2   3
HETATM    3  C   UNL     1      -5.673   0.185 -32.338  1.00  0.00    -0.056 A 
HETATM    4  C   UNL     1      -4.304  -0.019 -32.545  1.00  0.00     0.008 A 
HETATM    5  C   UNL     1      -3.401   1.055 -32.525  1.00  0.00     0.014 A 
HETATM    6  C   UNL     1      -3.842   2.357 -32.278  1.00  0.00    -0.006 A 
HETATM    7  C   UNL     1      -5.198   2.558 -32.003  1.00  0.00     0.014 A 
HETATM    8  C   UNL     1      -6.101   1.488 -32.034  1.00  0.00     0.008 A 
BRANCH   6   9
HETATM    9  C   UNL     1      -2.943   3.497 -32.325  1.00  0.00     0.085 A 
HETATM   10  C   UNL     1      -2.889   4.452 -33.319  1.00  0.00     0.130 A 
HETATM   11  N   UNL     1      -1.949   5.363 -32.906  1.00  0.00    -0.315 N 
HETATM   12  C   UNL     1      -1.466   4.918 -31.685  1.00  0.00     0.143 A 
HETATM   13  C   UNL     1      -1.519   6.529 -33.526  1.00  0.00     0.098 A 
HETATM   14  C   UNL     1      -0.438   5.688 -31.026  1.00  0.00     0.017 A 
HETATM   15  N   UNL     1      -2.053   3.794 -31.318  1.00  0.00    -0.228 NA
HETATM   16  C   UNL     1      -0.030   6.822 -31.651  1.00  0.00     0.015 A 
HETATM   17  C   UNL     1      -0.576   7.271 -32.925  1.00  0.00     0.018 A 
BRANCH  14  18
HETATM   18  C   UNL     1       0.131   5.220 -29.689  1.00  0.00     0.150 C 
HETATM   19  C   UNL     1       0.627   6.293 -28.726  1.00  0.00     0.044 C 
BRANCH  18  20
HETATM   20  O   UNL     1       1.231   4.338 -29.937  1.00  0.00    -0.391 OA
HETATM   21  H   UNL     1       1.344   3.814 -29.119  1.00  0.00     0.210 HD
ENDBRANCH  18  20
ENDBRANCH  14  18
ENDBRANCH   6   9
ENDBRANCH   2   3
ENDBRANCH   1   2
BRANCH   1  22
HETATM   22  N   UNL     1      -8.256   0.124 -34.131  1.00  0.00    -0.350 N 
HETATM   23  C   UNL     1      -9.438   0.530 -33.562  1.00  0.00     0.252 C 
HETATM   24  O   UNL     1      -9.939  -0.079 -32.621  1.00  0.00    -0.268 OA
HETATM   25  H   UNL     1      -7.777   0.796 -34.724  1.00  0.00     0.163 HD
BRANCH  23  26
HETATM   26  C   UNL     1     -10.138   1.692 -34.187  1.00  0.00     0.033 A 
HETATM   27  C   UNL     1      -9.502   2.936 -34.166  1.00  0.00     0.043 A 
HETATM   28  C   UNL     1     -10.171   4.074 -34.629  1.00  0.00     0.068 A 
HETATM   29 CL   UNL     1      -9.337   5.587 -34.543  1.00  0.00    -0.081 Cl
HETATM   30  C   UNL     1     -11.488   3.992 -35.106  1.00  0.00     0.091 A 
HETATM   31  C   UNL     1     -12.104   2.741 -35.162  1.00  0.00     0.039 A 
HETATM   32  C   UNL     1     -11.440   1.598 -34.695  1.00  0.00     0.020 A 
BRANCH  30  33
HETATM   33  O   UNL     1     -12.082   5.160 -35.499  1.00  0.00    -0.345 OA
BRANCH  33  34
HETATM   34  C   UNL     1     -13.251   5.625 -34.811  1.00  0.00     0.121 C 
HETATM   35  C   UNL     1     -12.918   6.042 -33.379  1.00  0.00     0.040 C 
HETATM   36  C   UNL     1     -13.760   6.836 -35.592  1.00  0.00     0.040 C 
ENDBRANCH  33  34
ENDBRANCH  30  33
ENDBRANCH  23  26
ENDBRANCH   1  22
BRANCH   1  37
HETATM   37  C   UNL     1      -6.496  -1.593 -34.886  1.00  0.00     0.254 C 
BRANCH  37  38
HETATM   38  N   UNL     1      -6.281  -3.062 -34.789  1.00  0.00    -0.077 N 
HETATM   39  H   UNL     1      -5.612  -3.429 -35.472  1.00  0.00     0.274 HD
HETATM   40  H   UNL     1      -5.875  -3.279 -33.852  1.00  0.00     0.274 HD
HETATM   41  H   UNL     1      -7.153  -3.599 -34.854  1.00  0.00     0.274 HD
ENDBRANCH  37  38
ENDBRANCH   1  37
TORSDOF 11
ENDMDL
MODEL 4
REMARK VINA RESULT:      -8.2      3.192      9.014
REMARK  11 active torsions:
REMARK  status: ('A' for Active; 'I' for Inactive)
REMARK    1  A    between atoms: C_2  and  O_3 
REMARK    2  A    between atoms: C_2  and  C_4 
REMARK    3  A    between atoms: C_8  and  C_9 
REMARK    4  A    between atoms: C_12  and  C_13 
REMARK    5  A    between atoms: C_13  and  C_14 
REMARK    6  A    between atoms: C_14  and  N_15 
REMARK    7  A    between atoms: C_14  and  C_29 
REMARK       I    between atoms: N_15  and  C_16 
REMARK    8  A    between atoms: C_16  and  C_17 
REMARK    9  A    between atoms: C_21  and  O_22 
REMARK   10  A    between atoms: O_22  and  C_23 
REMARK   11  A    between atoms: C_29  and  N_30 
ROOT
HETATM    1  C   UNL     1      -4.174  -2.085 -33.891  1.00  0.00     0.114 C 
ENDROOT
BRANCH   1   2
HETATM    2  C   UNL     1      -5.648  -2.348 -34.300  1.00  0.00     0.065 C 
BRANCH   2   3
HETATM    3  C   UNL     1      -6.659  -1.218 -34.243  1.00  0.00    -0.056 A 
HETATM    4  C   UNL     1      -6.826  -0.237 -35.228  1.00  0.00     0.008 A 
HETATM    5  C   UNL     1      -7.861   0.707 -35.141  1.00  0.00     0.014 A 
HETATM    6  C   UNL     1      -8.743   0.706 -34.059  1.00  0.00    -0.006 A 
HETATM    7  C   UNL     1      -8.541  -0.228 -33.038  1.00  0.00     0.014 A 
HETATM    8  C   UNL     1      -7.515  -1.177 -33.129  1.00  0.00     0.008 A 
BRANCH   6   9
HETATM    9  C   UNL     1      -9.868   1.622 -33.980  1.00  0.00     0.085 A 
HETATM   10  C   UNL     1      -9.832   2.979 -34.225  1.00  0.00     0.130 A 
HETATM   11  N   UNL     1     -11.129   3.412 -34.101  1.00  0.00    -0.315 N 
HETATM   12  C   UNL     1     -11.894   2.301 -33.776  1.00  0.00     0.143 A 
HETATM   13  C   UNL     1     -11.653   4.687 -34.263  1.00  0.00     0.098 A 
HETATM   14  C   UNL     1     -13.311   2.477 -33.564  1.00  0.00     0.017 A 
HETATM   15  N   UNL     1     -11.151   1.213 -33.699  1.00  0.00    -0.228 NA
HETATM   16  C   UNL     1     -13.801   3.733 -33.725  1.00  0.00     0.015 A 
HETATM   17  C   UNL     1     -12.970   4.873 -34.088  1.00  0.00     0.018 A 
BRANCH  14  18
HETATM   18  C   UNL     1     -14.183   1.281 -33.188  1.00  0.00     0.150 C 
HETATM   19  C   UNL     1     -15.026   0.656 -34.293  1.00  0.00     0.044 C 
BRANCH  18  20
HETATM   20  O   UNL     1     -15.082   1.674 -32.146  1.00  0.00    -0.391 OA
HETATM   21  H   UNL     1     -14.847   2.597 -31.923  1.00  0.00     0.210 HD
ENDBRANCH  18  20
ENDBRANCH  14  18
ENDBRANCH   6   9
ENDBRANCH   2   3
ENDBRANCH   1   2
BRANCH   1  22
HETATM   22  N   UNL     1      -3.999  -0.660 -33.549  1.00  0.00    -0.350 N 
HETATM   23  C   UNL     1      -4.209  -0.078 -32.323  1.00  0.00     0.252 C 
HETATM   24  O   UNL     1      -4.499  -0.747 -31.336  1.00  0.00    -0.268 OA
HETATM   25  H   UNL     1      -3.528  -0.097 -34.251  1.00  0.00     0.163 HD
BRANCH  23  26
HETATM   26  C   UNL     1      -4.155   1.413 -32.253  1.00  0.00     0.033 A 
HETATM   27  C   UNL     1      -5.135   2.143 -32.931  1.00  0.00     0.043 A 
HETATM   28  C   UNL     1      -5.053   3.538 -32.996  1.00  0.00     0.068 A 
HETATM   29 CL   UNL     1      -6.281   4.375 -33.879  1.00  0.00    -0.081 Cl
HETATM   30  C   UNL     1      -3.986   4.226 -32.397  1.00  0.00     0.091 A 
HETATM   31  C   UNL     1      -3.032   3.496 -31.687  1.00  0.00     0.039 A 
HETATM   32  C   UNL     1      -3.107   2.097 -31.625  1.00  0.00     0.020 A 
BRANCH  30  33
HETATM   33  O   UNL     1      -3.961   5.585 -32.544  1.00  0.00    -0.345 OA
BRANCH  33  34
HETATM   34  C   UNL     1      -2.932   6.192 -33.337  1.00  0.00     0.121 C 
HETATM   35  C   UNL     1      -1.554   5.969 -32.717  1.00  0.00     0.040 C 
HETATM   36  C   UNL     1      -2.991   5.521 -34.709  1.00  0.00     0.040 C 
ENDBRANCH  33  34
ENDBRANCH  30  33
ENDBRANCH  23  26
ENDBRANCH   1  22
BRANCH   1  37
HETATM   37  C   UNL     1      -3.731  -3.109 -32.807  1.00  0.00     0.254 C 
BRANCH  37  38
HETATM   38  N   UNL     1      -3.408  -4.430 -33.409  1.00  0.00    -0.077 N 
HETATM   39  H   UNL     1      -3.994  -5.197 -33.063  1.00  0.00     0.274 HD
HETATM   40  H   UNL     1      -3.585  -4.383 -34.436  1.00  0.00     0.274 HD
HETATM   41  H   UNL     1      -2.422  -4.689 -33.300  1.00  0.00     0.274 HD
ENDBRANCH  37  38
ENDBRANCH   1  37
TORSDOF 11
ENDMDL
MODEL 5
REMARK VINA RESULT:      -8.2      2.024      2.981
REMARK  11 active torsions:
REMARK  status: ('A' for Active; 'I' for Inactive)
REMARK    1  A    between atoms: C_2  and  O_3 
REMARK    2  A    between atoms: C_2  and  C_4 
REMARK    3  A    between atoms: C_8  and  C_9 
REMARK    4  A    between atoms: C_12  and  C_13 
REMARK    5  A    between atoms: C_13  and  C_14 
REMARK    6  A    between atoms: C_14  and  N_15 
REMARK    7  A    between atoms: C_14  and  C_29 
REMARK       I    between atoms: N_15  and  C_16 
REMARK    8  A    between atoms: C_16  and  C_17 
REMARK    9  A    between atoms: C_21  and  O_22 
REMARK   10  A    between atoms: O_22  and  C_23 
REMARK   11  A    between atoms: C_29  and  N_30 
ROOT
HETATM    1  C   UNL     1      -9.560   3.656 -32.683  1.00  0.00     0.114 C 
ENDROOT
BRANCH   1   2
HETATM    2  C   UNL     1      -9.411   4.091 -31.201  1.00  0.00     0.065 C 
BRANCH   2   3
HETATM    3  C   UNL     1      -8.083   4.632 -30.704  1.00  0.00    -0.056 A 
HETATM    4  C   UNL     1      -7.189   3.938 -29.879  1.00  0.00     0.008 A 
HETATM    5  C   UNL     1      -5.934   4.476 -29.558  1.00  0.00     0.014 A 
HETATM    6  C   UNL     1      -5.548   5.729 -30.038  1.00  0.00    -0.006 A 
HETATM    7  C   UNL     1      -6.461   6.457 -30.806  1.00  0.00     0.014 A 
HETATM    8  C   UNL     1      -7.710   5.915 -31.136  1.00  0.00     0.008 A 
BRANCH   6   9
HETATM    9  C   UNL     1      -4.226   6.278 -29.784  1.00  0.00     0.085 A 
HETATM   10  C   UNL     1      -3.842   6.994 -28.669  1.00  0.00     0.130 A 
HETATM   11  N   UNL     1      -2.501   7.241 -28.833  1.00  0.00    -0.315 N 
HETATM   12  C   UNL     1      -2.132   6.673 -30.044  1.00  0.00     0.143 A 
HETATM   13  C   UNL     1      -1.619   7.908 -27.994  1.00  0.00     0.098 A 
HETATM   14  C   UNL     1      -0.762   6.803 -30.477  1.00  0.00     0.017 A 
HETATM   15  N   UNL     1      -3.159   6.088 -30.631  1.00  0.00    -0.228 NA
HETATM   16  C   UNL     1       0.083   7.462 -29.644  1.00  0.00     0.015 A 
HETATM   17  C   UNL     1      -0.336   8.028 -28.369  1.00  0.00     0.018 A 
BRANCH  14  18
HETATM   18  C   UNL     1      -0.322   6.206 -31.813  1.00  0.00     0.150 C 
HETATM   19  C   UNL     1      -0.839   6.875 -33.081  1.00  0.00     0.044 C 
BRANCH  18  20
HETATM   20  O   UNL     1      -0.734   4.835 -31.864  1.00  0.00    -0.391 OA
HETATM   21  H   UNL     1      -1.019   4.607 -30.957  1.00  0.00     0.210 HD
ENDBRANCH  18  20
ENDBRANCH  14  18
ENDBRANCH   6   9
ENDBRANCH   2   3
ENDBRANCH   1   2
BRANCH   1  22
HETATM   22  N   UNL     1      -8.776   2.430 -32.925  1.00  0.00    -0.350 N 
HETATM   23  C   UNL     1      -7.526   2.352 -33.487  1.00  0.00     0.252 C 
HETATM   24  O   UNL     1      -6.889   3.360 -33.779  1.00  0.00    -0.268 OA
HETATM   25  H   UNL     1      -9.136   1.588 -32.486  1.00  0.00     0.163 HD
BRANCH  23  26
HETATM   26  C   UNL     1      -7.003   0.991 -33.812  1.00  0.00     0.033 A 
HETATM   27  C   UNL     1      -5.744   0.632 -33.321  1.00  0.00     0.043 A 
HETATM   28  C   UNL     1      -5.163  -0.583 -33.701  1.00  0.00     0.068 A 
HETATM   29 CL   UNL     1      -3.590  -0.948 -33.084  1.00  0.00    -0.081 Cl
HETATM   30  C   UNL     1      -5.821  -1.451 -34.586  1.00  0.00     0.091 A 
HETATM   31  C   UNL     1      -7.095  -1.107 -35.041  1.00  0.00     0.039 A 
HETATM   32  C   UNL     1      -7.679   0.112 -34.667  1.00  0.00     0.020 A 
BRANCH  30  33
HETATM   33  O   UNL     1      -5.163  -2.597 -34.938  1.00  0.00    -0.345 OA
BRANCH  33  34
HETATM   34  C   UNL     1      -5.595  -3.854 -34.401  1.00  0.00     0.121 C 
HETATM   35  C   UNL     1      -6.478  -4.605 -35.397  1.00  0.00     0.040 C 
HETATM   36  C   UNL     1      -4.330  -4.666 -34.125  1.00  0.00     0.040 C 
ENDBRANCH  33  34
ENDBRANCH  30  33
ENDBRANCH  23  26
ENDBRANCH   1  22
BRANCH   1  37
HETATM   37  C   UNL     1     -11.064   3.595 -33.073  1.00  0.00     0.254 C 
BRANCH  37  38
HETATM   38  N   UNL     1     -11.663   2.279 -32.724  1.00  0.00    -0.077 N 
HETATM   39  H   UNL     1     -11.427   1.954 -31.781  1.00  0.00     0.274 HD
HETATM   40  H   UNL     1     -12.702   2.369 -32.739  1.00  0.00     0.274 HD
HETATM   41  H   UNL     1     -11.430   1.542 -33.399  1.00  0.00     0.274 HD
ENDBRANCH  37  38
ENDBRANCH   1  37
TORSDOF 11
ENDMDL
MODEL 6
REMARK VINA RESULT:      -8.0      3.407      9.437
REMARK  11 active torsions:
REMARK  status: ('A' for Active; 'I' for Inactive)
REMARK    1  A    between atoms: C_2  and  O_3 
REMARK    2  A    between atoms: C_2  and  C_4 
REMARK    3  A    between atoms: C_8  and  C_9 
REMARK    4  A    between atoms: C_12  and  C_13 
REMARK    5  A    between atoms: C_13  and  C_14 
REMARK    6  A    between atoms: C_14  and  N_15 
REMARK    7  A    between atoms: C_14  and  C_29 
REMARK       I    between atoms: N_15  and  C_16 
REMARK    8  A    between atoms: C_16  and  C_17 
REMARK    9  A    between atoms: C_21  and  O_22 
REMARK   10  A    between atoms: O_22  and  C_23 
REMARK   11  A    between atoms: C_29  and  N_30 
ROOT
HETATM    1  C   UNL     1      -3.516  -1.348 -33.108  1.00  0.00     0.114 C 
ENDROOT
BRANCH   1   2
HETATM    2  C   UNL     1      -4.754  -1.908 -33.857  1.00  0.00     0.065 C 
BRANCH   2   3
HETATM    3  C   UNL     1      -6.058  -1.130 -33.843  1.00  0.00    -0.056 A 
HETATM    4  C   UNL     1      -6.772  -0.778 -32.691  1.00  0.00     0.008 A 
HETATM    5  C   UNL     1      -7.912   0.037 -32.768  1.00  0.00     0.014 A 
HETATM    6  C   UNL     1      -8.378   0.504 -33.998  1.00  0.00    -0.006 A 
HETATM    7  C   UNL     1      -7.709   0.100 -35.158  1.00  0.00     0.014 A 
HETATM    8  C   UNL     1      -6.565  -0.703 -35.081  1.00  0.00     0.008 A 
BRANCH   6   9
HETATM    9  C   UNL     1      -9.509   1.409 -34.101  1.00  0.00     0.085 A 
HETATM   10  C   UNL     1      -9.447   2.771 -34.314  1.00  0.00     0.130 A 
HETATM   11  N   UNL     1     -10.750   3.190 -34.410  1.00  0.00    -0.315 N 
HETATM   12  C   UNL     1     -11.548   2.068 -34.241  1.00  0.00     0.143 A 
HETATM   13  C   UNL     1     -11.252   4.464 -34.639  1.00  0.00     0.098 A 
HETATM   14  C   UNL     1     -12.982   2.228 -34.276  1.00  0.00     0.017 A 
HETATM   15  N   UNL     1     -10.817   0.985 -34.054  1.00  0.00    -0.228 NA
HETATM   16  C   UNL     1     -13.451   3.482 -34.498  1.00  0.00     0.015 A 
HETATM   17  C   UNL     1     -12.582   4.635 -34.692  1.00  0.00     0.018 A 
BRANCH  14  18
HETATM   18  C   UNL     1     -13.892   1.018 -34.076  1.00  0.00     0.150 C 
HETATM   19  C   UNL     1     -15.330   1.289 -33.648  1.00  0.00     0.044 C 
BRANCH  18  20
HETATM   20  O   UNL     1     -13.314   0.163 -33.084  1.00  0.00    -0.391 OA
HETATM   21  H   UNL     1     -14.059  -0.333 -32.691  1.00  0.00     0.210 HD
ENDBRANCH  18  20
ENDBRANCH  14  18
ENDBRANCH   6   9
ENDBRANCH   2   3
ENDBRANCH   1   2
BRANCH   1  22
HETATM   22  N   UNL     1      -3.745   0.065 -32.752  1.00  0.00    -0.350 N 
HETATM   23  C   UNL     1      -3.232   0.732 -31.667  1.00  0.00     0.252 C 
HETATM   24  O   UNL     1      -2.432   0.198 -30.906  1.00  0.00    -0.268 OA
HETATM   25  H   UNL     1      -4.196   0.628 -33.467  1.00  0.00     0.163 HD
BRANCH  23  26
HETATM   26  C   UNL     1      -3.751   2.107 -31.399  1.00  0.00     0.033 A 
HETATM   27  C   UNL     1      -2.980   3.197 -31.809  1.00  0.00     0.043 A 
HETATM   28  C   UNL     1      -3.366   4.499 -31.470  1.00  0.00     0.068 A 
HETATM   29 CL   UNL     1      -2.347   5.798 -31.982  1.00  0.00    -0.081 Cl
HETATM   30  C   UNL     1      -4.519   4.731 -30.705  1.00  0.00     0.091 A 
HETATM   31  C   UNL     1      -5.308   3.642 -30.332  1.00  0.00     0.039 A 
HETATM   32  C   UNL     1      -4.922   2.336 -30.664  1.00  0.00     0.020 A 
BRANCH  30  33
HETATM   33  O   UNL     1      -4.801   6.031 -30.382  1.00  0.00    -0.345 OA
BRANCH  33  34
HETATM   34  C   UNL     1      -5.877   6.706 -31.045  1.00  0.00     0.121 C 
HETATM   35  C   UNL     1      -7.132   6.729 -30.173  1.00  0.00     0.040 C 
HETATM   36  C   UNL     1      -5.403   8.137 -31.296  1.00  0.00     0.040 C 
ENDBRANCH  33  34
ENDBRANCH  30  33
ENDBRANCH  23  26
ENDBRANCH   1  22
BRANCH   1  37
HETATM   37  C   UNL     1      -3.128  -2.295 -31.937  1.00  0.00     0.254 C 
BRANCH  37  38
HETATM   38  N   UNL     1      -3.159  -3.722 -32.358  1.00  0.00    -0.077 N 
HETATM   39  H   UNL     1      -4.028  -4.207 -32.115  1.00  0.00     0.274 HD
HETATM   40  H   UNL     1      -3.095  -3.765 -33.399  1.00  0.00     0.274 HD
HETATM   41  H   UNL     1      -2.364  -4.262 -32.001  1.00  0.00     0.274 HD
ENDBRANCH  37  38
ENDBRANCH   1  37
TORSDOF 11
ENDMDL
MODEL 7
REMARK VINA RESULT:      -7.9      3.448      7.969
REMARK  11 active torsions:
REMARK  status: ('A' for Active; 'I' for Inactive)
REMARK    1  A    between atoms: C_2  and  O_3 
REMARK    2  A    between atoms: C_2  and  C_4 
REMARK    3  A    between atoms: C_8  and  C_9 
REMARK    4  A    between atoms: C_12  and  C_13 
REMARK    5  A    between atoms: C_13  and  C_14 
REMARK    6  A    between atoms: C_14  and  N_15 
REMARK    7  A    between atoms: C_14  and  C_29 
REMARK       I    between atoms: N_15  and  C_16 
REMARK    8  A    between atoms: C_16  and  C_17 
REMARK    9  A    between atoms: C_21  and  O_22 
REMARK   10  A    between atoms: O_22  and  C_23 
REMARK   11  A    between atoms: C_29  and  N_30 
ROOT
HETATM    1  C   UNL     1      -6.610   6.119 -31.160  1.00  0.00     0.114 C 
ENDROOT
BRANCH   1   2
HETATM    2  C   UNL     1      -5.255   5.543 -30.669  1.00  0.00     0.065 C 
BRANCH   2   3
HETATM    3  C   UNL     1      -4.939   4.073 -30.884  1.00  0.00    -0.056 A 
HETATM    4  C   UNL     1      -5.501   3.015 -30.158  1.00  0.00     0.008 A 
HETATM    5  C   UNL     1      -5.232   1.681 -30.499  1.00  0.00     0.014 A 
HETATM    6  C   UNL     1      -4.381   1.371 -31.561  1.00  0.00    -0.006 A 
HETATM    7  C   UNL     1      -3.763   2.421 -32.247  1.00  0.00     0.014 A 
HETATM    8  C   UNL     1      -4.040   3.753 -31.914  1.00  0.00     0.008 A 
BRANCH   6   9
HETATM    9  C   UNL     1      -4.143   0.001 -31.984  1.00  0.00     0.085 A 
HETATM   10  C   UNL     1      -3.297  -0.904 -31.377  1.00  0.00     0.130 A 
HETATM   11  N   UNL     1      -3.451  -2.077 -32.073  1.00  0.00    -0.315 N 
HETATM   12  C   UNL     1      -4.375  -1.831 -33.079  1.00  0.00     0.143 A 
HETATM   13  C   UNL     1      -2.846  -3.310 -31.867  1.00  0.00     0.098 A 
HETATM   14  C   UNL     1      -4.711  -2.904 -33.984  1.00  0.00     0.017 A 
HETATM   15  N   UNL     1      -4.803  -0.584 -33.040  1.00  0.00    -0.228 NA
HETATM   16  C   UNL     1      -4.106  -4.099 -33.767  1.00  0.00     0.015 A 
HETATM   17  C   UNL     1      -3.155  -4.327 -32.687  1.00  0.00     0.018 A 
BRANCH  14  18
HETATM   18  C   UNL     1      -5.711  -2.666 -35.113  1.00  0.00     0.150 C 
HETATM   19  C   UNL     1      -7.034  -2.003 -34.747  1.00  0.00     0.044 C 
BRANCH  18  20
HETATM   20  O   UNL     1      -6.026  -3.921 -35.724  1.00  0.00    -0.391 OA
HETATM   21  H   UNL     1      -6.606  -4.389 -35.091  1.00  0.00     0.210 HD
ENDBRANCH  18  20
ENDBRANCH  14  18
ENDBRANCH   6   9
ENDBRANCH   2   3
ENDBRANCH   1   2
BRANCH   1  22
HETATM   22  N   UNL     1      -7.418   5.044 -31.766  1.00  0.00    -0.350 N 
HETATM   23  C   UNL     1      -7.558   4.778 -33.106  1.00  0.00     0.252 C 
HETATM   24  O   UNL     1      -6.922   5.398 -33.953  1.00  0.00    -0.268 OA
HETATM   25  H   UNL     1      -7.773   4.346 -31.119  1.00  0.00     0.163 HD
BRANCH  23  26
HETATM   26  C   UNL     1      -8.579   3.761 -33.501  1.00  0.00     0.033 A 
HETATM   27  C   UNL     1      -9.587   4.147 -34.388  1.00  0.00     0.043 A 
HETATM   28  C   UNL     1     -10.632   3.267 -34.689  1.00  0.00     0.068 A 
HETATM   29 CL   UNL     1     -11.864   3.821 -35.769  1.00  0.00    -0.081 Cl
HETATM   30  C   UNL     1     -10.695   1.994 -34.100  1.00  0.00     0.091 A 
HETATM   31  C   UNL     1      -9.665   1.599 -33.246  1.00  0.00     0.039 A 
HETATM   32  C   UNL     1      -8.618   2.480 -32.936  1.00  0.00     0.020 A 
BRANCH  30  33
HETATM   33  O   UNL     1     -11.773   1.214 -34.417  1.00  0.00    -0.345 OA
BRANCH  33  34
HETATM   34  C   UNL     1     -12.779   0.963 -33.427  1.00  0.00     0.121 C 
HETATM   35  C   UNL     1     -13.888   2.012 -33.490  1.00  0.00     0.040 C 
HETATM   36  C   UNL     1     -13.360  -0.415 -33.740  1.00  0.00     0.040 C 
ENDBRANCH  33  34
ENDBRANCH  30  33
ENDBRANCH  23  26
ENDBRANCH   1  22
BRANCH   1  37
HETATM   37  C   UNL     1      -7.290   6.927 -30.018  1.00  0.00     0.254 C 
BRANCH  37  38
HETATM   38  N   UNL     1      -8.082   6.041 -29.123  1.00  0.00    -0.077 N 
HETATM   39  H   UNL     1      -8.977   5.741 -29.523  1.00  0.00     0.274 HD
HETATM   40  H   UNL     1      -7.541   5.165 -28.954  1.00  0.00     0.274 HD
HETATM   41  H   UNL     1      -8.252   6.455 -28.200  1.00  0.00     0.274 HD
ENDBRANCH  37  38
ENDBRANCH   1  37
TORSDOF 11
ENDMDL
MODEL 8
REMARK VINA RESULT:      -7.8      5.124      9.695
REMARK  11 active torsions:
REMARK  status: ('A' for Active; 'I' for Inactive)
REMARK    1  A    between atoms: C_2  and  O_3 
REMARK    2  A    between atoms: C_2  and  C_4 
REMARK    3  A    between atoms: C_8  and  C_9 
REMARK    4  A    between atoms: C_12  and  C_13 
REMARK    5  A    between atoms: C_13  and  C_14 
REMARK    6  A    between atoms: C_14  and  N_15 
REMARK    7  A    between atoms: C_14  and  C_29 
REMARK       I    between atoms: N_15  and  C_16 
REMARK    8  A    between atoms: C_16  and  C_17 
REMARK    9  A    between atoms: C_21  and  O_22 
REMARK   10  A    between atoms: O_22  and  C_23 
REMARK   11  A    between atoms: C_29  and  N_30 
ROOT
HETATM    1  C   UNL     1     -13.112   2.936 -33.259  1.00  0.00     0.114 C 
ENDROOT
BRANCH   1   2
HETATM    2  C   UNL     1     -12.592   1.663 -33.979  1.00  0.00     0.065 C 
BRANCH   2   3
HETATM    3  C   UNL     1     -11.132   1.268 -33.848  1.00  0.00    -0.056 A 
HETATM    4  C   UNL     1     -10.059   1.940 -34.447  1.00  0.00     0.008 A 
HETATM    5  C   UNL     1      -8.733   1.568 -34.182  1.00  0.00     0.014 A 
HETATM    6  C   UNL     1      -8.446   0.501 -33.327  1.00  0.00    -0.006 A 
HETATM    7  C   UNL     1      -9.512  -0.217 -32.780  1.00  0.00     0.014 A 
HETATM    8  C   UNL     1     -10.836   0.162 -33.035  1.00  0.00     0.008 A 
BRANCH   6   9
HETATM    9  C   UNL     1      -7.083   0.141 -32.976  1.00  0.00     0.085 A 
HETATM   10  C   UNL     1      -6.213   0.891 -32.211  1.00  0.00     0.130 A 
HETATM   11  N   UNL     1      -5.079   0.128 -32.085  1.00  0.00    -0.315 N 
HETATM   12  C   UNL     1      -5.304  -1.047 -32.788  1.00  0.00     0.143 A 
HETATM   13  C   UNL     1      -3.903   0.402 -31.400  1.00  0.00     0.098 A 
HETATM   14  C   UNL     1      -4.252  -2.033 -32.839  1.00  0.00     0.017 A 
HETATM   15  N   UNL     1      -6.507  -1.057 -33.331  1.00  0.00    -0.228 NA
HETATM   16  C   UNL     1      -3.110  -1.744 -32.165  1.00  0.00     0.015 A 
HETATM   17  C   UNL     1      -2.916  -0.507 -31.420  1.00  0.00     0.018 A 
BRANCH  14  18
HETATM   18  C   UNL     1      -4.457  -3.331 -33.617  1.00  0.00     0.150 C 
HETATM   19  C   UNL     1      -3.369  -4.393 -33.504  1.00  0.00     0.044 C 
BRANCH  18  20
HETATM   20  O   UNL     1      -4.597  -3.020 -35.007  1.00  0.00    -0.391 OA
HETATM   21  H   UNL     1      -3.986  -2.276 -35.178  1.00  0.00     0.210 HD
ENDBRANCH  18  20
ENDBRANCH  14  18
ENDBRANCH   6   9
ENDBRANCH   2   3
ENDBRANCH   1   2
BRANCH   1  22
HETATM   22  N   UNL     1     -13.045   4.090 -34.175  1.00  0.00    -0.350 N 
HETATM   23  C   UNL     1     -12.116   5.100 -34.157  1.00  0.00     0.252 C 
HETATM   24  O   UNL     1     -11.164   5.082 -33.383  1.00  0.00    -0.268 OA
HETATM   25  H   UNL     1     -13.653   4.039 -34.987  1.00  0.00     0.163 HD
BRANCH  23  26
HETATM   26  C   UNL     1     -12.354   6.268 -35.057  1.00  0.00     0.033 A 
HETATM   27  C   UNL     1     -13.634   6.443 -35.590  1.00  0.00     0.043 A 
HETATM   28  C   UNL     1     -13.871   7.449 -36.533  1.00  0.00     0.068 A 
HETATM   29 CL   UNL     1     -15.470   7.587 -37.176  1.00  0.00    -0.081 Cl
HETATM   30  C   UNL     1     -12.833   8.287 -36.968  1.00  0.00     0.091 A 
HETATM   31  C   UNL     1     -11.566   8.135 -36.403  1.00  0.00     0.039 A 
HETATM   32  C   UNL     1     -11.322   7.125 -35.463  1.00  0.00     0.020 A 
BRANCH  30  33
HETATM   33  O   UNL     1     -13.142   9.216 -37.923  1.00  0.00    -0.345 OA
BRANCH  33  34
HETATM   34  C   UNL     1     -12.820   8.954 -39.296  1.00  0.00     0.121 C 
HETATM   35  C   UNL     1     -14.055   9.088 -40.186  1.00  0.00     0.040 C 
HETATM   36  C   UNL     1     -11.780   9.996 -39.703  1.00  0.00     0.040 C 
ENDBRANCH  33  34
ENDBRANCH  30  33
ENDBRANCH  23  26
ENDBRANCH   1  22
BRANCH   1  37
HETATM   37  C   UNL     1     -14.499   2.653 -32.613  1.00  0.00     0.254 C 
BRANCH  37  38
HETATM   38  N   UNL     1     -15.384   3.846 -32.684  1.00  0.00    -0.077 N 
HETATM   39  H   UNL     1     -15.983   3.967 -31.861  1.00  0.00     0.274 HD
HETATM   40  H   UNL     1     -14.790   4.703 -32.727  1.00  0.00     0.274 HD
HETATM   41  H   UNL     1     -15.969   3.861 -33.526  1.00  0.00     0.274 HD
ENDBRANCH  37  38
ENDBRANCH   1  37
TORSDOF 11
ENDMDL
MODEL 9
REMARK VINA RESULT:      -7.7     17.045     18.445
REMARK  11 active torsions:
REMARK  status: ('A' for Active; 'I' for Inactive)
REMARK    1  A    between atoms: C_2  and  O_3 
REMARK    2  A    between atoms: C_2  and  C_4 
REMARK    3  A    between atoms: C_8  and  C_9 
REMARK    4  A    between atoms: C_12  and  C_13 
REMARK    5  A    between atoms: C_13  and  C_14 
REMARK    6  A    between atoms: C_14  and  N_15 
REMARK    7  A    between atoms: C_14  and  C_29 
REMARK       I    between atoms: N_15  and  C_16 
REMARK    8  A    between atoms: C_16  and  C_17 
REMARK    9  A    between atoms: C_21  and  O_22 
REMARK   10  A    between atoms: O_22  and  C_23 
REMARK   11  A    between atoms: C_29  and  N_30 
ROOT
HETATM    1  C   UNL     1      -8.633 -12.923 -40.147  1.00  0.00     0.114 C 
ENDROOT
BRANCH   1   2
HETATM    2  C   UNL     1      -7.441 -12.244 -40.872  1.00  0.00     0.065 C 
BRANCH   2   3
HETATM    3  C   UNL     1      -6.019 -12.603 -40.481  1.00  0.00    -0.056 A 
HETATM    4  C   UNL     1      -5.302 -12.019 -39.429  1.00  0.00     0.008 A 
HETATM    5  C   UNL     1      -4.030 -12.490 -39.070  1.00  0.00     0.014 A 
HETATM    6  C   UNL     1      -3.434 -13.544 -39.767  1.00  0.00    -0.006 A 
HETATM    7  C   UNL     1      -4.115 -14.086 -40.861  1.00  0.00     0.014 A 
HETATM    8  C   UNL     1      -5.389 -13.624 -41.212  1.00  0.00     0.008 A 
BRANCH   6   9
HETATM    9  C   UNL     1      -2.152 -14.102 -39.371  1.00  0.00     0.085 A 
HETATM   10  C   UNL     1      -1.032 -14.214 -40.169  1.00  0.00     0.130 A 
HETATM   11  N   UNL     1      -0.051 -14.727 -39.357  1.00  0.00    -0.315 N 
HETATM   12  C   UNL     1      -0.620 -14.915 -38.106  1.00  0.00     0.143 A 
HETATM   13  C   UNL     1       1.274 -15.020 -39.652  1.00  0.00     0.098 A 
HETATM   14  C   UNL     1       0.195 -15.470 -37.053  1.00  0.00     0.017 A 
HETATM   15  N   UNL     1      -1.886 -14.543 -38.095  1.00  0.00    -0.228 NA
HETATM   16  C   UNL     1       1.487 -15.752 -37.363  1.00  0.00     0.015 A 
HETATM   17  C   UNL     1       2.056 -15.522 -38.684  1.00  0.00     0.018 A 
BRANCH  14  18
HETATM   18  C   UNL     1      -0.402 -15.707 -35.667  1.00  0.00     0.150 C 
HETATM   19  C   UNL     1      -1.266 -16.949 -35.481  1.00  0.00     0.044 C 
BRANCH  18  20
HETATM   20  O   UNL     1      -1.208 -14.578 -35.312  1.00  0.00    -0.391 OA
HETATM   21  H   UNL     1      -1.162 -13.966 -36.073  1.00  0.00     0.210 HD
ENDBRANCH  18  20
ENDBRANCH  14  18
ENDBRANCH   6   9
ENDBRANCH   2   3
ENDBRANCH   1   2
BRANCH   1  22
HETATM   22  N   UNL     1      -8.210 -13.377 -38.809  1.00  0.00    -0.350 N 
HETATM   23  C   UNL     1      -7.815 -14.644 -38.458  1.00  0.00     0.252 C 
HETATM   24  O   UNL     1      -7.698 -15.534 -39.296  1.00  0.00    -0.268 OA
HETATM   25  H   UNL     1      -8.049 -12.640 -38.128  1.00  0.00     0.163 HD
BRANCH  23  26
HETATM   26  C   UNL     1      -7.614 -14.923 -37.005  1.00  0.00     0.033 A 
HETATM   27  C   UNL     1      -7.306 -13.852 -36.162  1.00  0.00     0.043 A 
HETATM   28  C   UNL     1      -6.989 -14.084 -34.819  1.00  0.00     0.068 A 
HETATM   29 CL   UNL     1      -6.586 -12.716 -33.841  1.00  0.00    -0.081 Cl
HETATM   30  C   UNL     1      -6.961 -15.387 -34.300  1.00  0.00     0.091 A 
HETATM   31  C   UNL     1      -7.308 -16.450 -35.135  1.00  0.00     0.039 A 
HETATM   32  C   UNL     1      -7.620 -16.223 -36.483  1.00  0.00     0.020 A 
BRANCH  30  33
HETATM   33  O   UNL     1      -6.599 -15.527 -32.988  1.00  0.00    -0.345 OA
BRANCH  33  34
HETATM   34  C   UNL     1      -5.389 -16.221 -32.658  1.00  0.00     0.121 C 
HETATM   35  C   UNL     1      -4.255 -15.832 -33.605  1.00  0.00     0.040 C 
HETATM   36  C   UNL     1      -5.028 -15.809 -31.232  1.00  0.00     0.040 C 
ENDBRANCH  33  34
ENDBRANCH  30  33
ENDBRANCH  23  26
ENDBRANCH   1  22
BRANCH   1  37
HETATM   37  C   UNL     1      -9.882 -11.998 -40.193  1.00  0.00     0.254 C 
BRANCH  37  38
HETATM   38  N   UNL     1     -11.105 -12.753 -40.578  1.00  0.00    -0.077 N 
HETATM   39  H   UNL     1     -10.921 -13.558 -41.185  1.00  0.00     0.274 HD
HETATM   40  H   UNL     1     -11.541 -13.147 -39.715  1.00  0.00     0.274 HD
HETATM   41  H   UNL     1     -11.820 -12.162 -41.014  1.00  0.00     0.274 HD
ENDBRANCH  37  38
ENDBRANCH   1  37
TORSDOF 11
ENDMDL
MODEL 10
REMARK VINA RESULT:      -7.6      3.882     10.776
REMARK  11 active torsions:
REMARK  status: ('A' for Active; 'I' for Inactive)
REMARK    1  A    between atoms: C_2  and  O_3 
REMARK    2  A    between atoms: C_2  and  C_4 
REMARK    3  A    between atoms: C_8  and  C_9 
REMARK    4  A    between atoms: C_12  and  C_13 
REMARK    5  A    between atoms: C_13  and  C_14 
REMARK    6  A    between atoms: C_14  and  N_15 
REMARK    7  A    between atoms: C_14  and  C_29 
REMARK       I    between atoms: N_15  and  C_16 
REMARK    8  A    between atoms: C_16  and  C_17 
REMARK    9  A    between atoms: C_21  and  O_22 
REMARK   10  A    between atoms: O_22  and  C_23 
REMARK   11  A    between atoms: C_29  and  N_30 
ROOT
HETATM    1  C   UNL     1      -3.406   6.792 -32.429  1.00  0.00     0.114 C 
ENDROOT
BRANCH   1   2
HETATM    2  C   UNL     1      -4.679   5.969 -32.096  1.00  0.00     0.065 C 
BRANCH   2   3
HETATM    3  C   UNL     1      -4.650   4.456 -32.218  1.00  0.00    -0.056 A 
HETATM    4  C   UNL     1      -5.340   3.713 -33.183  1.00  0.00     0.008 A 
HETATM    5  C   UNL     1      -5.168   2.325 -33.287  1.00  0.00     0.014 A 
HETATM    6  C   UNL     1      -4.317   1.641 -32.416  1.00  0.00    -0.006 A 
HETATM    7  C   UNL     1      -3.678   2.367 -31.407  1.00  0.00     0.014 A 
HETATM    8  C   UNL     1      -3.840   3.754 -31.310  1.00  0.00     0.008 A 
BRANCH   6   9
HETATM    9  C   UNL     1      -4.062   0.217 -32.548  1.00  0.00     0.085 A 
HETATM   10  C   UNL     1      -3.208  -0.533 -31.766  1.00  0.00     0.130 A 
HETATM   11  N   UNL     1      -3.344  -1.827 -32.206  1.00  0.00    -0.315 N 
HETATM   12  C   UNL     1      -4.266  -1.804 -33.242  1.00  0.00     0.143 A 
HETATM   13  C   UNL     1      -2.725  -2.983 -31.750  1.00  0.00     0.098 A 
HETATM   14  C   UNL     1      -4.586  -3.044 -33.908  1.00  0.00     0.017 A 
HETATM   15  N   UNL     1      -4.710  -0.581 -33.462  1.00  0.00    -0.228 NA
HETATM   16  C   UNL     1      -3.968  -4.162 -33.448  1.00  0.00     0.015 A 
HETATM   17  C   UNL     1      -3.019  -4.150 -32.343  1.00  0.00     0.018 A 
BRANCH  14  18
HETATM   18  C   UNL     1      -5.584  -3.056 -35.064  1.00  0.00     0.150 C 
HETATM   19  C   UNL     1      -6.964  -2.465 -34.802  1.00  0.00     0.044 C 
BRANCH  18  20
HETATM   20  O   UNL     1      -5.781  -4.409 -35.490  1.00  0.00    -0.391 OA
HETATM   21  H   UNL     1      -5.466  -4.447 -36.415  1.00  0.00     0.210 HD
ENDBRANCH  18  20
ENDBRANCH  14  18
ENDBRANCH   6   9
ENDBRANCH   2   3
ENDBRANCH   1   2
BRANCH   1  22
HETATM   22  N   UNL     1      -2.775   7.262 -31.181  1.00  0.00    -0.350 N 
HETATM   23  C   UNL     1      -2.608   8.566 -30.786  1.00  0.00     0.252 C 
HETATM   24  O   UNL     1      -3.067   9.498 -31.439  1.00  0.00    -0.268 OA
HETATM   25  H   UNL     1      -2.594   6.544 -30.486  1.00  0.00     0.163 HD
BRANCH  23  26
HETATM   26  C   UNL     1      -1.770   8.814 -29.574  1.00  0.00     0.033 A 
HETATM   27  C   UNL     1      -0.918   7.796 -29.140  1.00  0.00     0.043 A 
HETATM   28  C   UNL     1      -0.208   7.936 -27.942  1.00  0.00     0.068 A 
HETATM   29 CL   UNL     1       0.802   6.624 -27.447  1.00  0.00    -0.081 Cl
HETATM   30  C   UNL     1      -0.348   9.089 -27.153  1.00  0.00     0.091 A 
HETATM   31  C   UNL     1      -1.170  10.120 -27.612  1.00  0.00     0.039 A 
HETATM   32  C   UNL     1      -1.887   9.981 -28.808  1.00  0.00     0.020 A 
BRANCH  30  33
HETATM   33  O   UNL     1       0.349   9.126 -25.977  1.00  0.00    -0.345 OA
BRANCH  33  34
HETATM   34  C   UNL     1       1.571   9.873 -25.903  1.00  0.00     0.121 C 
HETATM   35  C   UNL     1       1.381  11.162 -25.105  1.00  0.00     0.040 C 
HETATM   36  C   UNL     1       2.584   8.977 -25.192  1.00  0.00     0.040 C 
ENDBRANCH  33  34
ENDBRANCH  30  33
ENDBRANCH  23  26
ENDBRANCH   1  22
BRANCH   1  37
HETATM   37  C   UNL     1      -2.492   5.991 -33.400  1.00  0.00     0.254 C 
BRANCH  37  38
HETATM   38  N   UNL     1      -1.149   5.750 -32.806  1.00  0.00    -0.077 N 
HETATM   39  H   UNL     1      -0.656   4.947 -33.209  1.00  0.00     0.274 HD
HETATM   40  H   UNL     1      -0.544   6.578 -32.999  1.00  0.00     0.274 HD
HETATM   41  H   UNL     1      -1.176   5.647 -31.786  1.00  0.00     0.274 HD
ENDBRANCH  37  38
ENDBRANCH   1  37
TORSDOF 11
ENDMDL
