MODEL 1
REMARK VINA RESULT:      -8.4      0.000      0.000
REMARK  8 active torsions:
REMARK  status: ('A' for Active; 'I' for Inactive)
REMARK    1  A    between atoms: C_2  and  N_3 
REMARK    2  A    between atoms: N_3  and  N_4 
REMARK       I    between atoms: N_4  and  C_5 
REMARK    3  A    between atoms: C_5  and  C_6 
REMARK       I    between atoms: C_6  and  N_7 
REMARK    4  A    between atoms: N_7  and  C_8 
REMARK    5  A    between atoms: C_16  and  C_17 
REMARK       I    between atoms: C_17  and  N_18 
REMARK    6  A    between atoms: N_18  and  C_19 
REMARK    7  A    between atoms: C_22  and  N_23 
REMARK    8  A    between atoms: N_23  and  C_24 
ROOT
HETATM    1  C   UNL     1      -8.855   6.873 -32.518  1.00  0.00     0.063 C 
HETATM    2  C   UNL     1      -8.633   5.564 -33.251  1.00  0.00     0.007 C 
HETATM    3  C   UNL     1      -9.618   4.642 -33.199  1.00  0.00     0.094 C 
ENDROOT
BRANCH   3   4
HETATM    4  C   UNL     1      -9.579   3.256 -33.751  1.00  0.00     0.247 C 
HETATM    5  N   UNL     1      -8.459   2.567 -33.320  1.00  0.00    -0.324 N 
HETATM    6  H   UNL     1      -7.936   2.960 -32.549  1.00  0.00     0.169 HD
HETATM    7  O   UNL     1     -10.466   2.815 -34.469  1.00  0.00    -0.268 OA
BRANCH   5   8
HETATM    8  C   UNL     1      -8.046   1.291 -33.756  1.00  0.00     0.035 A 
HETATM    9  C   UNL     1      -8.378   0.109 -33.096  1.00  0.00     0.031 A 
HETATM   10  C   UNL     1      -7.936  -1.126 -33.584  1.00  0.00     0.026 A 
HETATM   11  C   UNL     1      -7.114  -1.202 -34.714  1.00  0.00     0.012 A 
HETATM   12  C   UNL     1      -6.828  -0.019 -35.403  1.00  0.00     0.026 A 
HETATM   13  C   UNL     1      -7.296   1.215 -34.934  1.00  0.00     0.031 A 
BRANCH  11  14
HETATM   14  N   UNL     1      -6.666  -2.473 -35.169  1.00  0.00    -0.260 NA
HETATM   15  H   UNL     1      -7.476  -3.091 -35.224  1.00  0.00     0.134 HD
BRANCH  14  16
HETATM   16  C   UNL     1      -5.621  -3.188 -34.526  1.00  0.00     0.012 A 
HETATM   17  C   UNL     1      -5.505  -4.571 -34.676  1.00  0.00     0.024 A 
HETATM   18  C   UNL     1      -4.441  -5.260 -34.085  1.00  0.00     0.002 A 
HETATM   19  C   UNL     1      -3.480  -4.564 -33.353  1.00  0.00     0.000 A 
HETATM   20  C   UNL     1      -3.578  -3.180 -33.214  1.00  0.00     0.002 A 
HETATM   21  C   UNL     1      -4.640  -2.494 -33.803  1.00  0.00     0.024 A 
ENDBRANCH  14  16
ENDBRANCH  11  14
ENDBRANCH   5   8
ENDBRANCH   3   4
BRANCH   2  22
HETATM   22  N   UNL     1      -7.402   5.483 -33.894  1.00  0.00    -0.207 NA
HETATM   23  H   UNL     1      -7.378   4.743 -34.606  1.00  0.00     0.152 HD
BRANCH  22  24
HETATM   24  N   UNL     1      -6.206   5.471 -33.150  1.00  0.00    -0.279 N 
HETATM   25  C   UNL     1      -5.065   5.016 -33.786  1.00  0.00     0.323 C 
HETATM   26  O   UNL     1      -4.966   4.842 -34.992  1.00  0.00    -0.261 OA
HETATM   27  H   UNL     1      -6.306   5.455 -32.130  1.00  0.00     0.184 HD
BRANCH  25  28
HETATM   28  C   UNL     1      -3.928   4.663 -32.821  1.00  0.00     0.311 C 
HETATM   29  N   UNL     1      -3.981   3.536 -32.039  1.00  0.00    -0.348 N 
HETATM   30  H   UNL     1      -3.156   3.455 -31.458  1.00  0.00     0.163 HD
HETATM   31  O   UNL     1      -2.954   5.410 -32.762  1.00  0.00    -0.262 OA
BRANCH  29  32
HETATM   32  C   UNL     1      -4.923   2.414 -31.994  1.00  0.00     0.084 C 
HETATM   33  C   UNL     1      -4.277   1.034 -32.212  1.00  0.00     0.025 C 
HETATM   34  C   UNL     1      -4.566  -0.054 -31.178  1.00  0.00     0.002 C 
HETATM   35  C   UNL     1      -5.917   0.094 -30.503  1.00  0.00     0.000 C 
HETATM   36  C   UNL     1      -6.025   1.463 -29.853  1.00  0.00     0.002 C 
HETATM   37  C   UNL     1      -5.985   2.569 -30.895  1.00  0.00     0.025 C 
ENDBRANCH  29  32
ENDBRANCH  25  28
ENDBRANCH  22  24
ENDBRANCH   2  22
TORSDOF 8
ENDMDL
MODEL 2
REMARK VINA RESULT:      -8.2      3.198      4.304
REMARK  8 active torsions:
REMARK  status: ('A' for Active; 'I' for Inactive)
REMARK    1  A    between atoms: C_2  and  N_3 
REMARK    2  A    between atoms: N_3  and  N_4 
REMARK       I    between atoms: N_4  and  C_5 
REMARK    3  A    between atoms: C_5  and  C_6 
REMARK       I    between atoms: C_6  and  N_7 
REMARK    4  A    between atoms: N_7  and  C_8 
REMARK    5  A    between atoms: C_16  and  C_17 
REMARK       I    between atoms: C_17  and  N_18 
REMARK    6  A    between atoms: N_18  and  C_19 
REMARK    7  A    between atoms: C_22  and  N_23 
REMARK    8  A    between atoms: N_23  and  C_24 
ROOT
HETATM    1  C   UNL     1      -4.634   6.979 -29.539  1.00  0.00     0.063 C 
HETATM    2  C   UNL     1      -5.321   5.927 -30.389  1.00  0.00     0.007 C 
HETATM    3  C   UNL     1      -5.967   4.929 -29.748  1.00  0.00     0.094 C 
ENDROOT
BRANCH   3   4
HETATM    4  C   UNL     1      -6.617   3.738 -30.370  1.00  0.00     0.247 C 
HETATM    5  N   UNL     1      -5.725   3.011 -31.136  1.00  0.00    -0.324 N 
HETATM    6  H   UNL     1      -4.740   3.212 -31.024  1.00  0.00     0.169 HD
HETATM    7  O   UNL     1      -7.793   3.461 -30.172  1.00  0.00    -0.268 OA
BRANCH   5   8
HETATM    8  C   UNL     1      -6.038   1.914 -31.965  1.00  0.00     0.035 A 
HETATM    9  C   UNL     1      -6.298   0.633 -31.478  1.00  0.00     0.031 A 
HETATM   10  C   UNL     1      -6.606  -0.412 -32.355  1.00  0.00     0.026 A 
HETATM   11  C   UNL     1      -6.612  -0.213 -33.741  1.00  0.00     0.012 A 
HETATM   12  C   UNL     1      -6.403   1.084 -34.221  1.00  0.00     0.026 A 
HETATM   13  C   UNL     1      -6.127   2.139 -33.342  1.00  0.00     0.031 A 
BRANCH  11  14
HETATM   14  N   UNL     1      -6.908  -1.304 -34.604  1.00  0.00    -0.260 NA
HETATM   15  H   UNL     1      -7.903  -1.511 -34.519  1.00  0.00     0.134 HD
BRANCH  14  16
HETATM   16  C   UNL     1      -6.204  -2.536 -34.542  1.00  0.00     0.012 A 
HETATM   17  C   UNL     1      -6.818  -3.729 -34.929  1.00  0.00     0.024 A 
HETATM   18  C   UNL     1      -6.101  -4.929 -34.919  1.00  0.00     0.002 A 
HETATM   19  C   UNL     1      -4.760  -4.938 -34.534  1.00  0.00     0.000 A 
HETATM   20  C   UNL     1      -4.134  -3.749 -34.165  1.00  0.00     0.002 A 
HETATM   21  C   UNL     1      -4.851  -2.551 -34.175  1.00  0.00     0.024 A 
ENDBRANCH  14  16
ENDBRANCH  11  14
ENDBRANCH   5   8
ENDBRANCH   3   4
BRANCH   2  22
HETATM   22  N   UNL     1      -5.185   6.134 -31.757  1.00  0.00    -0.207 NA
HETATM   23  H   UNL     1      -5.274   5.265 -32.297  1.00  0.00     0.152 HD
BRANCH  22  24
HETATM   24  N   UNL     1      -4.120   6.905 -32.261  1.00  0.00    -0.279 N 
HETATM   25  C   UNL     1      -3.140   6.245 -32.981  1.00  0.00     0.323 C 
HETATM   26  O   UNL     1      -3.240   5.101 -33.401  1.00  0.00    -0.261 OA
HETATM   27  H   UNL     1      -3.943   7.799 -31.791  1.00  0.00     0.184 HD
BRANCH  25  28
HETATM   28  C   UNL     1      -1.851   7.057 -33.143  1.00  0.00     0.311 C 
HETATM   29  N   UNL     1      -0.990   7.246 -32.090  1.00  0.00    -0.348 N 
HETATM   30  H   UNL     1      -0.194   7.808 -32.366  1.00  0.00     0.163 HD
HETATM   31  O   UNL     1      -1.593   7.537 -34.245  1.00  0.00    -0.262 OA
BRANCH  29  32
HETATM   32  C   UNL     1      -0.961   6.696 -30.733  1.00  0.00     0.084 C 
HETATM   33  C   UNL     1      -0.326   5.297 -30.627  1.00  0.00     0.025 C 
HETATM   34  C   UNL     1       0.785   5.100 -29.597  1.00  0.00     0.002 C 
HETATM   35  C   UNL     1       0.661   6.009 -28.389  1.00  0.00     0.000 C 
HETATM   36  C   UNL     1       0.623   7.461 -28.833  1.00  0.00     0.002 C 
HETATM   37  C   UNL     1      -0.614   7.747 -29.668  1.00  0.00     0.025 C 
ENDBRANCH  29  32
ENDBRANCH  25  28
ENDBRANCH  22  24
ENDBRANCH   2  22
TORSDOF 8
ENDMDL
MODEL 3
REMARK VINA RESULT:      -8.1      2.669      6.613
REMARK  8 active torsions:
REMARK  status: ('A' for Active; 'I' for Inactive)
REMARK    1  A    between atoms: C_2  and  N_3 
REMARK    2  A    between atoms: N_3  and  N_4 
REMARK       I    between atoms: N_4  and  C_5 
REMARK    3  A    between atoms: C_5  and  C_6 
REMARK       I    between atoms: C_6  and  N_7 
REMARK    4  A    between atoms: N_7  and  C_8 
REMARK    5  A    between atoms: C_16  and  C_17 
REMARK       I    between atoms: C_17  and  N_18 
REMARK    6  A    between atoms: N_18  and  C_19 
REMARK    7  A    between atoms: C_22  and  N_23 
REMARK    8  A    between atoms: N_23  and  C_24 
ROOT
HETATM    1  C   UNL     1     -11.223   1.160 -33.740  1.00  0.00     0.063 C 
HETATM    2  C   UNL     1      -9.958   1.925 -34.077  1.00  0.00     0.007 C 
HETATM    3  C   UNL     1      -9.860   3.198 -33.636  1.00  0.00     0.094 C 
ENDROOT
BRANCH   3   4
HETATM    4  C   UNL     1      -8.765   4.168 -33.933  1.00  0.00     0.247 C 
HETATM    5  N   UNL     1      -7.546   3.725 -33.455  1.00  0.00    -0.324 N 
HETATM    6  H   UNL     1      -7.478   2.755 -33.175  1.00  0.00     0.169 HD
HETATM    7  O   UNL     1      -8.964   5.204 -34.554  1.00  0.00    -0.268 OA
BRANCH   5   8
HETATM    8  C   UNL     1      -6.339   4.453 -33.444  1.00  0.00     0.035 A 
HETATM    9  C   UNL     1      -5.392   4.386 -34.466  1.00  0.00     0.031 A 
HETATM   10  C   UNL     1      -4.214   5.138 -34.395  1.00  0.00     0.026 A 
HETATM   11  C   UNL     1      -3.934   5.936 -33.280  1.00  0.00     0.012 A 
HETATM   12  C   UNL     1      -4.910   6.041 -32.283  1.00  0.00     0.026 A 
HETATM   13  C   UNL     1      -6.104   5.314 -32.367  1.00  0.00     0.031 A 
BRANCH  11  14
HETATM   14  N   UNL     1      -2.717   6.669 -33.232  1.00  0.00    -0.260 NA
HETATM   15  H   UNL     1      -2.331   6.700 -34.175  1.00  0.00     0.134 HD
BRANCH  14  16
HETATM   16  C   UNL     1      -1.660   6.335 -32.344  1.00  0.00     0.012 A 
HETATM   17  C   UNL     1      -1.556   5.048 -31.811  1.00  0.00     0.024 A 
HETATM   18  C   UNL     1      -0.483   4.711 -30.982  1.00  0.00     0.002 A 
HETATM   19  C   UNL     1       0.501   5.657 -30.694  1.00  0.00     0.000 A 
HETATM   20  C   UNL     1       0.416   6.937 -31.237  1.00  0.00     0.002 A 
HETATM   21  C   UNL     1      -0.657   7.274 -32.064  1.00  0.00     0.024 A 
ENDBRANCH  14  16
ENDBRANCH  11  14
ENDBRANCH   5   8
ENDBRANCH   3   4
BRANCH   2  22
HETATM   22  N   UNL     1      -9.041   1.194 -34.825  1.00  0.00    -0.207 NA
HETATM   23  H   UNL     1      -9.400   0.944 -35.753  1.00  0.00     0.152 HD
BRANCH  22  24
HETATM   24  N   UNL     1      -8.370   0.094 -34.256  1.00  0.00    -0.279 N 
HETATM   25  C   UNL     1      -6.988   0.091 -34.312  1.00  0.00     0.323 C 
HETATM   26  O   UNL     1      -6.305   1.061 -34.607  1.00  0.00    -0.261 OA
HETATM   27  H   UNL     1      -8.915  -0.770 -34.161  1.00  0.00     0.184 HD
BRANCH  25  28
HETATM   28  C   UNL     1      -6.369  -1.284 -34.045  1.00  0.00     0.311 C 
HETATM   29  N   UNL     1      -5.449  -1.469 -33.043  1.00  0.00    -0.348 N 
HETATM   30  H   UNL     1      -5.137  -2.432 -33.006  1.00  0.00     0.163 HD
HETATM   31  O   UNL     1      -6.717  -2.232 -34.745  1.00  0.00    -0.262 OA
BRANCH  29  32
HETATM   32  C   UNL     1      -4.956  -0.583 -31.985  1.00  0.00     0.084 C 
HETATM   33  C   UNL     1      -3.825   0.364 -32.426  1.00  0.00     0.025 C 
HETATM   34  C   UNL     1      -3.998   1.856 -32.139  1.00  0.00     0.002 C 
HETATM   35  C   UNL     1      -4.842   2.143 -30.911  1.00  0.00     0.000 C 
HETATM   36  C   UNL     1      -6.204   1.484 -31.052  1.00  0.00     0.002 C 
HETATM   37  C   UNL     1      -6.078  -0.030 -31.096  1.00  0.00     0.025 C 
ENDBRANCH  29  32
ENDBRANCH  25  28
ENDBRANCH  22  24
ENDBRANCH   2  22
TORSDOF 8
ENDMDL
MODEL 4
REMARK VINA RESULT:      -8.1      2.725      4.265
REMARK  8 active torsions:
REMARK  status: ('A' for Active; 'I' for Inactive)
REMARK    1  A    between atoms: C_2  and  N_3 
REMARK    2  A    between atoms: N_3  and  N_4 
REMARK       I    between atoms: N_4  and  C_5 
REMARK    3  A    between atoms: C_5  and  C_6 
REMARK       I    between atoms: C_6  and  N_7 
REMARK    4  A    between atoms: N_7  and  C_8 
REMARK    5  A    between atoms: C_16  and  C_17 
REMARK       I    between atoms: C_17  and  N_18 
REMARK    6  A    between atoms: N_18  and  C_19 
REMARK    7  A    between atoms: C_22  and  N_23 
REMARK    8  A    between atoms: N_23  and  C_24 
ROOT
HETATM    1  C   UNL     1      -6.069   6.710 -28.241  1.00  0.00     0.063 C 
HETATM    2  C   UNL     1      -5.601   5.783 -29.347  1.00  0.00     0.007 C 
HETATM    3  C   UNL     1      -6.231   4.596 -29.477  1.00  0.00     0.094 C 
ENDROOT
BRANCH   3   4
HETATM    4  C   UNL     1      -5.877   3.490 -30.415  1.00  0.00     0.247 C 
HETATM    5  N   UNL     1      -6.957   3.118 -31.195  1.00  0.00    -0.324 N 
HETATM    6  H   UNL     1      -7.756   3.737 -31.214  1.00  0.00     0.169 HD
HETATM    7  O   UNL     1      -4.748   3.022 -30.473  1.00  0.00    -0.268 OA
BRANCH   5   8
HETATM    8  C   UNL     1      -7.007   2.022 -32.082  1.00  0.00     0.035 A 
HETATM    9  C   UNL     1      -7.578   0.793 -31.753  1.00  0.00     0.031 A 
HETATM   10  C   UNL     1      -7.597  -0.253 -32.682  1.00  0.00     0.026 A 
HETATM   11  C   UNL     1      -7.003  -0.110 -33.942  1.00  0.00     0.012 A 
HETATM   12  C   UNL     1      -6.479   1.140 -34.285  1.00  0.00     0.026 A 
HETATM   13  C   UNL     1      -6.488   2.200 -33.368  1.00  0.00     0.031 A 
BRANCH  11  14
HETATM   14  N   UNL     1      -7.022  -1.202 -34.852  1.00  0.00    -0.260 NA
HETATM   15  H   UNL     1      -7.984  -1.530 -34.930  1.00  0.00     0.134 HD
BRANCH  14  16
HETATM   16  C   UNL     1      -6.189  -2.341 -34.693  1.00  0.00     0.012 A 
HETATM   17  C   UNL     1      -4.916  -2.221 -34.132  1.00  0.00     0.024 A 
HETATM   18  C   UNL     1      -4.124  -3.355 -33.928  1.00  0.00     0.002 A 
HETATM   19  C   UNL     1      -4.609  -4.617 -34.271  1.00  0.00     0.000 A 
HETATM   20  C   UNL     1      -5.886  -4.747 -34.814  1.00  0.00     0.002 A 
HETATM   21  C   UNL     1      -6.675  -3.615 -35.018  1.00  0.00     0.024 A 
ENDBRANCH  14  16
ENDBRANCH  11  14
ENDBRANCH   5   8
ENDBRANCH   3   4
BRANCH   2  22
HETATM   22  N   UNL     1      -4.548   6.292 -30.099  1.00  0.00    -0.207 NA
HETATM   23  H   UNL     1      -4.733   6.258 -31.109  1.00  0.00     0.152 HD
BRANCH  22  24
HETATM   24  N   UNL     1      -3.224   5.888 -29.841  1.00  0.00    -0.279 N 
HETATM   25  C   UNL     1      -2.207   6.667 -30.363  1.00  0.00     0.323 C 
HETATM   26  O   UNL     1      -2.361   7.786 -30.831  1.00  0.00    -0.261 OA
HETATM   27  H   UNL     1      -3.088   4.900 -29.604  1.00  0.00     0.184 HD
BRANCH  25  28
HETATM   28  C   UNL     1      -0.847   5.962 -30.381  1.00  0.00     0.311 C 
HETATM   29  N   UNL     1      -0.452   5.202 -31.454  1.00  0.00    -0.348 N 
HETATM   30  H   UNL     1       0.467   4.804 -31.303  1.00  0.00     0.163 HD
HETATM   31  O   UNL     1      -0.102   6.094 -29.412  1.00  0.00    -0.262 OA
BRANCH  29  32
HETATM   32  C   UNL     1      -1.049   4.979 -32.774  1.00  0.00     0.084 C 
HETATM   33  C   UNL     1      -2.331   4.125 -32.755  1.00  0.00     0.025 C 
HETATM   34  C   UNL     1      -3.566   4.687 -33.458  1.00  0.00     0.002 C 
HETATM   35  C   UNL     1      -3.238   5.603 -34.623  1.00  0.00     0.000 C 
HETATM   36  C   UNL     1      -2.350   6.742 -34.153  1.00  0.00     0.002 C 
HETATM   37  C   UNL     1      -1.005   6.226 -33.669  1.00  0.00     0.025 C 
ENDBRANCH  29  32
ENDBRANCH  25  28
ENDBRANCH  22  24
ENDBRANCH   2  22
TORSDOF 8
ENDMDL
MODEL 5
REMARK VINA RESULT:      -8.0      3.014      4.857
REMARK  8 active torsions:
REMARK  status: ('A' for Active; 'I' for Inactive)
REMARK    1  A    between atoms: C_2  and  N_3 
REMARK    2  A    between atoms: N_3  and  N_4 
REMARK       I    between atoms: N_4  and  C_5 
REMARK    3  A    between atoms: C_5  and  C_6 
REMARK       I    between atoms: C_6  and  N_7 
REMARK    4  A    between atoms: N_7  and  C_8 
REMARK    5  A    between atoms: C_16  and  C_17 
REMARK       I    between atoms: C_17  and  N_18 
REMARK    6  A    between atoms: N_18  and  C_19 
REMARK    7  A    between atoms: C_22  and  N_23 
REMARK    8  A    between atoms: N_23  and  C_24 
ROOT
HETATM    1  C   UNL     1      -5.962   6.389 -27.676  1.00  0.00     0.063 C 
HETATM    2  C   UNL     1      -5.766   5.421 -28.827  1.00  0.00     0.007 C 
HETATM    3  C   UNL     1      -6.749   4.526 -29.067  1.00  0.00     0.094 C 
ENDROOT
BRANCH   3   4
HETATM    4  C   UNL     1      -6.729   3.419 -30.068  1.00  0.00     0.247 C 
HETATM    5  N   UNL     1      -5.580   2.657 -29.963  1.00  0.00    -0.324 N 
HETATM    6  H   UNL     1      -5.016   2.773 -29.132  1.00  0.00     0.169 HD
HETATM    7  O   UNL     1      -7.654   3.230 -30.847  1.00  0.00    -0.268 OA
BRANCH   5   8
HETATM    8  C   UNL     1      -5.181   1.625 -30.838  1.00  0.00     0.035 A 
HETATM    9  C   UNL     1      -5.083   0.288 -30.454  1.00  0.00     0.031 A 
HETATM   10  C   UNL     1      -4.683  -0.688 -31.373  1.00  0.00     0.026 A 
HETATM   11  C   UNL     1      -4.326  -0.343 -32.682  1.00  0.00     0.012 A 
HETATM   12  C   UNL     1      -4.477   0.991 -33.077  1.00  0.00     0.026 A 
HETATM   13  C   UNL     1      -4.908   1.964 -32.167  1.00  0.00     0.031 A 
BRANCH  11  14
HETATM   14  N   UNL     1      -3.903  -1.358 -33.583  1.00  0.00    -0.260 NA
HETATM   15  H   UNL     1      -3.577  -0.905 -34.437  1.00  0.00     0.134 HD
BRANCH  14  16
HETATM   16  C   UNL     1      -4.743  -2.439 -33.962  1.00  0.00     0.012 A 
HETATM   17  C   UNL     1      -6.068  -2.214 -34.342  1.00  0.00     0.024 A 
HETATM   18  C   UNL     1      -6.871  -3.276 -34.766  1.00  0.00     0.002 A 
HETATM   19  C   UNL     1      -6.348  -4.568 -34.825  1.00  0.00     0.000 A 
HETATM   20  C   UNL     1      -5.022  -4.798 -34.466  1.00  0.00     0.002 A 
HETATM   21  C   UNL     1      -4.220  -3.738 -34.041  1.00  0.00     0.024 A 
ENDBRANCH  14  16
ENDBRANCH  11  14
ENDBRANCH   5   8
ENDBRANCH   3   4
BRANCH   2  22
HETATM   22  N   UNL     1      -4.560   5.585 -29.500  1.00  0.00    -0.207 NA
HETATM   23  H   UNL     1      -3.874   6.120 -28.954  1.00  0.00     0.152 HD
BRANCH  22  24
HETATM   24  N   UNL     1      -4.542   6.010 -30.843  1.00  0.00    -0.279 N 
HETATM   25  C   UNL     1      -3.526   5.531 -31.649  1.00  0.00     0.323 C 
HETATM   26  O   UNL     1      -2.785   4.604 -31.354  1.00  0.00    -0.261 OA
HETATM   27  H   UNL     1      -5.038   6.884 -31.049  1.00  0.00     0.184 HD
BRANCH  25  28
HETATM   28  C   UNL     1      -3.345   6.330 -32.943  1.00  0.00     0.311 C 
HETATM   29  N   UNL     1      -2.433   7.353 -33.029  1.00  0.00    -0.348 N 
HETATM   30  H   UNL     1      -2.446   7.778 -33.948  1.00  0.00     0.163 HD
HETATM   31  O   UNL     1      -4.033   6.034 -33.918  1.00  0.00    -0.262 OA
BRANCH  29  32
HETATM   32  C   UNL     1      -1.404   7.831 -32.103  1.00  0.00     0.084 C 
HETATM   33  C   UNL     1      -1.954   8.438 -30.799  1.00  0.00     0.025 C 
HETATM   34  C   UNL     1      -1.398   7.904 -29.479  1.00  0.00     0.002 C 
HETATM   35  C   UNL     1       0.031   7.403 -29.582  1.00  0.00     0.000 C 
HETATM   36  C   UNL     1       0.130   6.331 -30.653  1.00  0.00     0.002 C 
HETATM   37  C   UNL     1      -0.186   6.898 -32.027  1.00  0.00     0.025 C 
ENDBRANCH  29  32
ENDBRANCH  25  28
ENDBRANCH  22  24
ENDBRANCH   2  22
TORSDOF 8
ENDMDL
MODEL 6
REMARK VINA RESULT:      -7.8      3.587      5.539
REMARK  8 active torsions:
REMARK  status: ('A' for Active; 'I' for Inactive)
REMARK    1  A    between atoms: C_2  and  N_3 
REMARK    2  A    between atoms: N_3  and  N_4 
REMARK       I    between atoms: N_4  and  C_5 
REMARK    3  A    between atoms: C_5  and  C_6 
REMARK       I    between atoms: C_6  and  N_7 
REMARK    4  A    between atoms: N_7  and  C_8 
REMARK    5  A    between atoms: C_16  and  C_17 
REMARK       I    between atoms: C_17  and  N_18 
REMARK    6  A    between atoms: N_18  and  C_19 
REMARK    7  A    between atoms: C_22  and  N_23 
REMARK    8  A    between atoms: N_23  and  C_24 
ROOT
HETATM    1  C   UNL     1      -3.901   7.361 -26.319  1.00  0.00     0.063 C 
HETATM    2  C   UNL     1      -4.533   6.780 -27.569  1.00  0.00     0.007 C 
HETATM    3  C   UNL     1      -5.608   5.978 -27.413  1.00  0.00     0.094 C 
ENDROOT
BRANCH   3   4
HETATM    4  C   UNL     1      -6.322   5.218 -28.481  1.00  0.00     0.247 C 
HETATM    5  N   UNL     1      -5.532   4.211 -29.006  1.00  0.00    -0.324 N 
HETATM    6  H   UNL     1      -4.696   3.959 -28.496  1.00  0.00     0.169 HD
HETATM    7  O   UNL     1      -7.477   5.470 -28.799  1.00  0.00    -0.268 OA
BRANCH   5   8
HETATM    8  C   UNL     1      -5.845   3.398 -30.115  1.00  0.00     0.035 A 
HETATM    9  C   UNL     1      -5.586   3.766 -31.434  1.00  0.00     0.031 A 
HETATM   10  C   UNL     1      -5.919   2.910 -32.490  1.00  0.00     0.026 A 
HETATM   11  C   UNL     1      -6.562   1.689 -32.253  1.00  0.00     0.012 A 
HETATM   12  C   UNL     1      -6.772   1.301 -30.926  1.00  0.00     0.026 A 
HETATM   13  C   UNL     1      -6.410   2.143 -29.866  1.00  0.00     0.031 A 
BRANCH  11  14
HETATM   14  N   UNL     1      -6.906   0.855 -33.352  1.00  0.00    -0.260 NA
HETATM   15  H   UNL     1      -7.874   0.558 -33.230  1.00  0.00     0.134 HD
BRANCH  14  16
HETATM   16  C   UNL     1      -6.144  -0.291 -33.706  1.00  0.00     0.012 A 
HETATM   17  C   UNL     1      -4.843  -0.458 -33.228  1.00  0.00     0.024 A 
HETATM   18  C   UNL     1      -4.120  -1.614 -33.536  1.00  0.00     0.002 A 
HETATM   19  C   UNL     1      -4.703  -2.617 -34.311  1.00  0.00     0.000 A 
HETATM   20  C   UNL     1      -6.008  -2.467 -34.775  1.00  0.00     0.002 A 
HETATM   21  C   UNL     1      -6.729  -1.312 -34.469  1.00  0.00     0.024 A 
ENDBRANCH  14  16
ENDBRANCH  11  14
ENDBRANCH   5   8
ENDBRANCH   3   4
BRANCH   2  22
HETATM   22  N   UNL     1      -3.896   7.157 -28.747  1.00  0.00    -0.207 NA
HETATM   23  H   UNL     1      -4.469   6.974 -29.580  1.00  0.00     0.152 HD
BRANCH  22  24
HETATM   24  N   UNL     1      -2.561   6.781 -28.990  1.00  0.00    -0.279 N 
HETATM   25  C   UNL     1      -1.685   7.770 -29.400  1.00  0.00     0.323 C 
HETATM   26  O   UNL     1      -1.920   8.969 -29.349  1.00  0.00    -0.261 OA
HETATM   27  H   UNL     1      -2.398   5.789 -29.192  1.00  0.00     0.184 HD
BRANCH  25  28
HETATM   28  C   UNL     1      -0.393   7.224 -30.015  1.00  0.00     0.311 C 
HETATM   29  N   UNL     1      -0.393   6.604 -31.240  1.00  0.00    -0.348 N 
HETATM   30  H   UNL     1       0.539   6.299 -31.496  1.00  0.00     0.163 HD
HETATM   31  O   UNL     1       0.657   7.356 -29.391  1.00  0.00    -0.262 OA
BRANCH  29  32
HETATM   32  C   UNL     1      -1.437   6.427 -32.253  1.00  0.00     0.084 C 
HETATM   33  C   UNL     1      -1.005   6.803 -33.683  1.00  0.00     0.025 C 
HETATM   34  C   UNL     1      -1.235   5.770 -34.786  1.00  0.00     0.002 C 
HETATM   35  C   UNL     1      -2.420   4.859 -34.527  1.00  0.00     0.000 C 
HETATM   36  C   UNL     1      -2.253   4.156 -33.191  1.00  0.00     0.002 C 
HETATM   37  C   UNL     1      -2.265   5.151 -32.043  1.00  0.00     0.025 C 
ENDBRANCH  29  32
ENDBRANCH  25  28
ENDBRANCH  22  24
ENDBRANCH   2  22
TORSDOF 8
ENDMDL
MODEL 7
REMARK VINA RESULT:      -7.7      4.367      8.596
REMARK  8 active torsions:
REMARK  status: ('A' for Active; 'I' for Inactive)
REMARK    1  A    between atoms: C_2  and  N_3 
REMARK    2  A    between atoms: N_3  and  N_4 
REMARK       I    between atoms: N_4  and  C_5 
REMARK    3  A    between atoms: C_5  and  C_6 
REMARK       I    between atoms: C_6  and  N_7 
REMARK    4  A    between atoms: N_7  and  C_8 
REMARK    5  A    between atoms: C_16  and  C_17 
REMARK       I    between atoms: C_17  and  N_18 
REMARK    6  A    between atoms: N_18  and  C_19 
REMARK    7  A    between atoms: C_22  and  N_23 
REMARK    8  A    between atoms: N_23  and  C_24 
ROOT
HETATM    1  C   UNL     1      -8.071   4.014 -33.863  1.00  0.00     0.063 C 
HETATM    2  C   UNL     1      -6.682   4.288 -33.318  1.00  0.00     0.007 C 
HETATM    3  C   UNL     1      -5.796   4.892 -34.138  1.00  0.00     0.094 C 
ENDROOT
BRANCH   3   4
HETATM    4  C   UNL     1      -4.355   5.164 -33.857  1.00  0.00     0.247 C 
HETATM    5  N   UNL     1      -4.121   5.330 -32.504  1.00  0.00    -0.324 N 
HETATM    6  H   UNL     1      -4.851   5.044 -31.865  1.00  0.00     0.169 HD
HETATM    7  O   UNL     1      -3.514   5.197 -34.746  1.00  0.00    -0.268 OA
BRANCH   5   8
HETATM    8  C   UNL     1      -2.907   5.731 -31.911  1.00  0.00     0.035 A 
HETATM    9  C   UNL     1      -1.827   4.871 -31.715  1.00  0.00     0.031 A 
HETATM   10  C   UNL     1      -0.647   5.334 -31.122  1.00  0.00     0.026 A 
HETATM   11  C   UNL     1      -0.539   6.653 -30.667  1.00  0.00     0.012 A 
HETATM   12  C   UNL     1      -1.604   7.525 -30.912  1.00  0.00     0.026 A 
HETATM   13  C   UNL     1      -2.774   7.071 -31.536  1.00  0.00     0.031 A 
BRANCH  11  14
HETATM   14  N   UNL     1       0.668   7.083 -30.048  1.00  0.00    -0.260 NA
HETATM   15  H   UNL     1       1.388   6.391 -30.251  1.00  0.00     0.134 HD
BRANCH  14  16
HETATM   16  C   UNL     1       0.745   7.396 -28.665  1.00  0.00     0.012 A 
HETATM   17  C   UNL     1       0.167   6.557 -27.711  1.00  0.00     0.024 A 
HETATM   18  C   UNL     1       0.295   6.842 -26.348  1.00  0.00     0.002 A 
HETATM   19  C   UNL     1       1.016   7.962 -25.934  1.00  0.00     0.000 A 
HETATM   20  C   UNL     1       1.613   8.794 -26.880  1.00  0.00     0.002 A 
HETATM   21  C   UNL     1       1.483   8.509 -28.240  1.00  0.00     0.024 A 
ENDBRANCH  14  16
ENDBRANCH  11  14
ENDBRANCH   5   8
ENDBRANCH   3   4
BRANCH   2  22
HETATM   22  N   UNL     1      -6.499   3.863 -32.007  1.00  0.00    -0.207 NA
HETATM   23  H   UNL     1      -6.035   4.570 -31.424  1.00  0.00     0.152 HD
BRANCH  22  24
HETATM   24  N   UNL     1      -5.960   2.590 -31.737  1.00  0.00    -0.279 N 
HETATM   25  C   UNL     1      -6.826   1.616 -31.273  1.00  0.00     0.323 C 
HETATM   26  O   UNL     1      -8.046   1.705 -31.295  1.00  0.00    -0.261 OA
HETATM   27  H   UNL     1      -4.951   2.552 -31.560  1.00  0.00     0.184 HD
BRANCH  25  28
HETATM   28  C   UNL     1      -6.113   0.418 -30.639  1.00  0.00     0.311 C 
HETATM   29  N   UNL     1      -5.644  -0.620 -31.405  1.00  0.00    -0.348 N 
HETATM   30  H   UNL     1      -5.206  -1.330 -30.830  1.00  0.00     0.163 HD
HETATM   31  O   UNL     1      -5.961   0.402 -29.419  1.00  0.00    -0.262 OA
BRANCH  29  32
HETATM   32  C   UNL     1      -5.558  -0.811 -32.855  1.00  0.00     0.084 C 
HETATM   33  C   UNL     1      -4.284  -1.538 -33.326  1.00  0.00     0.025 C 
HETATM   34  C   UNL     1      -4.458  -2.752 -34.237  1.00  0.00     0.002 C 
HETATM   35  C   UNL     1      -5.702  -2.688 -35.104  1.00  0.00     0.000 C 
HETATM   36  C   UNL     1      -6.933  -2.519 -34.231  1.00  0.00     0.002 C 
HETATM   37  C   UNL     1      -6.903  -1.193 -33.489  1.00  0.00     0.025 C 
ENDBRANCH  29  32
ENDBRANCH  25  28
ENDBRANCH  22  24
ENDBRANCH   2  22
TORSDOF 8
ENDMDL
MODEL 8
REMARK VINA RESULT:      -7.7      1.769      2.092
REMARK  8 active torsions:
REMARK  status: ('A' for Active; 'I' for Inactive)
REMARK    1  A    between atoms: C_2  and  N_3 
REMARK    2  A    between atoms: N_3  and  N_4 
REMARK       I    between atoms: N_4  and  C_5 
REMARK    3  A    between atoms: C_5  and  C_6 
REMARK       I    between atoms: C_6  and  N_7 
REMARK    4  A    between atoms: N_7  and  C_8 
REMARK    5  A    between atoms: C_16  and  C_17 
REMARK       I    between atoms: C_17  and  N_18 
REMARK    6  A    between atoms: N_18  and  C_19 
REMARK    7  A    between atoms: C_22  and  N_23 
REMARK    8  A    between atoms: N_23  and  C_24 
ROOT
HETATM    1  C   UNL     1      -8.928   6.675 -28.870  1.00  0.00     0.063 C 
HETATM    2  C   UNL     1      -8.493   6.113 -30.210  1.00  0.00     0.007 C 
HETATM    3  C   UNL     1      -9.131   5.014 -30.665  1.00  0.00     0.094 C 
ENDROOT
BRANCH   3   4
HETATM    4  C   UNL     1      -8.806   4.232 -31.894  1.00  0.00     0.247 C 
HETATM    5  N   UNL     1      -8.658   2.885 -31.618  1.00  0.00    -0.324 N 
HETATM    6  H   UNL     1      -8.987   2.553 -30.721  1.00  0.00     0.169 HD
HETATM    7  O   UNL     1      -8.720   4.757 -32.997  1.00  0.00    -0.268 OA
BRANCH   5   8
HETATM    8  C   UNL     1      -8.220   1.892 -32.518  1.00  0.00     0.035 A 
HETATM    9  C   UNL     1      -7.303   2.133 -33.540  1.00  0.00     0.031 A 
HETATM   10  C   UNL     1      -6.906   1.102 -34.398  1.00  0.00     0.026 A 
HETATM   11  C   UNL     1      -7.454  -0.181 -34.284  1.00  0.00     0.012 A 
HETATM   12  C   UNL     1      -8.333  -0.432 -33.225  1.00  0.00     0.026 A 
HETATM   13  C   UNL     1      -8.706   0.593 -32.345  1.00  0.00     0.031 A 
BRANCH  11  14
HETATM   14  N   UNL     1      -7.044  -1.200 -35.188  1.00  0.00    -0.260 NA
HETATM   15  H   UNL     1      -7.879  -1.578 -35.635  1.00  0.00     0.134 HD
BRANCH  14  16
HETATM   16  C   UNL     1      -6.237  -2.297 -34.784  1.00  0.00     0.012 A 
HETATM   17  C   UNL     1      -6.634  -3.610 -35.047  1.00  0.00     0.024 A 
HETATM   18  C   UNL     1      -5.808  -4.682 -34.696  1.00  0.00     0.002 A 
HETATM   19  C   UNL     1      -4.573  -4.443 -34.093  1.00  0.00     0.000 A 
HETATM   20  C   UNL     1      -4.161  -3.136 -33.845  1.00  0.00     0.002 A 
HETATM   21  C   UNL     1      -4.986  -2.066 -34.194  1.00  0.00     0.024 A 
ENDBRANCH  14  16
ENDBRANCH  11  14
ENDBRANCH   5   8
ENDBRANCH   3   4
BRANCH   2  22
HETATM   22  N   UNL     1      -7.456   6.822 -30.806  1.00  0.00    -0.207 NA
HETATM   23  H   UNL     1      -7.544   6.863 -31.829  1.00  0.00     0.152 HD
BRANCH  22  24
HETATM   24  N   UNL     1      -6.117   6.568 -30.450  1.00  0.00    -0.279 N 
HETATM   25  C   UNL     1      -5.293   6.024 -31.418  1.00  0.00     0.323 C 
HETATM   26  O   UNL     1      -5.569   5.959 -32.608  1.00  0.00    -0.261 OA
HETATM   27  H   UNL     1      -5.926   6.464 -29.448  1.00  0.00     0.184 HD
BRANCH  25  28
HETATM   28  C   UNL     1      -4.004   5.420 -30.853  1.00  0.00     0.311 C 
HETATM   29  N   UNL     1      -3.835   4.060 -30.758  1.00  0.00    -0.348 N 
HETATM   30  H   UNL     1      -2.933   3.831 -30.359  1.00  0.00     0.163 HD
HETATM   31  O   UNL     1      -3.109   6.179 -30.486  1.00  0.00    -0.262 OA
BRANCH  29  32
HETATM   32  C   UNL     1      -4.645   2.934 -31.230  1.00  0.00     0.084 C 
HETATM   33  C   UNL     1      -3.881   1.926 -32.107  1.00  0.00     0.025 C 
HETATM   34  C   UNL     1      -3.956   0.449 -31.717  1.00  0.00     0.002 C 
HETATM   35  C   UNL     1      -5.246   0.072 -31.012  1.00  0.00     0.000 C 
HETATM   36  C   UNL     1      -5.436   0.940 -29.780  1.00  0.00     0.002 C 
HETATM   37  C   UNL     1      -5.609   2.401 -30.160  1.00  0.00     0.025 C 
ENDBRANCH  29  32
ENDBRANCH  25  28
ENDBRANCH  22  24
ENDBRANCH   2  22
TORSDOF 8
ENDMDL
MODEL 9
REMARK VINA RESULT:      -7.6      2.609      4.098
REMARK  8 active torsions:
REMARK  status: ('A' for Active; 'I' for Inactive)
REMARK    1  A    between atoms: C_2  and  N_3 
REMARK    2  A    between atoms: N_3  and  N_4 
REMARK       I    between atoms: N_4  and  C_5 
REMARK    3  A    between atoms: C_5  and  C_6 
REMARK       I    between atoms: C_6  and  N_7 
REMARK    4  A    between atoms: N_7  and  C_8 
REMARK    5  A    between atoms: C_16  and  C_17 
REMARK       I    between atoms: C_17  and  N_18 
REMARK    6  A    between atoms: N_18  and  C_19 
REMARK    7  A    between atoms: C_22  and  N_23 
REMARK    8  A    between atoms: N_23  and  C_24 
ROOT
HETATM    1  C   UNL     1     -14.259   4.490 -32.444  1.00  0.00     0.063 C 
HETATM    2  C   UNL     1     -13.008   3.646 -32.595  1.00  0.00     0.007 C 
HETATM    3  C   UNL     1     -13.129   2.454 -33.217  1.00  0.00     0.094 C 
ENDROOT
BRANCH   3   4
HETATM    4  C   UNL     1     -12.068   1.418 -33.385  1.00  0.00     0.247 C 
HETATM    5  N   UNL     1     -10.826   1.893 -33.003  1.00  0.00    -0.324 N 
HETATM    6  H   UNL     1     -10.798   2.753 -32.471  1.00  0.00     0.169 HD
HETATM    7  O   UNL     1     -12.317   0.289 -33.787  1.00  0.00    -0.268 OA
BRANCH   5   8
HETATM    8  C   UNL     1      -9.593   1.227 -33.160  1.00  0.00     0.035 A 
HETATM    9  C   UNL     1      -8.937   0.572 -32.119  1.00  0.00     0.031 A 
HETATM   10  C   UNL     1      -7.715  -0.074 -32.343  1.00  0.00     0.026 A 
HETATM   11  C   UNL     1      -7.101  -0.037 -33.600  1.00  0.00     0.012 A 
HETATM   12  C   UNL     1      -7.788   0.576 -34.653  1.00  0.00     0.026 A 
HETATM   13  C   UNL     1      -9.026   1.195 -34.438  1.00  0.00     0.031 A 
BRANCH  11  14
HETATM   14  N   UNL     1      -5.848  -0.685 -33.785  1.00  0.00    -0.260 NA
HETATM   15  H   UNL     1      -5.311  -0.142 -34.460  1.00  0.00     0.134 HD
BRANCH  14  16
HETATM   16  C   UNL     1      -5.746  -2.053 -34.151  1.00  0.00     0.012 A 
HETATM   17  C   UNL     1      -4.529  -2.730 -34.049  1.00  0.00     0.024 A 
HETATM   18  C   UNL     1      -4.448  -4.091 -34.358  1.00  0.00     0.002 A 
HETATM   19  C   UNL     1      -5.590  -4.785 -34.759  1.00  0.00     0.000 A 
HETATM   20  C   UNL     1      -6.813  -4.122 -34.845  1.00  0.00     0.002 A 
HETATM   21  C   UNL     1      -6.892  -2.763 -34.537  1.00  0.00     0.024 A 
ENDBRANCH  14  16
ENDBRANCH  11  14
ENDBRANCH   5   8
ENDBRANCH   3   4
BRANCH   2  22
HETATM   22  N   UNL     1     -11.869   4.228 -32.051  1.00  0.00    -0.207 NA
HETATM   23  H   UNL     1     -11.853   4.177 -31.025  1.00  0.00     0.152 HD
BRANCH  22  24
HETATM   24  N   UNL     1     -11.443   5.502 -32.475  1.00  0.00    -0.279 N 
HETATM   25  C   UNL     1     -10.472   5.554 -33.459  1.00  0.00     0.323 C 
HETATM   26  O   UNL     1     -10.123   4.600 -34.140  1.00  0.00    -0.261 OA
HETATM   27  H   UNL     1     -11.599   6.274 -31.819  1.00  0.00     0.184 HD
BRANCH  25  28
HETATM   28  C   UNL     1      -9.794   6.923 -33.574  1.00  0.00     0.311 C 
HETATM   29  N   UNL     1      -8.543   7.145 -33.052  1.00  0.00    -0.348 N 
HETATM   30  H   UNL     1      -8.246   8.100 -33.209  1.00  0.00     0.163 HD
HETATM   31  O   UNL     1     -10.389   7.828 -34.153  1.00  0.00    -0.262 OA
BRANCH  29  32
HETATM   32  C   UNL     1      -7.558   6.246 -32.445  1.00  0.00     0.084 C 
HETATM   33  C   UNL     1      -8.059   5.507 -31.191  1.00  0.00     0.025 C 
HETATM   34  C   UNL     1      -7.905   3.987 -31.155  1.00  0.00     0.002 C 
HETATM   35  C   UNL     1      -6.722   3.478 -31.957  1.00  0.00     0.000 C 
HETATM   36  C   UNL     1      -6.828   3.952 -33.397  1.00  0.00     0.002 C 
HETATM   37  C   UNL     1      -6.739   5.466 -33.484  1.00  0.00     0.025 C 
ENDBRANCH  29  32
ENDBRANCH  25  28
ENDBRANCH  22  24
ENDBRANCH   2  22
TORSDOF 8
ENDMDL
MODEL 10
REMARK VINA RESULT:      -7.5      2.477      3.800
REMARK  8 active torsions:
REMARK  status: ('A' for Active; 'I' for Inactive)
REMARK    1  A    between atoms: C_2  and  N_3 
REMARK    2  A    between atoms: N_3  and  N_4 
REMARK       I    between atoms: N_4  and  C_5 
REMARK    3  A    between atoms: C_5  and  C_6 
REMARK       I    between atoms: C_6  and  N_7 
REMARK    4  A    between atoms: N_7  and  C_8 
REMARK    5  A    between atoms: C_16  and  C_17 
REMARK       I    between atoms: C_17  and  N_18 
REMARK    6  A    between atoms: N_18  and  C_19 
REMARK    7  A    between atoms: C_22  and  N_23 
REMARK    8  A    between atoms: N_23  and  C_24 
ROOT
HETATM    1  C   UNL     1      -9.030   6.292 -29.411  1.00  0.00     0.063 C 
HETATM    2  C   UNL     1      -8.489   5.219 -30.336  1.00  0.00     0.007 C 
HETATM    3  C   UNL     1      -9.012   3.979 -30.229  1.00  0.00     0.094 C 
ENDROOT
BRANCH   3   4
HETATM    4  C   UNL     1      -8.567   2.752 -30.954  1.00  0.00     0.247 C 
HETATM    5  N   UNL     1      -7.199   2.573 -30.861  1.00  0.00    -0.324 N 
HETATM    6  H   UNL     1      -6.701   3.120 -30.172  1.00  0.00     0.169 HD
HETATM    7  O   UNL     1      -9.356   2.009 -31.522  1.00  0.00    -0.268 OA
BRANCH   5   8
HETATM    8  C   UNL     1      -6.437   1.598 -31.538  1.00  0.00     0.035 A 
HETATM    9  C   UNL     1      -5.835   1.817 -32.777  1.00  0.00     0.031 A 
HETATM   10  C   UNL     1      -5.090   0.807 -33.394  1.00  0.00     0.026 A 
HETATM   11  C   UNL     1      -4.971  -0.460 -32.811  1.00  0.00     0.012 A 
HETATM   12  C   UNL     1      -5.532  -0.659 -31.545  1.00  0.00     0.026 A 
HETATM   13  C   UNL     1      -6.251   0.362 -30.910  1.00  0.00     0.031 A 
BRANCH  11  14
HETATM   14  N   UNL     1      -4.223  -1.470 -33.478  1.00  0.00    -0.260 NA
HETATM   15  H   UNL     1      -3.675  -1.022 -34.212  1.00  0.00     0.134 HD
BRANCH  14  16
HETATM   16  C   UNL     1      -4.833  -2.624 -34.037  1.00  0.00     0.012 A 
HETATM   17  C   UNL     1      -4.188  -3.862 -33.996  1.00  0.00     0.024 A 
HETATM   18  C   UNL     1      -4.818  -5.004 -34.499  1.00  0.00     0.002 A 
HETATM   19  C   UNL     1      -6.104  -4.915 -35.032  1.00  0.00     0.000 A 
HETATM   20  C   UNL     1      -6.762  -3.687 -35.059  1.00  0.00     0.002 A 
HETATM   21  C   UNL     1      -6.132  -2.547 -34.559  1.00  0.00     0.024 A 
ENDBRANCH  14  16
ENDBRANCH  11  14
ENDBRANCH   5   8
ENDBRANCH   3   4
BRANCH   2  22
HETATM   22  N   UNL     1      -7.490   5.667 -31.194  1.00  0.00    -0.207 NA
HETATM   23  H   UNL     1      -7.182   4.942 -31.853  1.00  0.00     0.152 HD
BRANCH  22  24
HETATM   24  N   UNL     1      -6.374   6.363 -30.690  1.00  0.00    -0.279 N 
HETATM   25  C   UNL     1      -5.283   5.613 -30.288  1.00  0.00     0.323 C 
HETATM   26  O   UNL     1      -5.125   4.428 -30.544  1.00  0.00    -0.261 OA
HETATM   27  H   UNL     1      -6.552   7.306 -30.327  1.00  0.00     0.184 HD
BRANCH  25  28
HETATM   28  C   UNL     1      -4.301   6.389 -29.405  1.00  0.00     0.311 C 
HETATM   29  N   UNL     1      -3.009   6.618 -29.806  1.00  0.00    -0.348 N 
HETATM   30  H   UNL     1      -2.495   7.137 -29.105  1.00  0.00     0.163 HD
HETATM   31  O   UNL     1      -4.695   6.814 -28.320  1.00  0.00    -0.262 OA
BRANCH  29  32
HETATM   32  C   UNL     1      -2.311   6.362 -31.069  1.00  0.00     0.084 C 
HETATM   33  C   UNL     1      -1.834   4.909 -31.247  1.00  0.00     0.025 C 
HETATM   34  C   UNL     1      -2.226   4.188 -32.537  1.00  0.00     0.002 C 
HETATM   35  C   UNL     1      -2.402   5.118 -33.723  1.00  0.00     0.000 C 
HETATM   36  C   UNL     1      -3.432   6.185 -33.396  1.00  0.00     0.002 C 
HETATM   37  C   UNL     1      -2.955   7.080 -32.264  1.00  0.00     0.025 C 
ENDBRANCH  29  32
ENDBRANCH  25  28
ENDBRANCH  22  24
ENDBRANCH   2  22
TORSDOF 8
ENDMDL
