MODEL 1
REMARK VINA RESULT:      -8.7      0.000      0.000
REMARK  4 active torsions:
REMARK  status: ('A' for Active; 'I' for Inactive)
REMARK    1  A    between atoms: C_9  and  C_10 
REMARK    2  A    between atoms: C_22  and  C_23 
REMARK    3  A    between atoms: C_23  and  C_24 
REMARK    4  A    between atoms: C_24  and  O_25 
ROOT
HETATM    1  C   UNL     1      -3.802   5.307 -35.205  1.00  0.00     0.069 C 
HETATM    2  C   UNL     1      -4.166   4.845 -33.814  1.00  0.00     0.018 A 
HETATM    3  N   UNL     1      -4.825   3.625 -33.746  1.00  0.00    -0.343 N 
HETATM    4  C   UNL     1      -5.120   3.032 -32.568  1.00  0.00     0.146 A 
HETATM    5  N   UNL     1      -4.840   3.712 -31.405  1.00  0.00    -0.179 N 
HETATM    6  N   UNL     1      -5.195   3.008 -30.298  1.00  0.00    -0.167 NA
HETATM    7  C   UNL     1      -5.689   1.860 -30.782  1.00  0.00     0.066 A 
HETATM    8  C   UNL     1      -6.183   0.820 -29.844  1.00  0.00     0.073 C 
HETATM    9  C   UNL     1      -5.658   1.817 -32.206  1.00  0.00     0.047 A 
HETATM   10  C   UNL     1      -4.234   4.977 -31.353  1.00  0.00     0.278 A 
HETATM   11  O   UNL     1      -4.015   5.544 -30.289  1.00  0.00    -0.265 OA
HETATM   12  C   UNL     1      -3.851   5.544 -32.696  1.00  0.00     0.036 A 
HETATM   13  H   UNL     1      -5.011   3.150 -34.631  1.00  0.00     0.167 HD
ENDROOT
BRANCH   9  14
HETATM   14  C   UNL     1      -6.125   0.801 -33.141  1.00  0.00    -0.009 A 
HETATM   15  C   UNL     1      -5.469  -0.455 -33.305  1.00  0.00    -0.015 A 
HETATM   16  C   UNL     1      -5.960  -1.346 -34.294  1.00  0.00    -0.025 A 
HETATM   17  C   UNL     1      -4.354  -0.888 -32.542  1.00  0.00     0.013 A 
HETATM   18  C   UNL     1      -5.322  -2.577 -34.517  1.00  0.00     0.012 A 
HETATM   19  C   UNL     1      -7.089  -0.999 -35.052  1.00  0.00     0.012 A 
HETATM   20  C   UNL     1      -4.207  -2.955 -33.771  1.00  0.00     0.001 A 
HETATM   21  C   UNL     1      -3.727  -2.114 -32.777  1.00  0.00     0.001 A 
HETATM   22  C   UNL     1      -7.737   0.218 -34.860  1.00  0.00     0.002 A 
HETATM   23  C   UNL     1      -7.253   1.116 -33.915  1.00  0.00     0.013 A 
ENDBRANCH   9  14
BRANCH  12  24
HETATM   24  C   UNL     1      -3.163   6.888 -32.640  1.00  0.00     0.072 C 
BRANCH  24  25
HETATM   25  C   UNL     1      -1.651   6.795 -32.851  1.00  0.00     0.169 C 
BRANCH  25  26
HETATM   26  O   UNL     1      -1.250   7.576 -33.972  1.00  0.00    -0.401 OA
HETATM   27  H   UNL     1      -1.091   6.960 -34.708  1.00  0.00     0.209 HD
ENDBRANCH  25  26
ENDBRANCH  24  25
ENDBRANCH  12  24
TORSDOF 4
ENDMDL
MODEL 2
REMARK VINA RESULT:      -8.4      4.985      7.462
REMARK  4 active torsions:
REMARK  status: ('A' for Active; 'I' for Inactive)
REMARK    1  A    between atoms: C_9  and  C_10 
REMARK    2  A    between atoms: C_22  and  C_23 
REMARK    3  A    between atoms: C_23  and  C_24 
REMARK    4  A    between atoms: C_24  and  O_25 
ROOT
HETATM    1  C   UNL     1     -13.255  -0.757 -33.556  1.00  0.00     0.069 C 
HETATM    2  C   UNL     1     -12.584   0.596 -33.538  1.00  0.00     0.018 A 
HETATM    3  N   UNL     1     -11.196   0.571 -33.532  1.00  0.00    -0.343 N 
HETATM    4  C   UNL     1     -10.456   1.699 -33.623  1.00  0.00     0.146 A 
HETATM    5  N   UNL     1     -11.109   2.910 -33.625  1.00  0.00    -0.179 N 
HETATM    6  N   UNL     1     -10.248   3.959 -33.711  1.00  0.00    -0.167 NA
HETATM    7  C   UNL     1      -9.038   3.387 -33.782  1.00  0.00     0.066 A 
HETATM    8  C   UNL     1      -7.828   4.240 -33.891  1.00  0.00     0.073 C 
HETATM    9  C   UNL     1      -9.110   1.964 -33.739  1.00  0.00     0.047 A 
HETATM   10  C   UNL     1     -12.503   3.060 -33.572  1.00  0.00     0.278 A 
HETATM   11  O   UNL     1     -13.033   4.165 -33.567  1.00  0.00    -0.265 OA
HETATM   12  C   UNL     1     -13.272   1.764 -33.560  1.00  0.00     0.036 A 
HETATM   13  H   UNL     1     -10.750  -0.348 -33.535  1.00  0.00     0.167 HD
ENDROOT
BRANCH   9  14
HETATM   14  C   UNL     1      -8.059   0.954 -33.744  1.00  0.00    -0.009 A 
HETATM   15  C   UNL     1      -7.213   0.718 -32.620  1.00  0.00    -0.015 A 
HETATM   16  C   UNL     1      -6.172  -0.237 -32.752  1.00  0.00    -0.025 A 
HETATM   17  C   UNL     1      -7.337   1.368 -31.365  1.00  0.00     0.013 A 
HETATM   18  C   UNL     1      -5.290  -0.474 -31.684  1.00  0.00     0.012 A 
HETATM   19  C   UNL     1      -6.021  -0.950 -33.951  1.00  0.00     0.012 A 
HETATM   20  C   UNL     1      -5.421   0.209 -30.476  1.00  0.00     0.001 A 
HETATM   21  C   UNL     1      -6.451   1.125 -30.314  1.00  0.00     0.001 A 
HETATM   22  C   UNL     1      -6.874  -0.730 -35.029  1.00  0.00     0.002 A 
HETATM   23  C   UNL     1      -7.882   0.222 -34.928  1.00  0.00     0.013 A 
ENDBRANCH   9  14
BRANCH  12  24
HETATM   24  C   UNL     1     -14.774   1.922 -33.541  1.00  0.00     0.072 C 
BRANCH  24  25
HETATM   25  C   UNL     1     -15.342   2.083 -32.130  1.00  0.00     0.169 C 
BRANCH  25  26
HETATM   26  O   UNL     1     -14.330   2.516 -31.226  1.00  0.00    -0.401 OA
HETATM   27  H   UNL     1     -13.479   2.446 -31.694  1.00  0.00     0.209 HD
ENDBRANCH  25  26
ENDBRANCH  24  25
ENDBRANCH  12  24
TORSDOF 4
ENDMDL
MODEL 3
REMARK VINA RESULT:      -8.4      1.358      2.546
REMARK  4 active torsions:
REMARK  status: ('A' for Active; 'I' for Inactive)
REMARK    1  A    between atoms: C_9  and  C_10 
REMARK    2  A    between atoms: C_22  and  C_23 
REMARK    3  A    between atoms: C_23  and  C_24 
REMARK    4  A    between atoms: C_24  and  O_25 
ROOT
HETATM    1  C   UNL     1      -1.431   4.876 -34.935  1.00  0.00     0.069 C 
HETATM    2  C   UNL     1      -2.469   4.928 -33.839  1.00  0.00     0.018 A 
HETATM    3  N   UNL     1      -3.045   3.709 -33.509  1.00  0.00    -0.343 N 
HETATM    4  C   UNL     1      -3.911   3.579 -32.478  1.00  0.00     0.146 A 
HETATM    5  N   UNL     1      -4.298   4.713 -31.802  1.00  0.00    -0.179 N 
HETATM    6  N   UNL     1      -5.174   4.442 -30.799  1.00  0.00    -0.167 NA
HETATM    7  C   UNL     1      -5.320   3.110 -30.841  1.00  0.00     0.066 A 
HETATM    8  C   UNL     1      -6.220   2.439 -29.869  1.00  0.00     0.073 C 
HETATM    9  C   UNL     1      -4.540   2.513 -31.875  1.00  0.00     0.047 A 
HETATM   10  C   UNL     1      -3.830   6.004 -32.088  1.00  0.00     0.278 A 
HETATM   11  O   UNL     1      -4.215   6.984 -31.460  1.00  0.00    -0.265 OA
HETATM   12  C   UNL     1      -2.803   6.070 -33.190  1.00  0.00     0.036 A 
HETATM   13  H   UNL     1      -2.728   2.890 -34.031  1.00  0.00     0.167 HD
ENDROOT
BRANCH   9  14
HETATM   14  C   UNL     1      -4.427   1.126 -32.305  1.00  0.00    -0.009 A 
HETATM   15  C   UNL     1      -5.326   0.533 -33.241  1.00  0.00    -0.015 A 
HETATM   16  C   UNL     1      -5.175  -0.846 -33.537  1.00  0.00    -0.025 A 
HETATM   17  C   UNL     1      -6.369   1.226 -33.908  1.00  0.00     0.013 A 
HETATM   18  C   UNL     1      -6.062  -1.480 -34.423  1.00  0.00     0.012 A 
HETATM   19  C   UNL     1      -4.135  -1.581 -32.948  1.00  0.00     0.012 A 
HETATM   20  C   UNL     1      -7.096  -0.775 -35.035  1.00  0.00     0.001 A 
HETATM   21  C   UNL     1      -7.245   0.582 -34.783  1.00  0.00     0.001 A 
HETATM   22  C   UNL     1      -3.246  -0.982 -32.059  1.00  0.00     0.002 A 
HETATM   23  C   UNL     1      -3.396   0.362 -31.734  1.00  0.00     0.013 A 
ENDBRANCH   9  14
BRANCH  12  24
HETATM   24  C   UNL     1      -2.269   7.454 -33.473  1.00  0.00     0.072 C 
BRANCH  24  25
HETATM   25  C   UNL     1      -1.485   8.045 -32.300  1.00  0.00     0.169 C 
BRANCH  25  26
HETATM   26  O   UNL     1      -2.088   9.254 -31.849  1.00  0.00    -0.401 OA
HETATM   27  H   UNL     1      -2.983   9.030 -31.540  1.00  0.00     0.209 HD
ENDBRANCH  25  26
ENDBRANCH  24  25
ENDBRANCH  12  24
TORSDOF 4
ENDMDL
MODEL 4
REMARK VINA RESULT:      -8.3      3.646      6.086
REMARK  4 active torsions:
REMARK  status: ('A' for Active; 'I' for Inactive)
REMARK    1  A    between atoms: C_9  and  C_10 
REMARK    2  A    between atoms: C_22  and  C_23 
REMARK    3  A    between atoms: C_23  and  C_24 
REMARK    4  A    between atoms: C_24  and  O_25 
ROOT
HETATM    1  C   UNL     1     -10.638  -0.403 -32.757  1.00  0.00     0.069 C 
HETATM    2  C   UNL     1      -9.969   0.893 -33.147  1.00  0.00     0.018 A 
HETATM    3  N   UNL     1      -8.596   0.936 -32.946  1.00  0.00    -0.343 N 
HETATM    4  C   UNL     1      -7.844   1.987 -33.345  1.00  0.00     0.146 A 
HETATM    5  N   UNL     1      -8.482   3.082 -33.879  1.00  0.00    -0.179 N 
HETATM    6  N   UNL     1      -7.612   4.067 -34.228  1.00  0.00    -0.167 NA
HETATM    7  C   UNL     1      -6.407   3.565 -33.921  1.00  0.00     0.066 A 
HETATM    8  C   UNL     1      -5.189   4.375 -34.173  1.00  0.00     0.073 C 
HETATM    9  C   UNL     1      -6.494   2.254 -33.369  1.00  0.00     0.047 A 
HETATM   10  C   UNL     1      -9.869   3.176 -34.072  1.00  0.00     0.278 A 
HETATM   11  O   UNL     1     -10.388   4.181 -34.544  1.00  0.00    -0.265 OA
HETATM   12  C   UNL     1     -10.640   1.939 -33.688  1.00  0.00     0.036 A 
HETATM   13  H   UNL     1      -8.159   0.102 -32.552  1.00  0.00     0.167 HD
ENDROOT
BRANCH   9  14
HETATM   14  C   UNL     1      -5.459   1.362 -32.862  1.00  0.00    -0.009 A 
HETATM   15  C   UNL     1      -5.281   0.032 -33.346  1.00  0.00    -0.015 A 
HETATM   16  C   UNL     1      -4.292  -0.780 -32.734  1.00  0.00    -0.025 A 
HETATM   17  C   UNL     1      -6.024  -0.545 -34.408  1.00  0.00     0.013 A 
HETATM   18  C   UNL     1      -4.109  -2.108 -33.153  1.00  0.00     0.012 A 
HETATM   19  C   UNL     1      -3.490  -0.257 -31.709  1.00  0.00     0.012 A 
HETATM   20  C   UNL     1      -4.881  -2.653 -34.177  1.00  0.00     0.001 A 
HETATM   21  C   UNL     1      -5.834  -1.868 -34.811  1.00  0.00     0.001 A 
HETATM   22  C   UNL     1      -3.654   1.053 -31.267  1.00  0.00     0.002 A 
HETATM   23  C   UNL     1      -4.638   1.855 -31.835  1.00  0.00     0.013 A 
ENDBRANCH   9  14
BRANCH  12  24
HETATM   24  C   UNL     1     -12.129   2.023 -33.930  1.00  0.00     0.072 C 
BRANCH  24  25
HETATM   25  C   UNL     1     -12.546   1.460 -35.290  1.00  0.00     0.169 C 
BRANCH  25  26
HETATM   26  O   UNL     1     -12.338   2.422 -36.319  1.00  0.00    -0.401 OA
HETATM   27  H   UNL     1     -12.930   2.187 -37.055  1.00  0.00     0.209 HD
ENDBRANCH  25  26
ENDBRANCH  24  25
ENDBRANCH  12  24
TORSDOF 4
ENDMDL
MODEL 5
REMARK VINA RESULT:      -8.1      5.144      7.523
REMARK  4 active torsions:
REMARK  status: ('A' for Active; 'I' for Inactive)
REMARK    1  A    between atoms: C_9  and  C_10 
REMARK    2  A    between atoms: C_22  and  C_23 
REMARK    3  A    between atoms: C_23  and  C_24 
REMARK    4  A    between atoms: C_24  and  O_25 
ROOT
HETATM    1  C   UNL     1     -12.759  -0.786 -33.516  1.00  0.00     0.069 C 
HETATM    2  C   UNL     1     -12.213   0.619 -33.421  1.00  0.00     0.018 A 
HETATM    3  N   UNL     1     -10.896   0.716 -32.994  1.00  0.00    -0.343 N 
HETATM    4  C   UNL     1     -10.236   1.896 -32.961  1.00  0.00     0.146 A 
HETATM    5  N   UNL     1     -10.932   3.042 -33.271  1.00  0.00    -0.179 N 
HETATM    6  N   UNL     1     -10.155   4.155 -33.190  1.00  0.00    -0.167 NA
HETATM    7  C   UNL     1      -8.948   3.688 -32.839  1.00  0.00     0.066 A 
HETATM    8  C   UNL     1      -7.819   4.635 -32.656  1.00  0.00     0.073 C 
HETATM    9  C   UNL     1      -8.940   2.271 -32.690  1.00  0.00     0.047 A 
HETATM   10  C   UNL     1     -12.281   3.072 -33.655  1.00  0.00     0.278 A 
HETATM   11  O   UNL     1     -12.856   4.123 -33.912  1.00  0.00    -0.265 OA
HETATM   12  C   UNL     1     -12.934   1.717 -33.757  1.00  0.00     0.036 A 
HETATM   13  H   UNL     1     -10.413  -0.157 -32.778  1.00  0.00     0.167 HD
ENDROOT
BRANCH   9  14
HETATM   14  C   UNL     1      -7.877   1.360 -32.284  1.00  0.00    -0.009 A 
HETATM   15  C   UNL     1      -7.319   0.386 -33.164  1.00  0.00    -0.015 A 
HETATM   16  C   UNL     1      -6.339  -0.502 -32.649  1.00  0.00    -0.025 A 
HETATM   17  C   UNL     1      -7.669   0.238 -34.531  1.00  0.00     0.013 A 
HETATM   18  C   UNL     1      -5.791  -1.503 -33.469  1.00  0.00     0.012 A 
HETATM   19  C   UNL     1      -5.913  -0.382 -31.318  1.00  0.00     0.012 A 
HETATM   20  C   UNL     1      -6.184  -1.640 -34.799  1.00  0.00     0.001 A 
HETATM   21  C   UNL     1      -7.119  -0.763 -35.333  1.00  0.00     0.001 A 
HETATM   22  C   UNL     1      -6.445   0.593 -30.479  1.00  0.00     0.002 A 
HETATM   23  C   UNL     1      -7.426   1.454 -30.957  1.00  0.00     0.013 A 
ENDBRANCH   9  14
BRANCH  12  24
HETATM   24  C   UNL     1     -14.375   1.743 -34.207  1.00  0.00     0.072 C 
BRANCH  24  25
HETATM   25  C   UNL     1     -15.366   1.690 -33.044  1.00  0.00     0.169 C 
BRANCH  25  26
HETATM   26  O   UNL     1     -16.702   1.851 -33.512  1.00  0.00    -0.401 OA
HETATM   27  H   UNL     1     -16.831   2.799 -33.688  1.00  0.00     0.209 HD
ENDBRANCH  25  26
ENDBRANCH  24  25
ENDBRANCH  12  24
TORSDOF 4
ENDMDL
MODEL 6
REMARK VINA RESULT:      -7.7      2.114      3.723
REMARK  4 active torsions:
REMARK  status: ('A' for Active; 'I' for Inactive)
REMARK    1  A    between atoms: C_9  and  C_10 
REMARK    2  A    between atoms: C_22  and  C_23 
REMARK    3  A    between atoms: C_23  and  C_24 
REMARK    4  A    between atoms: C_24  and  O_25 
ROOT
HETATM    1  C   UNL     1      -3.750   5.373 -35.339  1.00  0.00     0.069 C 
HETATM    2  C   UNL     1      -3.725   4.601 -34.042  1.00  0.00     0.018 A 
HETATM    3  N   UNL     1      -4.858   3.842 -33.782  1.00  0.00    -0.343 N 
HETATM    4  C   UNL     1      -4.940   3.016 -32.714  1.00  0.00     0.146 A 
HETATM    5  N   UNL     1      -3.900   3.006 -31.814  1.00  0.00    -0.179 N 
HETATM    6  N   UNL     1      -4.114   2.141 -30.788  1.00  0.00    -0.167 NA
HETATM    7  C   UNL     1      -5.304   1.589 -31.066  1.00  0.00     0.066 A 
HETATM    8  C   UNL     1      -5.874   0.571 -30.147  1.00  0.00     0.073 C 
HETATM    9  C   UNL     1      -5.865   2.097 -32.274  1.00  0.00     0.047 A 
HETATM   10  C   UNL     1      -2.734   3.776 -31.941  1.00  0.00     0.278 A 
HETATM   11  O   UNL     1      -1.840   3.738 -31.103  1.00  0.00    -0.265 OA
HETATM   12  C   UNL     1      -2.667   4.610 -33.195  1.00  0.00     0.036 A 
HETATM   13  H   UNL     1      -5.606   3.872 -34.476  1.00  0.00     0.167 HD
ENDROOT
BRANCH   9  14
HETATM   14  C   UNL     1      -7.138   1.818 -32.925  1.00  0.00    -0.009 A 
HETATM   15  C   UNL     1      -8.355   2.461 -32.548  1.00  0.00    -0.015 A 
HETATM   16  C   UNL     1      -9.553   2.064 -33.195  1.00  0.00    -0.025 A 
HETATM   17  C   UNL     1      -8.457   3.481 -31.567  1.00  0.00     0.013 A 
HETATM   18  C   UNL     1     -10.780   2.643 -32.828  1.00  0.00     0.012 A 
HETATM   19  C   UNL     1      -9.517   1.093 -34.207  1.00  0.00     0.012 A 
HETATM   20  C   UNL     1     -10.848   3.619 -31.836  1.00  0.00     0.001 A 
HETATM   21  C   UNL     1      -9.684   4.044 -31.210  1.00  0.00     0.001 A 
HETATM   22  C   UNL     1      -8.318   0.496 -34.586  1.00  0.00     0.002 A 
HETATM   23  C   UNL     1      -7.137   0.851 -33.943  1.00  0.00     0.013 A 
ENDBRANCH   9  14
BRANCH  12  24
HETATM   24  C   UNL     1      -1.396   5.410 -33.354  1.00  0.00     0.072 C 
BRANCH  24  25
HETATM   25  C   UNL     1      -1.532   6.852 -32.863  1.00  0.00     0.169 C 
BRANCH  25  26
HETATM   26  O   UNL     1      -1.543   7.760 -33.960  1.00  0.00    -0.401 OA
HETATM   27  H   UNL     1      -1.563   8.659 -33.589  1.00  0.00     0.209 HD
ENDBRANCH  25  26
ENDBRANCH  24  25
ENDBRANCH  12  24
TORSDOF 4
ENDMDL
MODEL 7
REMARK VINA RESULT:      -7.6      1.720      1.989
REMARK  4 active torsions:
REMARK  status: ('A' for Active; 'I' for Inactive)
REMARK    1  A    between atoms: C_9  and  C_10 
REMARK    2  A    between atoms: C_22  and  C_23 
REMARK    3  A    between atoms: C_23  and  C_24 
REMARK    4  A    between atoms: C_24  and  O_25 
ROOT
HETATM    1  C   UNL     1      -2.733   4.754 -33.380  1.00  0.00     0.069 C 
HETATM    2  C   UNL     1      -4.086   4.637 -32.720  1.00  0.00     0.018 A 
HETATM    3  N   UNL     1      -4.793   3.479 -33.015  1.00  0.00    -0.343 N 
HETATM    4  C   UNL     1      -5.970   3.183 -32.419  1.00  0.00     0.146 A 
HETATM    5  N   UNL     1      -6.521   4.111 -31.565  1.00  0.00    -0.179 N 
HETATM    6  N   UNL     1      -7.704   3.693 -31.043  1.00  0.00    -0.167 NA
HETATM    7  C   UNL     1      -7.883   2.473 -31.569  1.00  0.00     0.066 A 
HETATM    8  C   UNL     1      -9.094   1.690 -31.215  1.00  0.00     0.073 C 
HETATM    9  C   UNL     1      -6.816   2.098 -32.437  1.00  0.00     0.047 A 
HETATM   10  C   UNL     1      -5.929   5.341 -31.241  1.00  0.00     0.278 A 
HETATM   11  O   UNL     1      -6.468   6.137 -30.481  1.00  0.00    -0.265 OA
HETATM   12  C   UNL     1      -4.578   5.572 -31.871  1.00  0.00     0.036 A 
HETATM   13  H   UNL     1      -4.348   2.814 -33.649  1.00  0.00     0.167 HD
ENDROOT
BRANCH   9  14
HETATM   14  C   UNL     1      -6.618   0.900 -33.243  1.00  0.00    -0.009 A 
HETATM   15  C   UNL     1      -5.651  -0.098 -32.918  1.00  0.00    -0.015 A 
HETATM   16  C   UNL     1      -5.486  -1.189 -33.809  1.00  0.00    -0.025 A 
HETATM   17  C   UNL     1      -4.838  -0.084 -31.756  1.00  0.00     0.013 A 
HETATM   18  C   UNL     1      -4.519  -2.174 -33.548  1.00  0.00     0.012 A 
HETATM   19  C   UNL     1      -6.291  -1.289 -34.954  1.00  0.00     0.012 A 
HETATM   20  C   UNL     1      -3.713  -2.110 -32.413  1.00  0.00     0.001 A 
HETATM   21  C   UNL     1      -3.878  -1.068 -31.512  1.00  0.00     0.001 A 
HETATM   22  C   UNL     1      -7.251  -0.323 -35.243  1.00  0.00     0.002 A 
HETATM   23  C   UNL     1      -7.408   0.769 -34.396  1.00  0.00     0.013 A 
ENDBRANCH   9  14
BRANCH  12  24
HETATM   24  C   UNL     1      -3.921   6.878 -31.493  1.00  0.00     0.072 C 
BRANCH  24  25
HETATM   25  C   UNL     1      -2.978   6.749 -30.295  1.00  0.00     0.169 C 
BRANCH  25  26
HETATM   26  O   UNL     1      -3.606   6.034 -29.235  1.00  0.00    -0.401 OA
HETATM   27  H   UNL     1      -4.478   6.441 -29.092  1.00  0.00     0.209 HD
ENDBRANCH  25  26
ENDBRANCH  24  25
ENDBRANCH  12  24
TORSDOF 4
ENDMDL
MODEL 8
REMARK VINA RESULT:      -7.6      3.133      8.129
REMARK  4 active torsions:
REMARK  status: ('A' for Active; 'I' for Inactive)
REMARK    1  A    between atoms: C_9  and  C_10 
REMARK    2  A    between atoms: C_22  and  C_23 
REMARK    3  A    between atoms: C_23  and  C_24 
REMARK    4  A    between atoms: C_24  and  O_25 
ROOT
HETATM    1  C   UNL     1      -5.527   2.438 -29.989  1.00  0.00     0.069 C 
HETATM    2  C   UNL     1      -5.186   3.401 -31.101  1.00  0.00     0.018 A 
HETATM    3  N   UNL     1      -4.068   4.192 -30.879  1.00  0.00    -0.343 N 
HETATM    4  C   UNL     1      -3.577   5.025 -31.825  1.00  0.00     0.146 A 
HETATM    5  N   UNL     1      -4.272   5.154 -33.006  1.00  0.00    -0.179 N 
HETATM    6  N   UNL     1      -3.676   6.026 -33.861  1.00  0.00    -0.167 NA
HETATM    7  C   UNL     1      -2.580   6.434 -33.206  1.00  0.00     0.066 A 
HETATM    8  C   UNL     1      -1.662   7.409 -33.846  1.00  0.00     0.073 C 
HETATM    9  C   UNL     1      -2.463   5.828 -31.921  1.00  0.00     0.047 A 
HETATM   10  C   UNL     1      -5.447   4.452 -33.315  1.00  0.00     0.278 A 
HETATM   11  O   UNL     1      -6.032   4.612 -34.380  1.00  0.00    -0.265 OA
HETATM   12  C   UNL     1      -5.892   3.477 -32.255  1.00  0.00     0.036 A 
HETATM   13  H   UNL     1      -3.578   4.064 -29.992  1.00  0.00     0.167 HD
ENDROOT
BRANCH   9  14
HETATM   14  C   UNL     1      -1.472   6.008 -30.868  1.00  0.00    -0.009 A 
HETATM   15  C   UNL     1      -1.438   7.162 -30.031  1.00  0.00    -0.015 A 
HETATM   16  C   UNL     1      -0.387   7.275 -29.084  1.00  0.00    -0.025 A 
HETATM   17  C   UNL     1      -2.387   8.216 -30.070  1.00  0.00     0.013 A 
HETATM   18  C   UNL     1      -0.291   8.413 -28.266  1.00  0.00     0.012 A 
HETATM   19  C   UNL     1       0.560   6.247 -28.960  1.00  0.00     0.012 A 
HETATM   20  C   UNL     1      -1.223   9.445 -28.356  1.00  0.00     0.001 A 
HETATM   21  C   UNL     1      -2.277   9.343 -29.254  1.00  0.00     0.001 A 
HETATM   22  C   UNL     1       0.496   5.111 -29.763  1.00  0.00     0.002 A 
HETATM   23  C   UNL     1      -0.510   4.996 -30.716  1.00  0.00     0.013 A 
ENDBRANCH   9  14
BRANCH  12  24
HETATM   24  C   UNL     1      -7.135   2.692 -32.602  1.00  0.00     0.072 C 
BRANCH  24  25
HETATM   25  C   UNL     1      -6.829   1.356 -33.280  1.00  0.00     0.169 C 
BRANCH  25  26
HETATM   26  O   UNL     1      -6.620   1.535 -34.677  1.00  0.00    -0.401 OA
HETATM   27  H   UNL     1      -6.908   0.716 -35.117  1.00  0.00     0.209 HD
ENDBRANCH  25  26
ENDBRANCH  24  25
ENDBRANCH  12  24
TORSDOF 4
ENDMDL
MODEL 9
REMARK VINA RESULT:      -7.5     16.531     18.038
REMARK  4 active torsions:
REMARK  status: ('A' for Active; 'I' for Inactive)
REMARK    1  A    between atoms: C_9  and  C_10 
REMARK    2  A    between atoms: C_22  and  C_23 
REMARK    3  A    between atoms: C_23  and  C_24 
REMARK    4  A    between atoms: C_24  and  O_25 
ROOT
HETATM    1  C   UNL     1      -3.088 -14.853 -42.037  1.00  0.00     0.069 C 
HETATM    2  C   UNL     1      -3.345 -14.354 -40.635  1.00  0.00     0.018 A 
HETATM    3  N   UNL     1      -4.645 -14.512 -40.177  1.00  0.00    -0.343 N 
HETATM    4  C   UNL     1      -5.003 -14.211 -38.908  1.00  0.00     0.146 A 
HETATM    5  N   UNL     1      -4.061 -13.642 -38.082  1.00  0.00    -0.179 N 
HETATM    6  N   UNL     1      -4.554 -13.383 -36.842  1.00  0.00    -0.167 NA
HETATM    7  C   UNL     1      -5.822 -13.816 -36.894  1.00  0.00     0.066 A 
HETATM    8  C   UNL     1      -6.688 -13.696 -35.694  1.00  0.00     0.073 C 
HETATM    9  C   UNL     1      -6.156 -14.355 -38.170  1.00  0.00     0.047 A 
HETATM   10  C   UNL     1      -2.735 -13.379 -38.454  1.00  0.00     0.278 A 
HETATM   11  O   UNL     1      -1.938 -12.861 -37.680  1.00  0.00    -0.265 OA
HETATM   12  C   UNL     1      -2.377 -13.817 -39.852  1.00  0.00     0.036 A 
HETATM   13  H   UNL     1      -5.314 -14.941 -40.819  1.00  0.00     0.167 HD
ENDROOT
BRANCH   9  14
HETATM   14  C   UNL     1      -7.411 -14.890 -38.681  1.00  0.00    -0.009 A 
HETATM   15  C   UNL     1      -8.429 -14.064 -39.243  1.00  0.00    -0.015 A 
HETATM   16  C   UNL     1      -9.645 -14.676 -39.644  1.00  0.00    -0.025 A 
HETATM   17  C   UNL     1      -8.316 -12.664 -39.438  1.00  0.00     0.013 A 
HETATM   18  C   UNL     1     -10.690 -13.896 -40.167  1.00  0.00     0.012 A 
HETATM   19  C   UNL     1      -9.807 -16.064 -39.521  1.00  0.00     0.012 A 
HETATM   20  C   UNL     1     -10.556 -12.516 -40.313  1.00  0.00     0.001 A 
HETATM   21  C   UNL     1      -9.364 -11.901 -39.956  1.00  0.00     0.001 A 
HETATM   22  C   UNL     1      -8.793 -16.862 -38.998  1.00  0.00     0.002 A 
HETATM   23  C   UNL     1      -7.605 -16.277 -38.574  1.00  0.00     0.013 A 
ENDBRANCH   9  14
BRANCH  12  24
HETATM   24  C   UNL     1      -0.939 -13.570 -40.242  1.00  0.00     0.072 C 
BRANCH  24  25
HETATM   25  C   UNL     1       0.006 -14.678 -39.776  1.00  0.00     0.169 C 
BRANCH  25  26
HETATM   26  O   UNL     1       0.672 -14.301 -38.575  1.00  0.00    -0.401 OA
HETATM   27  H   UNL     1      -0.016 -14.073 -37.925  1.00  0.00     0.209 HD
ENDBRANCH  25  26
ENDBRANCH  24  25
ENDBRANCH  12  24
TORSDOF 4
ENDMDL
MODEL 10
REMARK VINA RESULT:      -7.5      2.701      4.596
REMARK  4 active torsions:
REMARK  status: ('A' for Active; 'I' for Inactive)
REMARK    1  A    between atoms: C_9  and  C_10 
REMARK    2  A    between atoms: C_22  and  C_23 
REMARK    3  A    between atoms: C_23  and  C_24 
REMARK    4  A    between atoms: C_24  and  O_25 
ROOT
HETATM    1  C   UNL     1      -9.440   3.431 -30.204  1.00  0.00     0.069 C 
HETATM    2  C   UNL     1      -8.128   4.054 -30.616  1.00  0.00     0.018 A 
HETATM    3  N   UNL     1      -7.154   3.162 -31.041  1.00  0.00    -0.343 N 
HETATM    4  C   UNL     1      -5.967   3.577 -31.540  1.00  0.00     0.146 A 
HETATM    5  N   UNL     1      -5.691   4.925 -31.533  1.00  0.00    -0.179 N 
HETATM    6  N   UNL     1      -4.466   5.202 -32.052  1.00  0.00    -0.167 NA
HETATM    7  C   UNL     1      -3.979   4.004 -32.406  1.00  0.00     0.066 A 
HETATM    8  C   UNL     1      -2.632   3.912 -33.025  1.00  0.00     0.073 C 
HETATM    9  C   UNL     1      -4.887   2.945 -32.113  1.00  0.00     0.047 A 
HETATM   10  C   UNL     1      -6.573   5.913 -31.071  1.00  0.00     0.278 A 
HETATM   11  O   UNL     1      -6.272   7.101 -31.078  1.00  0.00    -0.265 OA
HETATM   12  C   UNL     1      -7.911   5.393 -30.609  1.00  0.00     0.036 A 
HETATM   13  H   UNL     1      -7.399   2.171 -31.035  1.00  0.00     0.167 HD
ENDROOT
BRANCH   9  14
HETATM   14  C   UNL     1      -4.759   1.504 -32.284  1.00  0.00    -0.009 A 
HETATM   15  C   UNL     1      -5.518   0.770 -33.244  1.00  0.00    -0.015 A 
HETATM   16  C   UNL     1      -5.372  -0.640 -33.280  1.00  0.00    -0.025 A 
HETATM   17  C   UNL     1      -6.414   1.351 -34.177  1.00  0.00     0.013 A 
HETATM   18  C   UNL     1      -6.130  -1.407 -34.181  1.00  0.00     0.012 A 
HETATM   19  C   UNL     1      -4.469  -1.276 -32.414  1.00  0.00     0.012 A 
HETATM   20  C   UNL     1      -7.026  -0.805 -35.062  1.00  0.00     0.001 A 
HETATM   21  C   UNL     1      -7.163   0.577 -35.066  1.00  0.00     0.001 A 
HETATM   22  C   UNL     1      -3.712  -0.543 -31.504  1.00  0.00     0.002 A 
HETATM   23  C   UNL     1      -3.861   0.837 -31.434  1.00  0.00     0.013 A 
ENDBRANCH   9  14
BRANCH  12  24
HETATM   24  C   UNL     1      -8.876   6.458 -30.147  1.00  0.00     0.072 C 
BRANCH  24  25
HETATM   25  C   UNL     1      -8.748   6.776 -28.656  1.00  0.00     0.169 C 
BRANCH  25  26
HETATM   26  O   UNL     1      -9.974   7.288 -28.143  1.00  0.00    -0.401 OA
HETATM   27  H   UNL     1      -9.921   8.258 -28.191  1.00  0.00     0.209 HD
ENDBRANCH  25  26
ENDBRANCH  24  25
ENDBRANCH  12  24
TORSDOF 4
ENDMDL
