MODEL 1
REMARK VINA RESULT:      -9.0      0.000      0.000
REMARK  6 active torsions:
REMARK  status: ('A' for Active; 'I' for Inactive)
REMARK    1  A    between atoms: C_2  and  C_4 
REMARK    2  A    between atoms: C_2  and  C_11 
REMARK    3  A    between atoms: C_2  and  O_3 
REMARK    4  A    between atoms: C_11  and  N_12 
REMARK       I    between atoms: N_12  and  C_13 
REMARK    5  A    between atoms: C_13  and  C_14 
REMARK    6  A    between atoms: C_18  and  C_19 
ROOT
HETATM    1  N   UNL     1      -3.520   4.605 -33.232  1.00  0.00    -0.352 N 
HETATM    2  C   UNL     1      -3.845   3.961 -32.062  1.00  0.00     0.272 C 
HETATM    3  O   UNL     1      -4.035   4.536 -30.995  1.00  0.00    -0.266 OA
HETATM    4  H   UNL     1      -3.299   3.998 -34.016  1.00  0.00     0.162 HD
ENDROOT
BRANCH   2   5
HETATM    5  C   UNL     1      -3.955   2.503 -32.216  1.00  0.00     0.146 A 
HETATM    6  N   UNL     1      -3.154   1.646 -31.552  1.00  0.00    -0.169 NA
HETATM    7  N   UNL     1      -3.540   0.437 -31.995  1.00  0.00    -0.277 N 
HETATM    8  H   UNL     1      -3.037  -0.374 -31.654  1.00  0.00     0.189 HD
HETATM    9  C   UNL     1      -4.582   0.457 -32.888  1.00  0.00     0.063 A 
HETATM   10  C   UNL     1      -4.863   1.801 -33.050  1.00  0.00     0.071 A 
BRANCH   9  11
HETATM   11  C   UNL     1      -5.172  -0.738 -33.500  1.00  0.00    -0.008 A 
HETATM   12  C   UNL     1      -4.412  -1.893 -33.743  1.00  0.00     0.017 A 
HETATM   13  C   UNL     1      -4.993  -3.021 -34.331  1.00  0.00     0.043 A 
HETATM   14  C   UNL     1      -6.338  -3.003 -34.673  1.00  0.00     0.116 A 
HETATM   15  F   UNL     1      -6.893  -4.084 -35.235  1.00  0.00    -0.206 F 
HETATM   16  C   UNL     1      -7.115  -1.877 -34.439  1.00  0.00     0.043 A 
HETATM   17  C   UNL     1      -6.532  -0.749 -33.853  1.00  0.00     0.017 A 
ENDBRANCH   9  11
ENDBRANCH   2   5
BRANCH   1  18
HETATM   18  C   UNL     1      -3.319   6.041 -33.333  1.00  0.00     0.165 C 
BRANCH  18  19
HETATM   19  C   UNL     1      -1.818   6.440 -33.400  1.00  0.00     0.097 C 
HETATM   20  C   UNL     1      -1.117   5.568 -34.448  1.00  0.00     0.053 C 
BRANCH  19  21
HETATM   21  C   UNL     1      -1.041   6.370 -32.079  1.00  0.00    -0.023 A 
HETATM   22  C   UNL     1      -0.258   5.259 -31.720  1.00  0.00     0.013 A 
HETATM   23  C   UNL     1       0.434   5.231 -30.505  1.00  0.00     0.043 A 
HETATM   24  C   UNL     1       0.364   6.320 -29.647  1.00  0.00     0.116 A 
HETATM   25  F   UNL     1       1.027   6.289 -28.484  1.00  0.00    -0.206 F 
HETATM   26  C   UNL     1      -0.379   7.442 -29.982  1.00  0.00     0.043 A 
HETATM   27  C   UNL     1      -1.072   7.469 -31.194  1.00  0.00     0.013 A 
ENDBRANCH  19  21
BRANCH  19  28
HETATM   28  O   UNL     1      -1.780   7.797 -33.885  1.00  0.00    -0.384 OA
HETATM   29  H   UNL     1      -0.902   8.145 -33.651  1.00  0.00     0.211 HD
ENDBRANCH  19  28
ENDBRANCH  18  19
ENDBRANCH   1  18
TORSDOF 6
ENDMDL
MODEL 2
REMARK VINA RESULT:      -8.7      1.519      1.993
REMARK  6 active torsions:
REMARK  status: ('A' for Active; 'I' for Inactive)
REMARK    1  A    between atoms: C_2  and  C_4 
REMARK    2  A    between atoms: C_2  and  C_11 
REMARK    3  A    between atoms: C_2  and  O_3 
REMARK    4  A    between atoms: C_11  and  N_12 
REMARK       I    between atoms: N_12  and  C_13 
REMARK    5  A    between atoms: C_13  and  C_14 
REMARK    6  A    between atoms: C_18  and  C_19 
ROOT
HETATM    1  N   UNL     1      -4.646   4.714 -33.609  1.00  0.00    -0.352 N 
HETATM    2  C   UNL     1      -5.170   3.948 -32.595  1.00  0.00     0.272 C 
HETATM    3  O   UNL     1      -5.194   4.295 -31.418  1.00  0.00    -0.266 OA
HETATM    4  H   UNL     1      -4.606   4.263 -34.519  1.00  0.00     0.162 HD
ENDROOT
BRANCH   2   5
HETATM    5  C   UNL     1      -5.715   2.665 -33.062  1.00  0.00     0.146 A 
HETATM    6  N   UNL     1      -7.012   2.514 -33.398  1.00  0.00    -0.169 NA
HETATM    7  N   UNL     1      -7.110   1.213 -33.722  1.00  0.00    -0.277 N 
HETATM    8  H   UNL     1      -8.024   0.856 -33.974  1.00  0.00     0.189 HD
HETATM    9  C   UNL     1      -5.931   0.512 -33.653  1.00  0.00     0.063 A 
HETATM   10  C   UNL     1      -5.009   1.445 -33.216  1.00  0.00     0.071 A 
BRANCH   9  11
HETATM   11  C   UNL     1      -5.795  -0.914 -33.964  1.00  0.00    -0.008 A 
HETATM   12  C   UNL     1      -6.870  -1.663 -34.473  1.00  0.00     0.017 A 
HETATM   13  C   UNL     1      -6.720  -3.023 -34.760  1.00  0.00     0.043 A 
HETATM   14  C   UNL     1      -5.496  -3.642 -34.545  1.00  0.00     0.116 A 
HETATM   15  F   UNL     1      -5.355  -4.944 -34.822  1.00  0.00    -0.206 F 
HETATM   16  C   UNL     1      -4.416  -2.925 -34.049  1.00  0.00     0.043 A 
HETATM   17  C   UNL     1      -4.567  -1.565 -33.760  1.00  0.00     0.017 A 
ENDBRANCH   9  11
ENDBRANCH   2   5
BRANCH   1  18
HETATM   18  C   UNL     1      -4.016   6.007 -33.401  1.00  0.00     0.165 C 
BRANCH  18  19
HETATM   19  C   UNL     1      -2.506   6.014 -33.772  1.00  0.00     0.097 C 
HETATM   20  C   UNL     1      -2.222   4.846 -34.724  1.00  0.00     0.053 C 
BRANCH  19  21
HETATM   21  C   UNL     1      -1.522   5.963 -32.597  1.00  0.00    -0.023 A 
HETATM   22  C   UNL     1      -0.605   6.995 -32.333  1.00  0.00     0.013 A 
HETATM   23  C   UNL     1       0.280   6.912 -31.254  1.00  0.00     0.043 A 
HETATM   24  C   UNL     1       0.244   5.804 -30.418  1.00  0.00     0.116 A 
HETATM   25  F   UNL     1       1.092   5.726 -29.385  1.00  0.00    -0.206 F 
HETATM   26  C   UNL     1      -0.666   4.780 -30.635  1.00  0.00     0.043 A 
HETATM   27  C   UNL     1      -1.547   4.862 -31.715  1.00  0.00     0.013 A 
ENDBRANCH  19  21
BRANCH  19  28
HETATM   28  O   UNL     1      -2.277   7.229 -34.514  1.00  0.00    -0.384 OA
HETATM   29  H   UNL     1      -2.869   7.898 -34.129  1.00  0.00     0.211 HD
ENDBRANCH  19  28
ENDBRANCH  18  19
ENDBRANCH   1  18
TORSDOF 6
ENDMDL
MODEL 3
REMARK VINA RESULT:      -8.5      6.183      9.257
REMARK  6 active torsions:
REMARK  status: ('A' for Active; 'I' for Inactive)
REMARK    1  A    between atoms: C_2  and  C_4 
REMARK    2  A    between atoms: C_2  and  C_11 
REMARK    3  A    between atoms: C_2  and  O_3 
REMARK    4  A    between atoms: C_11  and  N_12 
REMARK       I    between atoms: N_12  and  C_13 
REMARK    5  A    between atoms: C_13  and  C_14 
REMARK    6  A    between atoms: C_18  and  C_19 
ROOT
HETATM    1  N   UNL     1      -9.474   2.409 -34.039  1.00  0.00    -0.352 N 
HETATM    2  C   UNL     1      -8.208   2.793 -33.666  1.00  0.00     0.272 C 
HETATM    3  O   UNL     1      -7.905   3.941 -33.356  1.00  0.00    -0.266 OA
HETATM    4  H   UNL     1      -9.561   1.448 -34.360  1.00  0.00     0.162 HD
ENDROOT
BRANCH   2   5
HETATM    5  C   UNL     1      -7.244   1.682 -33.663  1.00  0.00     0.146 A 
HETATM    6  N   UNL     1      -5.961   1.844 -33.284  1.00  0.00    -0.169 NA
HETATM    7  N   UNL     1      -5.418   0.627 -33.463  1.00  0.00    -0.277 N 
HETATM    8  H   UNL     1      -4.428   0.519 -33.275  1.00  0.00     0.189 HD
HETATM    9  C   UNL     1      -6.293  -0.335 -33.904  1.00  0.00     0.063 A 
HETATM   10  C   UNL     1      -7.491   0.339 -34.047  1.00  0.00     0.071 A 
BRANCH   9  11
HETATM   11  C   UNL     1      -5.928  -1.730 -34.165  1.00  0.00    -0.008 A 
HETATM   12  C   UNL     1      -4.616  -2.197 -33.974  1.00  0.00     0.017 A 
HETATM   13  C   UNL     1      -4.288  -3.532 -34.232  1.00  0.00     0.043 A 
HETATM   14  C   UNL     1      -5.269  -4.409 -34.676  1.00  0.00     0.116 A 
HETATM   15  F   UNL     1      -4.952  -5.686 -34.921  1.00  0.00    -0.206 F 
HETATM   16  C   UNL     1      -6.573  -3.976 -34.867  1.00  0.00     0.043 A 
HETATM   17  C   UNL     1      -6.900  -2.641 -34.611  1.00  0.00     0.017 A 
ENDBRANCH   9  11
ENDBRANCH   2   5
BRANCH   1  18
HETATM   18  C   UNL     1     -10.594   3.327 -34.155  1.00  0.00     0.165 C 
BRANCH  18  19
HETATM   19  C   UNL     1     -11.819   2.703 -34.881  1.00  0.00     0.097 C 
HETATM   20  C   UNL     1     -12.175   3.571 -36.094  1.00  0.00     0.053 C 
BRANCH  19  21
HETATM   21  C   UNL     1     -13.073   2.486 -34.026  1.00  0.00    -0.023 A 
HETATM   22  C   UNL     1     -13.999   1.461 -34.285  1.00  0.00     0.013 A 
HETATM   23  C   UNL     1     -15.133   1.297 -33.484  1.00  0.00     0.043 A 
HETATM   24  C   UNL     1     -15.343   2.145 -32.406  1.00  0.00     0.116 A 
HETATM   25  F   UNL     1     -16.430   1.986 -31.641  1.00  0.00    -0.206 F 
HETATM   26  C   UNL     1     -14.436   3.150 -32.106  1.00  0.00     0.043 A 
HETATM   27  C   UNL     1     -13.305   3.316 -32.908  1.00  0.00     0.013 A 
ENDBRANCH  19  21
BRANCH  19  28
HETATM   28  O   UNL     1     -11.381   1.426 -35.389  1.00  0.00    -0.384 OA
HETATM   29  H   UNL     1     -10.415   1.406 -35.277  1.00  0.00     0.211 HD
ENDBRANCH  19  28
ENDBRANCH  18  19
ENDBRANCH   1  18
TORSDOF 6
ENDMDL
MODEL 4
REMARK VINA RESULT:      -8.5      1.994      9.393
REMARK  6 active torsions:
REMARK  status: ('A' for Active; 'I' for Inactive)
REMARK    1  A    between atoms: C_2  and  C_4 
REMARK    2  A    between atoms: C_2  and  C_11 
REMARK    3  A    between atoms: C_2  and  O_3 
REMARK    4  A    between atoms: C_11  and  N_12 
REMARK       I    between atoms: N_12  and  C_13 
REMARK    5  A    between atoms: C_13  and  C_14 
REMARK    6  A    between atoms: C_18  and  C_19 
ROOT
HETATM    1  N   UNL     1      -5.084   2.461 -32.746  1.00  0.00    -0.352 N 
HETATM    2  C   UNL     1      -5.283   3.633 -33.436  1.00  0.00     0.272 C 
HETATM    3  O   UNL     1      -6.120   3.770 -34.323  1.00  0.00    -0.266 OA
HETATM    4  H   UNL     1      -4.295   2.462 -32.105  1.00  0.00     0.162 HD
ENDROOT
BRANCH   2   5
HETATM    5  C   UNL     1      -4.398   4.721 -32.996  1.00  0.00     0.146 A 
HETATM    6  N   UNL     1      -4.414   5.939 -33.572  1.00  0.00    -0.169 NA
HETATM    7  N   UNL     1      -3.448   6.613 -32.924  1.00  0.00    -0.277 N 
HETATM    8  H   UNL     1      -3.251   7.561 -33.223  1.00  0.00     0.189 HD
HETATM    9  C   UNL     1      -2.825   5.908 -31.924  1.00  0.00     0.063 A 
HETATM   10  C   UNL     1      -3.430   4.665 -31.962  1.00  0.00     0.071 A 
BRANCH   9  11
HETATM   11  C   UNL     1      -1.748   6.438 -31.083  1.00  0.00    -0.008 A 
HETATM   12  C   UNL     1      -2.016   7.115 -29.882  1.00  0.00     0.017 A 
HETATM   13  C   UNL     1      -0.974   7.616 -29.095  1.00  0.00     0.043 A 
HETATM   14  C   UNL     1       0.342   7.438 -29.502  1.00  0.00     0.116 A 
HETATM   15  F   UNL     1       1.338   7.917 -28.747  1.00  0.00    -0.206 F 
HETATM   16  C   UNL     1       0.636   6.767 -30.681  1.00  0.00     0.043 A 
HETATM   17  C   UNL     1      -0.407   6.269 -31.468  1.00  0.00     0.017 A 
ENDBRANCH   9  11
ENDBRANCH   2   5
BRANCH   1  18
HETATM   18  C   UNL     1      -5.810   1.231 -33.018  1.00  0.00     0.165 C 
BRANCH  18  19
HETATM   19  C   UNL     1      -5.033  -0.042 -32.575  1.00  0.00     0.097 C 
HETATM   20  C   UNL     1      -3.531   0.268 -32.570  1.00  0.00     0.053 C 
BRANCH  19  21
HETATM   21  C   UNL     1      -5.288  -1.309 -33.401  1.00  0.00    -0.023 A 
HETATM   22  C   UNL     1      -4.278  -2.245 -33.682  1.00  0.00     0.013 A 
HETATM   23  C   UNL     1      -4.548  -3.388 -34.441  1.00  0.00     0.043 A 
HETATM   24  C   UNL     1      -5.834  -3.614 -34.911  1.00  0.00     0.116 A 
HETATM   25  F   UNL     1      -6.090  -4.709 -35.638  1.00  0.00    -0.206 F 
HETATM   26  C   UNL     1      -6.860  -2.724 -34.631  1.00  0.00     0.043 A 
HETATM   27  C   UNL     1      -6.589  -1.581 -33.875  1.00  0.00     0.013 A 
ENDBRANCH  19  21
BRANCH  19  28
HETATM   28  O   UNL     1      -5.417  -0.296 -31.209  1.00  0.00    -0.384 OA
HETATM   29  H   UNL     1      -6.388  -0.358 -31.207  1.00  0.00     0.211 HD
ENDBRANCH  19  28
ENDBRANCH  18  19
ENDBRANCH   1  18
TORSDOF 6
ENDMDL
MODEL 5
REMARK VINA RESULT:      -8.4      2.681      3.671
REMARK  6 active torsions:
REMARK  status: ('A' for Active; 'I' for Inactive)
REMARK    1  A    between atoms: C_2  and  C_4 
REMARK    2  A    between atoms: C_2  and  C_11 
REMARK    3  A    between atoms: C_2  and  O_3 
REMARK    4  A    between atoms: C_11  and  N_12 
REMARK       I    between atoms: N_12  and  C_13 
REMARK    5  A    between atoms: C_13  and  C_14 
REMARK    6  A    between atoms: C_18  and  C_19 
ROOT
HETATM    1  N   UNL     1      -5.334   3.282 -31.588  1.00  0.00    -0.352 N 
HETATM    2  C   UNL     1      -6.544   2.903 -32.119  1.00  0.00     0.272 C 
HETATM    3  O   UNL     1      -7.605   3.471 -31.878  1.00  0.00    -0.266 OA
HETATM    4  H   UNL     1      -4.554   2.666 -31.799  1.00  0.00     0.162 HD
ENDROOT
BRANCH   2   5
HETATM    5  C   UNL     1      -6.442   1.748 -33.023  1.00  0.00     0.146 A 
HETATM    6  N   UNL     1      -6.824   1.808 -34.314  1.00  0.00    -0.169 NA
HETATM    7  N   UNL     1      -6.614   0.561 -34.770  1.00  0.00    -0.277 N 
HETATM    8  H   UNL     1      -6.873   0.358 -35.728  1.00  0.00     0.189 HD
HETATM    9  C   UNL     1      -6.076  -0.305 -33.850  1.00  0.00     0.063 A 
HETATM   10  C   UNL     1      -5.963   0.453 -32.699  1.00  0.00     0.071 A 
BRANCH   9  11
HETATM   11  C   UNL     1      -5.759  -1.710 -34.121  1.00  0.00    -0.008 A 
HETATM   12  C   UNL     1      -4.489  -2.245 -33.849  1.00  0.00     0.017 A 
HETATM   13  C   UNL     1      -4.206  -3.588 -34.118  1.00  0.00     0.043 A 
HETATM   14  C   UNL     1      -5.192  -4.405 -34.655  1.00  0.00     0.116 A 
HETATM   15  F   UNL     1      -4.919  -5.690 -34.911  1.00  0.00    -0.206 F 
HETATM   16  C   UNL     1      -6.457  -3.904 -34.928  1.00  0.00     0.043 A 
HETATM   17  C   UNL     1      -6.739  -2.561 -34.661  1.00  0.00     0.017 A 
ENDBRANCH   9  11
ENDBRANCH   2   5
BRANCH   1  18
HETATM   18  C   UNL     1      -5.175   4.373 -30.641  1.00  0.00     0.165 C 
BRANCH  18  19
HETATM   19  C   UNL     1      -4.652   5.679 -31.302  1.00  0.00     0.097 C 
HETATM   20  C   UNL     1      -5.850   6.515 -31.770  1.00  0.00     0.053 C 
BRANCH  19  21
HETATM   21  C   UNL     1      -3.672   5.500 -32.467  1.00  0.00    -0.023 A 
HETATM   22  C   UNL     1      -4.062   5.631 -33.812  1.00  0.00     0.013 A 
HETATM   23  C   UNL     1      -3.139   5.458 -34.848  1.00  0.00     0.043 A 
HETATM   24  C   UNL     1      -1.815   5.170 -34.549  1.00  0.00     0.116 A 
HETATM   25  F   UNL     1      -0.934   5.004 -35.544  1.00  0.00    -0.206 F 
HETATM   26  C   UNL     1      -1.391   5.059 -33.234  1.00  0.00     0.043 A 
HETATM   27  C   UNL     1      -2.313   5.230 -32.199  1.00  0.00     0.013 A 
ENDBRANCH  19  21
BRANCH  19  28
HETATM   28  O   UNL     1      -3.997   6.428 -30.259  1.00  0.00    -0.384 OA
HETATM   29  H   UNL     1      -3.175   5.947 -30.055  1.00  0.00     0.211 HD
ENDBRANCH  19  28
ENDBRANCH  18  19
ENDBRANCH   1  18
TORSDOF 6
ENDMDL
MODEL 6
REMARK VINA RESULT:      -8.3      2.073      9.068
REMARK  6 active torsions:
REMARK  status: ('A' for Active; 'I' for Inactive)
REMARK    1  A    between atoms: C_2  and  C_4 
REMARK    2  A    between atoms: C_2  and  C_11 
REMARK    3  A    between atoms: C_2  and  O_3 
REMARK    4  A    between atoms: C_11  and  N_12 
REMARK       I    between atoms: N_12  and  C_13 
REMARK    5  A    between atoms: C_13  and  C_14 
REMARK    6  A    between atoms: C_18  and  C_19 
ROOT
HETATM    1  N   UNL     1      -4.789   4.509 -33.652  1.00  0.00    -0.352 N 
HETATM    2  C   UNL     1      -3.907   5.254 -34.397  1.00  0.00     0.272 C 
HETATM    3  O   UNL     1      -4.010   5.426 -35.608  1.00  0.00    -0.266 OA
HETATM    4  H   UNL     1      -4.530   4.373 -32.678  1.00  0.00     0.162 HD
ENDROOT
BRANCH   2   5
HETATM    5  C   UNL     1      -2.823   5.841 -33.595  1.00  0.00     0.146 A 
HETATM    6  N   UNL     1      -1.933   6.709 -34.114  1.00  0.00    -0.169 NA
HETATM    7  N   UNL     1      -1.102   6.968 -33.090  1.00  0.00    -0.277 N 
HETATM    8  H   UNL     1      -0.313   7.580 -33.263  1.00  0.00     0.189 HD
HETATM    9  C   UNL     1      -1.427   6.341 -31.912  1.00  0.00     0.063 A 
HETATM   10  C   UNL     1      -2.547   5.593 -32.226  1.00  0.00     0.071 A 
BRANCH   9  11
HETATM   11  C   UNL     1      -0.670   6.476 -30.665  1.00  0.00    -0.008 A 
HETATM   12  C   UNL     1       0.014   5.388 -30.096  1.00  0.00     0.017 A 
HETATM   13  C   UNL     1       0.729   5.537 -28.903  1.00  0.00     0.043 A 
HETATM   14  C   UNL     1       0.768   6.775 -28.275  1.00  0.00     0.116 A 
HETATM   15  F   UNL     1       1.454   6.916 -27.134  1.00  0.00    -0.206 F 
HETATM   16  C   UNL     1       0.107   7.868 -28.818  1.00  0.00     0.043 A 
HETATM   17  C   UNL     1      -0.609   7.717 -30.009  1.00  0.00     0.017 A 
ENDBRANCH   9  11
ENDBRANCH   2   5
BRANCH   1  18
HETATM   18  C   UNL     1      -5.924   3.799 -34.217  1.00  0.00     0.165 C 
BRANCH  18  19
HETATM   19  C   UNL     1      -6.518   2.736 -33.249  1.00  0.00     0.097 C 
HETATM   20  C   UNL     1      -5.753   2.790 -31.921  1.00  0.00     0.053 C 
BRANCH  19  21
HETATM   21  C   UNL     1      -6.541   1.292 -33.765  1.00  0.00    -0.023 A 
HETATM   22  C   UNL     1      -7.407   0.867 -34.787  1.00  0.00     0.013 A 
HETATM   23  C   UNL     1      -7.401  -0.459 -35.228  1.00  0.00     0.043 A 
HETATM   24  C   UNL     1      -6.516  -1.369 -34.665  1.00  0.00     0.116 A 
HETATM   25  F   UNL     1      -6.513  -2.639 -35.090  1.00  0.00    -0.206 F 
HETATM   26  C   UNL     1      -5.630  -0.977 -33.673  1.00  0.00     0.043 A 
HETATM   27  C   UNL     1      -5.639   0.348 -33.230  1.00  0.00     0.013 A 
ENDBRANCH  19  21
BRANCH  19  28
HETATM   28  O   UNL     1      -7.871   3.149 -32.974  1.00  0.00    -0.384 OA
HETATM   29  H   UNL     1      -8.108   3.786 -33.671  1.00  0.00     0.211 HD
ENDBRANCH  19  28
ENDBRANCH  18  19
ENDBRANCH   1  18
TORSDOF 6
ENDMDL
MODEL 7
REMARK VINA RESULT:      -8.2      2.570      9.309
REMARK  6 active torsions:
REMARK  status: ('A' for Active; 'I' for Inactive)
REMARK    1  A    between atoms: C_2  and  C_4 
REMARK    2  A    between atoms: C_2  and  C_11 
REMARK    3  A    between atoms: C_2  and  O_3 
REMARK    4  A    between atoms: C_11  and  N_12 
REMARK       I    between atoms: N_12  and  C_13 
REMARK    5  A    between atoms: C_13  and  C_14 
REMARK    6  A    between atoms: C_18  and  C_19 
ROOT
HETATM    1  N   UNL     1      -5.789   1.113 -31.794  1.00  0.00    -0.352 N 
HETATM    2  C   UNL     1      -6.465   2.223 -31.348  1.00  0.00     0.272 C 
HETATM    3  O   UNL     1      -7.647   2.215 -31.015  1.00  0.00    -0.266 OA
HETATM    4  H   UNL     1      -4.842   1.283 -32.124  1.00  0.00     0.162 HD
ENDROOT
BRANCH   2   5
HETATM    5  C   UNL     1      -5.627   3.429 -31.295  1.00  0.00     0.146 A 
HETATM    6  N   UNL     1      -6.152   4.670 -31.260  1.00  0.00    -0.169 NA
HETATM    7  N   UNL     1      -5.075   5.474 -31.261  1.00  0.00    -0.277 N 
HETATM    8  H   UNL     1      -5.233   6.476 -31.278  1.00  0.00     0.189 HD
HETATM    9  C   UNL     1      -3.868   4.821 -31.256  1.00  0.00     0.063 A 
HETATM   10  C   UNL     1      -4.209   3.481 -31.285  1.00  0.00     0.071 A 
BRANCH   9  11
HETATM   11  C   UNL     1      -2.563   5.489 -31.253  1.00  0.00    -0.008 A 
HETATM   12  C   UNL     1      -2.430   6.843 -30.904  1.00  0.00     0.017 A 
HETATM   13  C   UNL     1      -1.176   7.463 -30.910  1.00  0.00     0.043 A 
HETATM   14  C   UNL     1      -0.049   6.732 -31.259  1.00  0.00     0.116 A 
HETATM   15  F   UNL     1       1.150   7.328 -31.264  1.00  0.00    -0.206 F 
HETATM   16  C   UNL     1      -0.151   5.391 -31.602  1.00  0.00     0.043 A 
HETATM   17  C   UNL     1      -1.404   4.773 -31.598  1.00  0.00     0.017 A 
ENDBRANCH   9  11
ENDBRANCH   2   5
BRANCH   1  18
HETATM   18  C   UNL     1      -6.404  -0.192 -31.969  1.00  0.00     0.165 C 
BRANCH  18  19
HETATM   19  C   UNL     1      -6.672  -0.542 -33.460  1.00  0.00     0.097 C 
HETATM   20  C   UNL     1      -8.171  -0.385 -33.747  1.00  0.00     0.053 C 
BRANCH  19  21
HETATM   21  C   UNL     1      -6.209  -1.929 -33.921  1.00  0.00    -0.023 A 
HETATM   22  C   UNL     1      -7.084  -2.865 -34.502  1.00  0.00     0.013 A 
HETATM   23  C   UNL     1      -6.625  -4.121 -34.908  1.00  0.00     0.043 A 
HETATM   24  C   UNL     1      -5.285  -4.448 -34.754  1.00  0.00     0.116 A 
HETATM   25  F   UNL     1      -4.849  -5.653 -35.143  1.00  0.00    -0.206 F 
HETATM   26  C   UNL     1      -4.390  -3.539 -34.208  1.00  0.00     0.043 A 
HETATM   27  C   UNL     1      -4.849  -2.285 -33.800  1.00  0.00     0.013 A 
ENDBRANCH  19  21
BRANCH  19  28
HETATM   28  O   UNL     1      -5.986   0.457 -34.241  1.00  0.00    -0.384 OA
HETATM   29  H   UNL     1      -5.685   0.009 -35.051  1.00  0.00     0.211 HD
ENDBRANCH  19  28
ENDBRANCH  18  19
ENDBRANCH   1  18
TORSDOF 6
ENDMDL
MODEL 8
REMARK VINA RESULT:      -8.2      1.624      2.226
REMARK  6 active torsions:
REMARK  status: ('A' for Active; 'I' for Inactive)
REMARK    1  A    between atoms: C_2  and  C_4 
REMARK    2  A    between atoms: C_2  and  C_11 
REMARK    3  A    between atoms: C_2  and  O_3 
REMARK    4  A    between atoms: C_11  and  N_12 
REMARK       I    between atoms: N_12  and  C_13 
REMARK    5  A    between atoms: C_13  and  C_14 
REMARK    6  A    between atoms: C_18  and  C_19 
ROOT
HETATM    1  N   UNL     1      -2.880   4.691 -31.122  1.00  0.00    -0.352 N 
HETATM    2  C   UNL     1      -4.116   4.100 -31.234  1.00  0.00     0.272 C 
HETATM    3  O   UNL     1      -5.175   4.687 -31.032  1.00  0.00    -0.266 OA
HETATM    4  H   UNL     1      -2.087   4.064 -31.225  1.00  0.00     0.162 HD
ENDROOT
BRANCH   2   5
HETATM    5  C   UNL     1      -4.048   2.687 -31.635  1.00  0.00     0.146 A 
HETATM    6  N   UNL     1      -3.041   1.878 -31.250  1.00  0.00    -0.169 NA
HETATM    7  N   UNL     1      -3.322   0.709 -31.850  1.00  0.00    -0.277 N 
HETATM    8  H   UNL     1      -2.665  -0.054 -31.732  1.00  0.00     0.189 HD
HETATM    9  C   UNL     1      -4.486   0.700 -32.579  1.00  0.00     0.063 A 
HETATM   10  C   UNL     1      -4.971   1.989 -32.455  1.00  0.00     0.071 A 
BRANCH   9  11
HETATM   11  C   UNL     1      -4.995  -0.461 -33.314  1.00  0.00    -0.008 A 
HETATM   12  C   UNL     1      -4.202  -1.599 -33.536  1.00  0.00     0.017 A 
HETATM   13  C   UNL     1      -4.706  -2.696 -34.242  1.00  0.00     0.043 A 
HETATM   14  C   UNL     1      -6.007  -2.663 -34.727  1.00  0.00     0.116 A 
HETATM   15  F   UNL     1      -6.487  -3.715 -35.402  1.00  0.00    -0.206 F 
HETATM   16  C   UNL     1      -6.814  -1.555 -34.517  1.00  0.00     0.043 A 
HETATM   17  C   UNL     1      -6.309  -0.458 -33.812  1.00  0.00     0.017 A 
ENDBRANCH   9  11
ENDBRANCH   2   5
BRANCH   1  18
HETATM   18  C   UNL     1      -2.679   6.069 -30.705  1.00  0.00     0.165 C 
BRANCH  18  19
HETATM   19  C   UNL     1      -1.178   6.468 -30.634  1.00  0.00     0.097 C 
HETATM   20  C   UNL     1      -0.320   5.240 -30.962  1.00  0.00     0.053 C 
BRANCH  19  21
HETATM   21  C   UNL     1      -0.704   7.080 -29.310  1.00  0.00    -0.023 A 
HETATM   22  C   UNL     1      -1.545   7.202 -28.189  1.00  0.00     0.013 A 
HETATM   23  C   UNL     1      -1.077   7.768 -26.999  1.00  0.00     0.043 A 
HETATM   24  C   UNL     1       0.238   8.201 -26.913  1.00  0.00     0.116 A 
HETATM   25  F   UNL     1       0.682   8.744 -25.772  1.00  0.00    -0.206 F 
HETATM   26  C   UNL     1       1.101   8.073 -27.991  1.00  0.00     0.043 A 
HETATM   27  C   UNL     1       0.633   7.509 -29.180  1.00  0.00     0.013 A 
ENDBRANCH  19  21
BRANCH  19  28
HETATM   28  O   UNL     1      -0.963   7.427 -31.688  1.00  0.00    -0.384 OA
HETATM   29  H   UNL     1      -1.314   8.274 -31.361  1.00  0.00     0.211 HD
ENDBRANCH  19  28
ENDBRANCH  18  19
ENDBRANCH   1  18
TORSDOF 6
ENDMDL
MODEL 9
REMARK VINA RESULT:      -8.2      2.272      2.597
REMARK  6 active torsions:
REMARK  status: ('A' for Active; 'I' for Inactive)
REMARK    1  A    between atoms: C_2  and  C_4 
REMARK    2  A    between atoms: C_2  and  C_11 
REMARK    3  A    between atoms: C_2  and  O_3 
REMARK    4  A    between atoms: C_11  and  N_12 
REMARK       I    between atoms: N_12  and  C_13 
REMARK    5  A    between atoms: C_13  and  C_14 
REMARK    6  A    between atoms: C_18  and  C_19 
ROOT
HETATM    1  N   UNL     1      -5.306   4.017 -33.814  1.00  0.00    -0.352 N 
HETATM    2  C   UNL     1      -6.022   3.134 -33.042  1.00  0.00     0.272 C 
HETATM    3  O   UNL     1      -6.483   3.409 -31.939  1.00  0.00    -0.266 OA
HETATM    4  H   UNL     1      -4.904   3.628 -34.662  1.00  0.00     0.162 HD
ENDROOT
BRANCH   2   5
HETATM    5  C   UNL     1      -6.195   1.819 -33.677  1.00  0.00     0.146 A 
HETATM    6  N   UNL     1      -7.059   1.619 -34.692  1.00  0.00    -0.169 NA
HETATM    7  N   UNL     1      -6.950   0.305 -34.952  1.00  0.00    -0.277 N 
HETATM    8  H   UNL     1      -7.549  -0.088 -35.669  1.00  0.00     0.189 HD
HETATM    9  C   UNL     1      -6.026  -0.359 -34.182  1.00  0.00     0.063 A 
HETATM   10  C   UNL     1      -5.528   0.615 -33.338  1.00  0.00     0.071 A 
BRANCH   9  11
HETATM   11  C   UNL     1      -5.734  -1.792 -34.290  1.00  0.00    -0.008 A 
HETATM   12  C   UNL     1      -4.462  -2.309 -33.991  1.00  0.00     0.017 A 
HETATM   13  C   UNL     1      -4.203  -3.678 -34.103  1.00  0.00     0.043 A 
HETATM   14  C   UNL     1      -5.214  -4.539 -34.510  1.00  0.00     0.116 A 
HETATM   15  F   UNL     1      -4.963  -5.850 -34.616  1.00  0.00    -0.206 F 
HETATM   16  C   UNL     1      -6.480  -4.057 -34.806  1.00  0.00     0.043 A 
HETATM   17  C   UNL     1      -6.739  -2.687 -34.696  1.00  0.00     0.017 A 
ENDBRANCH   9  11
ENDBRANCH   2   5
BRANCH   1  18
HETATM   18  C   UNL     1      -4.970   5.368 -33.394  1.00  0.00     0.165 C 
BRANCH  18  19
HETATM   19  C   UNL     1      -3.442   5.655 -33.439  1.00  0.00     0.097 C 
HETATM   20  C   UNL     1      -2.685   4.321 -33.441  1.00  0.00     0.053 C 
BRANCH  19  21
HETATM   21  C   UNL     1      -2.891   6.550 -32.323  1.00  0.00    -0.023 A 
HETATM   22  C   UNL     1      -2.981   6.206 -30.962  1.00  0.00     0.013 A 
HETATM   23  C   UNL     1      -2.468   7.050 -29.973  1.00  0.00     0.043 A 
HETATM   24  C   UNL     1      -1.846   8.237 -30.334  1.00  0.00     0.116 A 
HETATM   25  F   UNL     1      -1.357   9.043 -29.383  1.00  0.00    -0.206 F 
HETATM   26  C   UNL     1      -1.718   8.595 -31.668  1.00  0.00     0.043 A 
HETATM   27  C   UNL     1      -2.232   7.753 -32.656  1.00  0.00     0.013 A 
ENDBRANCH  19  21
BRANCH  19  28
HETATM   28  O   UNL     1      -3.186   6.289 -34.708  1.00  0.00    -0.384 OA
HETATM   29  H   UNL     1      -4.056   6.528 -35.073  1.00  0.00     0.211 HD
ENDBRANCH  19  28
ENDBRANCH  18  19
ENDBRANCH   1  18
TORSDOF 6
ENDMDL
MODEL 10
REMARK VINA RESULT:      -8.0      2.159      9.065
REMARK  6 active torsions:
REMARK  status: ('A' for Active; 'I' for Inactive)
REMARK    1  A    between atoms: C_2  and  C_4 
REMARK    2  A    between atoms: C_2  and  C_11 
REMARK    3  A    between atoms: C_2  and  O_3 
REMARK    4  A    between atoms: C_11  and  N_12 
REMARK       I    between atoms: N_12  and  C_13 
REMARK    5  A    between atoms: C_13  and  C_14 
REMARK    6  A    between atoms: C_18  and  C_19 
ROOT
HETATM    1  N   UNL     1      -5.757   2.290 -33.113  1.00  0.00    -0.352 N 
HETATM    2  C   UNL     1      -5.692   3.503 -32.469  1.00  0.00     0.272 C 
HETATM    3  O   UNL     1      -6.677   4.136 -32.102  1.00  0.00    -0.266 OA
HETATM    4  H   UNL     1      -4.868   1.924 -33.442  1.00  0.00     0.162 HD
ENDROOT
BRANCH   2   5
HETATM    5  C   UNL     1      -4.314   3.967 -32.249  1.00  0.00     0.146 A 
HETATM    6  N   UNL     1      -3.279   3.526 -32.991  1.00  0.00    -0.169 NA
HETATM    7  N   UNL     1      -2.213   4.145 -32.455  1.00  0.00    -0.277 N 
HETATM    8  H   UNL     1      -1.299   3.930 -32.837  1.00  0.00     0.189 HD
HETATM    9  C   UNL     1      -2.504   5.001 -31.422  1.00  0.00     0.063 A 
HETATM   10  C   UNL     1      -3.873   4.892 -31.269  1.00  0.00     0.071 A 
BRANCH   9  11
HETATM   11  C   UNL     1      -1.505   5.786 -30.689  1.00  0.00    -0.008 A 
HETATM   12  C   UNL     1      -0.268   5.237 -30.312  1.00  0.00     0.017 A 
HETATM   13  C   UNL     1       0.670   6.001 -29.611  1.00  0.00     0.043 A 
HETATM   14  C   UNL     1       0.379   7.320 -29.288  1.00  0.00     0.116 A 
HETATM   15  F   UNL     1       1.279   8.050 -28.617  1.00  0.00    -0.206 F 
HETATM   16  C   UNL     1      -0.832   7.889 -29.653  1.00  0.00     0.043 A 
HETATM   17  C   UNL     1      -1.770   7.124 -30.352  1.00  0.00     0.017 A 
ENDBRANCH   9  11
ENDBRANCH   2   5
BRANCH   1  18
HETATM   18  C   UNL     1      -7.003   1.636 -33.476  1.00  0.00     0.165 C 
BRANCH  18  19
HETATM   19  C   UNL     1      -7.177   0.246 -32.802  1.00  0.00     0.097 C 
HETATM   20  C   UNL     1      -6.992   0.400 -31.288  1.00  0.00     0.053 C 
BRANCH  19  21
HETATM   21  C   UNL     1      -6.262  -0.873 -33.315  1.00  0.00    -0.023 A 
HETATM   22  C   UNL     1      -6.598  -1.681 -34.415  1.00  0.00     0.013 A 
HETATM   23  C   UNL     1      -5.739  -2.693 -34.852  1.00  0.00     0.043 A 
HETATM   24  C   UNL     1      -4.527  -2.896 -34.204  1.00  0.00     0.116 A 
HETATM   25  F   UNL     1      -3.707  -3.867 -34.625  1.00  0.00    -0.206 F 
HETATM   26  C   UNL     1      -4.153  -2.100 -33.132  1.00  0.00     0.043 A 
HETATM   27  C   UNL     1      -5.014  -1.090 -32.694  1.00  0.00     0.013 A 
ENDBRANCH  19  21
BRANCH  19  28
HETATM   28  O   UNL     1      -8.548  -0.143 -33.023  1.00  0.00    -0.384 OA
HETATM   29  H   UNL     1      -8.884   0.435 -33.730  1.00  0.00     0.211 HD
ENDBRANCH  19  28
ENDBRANCH  18  19
ENDBRANCH   1  18
TORSDOF 6
ENDMDL
