MODEL 1
REMARK VINA RESULT:      -8.5      0.000      0.000
REMARK  9 active torsions:
REMARK  status: ('A' for Active; 'I' for Inactive)
REMARK    1  A    between atoms: C_3  and  C_4 
REMARK       I    between atoms: C_4  and  N_5 
REMARK    2  A    between atoms: N_5  and  N_6 
REMARK    3  A    between atoms: N_6  and  C_7 
REMARK    4  A    between atoms: C_7  and  N_8 
REMARK    5  A    between atoms: N_8  and  C_9 
REMARK    6  A    between atoms: C_9  and  C_10 
REMARK    7  A    between atoms: C_18  and  C_19 
REMARK    8  A    between atoms: C_19  and  O_20 
REMARK    9  A    between atoms: O_20  and  C_21 
ROOT
HETATM    1  C   UNL     1       0.009   6.683 -28.461  1.00  0.00     0.069 A 
HETATM    2  C   UNL     1      -0.085   6.362 -27.107  1.00  0.00     0.038 A 
HETATM    3  C   UNL     1       0.628   7.106 -26.158  1.00  0.00     0.025 A 
HETATM    4  C   UNL     1       1.441   8.172 -26.560  1.00  0.00     0.044 A 
HETATM    5  C   UNL     1       2.170   8.930 -25.585  1.00  0.00     0.099 C 
HETATM    6  N   UNL     1       2.761   9.540 -24.794  1.00  0.00    -0.191 NA
HETATM    7  C   UNL     1       1.537   8.493 -27.916  1.00  0.00     0.025 A 
HETATM    8  C   UNL     1       0.821   7.751 -28.858  1.00  0.00     0.038 A 
ENDROOT
BRANCH   1   9
HETATM    9  O   UNL     1      -0.634   6.050 -29.486  1.00  0.00    -0.347 OA
BRANCH   9  10
HETATM   10  C   UNL     1      -0.948   6.820 -30.643  1.00  0.00     0.214 C 
BRANCH  10  11
HETATM   11  C   UNL     1      -1.447   5.862 -31.698  1.00  0.00    -0.033 A 
HETATM   12  C   UNL     1      -2.128   4.691 -31.320  1.00  0.00     0.026 A 
HETATM   13  C   UNL     1      -2.645   3.820 -32.288  1.00  0.00     0.034 A 
HETATM   14  C   UNL     1      -2.453   4.117 -33.644  1.00  0.00     0.017 A 
HETATM   15  C   UNL     1      -1.780   5.277 -34.027  1.00  0.00     0.002 A 
HETATM   16  C   UNL     1      -1.288   6.151 -33.059  1.00  0.00     0.009 A 
BRANCH  13  17
HETATM   17  C   UNL     1      -3.404   2.581 -31.945  1.00  0.00     0.270 C 
HETATM   18  N   UNL     1      -4.680   2.460 -32.461  1.00  0.00    -0.264 N 
HETATM   19  H   UNL     1      -5.104   3.103 -33.120  1.00  0.00     0.190 HD
HETATM   20  O   UNL     1      -2.895   1.700 -31.254  1.00  0.00    -0.266 OA
BRANCH  18  21
HETATM   21  N   UNL     1      -5.368   1.260 -32.240  1.00  0.00    -0.274 N 
HETATM   22  H   UNL     1      -5.796   1.194 -31.319  1.00  0.00     0.189 HD
BRANCH  21  23
HETATM   23  C   UNL     1      -5.890   0.544 -33.288  1.00  0.00     0.186 C 
HETATM   24  S   UNL     1      -6.758   1.197 -34.561  1.00  0.00    -0.040 SA
BRANCH  23  25
HETATM   25  N   UNL     1      -5.611  -0.791 -33.304  1.00  0.00    -0.364 N 
HETATM   26  H   UNL     1      -6.431  -1.371 -33.466  1.00  0.00     0.162 HD
BRANCH  25  27
HETATM   27  C   UNL     1      -4.345  -1.401 -33.693  1.00  0.00     0.154 C 
BRANCH  27  28
HETATM   28  C   UNL     1      -4.567  -2.670 -34.518  1.00  0.00     0.139 C 
HETATM   29  O   UNL     1      -4.216  -3.830 -33.743  1.00  0.00    -0.384 OA
HETATM   30  C   UNL     1      -4.896  -4.936 -34.341  1.00  0.00     0.168 C 
HETATM   31  C   UNL     1      -6.182  -4.390 -34.929  1.00  0.00     0.029 C 
HETATM   32  C   UNL     1      -6.019  -2.884 -34.905  1.00  0.00     0.035 C 
ENDBRANCH  27  28
ENDBRANCH  25  27
ENDBRANCH  23  25
ENDBRANCH  21  23
ENDBRANCH  18  21
ENDBRANCH  13  17
ENDBRANCH  10  11
ENDBRANCH   9  10
ENDBRANCH   1   9
TORSDOF 9
ENDMDL
MODEL 2
REMARK VINA RESULT:      -8.3      3.718     10.202
REMARK  9 active torsions:
REMARK  status: ('A' for Active; 'I' for Inactive)
REMARK    1  A    between atoms: C_3  and  C_4 
REMARK       I    between atoms: C_4  and  N_5 
REMARK    2  A    between atoms: N_5  and  N_6 
REMARK    3  A    between atoms: N_6  and  C_7 
REMARK    4  A    between atoms: C_7  and  N_8 
REMARK    5  A    between atoms: N_8  and  C_9 
REMARK    6  A    between atoms: C_9  and  C_10 
REMARK    7  A    between atoms: C_18  and  C_19 
REMARK    8  A    between atoms: C_19  and  O_20 
REMARK    9  A    between atoms: O_20  and  C_21 
ROOT
HETATM    1  C   UNL     1      -5.407  -0.216 -33.465  1.00  0.00     0.069 A 
HETATM    2  C   UNL     1      -6.649  -0.537 -34.012  1.00  0.00     0.038 A 
HETATM    3  C   UNL     1      -6.872  -1.813 -34.545  1.00  0.00     0.025 A 
HETATM    4  C   UNL     1      -5.853  -2.772 -34.536  1.00  0.00     0.044 A 
HETATM    5  C   UNL     1      -6.085  -4.077 -35.084  1.00  0.00     0.099 C 
HETATM    6  N   UNL     1      -6.276  -5.131 -35.530  1.00  0.00    -0.191 NA
HETATM    7  C   UNL     1      -4.609  -2.450 -33.990  1.00  0.00     0.025 A 
HETATM    8  C   UNL     1      -4.391  -1.178 -33.456  1.00  0.00     0.038 A 
ENDROOT
BRANCH   1   9
HETATM    9  O   UNL     1      -5.057   0.981 -32.908  1.00  0.00    -0.347 OA
BRANCH   9  10
HETATM   10  C   UNL     1      -6.035   1.651 -32.117  1.00  0.00     0.214 C 
BRANCH  10  11
HETATM   11  C   UNL     1      -5.912   3.128 -32.407  1.00  0.00    -0.033 A 
HETATM   12  C   UNL     1      -5.390   3.995 -31.432  1.00  0.00     0.026 A 
HETATM   13  C   UNL     1      -5.218   5.359 -31.706  1.00  0.00     0.034 A 
HETATM   14  C   UNL     1      -5.598   5.856 -32.960  1.00  0.00     0.017 A 
HETATM   15  C   UNL     1      -6.115   5.001 -33.934  1.00  0.00     0.002 A 
HETATM   16  C   UNL     1      -6.262   3.641 -33.663  1.00  0.00     0.009 A 
BRANCH  13  17
HETATM   17  C   UNL     1      -4.639   6.320 -30.721  1.00  0.00     0.270 C 
HETATM   18  N   UNL     1      -3.986   5.786 -29.628  1.00  0.00    -0.264 N 
HETATM   19  H   UNL     1      -3.796   4.800 -29.488  1.00  0.00     0.190 HD
HETATM   20  O   UNL     1      -4.723   7.534 -30.901  1.00  0.00    -0.266 OA
BRANCH  18  21
HETATM   21  N   UNL     1      -3.344   6.669 -28.749  1.00  0.00    -0.274 N 
HETATM   22  H   UNL     1      -3.657   6.590 -27.783  1.00  0.00     0.189 HD
BRANCH  21  23
HETATM   23  C   UNL     1      -2.085   7.142 -29.022  1.00  0.00     0.186 C 
HETATM   24  S   UNL     1      -1.631   8.752 -28.975  1.00  0.00    -0.040 SA
BRANCH  23  25
HETATM   25  N   UNL     1      -1.133   6.201 -29.286  1.00  0.00    -0.364 N 
HETATM   26  H   UNL     1      -1.277   5.330 -28.779  1.00  0.00     0.162 HD
BRANCH  25  27
HETATM   27  C   UNL     1      -0.375   6.069 -30.525  1.00  0.00     0.154 C 
BRANCH  27  28
HETATM   28  C   UNL     1      -1.285   6.163 -31.750  1.00  0.00     0.139 C 
HETATM   29  O   UNL     1      -0.669   6.979 -32.761  1.00  0.00    -0.384 OA
HETATM   30  C   UNL     1      -1.288   6.623 -34.000  1.00  0.00     0.168 C 
HETATM   31  C   UNL     1      -1.672   5.161 -33.890  1.00  0.00     0.029 C 
HETATM   32  C   UNL     1      -1.524   4.823 -32.421  1.00  0.00     0.035 C 
ENDBRANCH  27  28
ENDBRANCH  25  27
ENDBRANCH  23  25
ENDBRANCH  21  23
ENDBRANCH  18  21
ENDBRANCH  13  17
ENDBRANCH  10  11
ENDBRANCH   9  10
ENDBRANCH   1   9
TORSDOF 9
ENDMDL
MODEL 3
REMARK VINA RESULT:      -8.3      2.098      2.516
REMARK  9 active torsions:
REMARK  status: ('A' for Active; 'I' for Inactive)
REMARK    1  A    between atoms: C_3  and  C_4 
REMARK       I    between atoms: C_4  and  N_5 
REMARK    2  A    between atoms: N_5  and  N_6 
REMARK    3  A    between atoms: N_6  and  C_7 
REMARK    4  A    between atoms: C_7  and  N_8 
REMARK    5  A    between atoms: N_8  and  C_9 
REMARK    6  A    between atoms: C_9  and  C_10 
REMARK    7  A    between atoms: C_18  and  C_19 
REMARK    8  A    between atoms: C_19  and  O_20 
REMARK    9  A    between atoms: O_20  and  C_21 
ROOT
HETATM    1  C   UNL     1       0.246   6.585 -28.672  1.00  0.00     0.069 A 
HETATM    2  C   UNL     1       0.055   6.217 -27.341  1.00  0.00     0.038 A 
HETATM    3  C   UNL     1       0.596   6.998 -26.312  1.00  0.00     0.025 A 
HETATM    4  C   UNL     1       1.334   8.149 -26.610  1.00  0.00     0.044 A 
HETATM    5  C   UNL     1       1.888   8.945 -25.554  1.00  0.00     0.099 C 
HETATM    6  N   UNL     1       2.336   9.585 -24.695  1.00  0.00    -0.191 NA
HETATM    7  C   UNL     1       1.528   8.517 -27.943  1.00  0.00     0.025 A 
HETATM    8  C   UNL     1       0.983   7.737 -28.966  1.00  0.00     0.038 A 
ENDROOT
BRANCH   1   9
HETATM    9  O   UNL     1      -0.229   5.923 -29.768  1.00  0.00    -0.347 OA
BRANCH   9  10
HETATM   10  C   UNL     1      -0.240   6.625 -31.008  1.00  0.00     0.214 C 
BRANCH  10  11
HETATM   11  C   UNL     1      -1.071   5.815 -31.974  1.00  0.00    -0.033 A 
HETATM   12  C   UNL     1      -1.797   4.701 -31.516  1.00  0.00     0.026 A 
HETATM   13  C   UNL     1      -2.616   3.972 -32.389  1.00  0.00     0.034 A 
HETATM   14  C   UNL     1      -2.685   4.352 -33.736  1.00  0.00     0.017 A 
HETATM   15  C   UNL     1      -1.969   5.457 -34.198  1.00  0.00     0.002 A 
HETATM   16  C   UNL     1      -1.174   6.191 -33.320  1.00  0.00     0.009 A 
BRANCH  13  17
HETATM   17  C   UNL     1      -3.433   2.802 -31.952  1.00  0.00     0.270 C 
HETATM   18  N   UNL     1      -4.746   2.755 -32.377  1.00  0.00    -0.264 N 
HETATM   19  H   UNL     1      -5.170   3.406 -33.030  1.00  0.00     0.190 HD
HETATM   20  O   UNL     1      -2.940   1.910 -31.264  1.00  0.00    -0.266 OA
BRANCH  18  21
HETATM   21  N   UNL     1      -5.498   1.615 -32.067  1.00  0.00    -0.274 N 
HETATM   22  H   UNL     1      -4.988   0.741 -32.179  1.00  0.00     0.189 HD
BRANCH  21  23
HETATM   23  C   UNL     1      -6.549   1.683 -31.186  1.00  0.00     0.186 C 
HETATM   24  S   UNL     1      -6.854   2.960 -30.148  1.00  0.00    -0.040 SA
BRANCH  23  25
HETATM   25  N   UNL     1      -7.435   0.646 -31.225  1.00  0.00    -0.364 N 
HETATM   26  H   UNL     1      -7.443   0.092 -30.372  1.00  0.00     0.162 HD
BRANCH  25  27
HETATM   27  C   UNL     1      -8.674   0.602 -31.994  1.00  0.00     0.154 C 
BRANCH  27  28
HETATM   28  C   UNL     1      -8.429   0.105 -33.420  1.00  0.00     0.139 C 
HETATM   29  O   UNL     1      -7.802   1.136 -34.201  1.00  0.00    -0.384 OA
HETATM   30  C   UNL     1      -7.163   0.480 -35.299  1.00  0.00     0.168 C 
HETATM   31  C   UNL     1      -6.747  -0.891 -34.804  1.00  0.00     0.029 C 
HETATM   32  C   UNL     1      -7.472  -1.071 -33.486  1.00  0.00     0.035 C 
ENDBRANCH  27  28
ENDBRANCH  25  27
ENDBRANCH  23  25
ENDBRANCH  21  23
ENDBRANCH  18  21
ENDBRANCH  13  17
ENDBRANCH  10  11
ENDBRANCH   9  10
ENDBRANCH   1   9
TORSDOF 9
ENDMDL
MODEL 4
REMARK VINA RESULT:      -8.1      4.807     10.137
REMARK  9 active torsions:
REMARK  status: ('A' for Active; 'I' for Inactive)
REMARK    1  A    between atoms: C_3  and  C_4 
REMARK       I    between atoms: C_4  and  N_5 
REMARK    2  A    between atoms: N_5  and  N_6 
REMARK    3  A    between atoms: N_6  and  C_7 
REMARK    4  A    between atoms: C_7  and  N_8 
REMARK    5  A    between atoms: N_8  and  C_9 
REMARK    6  A    between atoms: C_9  and  C_10 
REMARK    7  A    between atoms: C_18  and  C_19 
REMARK    8  A    between atoms: C_19  and  O_20 
REMARK    9  A    between atoms: O_20  and  C_21 
ROOT
HETATM    1  C   UNL     1      -9.193   1.772 -34.329  1.00  0.00     0.069 A 
HETATM    2  C   UNL     1      -9.644   3.091 -34.323  1.00  0.00     0.038 A 
HETATM    3  C   UNL     1     -10.939   3.389 -33.881  1.00  0.00     0.025 A 
HETATM    4  C   UNL     1     -11.792   2.367 -33.448  1.00  0.00     0.044 A 
HETATM    5  C   UNL     1     -13.117   2.676 -32.998  1.00  0.00     0.099 C 
HETATM    6  N   UNL     1     -14.191   2.929 -32.637  1.00  0.00    -0.191 NA
HETATM    7  C   UNL     1     -11.341   1.045 -33.455  1.00  0.00     0.025 A 
HETATM    8  C   UNL     1     -10.047   0.753 -33.893  1.00  0.00     0.038 A 
ENDROOT
BRANCH   1   9
HETATM    9  O   UNL     1      -7.959   1.344 -34.724  1.00  0.00    -0.347 OA
BRANCH   9  10
HETATM   10  C   UNL     1      -7.837  -0.010 -35.155  1.00  0.00     0.214 C 
BRANCH  10  11
HETATM   11  C   UNL     1      -6.573  -0.563 -34.544  1.00  0.00    -0.033 A 
HETATM   12  C   UNL     1      -5.780   0.247 -33.711  1.00  0.00     0.026 A 
HETATM   13  C   UNL     1      -4.633  -0.269 -33.093  1.00  0.00     0.034 A 
HETATM   14  C   UNL     1      -4.269  -1.601 -33.334  1.00  0.00     0.017 A 
HETATM   15  C   UNL     1      -5.051  -2.412 -34.157  1.00  0.00     0.002 A 
HETATM   16  C   UNL     1      -6.203  -1.899 -34.752  1.00  0.00     0.009 A 
BRANCH  13  17
HETATM   17  C   UNL     1      -3.773   0.533 -32.174  1.00  0.00     0.270 C 
HETATM   18  N   UNL     1      -3.744   1.900 -32.371  1.00  0.00    -0.264 N 
HETATM   19  H   UNL     1      -4.325   2.406 -33.031  1.00  0.00     0.190 HD
HETATM   20  O   UNL     1      -3.142  -0.007 -31.267  1.00  0.00    -0.266 OA
BRANCH  18  21
HETATM   21  N   UNL     1      -3.028   2.682 -31.454  1.00  0.00    -0.274 N 
HETATM   22  H   UNL     1      -2.249   2.194 -31.016  1.00  0.00     0.189 HD
BRANCH  21  23
HETATM   23  C   UNL     1      -3.001   4.049 -31.566  1.00  0.00     0.186 C 
HETATM   24  S   UNL     1      -1.659   5.011 -31.288  1.00  0.00    -0.040 SA
BRANCH  23  25
HETATM   25  N   UNL     1      -4.150   4.641 -32.001  1.00  0.00    -0.364 N 
HETATM   26  H   UNL     1      -4.335   4.481 -32.989  1.00  0.00     0.162 HD
BRANCH  25  27
HETATM   27  C   UNL     1      -5.334   4.919 -31.196  1.00  0.00     0.154 C 
BRANCH  27  28
HETATM   28  C   UNL     1      -6.497   4.003 -31.579  1.00  0.00     0.139 C 
HETATM   29  O   UNL     1      -6.286   2.686 -31.042  1.00  0.00    -0.384 OA
HETATM   30  C   UNL     1      -7.571   2.060 -30.990  1.00  0.00     0.168 C 
HETATM   31  C   UNL     1      -8.583   3.163 -30.755  1.00  0.00     0.029 C 
HETATM   32  C   UNL     1      -7.826   4.452 -31.000  1.00  0.00     0.035 C 
ENDBRANCH  27  28
ENDBRANCH  25  27
ENDBRANCH  23  25
ENDBRANCH  21  23
ENDBRANCH  18  21
ENDBRANCH  13  17
ENDBRANCH  10  11
ENDBRANCH   9  10
ENDBRANCH   1   9
TORSDOF 9
ENDMDL
MODEL 5
REMARK VINA RESULT:      -8.1      3.801     10.115
REMARK  9 active torsions:
REMARK  status: ('A' for Active; 'I' for Inactive)
REMARK    1  A    between atoms: C_3  and  C_4 
REMARK       I    between atoms: C_4  and  N_5 
REMARK    2  A    between atoms: N_5  and  N_6 
REMARK    3  A    between atoms: N_6  and  C_7 
REMARK    4  A    between atoms: C_7  and  N_8 
REMARK    5  A    between atoms: N_8  and  C_9 
REMARK    6  A    between atoms: C_9  and  C_10 
REMARK    7  A    between atoms: C_18  and  C_19 
REMARK    8  A    between atoms: C_19  and  O_20 
REMARK    9  A    between atoms: O_20  and  C_21 
ROOT
HETATM    1  C   UNL     1      -4.443  -0.665 -33.235  1.00  0.00     0.069 A 
HETATM    2  C   UNL     1      -5.708  -0.573 -33.815  1.00  0.00     0.038 A 
HETATM    3  C   UNL     1      -6.282  -1.693 -34.429  1.00  0.00     0.025 A 
HETATM    4  C   UNL     1      -5.592  -2.910 -34.468  1.00  0.00     0.044 A 
HETATM    5  C   UNL     1      -6.183  -4.054 -35.099  1.00  0.00     0.099 C 
HETATM    6  N   UNL     1      -6.663  -4.978 -35.613  1.00  0.00    -0.191 NA
HETATM    7  C   UNL     1      -4.325  -3.002 -33.889  1.00  0.00     0.025 A 
HETATM    8  C   UNL     1      -3.758  -1.884 -33.274  1.00  0.00     0.038 A 
ENDROOT
BRANCH   1   9
HETATM    9  O   UNL     1      -3.772   0.341 -32.600  1.00  0.00    -0.347 OA
BRANCH   9  10
HETATM   10  C   UNL     1      -3.854   0.394 -31.178  1.00  0.00     0.214 C 
BRANCH  10  11
HETATM   11  C   UNL     1      -4.802   1.515 -30.825  1.00  0.00    -0.033 A 
HETATM   12  C   UNL     1      -4.360   2.849 -30.868  1.00  0.00     0.026 A 
HETATM   13  C   UNL     1      -5.243   3.904 -30.595  1.00  0.00     0.034 A 
HETATM   14  C   UNL     1      -6.570   3.611 -30.255  1.00  0.00     0.017 A 
HETATM   15  C   UNL     1      -7.016   2.290 -30.212  1.00  0.00     0.002 A 
HETATM   16  C   UNL     1      -6.140   1.247 -30.506  1.00  0.00     0.009 A 
BRANCH  13  17
HETATM   17  C   UNL     1      -4.839   5.339 -30.658  1.00  0.00     0.270 C 
HETATM   18  N   UNL     1      -3.788   5.735 -29.852  1.00  0.00    -0.264 N 
HETATM   19  H   UNL     1      -3.219   5.111 -29.291  1.00  0.00     0.190 HD
HETATM   20  O   UNL     1      -5.406   6.122 -31.417  1.00  0.00    -0.266 OA
BRANCH  18  21
HETATM   21  N   UNL     1      -3.325   7.051 -29.974  1.00  0.00    -0.274 N 
HETATM   22  H   UNL     1      -4.033   7.757 -29.783  1.00  0.00     0.189 HD
BRANCH  21  23
HETATM   23  C   UNL     1      -1.998   7.350 -29.792  1.00  0.00     0.186 C 
HETATM   24  S   UNL     1      -1.279   7.679 -28.317  1.00  0.00    -0.040 SA
BRANCH  23  25
HETATM   25  N   UNL     1      -1.213   7.305 -30.907  1.00  0.00    -0.364 N 
HETATM   26  H   UNL     1      -0.930   8.226 -31.237  1.00  0.00     0.162 HD
BRANCH  25  27
HETATM   27  C   UNL     1      -0.315   6.220 -31.285  1.00  0.00     0.154 C 
BRANCH  27  28
HETATM   28  C   UNL     1      -0.749   5.568 -32.598  1.00  0.00     0.139 C 
HETATM   29  O   UNL     1      -1.895   4.728 -32.377  1.00  0.00    -0.384 OA
HETATM   30  C   UNL     1      -2.532   4.571 -33.648  1.00  0.00     0.168 C 
HETATM   31  C   UNL     1      -2.272   5.845 -34.425  1.00  0.00     0.029 C 
HETATM   32  C   UNL     1      -1.197   6.572 -33.644  1.00  0.00     0.035 C 
ENDBRANCH  27  28
ENDBRANCH  25  27
ENDBRANCH  23  25
ENDBRANCH  21  23
ENDBRANCH  18  21
ENDBRANCH  13  17
ENDBRANCH  10  11
ENDBRANCH   9  10
ENDBRANCH   1   9
TORSDOF 9
ENDMDL
MODEL 6
REMARK VINA RESULT:      -8.1     18.214     19.611
REMARK  9 active torsions:
REMARK  status: ('A' for Active; 'I' for Inactive)
REMARK    1  A    between atoms: C_3  and  C_4 
REMARK       I    between atoms: C_4  and  N_5 
REMARK    2  A    between atoms: N_5  and  N_6 
REMARK    3  A    between atoms: N_6  and  C_7 
REMARK    4  A    between atoms: C_7  and  N_8 
REMARK    5  A    between atoms: N_8  and  C_9 
REMARK    6  A    between atoms: C_9  and  C_10 
REMARK    7  A    between atoms: C_18  and  C_19 
REMARK    8  A    between atoms: C_19  and  O_20 
REMARK    9  A    between atoms: O_20  and  C_21 
ROOT
HETATM    1  C   UNL     1      -6.718 -13.598 -34.672  1.00  0.00     0.069 A 
HETATM    2  C   UNL     1      -5.887 -12.875 -33.817  1.00  0.00     0.038 A 
HETATM    3  C   UNL     1      -5.484 -13.428 -32.595  1.00  0.00     0.025 A 
HETATM    4  C   UNL     1      -5.914 -14.706 -32.221  1.00  0.00     0.044 A 
HETATM    5  C   UNL     1      -5.500 -15.269 -30.969  1.00  0.00     0.099 C 
HETATM    6  N   UNL     1      -5.165 -15.720 -29.953  1.00  0.00    -0.191 NA
HETATM    7  C   UNL     1      -6.748 -15.430 -33.076  1.00  0.00     0.025 A 
HETATM    8  C   UNL     1      -7.144 -14.876 -34.295  1.00  0.00     0.038 A 
ENDROOT
BRANCH   1   9
HETATM    9  O   UNL     1      -7.179 -13.184 -35.889  1.00  0.00    -0.347 OA
BRANCH   9  10
HETATM   10  C   UNL     1      -7.702 -14.176 -36.768  1.00  0.00     0.214 C 
BRANCH  10  11
HETATM   11  C   UNL     1      -7.642 -13.613 -38.167  1.00  0.00    -0.033 A 
HETATM   12  C   UNL     1      -6.497 -13.815 -38.958  1.00  0.00     0.026 A 
HETATM   13  C   UNL     1      -6.448 -13.345 -40.278  1.00  0.00     0.034 A 
HETATM   14  C   UNL     1      -7.548 -12.646 -40.795  1.00  0.00     0.017 A 
HETATM   15  C   UNL     1      -8.688 -12.443 -40.016  1.00  0.00     0.002 A 
HETATM   16  C   UNL     1      -8.739 -12.933 -38.712  1.00  0.00     0.009 A 
BRANCH  13  17
HETATM   17  C   UNL     1      -5.274 -13.558 -41.174  1.00  0.00     0.270 C 
HETATM   18  N   UNL     1      -4.022 -13.322 -40.641  1.00  0.00    -0.264 N 
HETATM   19  H   UNL     1      -3.836 -13.099 -39.669  1.00  0.00     0.190 HD
HETATM   20  O   UNL     1      -5.425 -13.954 -42.329  1.00  0.00    -0.266 OA
BRANCH  18  21
HETATM   21  N   UNL     1      -2.903 -13.618 -41.432  1.00  0.00    -0.274 N 
HETATM   22  H   UNL     1      -2.793 -13.005 -42.236  1.00  0.00     0.189 HD
BRANCH  21  23
HETATM   23  C   UNL     1      -1.806 -14.240 -40.892  1.00  0.00     0.186 C 
HETATM   24  S   UNL     1      -1.347 -15.820 -41.200  1.00  0.00    -0.040 SA
BRANCH  23  25
HETATM   25  N   UNL     1      -1.007 -13.470 -40.098  1.00  0.00    -0.364 N 
HETATM   26  H   UNL     1      -1.133 -12.472 -40.249  1.00  0.00     0.162 HD
BRANCH  25  27
HETATM   27  C   UNL     1      -0.504 -13.830 -38.777  1.00  0.00     0.154 C 
BRANCH  27  28
HETATM   28  C   UNL     1      -1.422 -13.312 -37.670  1.00  0.00     0.139 C 
HETATM   29  O   UNL     1      -2.575 -12.671 -38.244  1.00  0.00    -0.384 OA
HETATM   30  C   UNL     1      -3.584 -12.673 -37.231  1.00  0.00     0.168 C 
HETATM   31  C   UNL     1      -3.355 -13.914 -36.391  1.00  0.00     0.029 C 
HETATM   32  C   UNL     1      -1.985 -14.417 -36.795  1.00  0.00     0.035 C 
ENDBRANCH  27  28
ENDBRANCH  25  27
ENDBRANCH  23  25
ENDBRANCH  21  23
ENDBRANCH  18  21
ENDBRANCH  13  17
ENDBRANCH  10  11
ENDBRANCH   9  10
ENDBRANCH   1   9
TORSDOF 9
ENDMDL
MODEL 7
REMARK VINA RESULT:      -7.8      3.566     10.638
REMARK  9 active torsions:
REMARK  status: ('A' for Active; 'I' for Inactive)
REMARK    1  A    between atoms: C_3  and  C_4 
REMARK       I    between atoms: C_4  and  N_5 
REMARK    2  A    between atoms: N_5  and  N_6 
REMARK    3  A    between atoms: N_6  and  C_7 
REMARK    4  A    between atoms: C_7  and  N_8 
REMARK    5  A    between atoms: N_8  and  C_9 
REMARK    6  A    between atoms: C_9  and  C_10 
REMARK    7  A    between atoms: C_18  and  C_19 
REMARK    8  A    between atoms: C_19  and  O_20 
REMARK    9  A    between atoms: O_20  and  C_21 
ROOT
HETATM    1  C   UNL     1      -5.641   0.155 -33.572  1.00  0.00     0.069 A 
HETATM    2  C   UNL     1      -6.789  -0.243 -34.255  1.00  0.00     0.038 A 
HETATM    3  C   UNL     1      -6.915  -1.563 -34.707  1.00  0.00     0.025 A 
HETATM    4  C   UNL     1      -5.892  -2.489 -34.482  1.00  0.00     0.044 A 
HETATM    5  C   UNL     1      -6.024  -3.838 -34.948  1.00  0.00     0.099 C 
HETATM    6  N   UNL     1      -6.134  -4.930 -35.328  1.00  0.00    -0.191 NA
HETATM    7  C   UNL     1      -4.740  -2.091 -33.799  1.00  0.00     0.025 A 
HETATM    8  C   UNL     1      -4.620  -0.775 -33.347  1.00  0.00     0.038 A 
ENDROOT
BRANCH   1   9
HETATM    9  O   UNL     1      -5.391   1.401 -33.073  1.00  0.00    -0.347 OA
BRANCH   9  10
HETATM   10  C   UNL     1      -4.394   1.518 -32.061  1.00  0.00     0.214 C 
BRANCH  10  11
HETATM   11  C   UNL     1      -3.801   2.902 -32.173  1.00  0.00    -0.033 A 
HETATM   12  C   UNL     1      -4.131   3.888 -31.227  1.00  0.00     0.026 A 
HETATM   13  C   UNL     1      -3.547   5.161 -31.286  1.00  0.00     0.034 A 
HETATM   14  C   UNL     1      -2.644   5.449 -32.319  1.00  0.00     0.017 A 
HETATM   15  C   UNL     1      -2.311   4.475 -33.261  1.00  0.00     0.002 A 
HETATM   16  C   UNL     1      -2.878   3.204 -33.184  1.00  0.00     0.009 A 
BRANCH  13  17
HETATM   17  C   UNL     1      -3.834   6.235 -30.291  1.00  0.00     0.270 C 
HETATM   18  N   UNL     1      -3.141   7.422 -30.426  1.00  0.00    -0.264 N 
HETATM   19  H   UNL     1      -2.520   7.649 -31.195  1.00  0.00     0.190 HD
HETATM   20  O   UNL     1      -4.674   6.069 -29.408  1.00  0.00    -0.266 OA
BRANCH  18  21
HETATM   21  N   UNL     1      -3.473   8.479 -29.568  1.00  0.00    -0.274 N 
HETATM   22  H   UNL     1      -4.468   8.546 -29.362  1.00  0.00     0.189 HD
BRANCH  21  23
HETATM   23  C   UNL     1      -2.557   8.974 -28.674  1.00  0.00     0.186 C 
HETATM   24  S   UNL     1      -2.556  10.530 -28.059  1.00  0.00    -0.040 SA
BRANCH  23  25
HETATM   25  N   UNL     1      -1.623   8.091 -28.218  1.00  0.00    -0.364 N 
HETATM   26  H   UNL     1      -1.867   7.119 -28.397  1.00  0.00     0.162 HD
BRANCH  25  27
HETATM   27  C   UNL     1      -0.193   8.345 -28.078  1.00  0.00     0.154 C 
BRANCH  27  28
HETATM   28  C   UNL     1       0.636   7.280 -28.798  1.00  0.00     0.139 C 
HETATM   29  O   UNL     1       0.337   5.978 -28.266  1.00  0.00    -0.384 OA
HETATM   30  C   UNL     1       0.725   5.034 -29.267  1.00  0.00     0.168 C 
HETATM   31  C   UNL     1       0.529   5.715 -30.607  1.00  0.00     0.029 C 
HETATM   32  C   UNL     1       0.321   7.179 -30.279  1.00  0.00     0.035 C 
ENDBRANCH  27  28
ENDBRANCH  25  27
ENDBRANCH  23  25
ENDBRANCH  21  23
ENDBRANCH  18  21
ENDBRANCH  13  17
ENDBRANCH  10  11
ENDBRANCH   9  10
ENDBRANCH   1   9
TORSDOF 9
ENDMDL
MODEL 8
REMARK VINA RESULT:      -7.7      4.849      7.590
REMARK  9 active torsions:
REMARK  status: ('A' for Active; 'I' for Inactive)
REMARK    1  A    between atoms: C_3  and  C_4 
REMARK       I    between atoms: C_4  and  N_5 
REMARK    2  A    between atoms: N_5  and  N_6 
REMARK    3  A    between atoms: N_6  and  C_7 
REMARK    4  A    between atoms: C_7  and  N_8 
REMARK    5  A    between atoms: N_8  and  C_9 
REMARK    6  A    between atoms: C_9  and  C_10 
REMARK    7  A    between atoms: C_18  and  C_19 
REMARK    8  A    between atoms: C_19  and  O_20 
REMARK    9  A    between atoms: O_20  and  C_21 
ROOT
HETATM    1  C   UNL     1      -4.504   3.593 -31.726  1.00  0.00     0.069 A 
HETATM    2  C   UNL     1      -4.441   4.813 -31.052  1.00  0.00     0.038 A 
HETATM    3  C   UNL     1      -3.686   5.867 -31.580  1.00  0.00     0.025 A 
HETATM    4  C   UNL     1      -2.987   5.706 -32.781  1.00  0.00     0.044 A 
HETATM    5  C   UNL     1      -2.214   6.788 -33.317  1.00  0.00     0.099 C 
HETATM    6  N   UNL     1      -1.587   7.666 -33.746  1.00  0.00    -0.191 NA
HETATM    7  C   UNL     1      -3.048   4.485 -33.455  1.00  0.00     0.025 A 
HETATM    8  C   UNL     1      -3.806   3.436 -32.927  1.00  0.00     0.038 A 
ENDROOT
BRANCH   1   9
HETATM    9  O   UNL     1      -5.204   2.489 -31.330  1.00  0.00    -0.347 OA
BRANCH   9  10
HETATM   10  C   UNL     1      -4.589   1.217 -31.516  1.00  0.00     0.214 C 
BRANCH  10  11
HETATM   11  C   UNL     1      -5.501   0.403 -32.403  1.00  0.00    -0.033 A 
HETATM   12  C   UNL     1      -6.861   0.744 -32.516  1.00  0.00     0.026 A 
HETATM   13  C   UNL     1      -7.708   0.033 -33.377  1.00  0.00     0.034 A 
HETATM   14  C   UNL     1      -7.188  -1.044 -34.108  1.00  0.00     0.017 A 
HETATM   15  C   UNL     1      -5.839  -1.388 -34.002  1.00  0.00     0.002 A 
HETATM   16  C   UNL     1      -4.997  -0.661 -33.162  1.00  0.00     0.009 A 
BRANCH  13  17
HETATM   17  C   UNL     1      -9.150   0.370 -33.562  1.00  0.00     0.270 C 
HETATM   18  N   UNL     1      -9.464   1.270 -34.562  1.00  0.00    -0.264 N 
HETATM   19  H   UNL     1      -8.803   1.649 -35.232  1.00  0.00     0.190 HD
HETATM   20  O   UNL     1     -10.015  -0.157 -32.865  1.00  0.00    -0.266 OA
BRANCH  18  21
HETATM   21  N   UNL     1     -10.818   1.518 -34.822  1.00  0.00    -0.274 N 
HETATM   22  H   UNL     1     -11.293   0.755 -35.298  1.00  0.00     0.189 HD
BRANCH  21  23
HETATM   23  C   UNL     1     -11.537   2.387 -34.039  1.00  0.00     0.186 C 
HETATM   24  S   UNL     1     -13.083   2.108 -33.462  1.00  0.00    -0.040 SA
BRANCH  23  25
HETATM   25  N   UNL     1     -10.895   3.530 -33.662  1.00  0.00    -0.364 N 
HETATM   26  H   UNL     1     -11.200   4.352 -34.180  1.00  0.00     0.162 HD
BRANCH  25  27
HETATM   27  C   UNL     1     -10.340   3.811 -32.343  1.00  0.00     0.154 C 
BRANCH  27  28
HETATM   28  C   UNL     1      -8.841   4.102 -32.418  1.00  0.00     0.139 C 
HETATM   29  O   UNL     1      -8.363   3.885 -33.757  1.00  0.00    -0.384 OA
HETATM   30  C   UNL     1      -7.147   4.630 -33.877  1.00  0.00     0.168 C 
HETATM   31  C   UNL     1      -7.285   5.837 -32.971  1.00  0.00     0.029 C 
HETATM   32  C   UNL     1      -8.497   5.548 -32.110  1.00  0.00     0.035 C 
ENDBRANCH  27  28
ENDBRANCH  25  27
ENDBRANCH  23  25
ENDBRANCH  21  23
ENDBRANCH  18  21
ENDBRANCH  13  17
ENDBRANCH  10  11
ENDBRANCH   9  10
ENDBRANCH   1   9
TORSDOF 9
ENDMDL
MODEL 9
REMARK VINA RESULT:      -7.6      1.201      1.261
REMARK  9 active torsions:
REMARK  status: ('A' for Active; 'I' for Inactive)
REMARK    1  A    between atoms: C_3  and  C_4 
REMARK       I    between atoms: C_4  and  N_5 
REMARK    2  A    between atoms: N_5  and  N_6 
REMARK    3  A    between atoms: N_6  and  C_7 
REMARK    4  A    between atoms: C_7  and  N_8 
REMARK    5  A    between atoms: N_8  and  C_9 
REMARK    6  A    between atoms: C_9  and  C_10 
REMARK    7  A    between atoms: C_18  and  C_19 
REMARK    8  A    between atoms: C_19  and  O_20 
REMARK    9  A    between atoms: O_20  and  C_21 
ROOT
HETATM    1  C   UNL     1      -0.999   7.843 -29.233  1.00  0.00     0.069 A 
HETATM    2  C   UNL     1      -1.561   8.288 -28.037  1.00  0.00     0.038 A 
HETATM    3  C   UNL     1      -0.746   8.520 -26.922  1.00  0.00     0.025 A 
HETATM    4  C   UNL     1       0.635   8.305 -26.997  1.00  0.00     0.044 A 
HETATM    5  C   UNL     1       1.465   8.543 -25.853  1.00  0.00     0.099 C 
HETATM    6  N   UNL     1       2.134   8.735 -24.923  1.00  0.00    -0.191 NA
HETATM    7  C   UNL     1       1.198   7.858 -28.194  1.00  0.00     0.025 A 
HETATM    8  C   UNL     1       0.382   7.630 -29.304  1.00  0.00     0.038 A 
ENDROOT
BRANCH   1   9
HETATM    9  O   UNL     1      -1.672   7.584 -30.393  1.00  0.00    -0.347 OA
BRANCH   9  10
HETATM   10  C   UNL     1      -2.930   6.922 -30.291  1.00  0.00     0.214 C 
BRANCH  10  11
HETATM   11  C   UNL     1      -2.881   5.724 -31.209  1.00  0.00    -0.033 A 
HETATM   12  C   UNL     1      -3.756   4.644 -31.003  1.00  0.00     0.026 A 
HETATM   13  C   UNL     1      -3.760   3.549 -31.879  1.00  0.00     0.034 A 
HETATM   14  C   UNL     1      -2.861   3.532 -32.954  1.00  0.00     0.017 A 
HETATM   15  C   UNL     1      -1.990   4.602 -33.165  1.00  0.00     0.002 A 
HETATM   16  C   UNL     1      -2.006   5.697 -32.304  1.00  0.00     0.009 A 
BRANCH  13  17
HETATM   17  C   UNL     1      -4.689   2.390 -31.729  1.00  0.00     0.270 C 
HETATM   18  N   UNL     1      -5.828   2.389 -32.511  1.00  0.00    -0.264 N 
HETATM   19  H   UNL     1      -6.037   3.067 -33.236  1.00  0.00     0.190 HD
HETATM   20  O   UNL     1      -4.428   1.468 -30.958  1.00  0.00    -0.266 OA
BRANCH  18  21
HETATM   21  N   UNL     1      -6.658   1.261 -32.463  1.00  0.00    -0.274 N 
HETATM   22  H   UNL     1      -7.481   1.379 -31.875  1.00  0.00     0.189 HD
BRANCH  21  23
HETATM   23  C   UNL     1      -6.682   0.361 -33.498  1.00  0.00     0.186 C 
HETATM   24  S   UNL     1      -7.179   0.704 -35.059  1.00  0.00    -0.040 SA
BRANCH  23  25
HETATM   25  N   UNL     1      -6.199  -0.885 -33.225  1.00  0.00    -0.364 N 
HETATM   26  H   UNL     1      -6.928  -1.590 -33.144  1.00  0.00     0.162 HD
BRANCH  25  27
HETATM   27  C   UNL     1      -4.889  -1.402 -33.603  1.00  0.00     0.154 C 
BRANCH  27  28
HETATM   28  C   UNL     1      -5.013  -2.628 -34.509  1.00  0.00     0.139 C 
HETATM   29  O   UNL     1      -4.374  -3.761 -33.895  1.00  0.00    -0.384 OA
HETATM   30  C   UNL     1      -4.941  -4.924 -34.505  1.00  0.00     0.168 C 
HETATM   31  C   UNL     1      -6.367  -4.569 -34.875  1.00  0.00     0.029 C 
HETATM   32  C   UNL     1      -6.450  -3.064 -34.731  1.00  0.00     0.035 C 
ENDBRANCH  27  28
ENDBRANCH  25  27
ENDBRANCH  23  25
ENDBRANCH  21  23
ENDBRANCH  18  21
ENDBRANCH  13  17
ENDBRANCH  10  11
ENDBRANCH   9  10
ENDBRANCH   1   9
TORSDOF 9
ENDMDL
MODEL 10
REMARK VINA RESULT:      -7.5      3.346     10.989
REMARK  9 active torsions:
REMARK  status: ('A' for Active; 'I' for Inactive)
REMARK    1  A    between atoms: C_3  and  C_4 
REMARK       I    between atoms: C_4  and  N_5 
REMARK    2  A    between atoms: N_5  and  N_6 
REMARK    3  A    between atoms: N_6  and  C_7 
REMARK    4  A    between atoms: C_7  and  N_8 
REMARK    5  A    between atoms: N_8  and  C_9 
REMARK    6  A    between atoms: C_9  and  C_10 
REMARK    7  A    between atoms: C_18  and  C_19 
REMARK    8  A    between atoms: C_19  and  O_20 
REMARK    9  A    between atoms: O_20  and  C_21 
ROOT
HETATM    1  C   UNL     1      -4.863  -0.334 -33.369  1.00  0.00     0.069 A 
HETATM    2  C   UNL     1      -6.132  -0.434 -33.938  1.00  0.00     0.038 A 
HETATM    3  C   UNL     1      -6.554  -1.642 -34.506  1.00  0.00     0.025 A 
HETATM    4  C   UNL     1      -5.707  -2.756 -34.512  1.00  0.00     0.044 A 
HETATM    5  C   UNL     1      -6.142  -3.991 -35.095  1.00  0.00     0.099 C 
HETATM    6  N   UNL     1      -6.497  -4.988 -35.571  1.00  0.00    -0.191 NA
HETATM    7  C   UNL     1      -4.435  -2.656 -33.944  1.00  0.00     0.025 A 
HETATM    8  C   UNL     1      -4.019  -1.450 -33.375  1.00  0.00     0.038 A 
ENDROOT
BRANCH   1   9
HETATM    9  O   UNL     1      -4.329   0.775 -32.778  1.00  0.00    -0.347 OA
BRANCH   9  10
HETATM   10  C   UNL     1      -5.210   1.616 -32.038  1.00  0.00     0.214 C 
BRANCH  10  11
HETATM   11  C   UNL     1      -5.031   3.022 -32.559  1.00  0.00    -0.033 A 
HETATM   12  C   UNL     1      -4.116   3.891 -31.940  1.00  0.00     0.026 A 
HETATM   13  C   UNL     1      -3.898   5.180 -32.445  1.00  0.00     0.034 A 
HETATM   14  C   UNL     1      -4.625   5.604 -33.566  1.00  0.00     0.017 A 
HETATM   15  C   UNL     1      -5.534   4.747 -34.188  1.00  0.00     0.002 A 
HETATM   16  C   UNL     1      -5.729   3.459 -33.693  1.00  0.00     0.009 A 
BRANCH  13  17
HETATM   17  C   UNL     1      -2.916   6.133 -31.849  1.00  0.00     0.270 C 
HETATM   18  N   UNL     1      -3.112   7.477 -32.095  1.00  0.00    -0.264 N 
HETATM   19  H   UNL     1      -3.915   7.870 -32.574  1.00  0.00     0.190 HD
HETATM   20  O   UNL     1      -1.990   5.727 -31.148  1.00  0.00    -0.266 OA
BRANCH  18  21
HETATM   21  N   UNL     1      -2.265   8.393 -31.458  1.00  0.00    -0.274 N 
HETATM   22  H   UNL     1      -1.431   8.626 -31.994  1.00  0.00     0.189 HD
BRANCH  21  23
HETATM   23  C   UNL     1      -2.757   9.287 -30.540  1.00  0.00     0.186 C 
HETATM   24  S   UNL     1      -4.311   9.907 -30.539  1.00  0.00    -0.040 SA
BRANCH  23  25
HETATM   25  N   UNL     1      -1.916   9.630 -29.522  1.00  0.00    -0.364 N 
HETATM   26  H   UNL     1      -1.332  10.435 -29.738  1.00  0.00     0.162 HD
BRANCH  25  27
HETATM   27  C   UNL     1      -2.150   9.409 -28.100  1.00  0.00     0.154 C 
BRANCH  27  28
HETATM   28  C   UNL     1      -1.163   8.393 -27.522  1.00  0.00     0.139 C 
HETATM   29  O   UNL     1      -1.329   7.120 -28.171  1.00  0.00    -0.384 OA
HETATM   30  C   UNL     1      -0.108   6.404 -27.972  1.00  0.00     0.168 C 
HETATM   31  C   UNL     1       0.998   7.438 -27.909  1.00  0.00     0.029 C 
HETATM   32  C   UNL     1       0.288   8.768 -27.762  1.00  0.00     0.035 C 
ENDBRANCH  27  28
ENDBRANCH  25  27
ENDBRANCH  23  25
ENDBRANCH  21  23
ENDBRANCH  18  21
ENDBRANCH  13  17
ENDBRANCH  10  11
ENDBRANCH   9  10
ENDBRANCH   1   9
TORSDOF 9
ENDMDL
