MODEL 1
REMARK VINA RESULT:      -9.5      0.000      0.000
REMARK  4 active torsions:
REMARK  status: ('A' for Active; 'I' for Inactive)
REMARK    1  A    between atoms: C_6  and  C_7 
REMARK    2  A    between atoms: C_7  and  C_8 
REMARK       I    between atoms: C_8  and  N_9 
REMARK    3  A    between atoms: N_9  and  C_10 
REMARK    4  A    between atoms: C_17  and  C_18 
REMARK       I    between atoms: C_18  and  N_19 
ROOT
HETATM    1  C   UNL     1     -10.040   2.225 -34.175  1.00  0.00     0.035 A 
HETATM    2  C   UNL     1     -11.268   1.583 -34.314  1.00  0.00     0.046 A 
HETATM    3  C   UNL     1     -12.356   1.953 -33.493  1.00  0.00     0.030 A 
HETATM    4  C   UNL     1     -12.191   2.987 -32.583  1.00  0.00     0.063 A 
HETATM    5  N   UNL     1     -13.396   3.111 -31.950  1.00  0.00    -0.277 N 
HETATM    6  H   UNL     1     -13.642   3.770 -31.220  1.00  0.00     0.189 HD
HETATM    7  N   UNL     1     -14.334   2.243 -32.369  1.00  0.00    -0.168 NA
HETATM    8  C   UNL     1     -13.704   1.519 -33.320  1.00  0.00     0.156 A 
HETATM    9  C   UNL     1     -10.992   3.684 -32.441  1.00  0.00     0.034 A 
HETATM   10  C   UNL     1      -9.925   3.281 -33.257  1.00  0.00     0.032 A 
ENDROOT
BRANCH   1  11
HETATM   11  N   UNL     1      -8.884   1.913 -34.906  1.00  0.00    -0.326 N 
HETATM   12  C   UNL     1      -7.915   0.943 -34.834  1.00  0.00     0.235 C 
HETATM   13  O   UNL     1      -7.050   0.943 -35.714  1.00  0.00    -0.272 OA
HETATM   14  H   UNL     1      -8.659   2.547 -35.665  1.00  0.00     0.169 HD
BRANCH  12  15
HETATM   15  C   UNL     1      -7.792  -0.058 -33.706  1.00  0.00     0.068 A 
HETATM   16  C   UNL     1      -8.915  -0.228 -32.683  1.00  0.00     0.026 A 
HETATM   17  C   UNL     1      -7.734   0.591 -32.303  1.00  0.00     0.026 A 
BRANCH  15  18
HETATM   18  C   UNL     1      -6.738  -1.165 -33.904  1.00  0.00    -0.039 A 
HETATM   19  C   UNL     1      -7.011  -2.381 -34.554  1.00  0.00     0.032 A 
HETATM   20  C   UNL     1      -6.025  -3.362 -34.702  1.00  0.00     0.034 A 
HETATM   21  C   UNL     1      -4.744  -3.164 -34.197  1.00  0.00     0.024 A 
HETATM   22 CL   UNL     1      -6.398  -4.834 -35.514  1.00  0.00    -0.084 Cl
HETATM   23  C   UNL     1      -4.446  -1.975 -33.541  1.00  0.00     0.002 A 
HETATM   24  C   UNL     1      -5.430  -0.994 -33.402  1.00  0.00     0.008 A 
ENDBRANCH  15  18
ENDBRANCH  12  15
ENDBRANCH   1  11
BRANCH   8  25
HETATM   25  C   UNL     1     -14.382   0.427 -34.030  1.00  0.00     0.270 C 
HETATM   26  N   UNL     1     -13.885  -0.816 -33.755  1.00  0.00    -0.365 N 
HETATM   27  H   UNL     1     -13.109  -0.899 -33.108  1.00  0.00     0.159 HD
HETATM   28  H   UNL     1     -14.288  -1.628 -34.199  1.00  0.00     0.159 HD
HETATM   29  O   UNL     1     -15.310   0.587 -34.816  1.00  0.00    -0.266 OA
ENDBRANCH   8  25
TORSDOF 4
ENDMDL
MODEL 2
REMARK VINA RESULT:      -9.3      3.001      4.361
REMARK  4 active torsions:
REMARK  status: ('A' for Active; 'I' for Inactive)
REMARK    1  A    between atoms: C_6  and  C_7 
REMARK    2  A    between atoms: C_7  and  C_8 
REMARK       I    between atoms: C_8  and  N_9 
REMARK    3  A    between atoms: N_9  and  C_10 
REMARK    4  A    between atoms: C_17  and  C_18 
REMARK       I    between atoms: C_18  and  N_19 
ROOT
HETATM    1  C   UNL     1      -8.320   1.177 -31.764  1.00  0.00     0.035 A 
HETATM    2  C   UNL     1      -8.426   2.424 -32.374  1.00  0.00     0.046 A 
HETATM    3  C   UNL     1      -9.374   2.631 -33.400  1.00  0.00     0.030 A 
HETATM    4  C   UNL     1     -10.218   1.588 -33.755  1.00  0.00     0.063 A 
HETATM    5  N   UNL     1     -11.010   2.084 -34.753  1.00  0.00    -0.277 N 
HETATM    6  H   UNL     1     -11.745   1.597 -35.254  1.00  0.00     0.189 HD
HETATM    7  N   UNL     1     -10.753   3.362 -35.081  1.00  0.00    -0.168 NA
HETATM    8  C   UNL     1      -9.741   3.711 -34.256  1.00  0.00     0.156 A 
HETATM    9  C   UNL     1     -10.174   0.337 -33.141  1.00  0.00     0.034 A 
HETATM   10  C   UNL     1      -9.209   0.158 -32.139  1.00  0.00     0.032 A 
ENDROOT
BRANCH   1  11
HETATM   11  N   UNL     1      -7.389   0.849 -30.766  1.00  0.00    -0.326 N 
HETATM   12  C   UNL     1      -6.025   0.697 -30.714  1.00  0.00     0.235 C 
HETATM   13  O   UNL     1      -5.526   0.457 -29.611  1.00  0.00    -0.272 OA
HETATM   14  H   UNL     1      -7.778   0.641 -29.853  1.00  0.00     0.169 HD
BRANCH  12  15
HETATM   15  C   UNL     1      -5.118   0.719 -31.924  1.00  0.00     0.068 A 
HETATM   16  C   UNL     1      -3.808   1.506 -31.907  1.00  0.00     0.026 A 
HETATM   17  C   UNL     1      -4.986   2.116 -32.576  1.00  0.00     0.026 A 
BRANCH  15  18
HETATM   18  C   UNL     1      -5.343  -0.408 -32.951  1.00  0.00    -0.039 A 
HETATM   19  C   UNL     1      -4.583  -1.591 -32.974  1.00  0.00     0.032 A 
HETATM   20  C   UNL     1      -4.816  -2.583 -33.932  1.00  0.00     0.034 A 
HETATM   21  C   UNL     1      -5.802  -2.421 -34.899  1.00  0.00     0.024 A 
HETATM   22 CL   UNL     1      -3.870  -4.022 -33.918  1.00  0.00    -0.084 Cl
HETATM   23  C   UNL     1      -6.564  -1.257 -34.907  1.00  0.00     0.002 A 
HETATM   24  C   UNL     1      -6.334  -0.271 -33.945  1.00  0.00     0.008 A 
ENDBRANCH  15  18
ENDBRANCH  12  15
ENDBRANCH   1  11
BRANCH   8  25
HETATM   25  C   UNL     1      -9.137   5.049 -34.303  1.00  0.00     0.270 C 
HETATM   26  N   UNL     1     -10.041   6.071 -34.394  1.00  0.00    -0.365 N 
HETATM   27  H   UNL     1     -11.029   5.846 -34.426  1.00  0.00     0.159 HD
HETATM   28  H   UNL     1      -9.717   7.025 -34.434  1.00  0.00     0.159 HD
HETATM   29  O   UNL     1      -7.929   5.262 -34.275  1.00  0.00    -0.266 OA
ENDBRANCH   8  25
TORSDOF 4
ENDMDL
MODEL 3
REMARK VINA RESULT:      -9.2      5.508      8.479
REMARK  4 active torsions:
REMARK  status: ('A' for Active; 'I' for Inactive)
REMARK    1  A    between atoms: C_6  and  C_7 
REMARK    2  A    between atoms: C_7  and  C_8 
REMARK       I    between atoms: C_8  and  N_9 
REMARK    3  A    between atoms: N_9  and  C_10 
REMARK    4  A    between atoms: C_17  and  C_18 
REMARK       I    between atoms: C_18  and  N_19 
ROOT
HETATM    1  C   UNL     1      -4.741   3.926 -32.122  1.00  0.00     0.035 A 
HETATM    2  C   UNL     1      -3.474   4.443 -31.861  1.00  0.00     0.046 A 
HETATM    3  C   UNL     1      -2.792   5.179 -32.856  1.00  0.00     0.030 A 
HETATM    4  C   UNL     1      -3.421   5.409 -34.071  1.00  0.00     0.063 A 
HETATM    5  N   UNL     1      -2.529   6.136 -34.810  1.00  0.00    -0.277 N 
HETATM    6  H   UNL     1      -2.653   6.483 -35.755  1.00  0.00     0.189 HD
HETATM    7  N   UNL     1      -1.371   6.398 -34.180  1.00  0.00    -0.168 NA
HETATM    8  C   UNL     1      -1.518   5.809 -32.973  1.00  0.00     0.156 A 
HETATM    9  C   UNL     1      -4.704   4.945 -34.358  1.00  0.00     0.034 A 
HETATM   10  C   UNL     1      -5.347   4.203 -33.357  1.00  0.00     0.032 A 
ENDROOT
BRANCH   1  11
HETATM   11  N   UNL     1      -5.490   3.150 -31.225  1.00  0.00    -0.326 N 
HETATM   12  C   UNL     1      -5.604   1.808 -30.954  1.00  0.00     0.235 C 
HETATM   13  O   UNL     1      -6.343   1.482 -30.022  1.00  0.00    -0.272 OA
HETATM   14  H   UNL     1      -6.135   3.660 -30.634  1.00  0.00     0.169 HD
BRANCH  12  15
HETATM   15  C   UNL     1      -4.956   0.714 -31.774  1.00  0.00     0.068 A 
HETATM   16  C   UNL     1      -3.797  -0.107 -31.209  1.00  0.00     0.026 A 
HETATM   17  C   UNL     1      -3.482   1.005 -32.143  1.00  0.00     0.026 A 
BRANCH  15  18
HETATM   18  C   UNL     1      -5.783   0.187 -32.963  1.00  0.00    -0.039 A 
HETATM   19  C   UNL     1      -5.923  -1.181 -33.257  1.00  0.00     0.032 A 
HETATM   20  C   UNL     1      -6.677  -1.613 -34.354  1.00  0.00     0.034 A 
HETATM   21  C   UNL     1      -7.302  -0.697 -35.192  1.00  0.00     0.024 A 
HETATM   22 CL   UNL     1      -6.831  -3.298 -34.673  1.00  0.00    -0.084 Cl
HETATM   23  C   UNL     1      -7.175   0.664 -34.932  1.00  0.00     0.002 A 
HETATM   24  C   UNL     1      -6.428   1.092 -33.832  1.00  0.00     0.008 A 
ENDBRANCH  15  18
ENDBRANCH  12  15
ENDBRANCH   1  11
BRANCH   8  25
HETATM   25  C   UNL     1      -0.449   5.842 -31.965  1.00  0.00     0.270 C 
HETATM   26  N   UNL     1      -0.052   7.101 -31.610  1.00  0.00    -0.365 N 
HETATM   27  H   UNL     1      -0.500   7.896 -32.050  1.00  0.00     0.159 HD
HETATM   28  H   UNL     1       0.679   7.222 -30.925  1.00  0.00     0.159 HD
HETATM   29  O   UNL     1       0.068   4.844 -31.476  1.00  0.00    -0.266 OA
ENDBRANCH   8  25
TORSDOF 4
ENDMDL
MODEL 4
REMARK VINA RESULT:      -8.8      4.351      6.915
REMARK  4 active torsions:
REMARK  status: ('A' for Active; 'I' for Inactive)
REMARK    1  A    between atoms: C_6  and  C_7 
REMARK    2  A    between atoms: C_7  and  C_8 
REMARK       I    between atoms: C_8  and  N_9 
REMARK    3  A    between atoms: N_9  and  C_10 
REMARK    4  A    between atoms: C_17  and  C_18 
REMARK       I    between atoms: C_18  and  N_19 
ROOT
HETATM    1  C   UNL     1      -5.817   2.200 -31.419  1.00  0.00     0.035 A 
HETATM    2  C   UNL     1      -5.822   3.590 -31.323  1.00  0.00     0.046 A 
HETATM    3  C   UNL     1      -4.603   4.296 -31.219  1.00  0.00     0.030 A 
HETATM    4  C   UNL     1      -3.411   3.586 -31.256  1.00  0.00     0.063 A 
HETATM    5  N   UNL     1      -2.425   4.526 -31.139  1.00  0.00    -0.277 N 
HETATM    6  H   UNL     1      -1.423   4.368 -31.126  1.00  0.00     0.189 HD
HETATM    7  N   UNL     1      -2.873   5.789 -31.027  1.00  0.00    -0.168 NA
HETATM    8  C   UNL     1      -4.217   5.660 -31.071  1.00  0.00     0.156 A 
HETATM    9  C   UNL     1      -3.360   2.200 -31.392  1.00  0.00     0.034 A 
HETATM   10  C   UNL     1      -4.587   1.527 -31.475  1.00  0.00     0.032 A 
ENDROOT
BRANCH   1  11
HETATM   11  N   UNL     1      -6.966   1.397 -31.487  1.00  0.00    -0.326 N 
HETATM   12  C   UNL     1      -7.494   0.524 -32.406  1.00  0.00     0.235 C 
HETATM   13  O   UNL     1      -8.529  -0.070 -32.089  1.00  0.00    -0.272 OA
HETATM   14  H   UNL     1      -7.600   1.469 -30.699  1.00  0.00     0.169 HD
BRANCH  12  15
HETATM   15  C   UNL     1      -6.943   0.314 -33.798  1.00  0.00     0.068 A 
HETATM   16  C   UNL     1      -6.758   1.492 -34.754  1.00  0.00     0.026 A 
HETATM   17  C   UNL     1      -7.957   0.630 -34.922  1.00  0.00     0.026 A 
BRANCH  15  18
HETATM   18  C   UNL     1      -6.182  -1.008 -34.026  1.00  0.00    -0.039 A 
HETATM   19  C   UNL     1      -6.770  -2.143 -34.610  1.00  0.00     0.032 A 
HETATM   20  C   UNL     1      -6.043  -3.325 -34.787  1.00  0.00     0.034 A 
HETATM   21  C   UNL     1      -4.716  -3.413 -34.381  1.00  0.00     0.024 A 
HETATM   22 CL   UNL     1      -6.799  -4.691 -35.516  1.00  0.00    -0.084 Cl
HETATM   23  C   UNL     1      -4.109  -2.308 -33.793  1.00  0.00     0.002 A 
HETATM   24  C   UNL     1      -4.835  -1.127 -33.623  1.00  0.00     0.008 A 
ENDBRANCH  15  18
ENDBRANCH  12  15
ENDBRANCH   1  11
BRANCH   8  25
HETATM   25  C   UNL     1      -5.106   6.826 -30.959  1.00  0.00     0.270 C 
HETATM   26  N   UNL     1      -5.816   7.101 -32.094  1.00  0.00    -0.365 N 
HETATM   27  H   UNL     1      -5.686   6.510 -32.906  1.00  0.00     0.159 HD
HETATM   28  H   UNL     1      -6.451   7.884 -32.110  1.00  0.00     0.159 HD
HETATM   29  O   UNL     1      -5.213   7.516 -29.951  1.00  0.00    -0.266 OA
ENDBRANCH   8  25
TORSDOF 4
ENDMDL
MODEL 5
REMARK VINA RESULT:      -8.6      4.917      7.823
REMARK  4 active torsions:
REMARK  status: ('A' for Active; 'I' for Inactive)
REMARK    1  A    between atoms: C_6  and  C_7 
REMARK    2  A    between atoms: C_7  and  C_8 
REMARK       I    between atoms: C_8  and  N_9 
REMARK    3  A    between atoms: N_9  and  C_10 
REMARK    4  A    between atoms: C_17  and  C_18 
REMARK       I    between atoms: C_18  and  N_19 
ROOT
HETATM    1  C   UNL     1      -6.781   0.490 -31.698  1.00  0.00     0.035 A 
HETATM    2  C   UNL     1      -5.604  -0.251 -31.609  1.00  0.00     0.046 A 
HETATM    3  C   UNL     1      -5.272  -1.175 -32.624  1.00  0.00     0.030 A 
HETATM    4  C   UNL     1      -6.113  -1.299 -33.721  1.00  0.00     0.063 A 
HETATM    5  N   UNL     1      -5.536  -2.249 -34.516  1.00  0.00    -0.277 N 
HETATM    6  H   UNL     1      -5.877  -2.597 -35.405  1.00  0.00     0.189 HD
HETATM    7  N   UNL     1      -4.389  -2.757 -34.030  1.00  0.00    -0.168 NA
HETATM    8  C   UNL     1      -4.217  -2.105 -32.859  1.00  0.00     0.156 A 
HETATM    9  C   UNL     1      -7.279  -0.548 -33.869  1.00  0.00     0.034 A 
HETATM   10  C   UNL     1      -7.590   0.347 -32.836  1.00  0.00     0.032 A 
ENDROOT
BRANCH   1  11
HETATM   11  N   UNL     1      -7.228   1.403 -30.731  1.00  0.00    -0.326 N 
HETATM   12  C   UNL     1      -7.431   2.761 -30.690  1.00  0.00     0.235 C 
HETATM   13  O   UNL     1      -7.908   3.229 -29.653  1.00  0.00    -0.272 OA
HETATM   14  H   UNL     1      -7.439   1.012 -29.820  1.00  0.00     0.169 HD
BRANCH  12  15
HETATM   15  C   UNL     1      -7.028   3.717 -31.791  1.00  0.00     0.068 A 
HETATM   16  C   UNL     1      -7.967   4.835 -32.241  1.00  0.00     0.026 A 
HETATM   17  C   UNL     1      -7.899   3.600 -33.065  1.00  0.00     0.026 A 
BRANCH  15  18
HETATM   18  C   UNL     1      -5.519   3.791 -32.097  1.00  0.00    -0.039 A 
HETATM   19  C   UNL     1      -4.996   4.401 -33.250  1.00  0.00     0.032 A 
HETATM   20  C   UNL     1      -3.618   4.436 -33.491  1.00  0.00     0.034 A 
HETATM   21  C   UNL     1      -2.725   3.855 -32.597  1.00  0.00     0.024 A 
HETATM   22 CL   UNL     1      -3.019   5.202 -34.911  1.00  0.00    -0.084 Cl
HETATM   23  C   UNL     1      -3.213   3.236 -31.451  1.00  0.00     0.002 A 
HETATM   24  C   UNL     1      -4.588   3.209 -31.209  1.00  0.00     0.008 A 
ENDBRANCH  15  18
ENDBRANCH  12  15
ENDBRANCH   1  11
BRANCH   8  25
HETATM   25  C   UNL     1      -3.070  -2.384 -31.985  1.00  0.00     0.270 C 
HETATM   26  N   UNL     1      -2.327  -1.283 -31.665  1.00  0.00    -0.365 N 
HETATM   27  H   UNL     1      -2.602  -0.383 -32.042  1.00  0.00     0.159 HD
HETATM   28  H   UNL     1      -1.518  -1.379 -31.070  1.00  0.00     0.159 HD
HETATM   29  O   UNL     1      -2.775  -3.500 -31.570  1.00  0.00    -0.266 OA
ENDBRANCH   8  25
TORSDOF 4
ENDMDL
MODEL 6
REMARK VINA RESULT:      -8.6      3.722      7.751
REMARK  4 active torsions:
REMARK  status: ('A' for Active; 'I' for Inactive)
REMARK    1  A    between atoms: C_6  and  C_7 
REMARK    2  A    between atoms: C_7  and  C_8 
REMARK       I    between atoms: C_8  and  N_9 
REMARK    3  A    between atoms: N_9  and  C_10 
REMARK    4  A    between atoms: C_17  and  C_18 
REMARK       I    between atoms: C_18  and  N_19 
ROOT
HETATM    1  C   UNL     1      -9.897   1.388 -33.900  1.00  0.00     0.035 A 
HETATM    2  C   UNL     1      -8.875   0.451 -34.037  1.00  0.00     0.046 A 
HETATM    3  C   UNL     1      -7.978   0.222 -32.971  1.00  0.00     0.030 A 
HETATM    4  C   UNL     1      -8.159   0.912 -31.781  1.00  0.00     0.063 A 
HETATM    5  N   UNL     1      -7.157   0.482 -30.955  1.00  0.00    -0.277 N 
HETATM    6  H   UNL     1      -6.979   0.775 -30.001  1.00  0.00     0.189 HD
HETATM    7  N   UNL     1      -6.336  -0.428 -31.507  1.00  0.00    -0.168 NA
HETATM    8  C   UNL     1      -6.829  -0.595 -32.754  1.00  0.00     0.156 A 
HETATM    9  C   UNL     1      -9.193   1.827 -31.586  1.00  0.00     0.034 A 
HETATM   10  C   UNL     1     -10.055   2.045 -32.670  1.00  0.00     0.032 A 
ENDROOT
BRANCH   1  11
HETATM   11  N   UNL     1     -10.816   1.724 -34.905  1.00  0.00    -0.326 N 
HETATM   12  C   UNL     1     -12.185   1.723 -35.016  1.00  0.00     0.235 C 
HETATM   13  O   UNL     1     -12.666   2.157 -36.066  1.00  0.00    -0.272 OA
HETATM   14  H   UNL     1     -10.415   2.019 -35.788  1.00  0.00     0.169 HD
BRANCH  12  15
HETATM   15  C   UNL     1     -13.125   1.148 -33.979  1.00  0.00     0.068 A 
HETATM   16  C   UNL     1     -12.932  -0.271 -33.448  1.00  0.00     0.026 A 
HETATM   17  C   UNL     1     -13.963  -0.046 -34.495  1.00  0.00     0.026 A 
BRANCH  15  18
HETATM   18  C   UNL     1     -13.960   2.175 -33.188  1.00  0.00    -0.039 A 
HETATM   19  C   UNL     1     -15.298   1.955 -32.817  1.00  0.00     0.032 A 
HETATM   20  C   UNL     1     -16.020   2.921 -32.107  1.00  0.00     0.034 A 
HETATM   21  C   UNL     1     -15.435   4.133 -31.757  1.00  0.00     0.024 A 
HETATM   22 CL   UNL     1     -17.654   2.608 -31.662  1.00  0.00    -0.084 Cl
HETATM   23  C   UNL     1     -14.115   4.382 -32.118  1.00  0.00     0.002 A 
HETATM   24  C   UNL     1     -13.394   3.414 -32.821  1.00  0.00     0.008 A 
ENDBRANCH  15  18
ENDBRANCH  12  15
ENDBRANCH   1  11
BRANCH   8  25
HETATM   25  C   UNL     1      -6.198  -1.510 -33.715  1.00  0.00     0.270 C 
HETATM   26  N   UNL     1      -4.845  -1.351 -33.835  1.00  0.00    -0.365 N 
HETATM   27  H   UNL     1      -4.387  -0.639 -33.279  1.00  0.00     0.159 HD
HETATM   28  H   UNL     1      -4.327  -1.935 -34.473  1.00  0.00     0.159 HD
HETATM   29  O   UNL     1      -6.807  -2.346 -34.374  1.00  0.00    -0.266 OA
ENDBRANCH   8  25
TORSDOF 4
ENDMDL
MODEL 7
REMARK VINA RESULT:      -8.5      2.707      3.651
REMARK  4 active torsions:
REMARK  status: ('A' for Active; 'I' for Inactive)
REMARK    1  A    between atoms: C_6  and  C_7 
REMARK    2  A    between atoms: C_7  and  C_8 
REMARK       I    between atoms: C_8  and  N_9 
REMARK    3  A    between atoms: N_9  and  C_10 
REMARK    4  A    between atoms: C_17  and  C_18 
REMARK       I    between atoms: C_18  and  N_19 
ROOT
HETATM    1  C   UNL     1      -9.192   1.632 -31.871  1.00  0.00     0.035 A 
HETATM    2  C   UNL     1      -9.951   2.668 -32.411  1.00  0.00     0.046 A 
HETATM    3  C   UNL     1     -11.014   2.380 -33.295  1.00  0.00     0.030 A 
HETATM    4  C   UNL     1     -11.310   1.054 -33.579  1.00  0.00     0.063 A 
HETATM    5  N   UNL     1     -12.368   1.095 -34.445  1.00  0.00    -0.277 N 
HETATM    6  H   UNL     1     -12.849   0.308 -34.865  1.00  0.00     0.189 HD
HETATM    7  N   UNL     1     -12.785   2.336 -34.751  1.00  0.00    -0.168 NA
HETATM    8  C   UNL     1     -11.955   3.139 -34.050  1.00  0.00     0.156 A 
HETATM    9  C   UNL     1     -10.603  -0.014 -33.028  1.00  0.00     0.034 A 
HETATM   10  C   UNL     1      -9.543   0.307 -32.168  1.00  0.00     0.032 A 
ENDROOT
BRANCH   1  11
HETATM   11  N   UNL     1      -8.093   1.805 -31.016  1.00  0.00    -0.326 N 
HETATM   12  C   UNL     1      -6.754   2.058 -31.187  1.00  0.00     0.235 C 
HETATM   13  O   UNL     1      -6.075   2.213 -30.168  1.00  0.00    -0.272 OA
HETATM   14  H   UNL     1      -8.284   1.699 -30.027  1.00  0.00     0.169 HD
BRANCH  12  15
HETATM   15  C   UNL     1      -6.052   2.072 -32.527  1.00  0.00     0.068 A 
HETATM   16  C   UNL     1      -5.016   3.145 -32.859  1.00  0.00     0.026 A 
HETATM   17  C   UNL     1      -6.394   3.307 -33.394  1.00  0.00     0.026 A 
BRANCH  15  18
HETATM   18  C   UNL     1      -6.091   0.749 -33.318  1.00  0.00    -0.039 A 
HETATM   19  C   UNL     1      -5.210  -0.319 -33.074  1.00  0.00     0.032 A 
HETATM   20  C   UNL     1      -5.275  -1.498 -33.825  1.00  0.00     0.034 A 
HETATM   21  C   UNL     1      -6.212  -1.642 -34.843  1.00  0.00     0.024 A 
HETATM   22 CL   UNL     1      -4.184  -2.786 -33.488  1.00  0.00    -0.084 Cl
HETATM   23  C   UNL     1      -7.092  -0.600 -35.112  1.00  0.00     0.002 A 
HETATM   24  C   UNL     1      -7.029   0.574 -34.357  1.00  0.00     0.008 A 
ENDBRANCH  15  18
ENDBRANCH  12  15
ENDBRANCH   1  11
BRANCH   8  25
HETATM   25  C   UNL     1     -12.060   4.603 -34.122  1.00  0.00     0.270 C 
HETATM   26  N   UNL     1     -11.213   5.183 -35.024  1.00  0.00    -0.365 N 
HETATM   27  H   UNL     1     -10.590   4.589 -35.560  1.00  0.00     0.159 HD
HETATM   28  H   UNL     1     -11.213   6.185 -35.141  1.00  0.00     0.159 HD
HETATM   29  O   UNL     1     -12.824   5.274 -33.436  1.00  0.00    -0.266 OA
ENDBRANCH   8  25
TORSDOF 4
ENDMDL
MODEL 8
REMARK VINA RESULT:      -8.5      2.110      2.936
REMARK  4 active torsions:
REMARK  status: ('A' for Active; 'I' for Inactive)
REMARK    1  A    between atoms: C_6  and  C_7 
REMARK    2  A    between atoms: C_7  and  C_8 
REMARK       I    between atoms: C_8  and  N_9 
REMARK    3  A    between atoms: N_9  and  C_10 
REMARK    4  A    between atoms: C_17  and  C_18 
REMARK       I    between atoms: C_18  and  N_19 
ROOT
HETATM    1  C   UNL     1     -10.318   2.635 -33.953  1.00  0.00     0.035 A 
HETATM    2  C   UNL     1     -11.036   3.205 -32.904  1.00  0.00     0.046 A 
HETATM    3  C   UNL     1     -12.439   3.058 -32.844  1.00  0.00     0.030 A 
HETATM    4  C   UNL     1     -13.077   2.307 -33.820  1.00  0.00     0.063 A 
HETATM    5  N   UNL     1     -14.406   2.345 -33.498  1.00  0.00    -0.277 N 
HETATM    6  H   UNL     1     -15.172   1.903 -33.994  1.00  0.00     0.189 HD
HETATM    7  N   UNL     1     -14.688   3.061 -32.395  1.00  0.00    -0.168 NA
HETATM    8  C   UNL     1     -13.482   3.510 -31.984  1.00  0.00     0.156 A 
HETATM    9  C   UNL     1     -12.394   1.684 -34.864  1.00  0.00     0.034 A 
HETATM   10  C   UNL     1     -11.004   1.864 -34.905  1.00  0.00     0.032 A 
ENDROOT
BRANCH   1  11
HETATM   11  N   UNL     1      -8.932   2.751 -34.133  1.00  0.00    -0.326 N 
HETATM   12  C   UNL     1      -7.839   1.978 -33.824  1.00  0.00     0.235 C 
HETATM   13  O   UNL     1      -6.737   2.383 -34.203  1.00  0.00    -0.272 OA
HETATM   14  H   UNL     1      -8.615   3.609 -34.567  1.00  0.00     0.169 HD
BRANCH  12  15
HETATM   15  C   UNL     1      -7.893   0.721 -32.984  1.00  0.00     0.068 A 
HETATM   16  C   UNL     1      -9.135   0.380 -32.162  1.00  0.00     0.026 A 
HETATM   17  C   UNL     1      -7.976   0.994 -31.463  1.00  0.00     0.026 A 
BRANCH  15  18
HETATM   18  C   UNL     1      -6.868  -0.372 -33.346  1.00  0.00    -0.039 A 
HETATM   19  C   UNL     1      -5.621  -0.499 -32.708  1.00  0.00     0.032 A 
HETATM   20  C   UNL     1      -4.718  -1.502 -33.077  1.00  0.00     0.034 A 
HETATM   21  C   UNL     1      -5.025  -2.397 -34.096  1.00  0.00     0.024 A 
HETATM   22 CL   UNL     1      -3.206  -1.630 -32.263  1.00  0.00    -0.084 Cl
HETATM   23  C   UNL     1      -6.248  -2.291 -34.751  1.00  0.00     0.002 A 
HETATM   24  C   UNL     1      -7.151  -1.293 -34.376  1.00  0.00     0.008 A 
ENDBRANCH  15  18
ENDBRANCH  12  15
ENDBRANCH   1  11
BRANCH   8  25
HETATM   25  C   UNL     1     -13.344   4.367 -30.797  1.00  0.00     0.270 C 
HETATM   26  N   UNL     1     -12.637   3.799 -29.775  1.00  0.00    -0.365 N 
HETATM   27  H   UNL     1     -12.273   2.861 -29.896  1.00  0.00     0.159 HD
HETATM   28  H   UNL     1     -12.493   4.312 -28.919  1.00  0.00     0.159 HD
HETATM   29  O   UNL     1     -13.821   5.493 -30.701  1.00  0.00    -0.266 OA
ENDBRANCH   8  25
TORSDOF 4
ENDMDL
MODEL 9
REMARK VINA RESULT:      -8.2      6.346      8.844
REMARK  4 active torsions:
REMARK  status: ('A' for Active; 'I' for Inactive)
REMARK    1  A    between atoms: C_6  and  C_7 
REMARK    2  A    between atoms: C_7  and  C_8 
REMARK       I    between atoms: C_8  and  N_9 
REMARK    3  A    between atoms: N_9  and  C_10 
REMARK    4  A    between atoms: C_17  and  C_18 
REMARK       I    between atoms: C_18  and  N_19 
ROOT
HETATM    1  C   UNL     1      -2.918   4.029 -31.738  1.00  0.00     0.035 A 
HETATM    2  C   UNL     1      -3.015   5.275 -31.123  1.00  0.00     0.046 A 
HETATM    3  C   UNL     1      -2.563   6.432 -31.794  1.00  0.00     0.030 A 
HETATM    4  C   UNL     1      -2.061   6.309 -33.082  1.00  0.00     0.063 A 
HETATM    5  N   UNL     1      -1.713   7.576 -33.461  1.00  0.00    -0.277 N 
HETATM    6  H   UNL     1      -1.311   7.865 -34.345  1.00  0.00     0.189 HD
HETATM    7  N   UNL     1      -1.943   8.516 -32.527  1.00  0.00    -0.168 NA
HETATM    8  C   UNL     1      -2.464   7.822 -31.491  1.00  0.00     0.156 A 
HETATM    9  C   UNL     1      -1.984   5.087 -33.750  1.00  0.00     0.034 A 
HETATM   10  C   UNL     1      -2.425   3.955 -33.050  1.00  0.00     0.032 A 
ENDROOT
BRANCH   1  11
HETATM   11  N   UNL     1      -3.299   2.813 -31.150  1.00  0.00    -0.326 N 
HETATM   12  C   UNL     1      -4.369   1.961 -31.275  1.00  0.00     0.235 C 
HETATM   13  O   UNL     1      -4.336   0.916 -30.619  1.00  0.00    -0.272 OA
HETATM   14  H   UNL     1      -2.675   2.455 -30.437  1.00  0.00     0.169 HD
BRANCH  12  15
HETATM   15  C   UNL     1      -5.608   2.261 -32.088  1.00  0.00     0.068 A 
HETATM   16  C   UNL     1      -6.170   3.680 -32.165  1.00  0.00     0.026 A 
HETATM   17  C   UNL     1      -6.815   2.718 -31.234  1.00  0.00     0.026 A 
BRANCH  15  18
HETATM   18  C   UNL     1      -5.984   1.210 -33.151  1.00  0.00    -0.039 A 
HETATM   19  C   UNL     1      -5.465  -0.097 -33.158  1.00  0.00     0.032 A 
HETATM   20  C   UNL     1      -5.827  -1.014 -34.150  1.00  0.00     0.034 A 
HETATM   21  C   UNL     1      -6.705  -0.654 -35.167  1.00  0.00     0.024 A 
HETATM   22 CL   UNL     1      -5.177  -2.608 -34.117  1.00  0.00    -0.084 Cl
HETATM   23  C   UNL     1      -7.228   0.634 -35.191  1.00  0.00     0.002 A 
HETATM   24  C   UNL     1      -6.871   1.546 -34.195  1.00  0.00     0.008 A 
ENDBRANCH  15  18
ENDBRANCH  12  15
ENDBRANCH   1  11
BRANCH   8  25
HETATM   25  C   UNL     1      -2.843   8.484 -30.235  1.00  0.00     0.270 C 
HETATM   26  N   UNL     1      -1.921   9.382 -29.773  1.00  0.00    -0.365 N 
HETATM   27  H   UNL     1      -1.069   9.522 -30.304  1.00  0.00     0.159 HD
HETATM   28  H   UNL     1      -2.095   9.883 -28.916  1.00  0.00     0.159 HD
HETATM   29  O   UNL     1      -3.884   8.264 -29.626  1.00  0.00    -0.266 OA
ENDBRANCH   8  25
TORSDOF 4
ENDMDL
MODEL 10
REMARK VINA RESULT:      -8.2      3.968      5.442
REMARK  4 active torsions:
REMARK  status: ('A' for Active; 'I' for Inactive)
REMARK    1  A    between atoms: C_6  and  C_7 
REMARK    2  A    between atoms: C_7  and  C_8 
REMARK       I    between atoms: C_8  and  N_9 
REMARK    3  A    between atoms: N_9  and  C_10 
REMARK    4  A    between atoms: C_17  and  C_18 
REMARK       I    between atoms: C_18  and  N_19 
ROOT
HETATM    1  C   UNL     1      -8.687   1.504 -31.860  1.00  0.00     0.035 A 
HETATM    2  C   UNL     1      -8.992   2.684 -32.536  1.00  0.00     0.046 A 
HETATM    3  C   UNL     1      -9.950   2.676 -33.574  1.00  0.00     0.030 A 
HETATM    4  C   UNL     1     -10.604   1.490 -33.876  1.00  0.00     0.063 A 
HETATM    5  N   UNL     1     -11.456   1.795 -34.901  1.00  0.00    -0.277 N 
HETATM    6  H   UNL     1     -12.094   1.167 -35.377  1.00  0.00     0.189 HD
HETATM    7  N   UNL     1     -11.411   3.080 -35.295  1.00  0.00    -0.168 NA
HETATM    8  C   UNL     1     -10.481   3.634 -34.486  1.00  0.00     0.156 A 
HETATM    9  C   UNL     1     -10.359   0.297 -33.197  1.00  0.00     0.034 A 
HETATM   10  C   UNL     1      -9.390   0.334 -32.184  1.00  0.00     0.032 A 
ENDROOT
BRANCH   1  11
HETATM   11  N   UNL     1      -7.726   1.389 -30.844  1.00  0.00    -0.326 N 
HETATM   12  C   UNL     1      -6.358   1.283 -30.800  1.00  0.00     0.235 C 
HETATM   13  O   UNL     1      -5.829   1.260 -29.686  1.00  0.00    -0.272 OA
HETATM   14  H   UNL     1      -8.090   1.341 -29.899  1.00  0.00     0.169 HD
BRANCH  12  15
HETATM   15  C   UNL     1      -5.477   1.105 -32.017  1.00  0.00     0.068 A 
HETATM   16  C   UNL     1      -5.523  -0.184 -32.837  1.00  0.00     0.026 A 
HETATM   17  C   UNL     1      -4.417  -0.011 -31.859  1.00  0.00     0.026 A 
BRANCH  15  18
HETATM   18  C   UNL     1      -4.904   2.401 -32.625  1.00  0.00    -0.039 A 
HETATM   19  C   UNL     1      -3.634   2.908 -32.297  1.00  0.00     0.032 A 
HETATM   20  C   UNL     1      -3.159   4.094 -32.867  1.00  0.00     0.034 A 
HETATM   21  C   UNL     1      -3.937   4.812 -33.769  1.00  0.00     0.024 A 
HETATM   22 CL   UNL     1      -1.594   4.677 -32.446  1.00  0.00    -0.084 Cl
HETATM   23  C   UNL     1      -5.201   4.339 -34.107  1.00  0.00     0.002 A 
HETATM   24  C   UNL     1      -5.670   3.151 -33.542  1.00  0.00     0.008 A 
ENDBRANCH  15  18
ENDBRANCH  12  15
ENDBRANCH   1  11
BRANCH   8  25
HETATM   25  C   UNL     1     -10.107   5.051 -34.602  1.00  0.00     0.270 C 
HETATM   26  N   UNL     1     -11.159   5.918 -34.505  1.00  0.00    -0.365 N 
HETATM   27  H   UNL     1     -12.091   5.543 -34.369  1.00  0.00     0.159 HD
HETATM   28  H   UNL     1     -10.998   6.911 -34.575  1.00  0.00     0.159 HD
HETATM   29  O   UNL     1      -8.961   5.449 -34.781  1.00  0.00    -0.266 OA
ENDBRANCH   8  25
TORSDOF 4
ENDMDL
