MODEL 1
REMARK VINA RESULT:      -8.7      0.000      0.000
REMARK  8 active torsions:
REMARK  status: ('A' for Active; 'I' for Inactive)
REMARK    1  A    between atoms: C_2  and  C_3 
REMARK    2  A    between atoms: C_3  and  N_4 
REMARK    3  A    between atoms: N_9  and  C_11 
REMARK    4  A    between atoms: C_11  and  C_12 
REMARK    5  A    between atoms: C_14  and  C_15 
REMARK    6  A    between atoms: C_15  and  C_16 
REMARK    7  A    between atoms: C_16  and  C_17 
REMARK    8  A    between atoms: C_17  and  O_18 
ROOT
HETATM    1  N   UNL     1      -5.760   0.393 -32.980  1.00  0.00    -0.066 N 
HETATM    2  H   UNL     1      -4.774   0.149 -33.130  1.00  0.00     0.280 HD
HETATM    3  C   UNL     1      -5.952   1.895 -33.013  1.00  0.00     0.246 C 
HETATM    4  C   UNL     1      -5.083   2.591 -31.949  1.00  0.00     0.009 C 
HETATM    5  C   UNL     1      -3.598   2.585 -32.340  1.00  0.00     0.246 C 
HETATM    6  N   UNL     1      -2.989   3.778 -31.640  1.00  0.00    -0.066 N 
HETATM    7  H   UNL     1      -2.560   3.461 -30.759  1.00  0.00     0.280 HD
HETATM    8  C   UNL     1      -4.113   4.728 -31.285  1.00  0.00     0.236 C 
HETATM    9  C   UNL     1      -5.350   4.107 -31.925  1.00  0.00     0.040 C 
HETATM   10  C   UNL     1      -5.350   1.961 -30.562  1.00  0.00     0.014 C 
HETATM   11  C   UNL     1      -5.289   0.430 -30.566  1.00  0.00     0.029 C 
HETATM   12  C   UNL     1      -6.168  -0.191 -31.647  1.00  0.00     0.235 C 
ENDROOT
BRANCH   1  13
HETATM   13  C   UNL     1      -6.474  -0.314 -34.136  1.00  0.00     0.273 C 
BRANCH  13  14
HETATM   14  C   UNL     1      -6.038  -1.754 -34.258  1.00  0.00    -0.032 A 
HETATM   15  C   UNL     1      -4.685  -2.109 -34.104  1.00  0.00     0.012 A 
HETATM   16  C   UNL     1      -4.276  -3.428 -34.307  1.00  0.00     0.043 A 
HETATM   17  C   UNL     1      -5.213  -4.396 -34.648  1.00  0.00     0.116 A 
HETATM   18  C   UNL     1      -6.557  -4.071 -34.778  1.00  0.00     0.043 A 
HETATM   19  F   UNL     1      -4.815  -5.655 -34.859  1.00  0.00    -0.206 F 
HETATM   20  C   UNL     1      -6.972  -2.752 -34.583  1.00  0.00     0.012 A 
ENDBRANCH  13  14
ENDBRANCH   1  13
BRANCH   6  21
HETATM   21  C   UNL     1      -1.853   4.442 -32.407  1.00  0.00     0.280 C 
BRANCH  21  22
HETATM   22  C   UNL     1      -1.293   5.620 -31.677  1.00  0.00     0.009 A 
HETATM   23  S   UNL     1      -0.312   5.380 -30.287  1.00  0.00    -0.084 SA
HETATM   24  C   UNL     1      -0.138   7.055 -30.027  1.00  0.00     0.058 A 
HETATM   25  C   UNL     1      -0.776   7.791 -31.000  1.00  0.00     0.029 A 
HETATM   26  C   UNL     1      -1.440   6.965 -31.956  1.00  0.00     0.018 A 
BRANCH  24  27
HETATM   27  C   UNL     1       0.579   7.602 -28.923  1.00  0.00    -0.057 C 
BRANCH  27  28
HETATM   28  C   UNL     1       1.156   8.085 -27.986  1.00  0.00    -0.075 C 
BRANCH  28  29
HETATM   29  C   UNL     1       1.869   8.703 -26.870  1.00  0.00     0.258 C 
BRANCH  29  30
HETATM   30  O   UNL     1       2.140   7.714 -25.888  1.00  0.00    -0.389 OA
HETATM   31  H   UNL     1       3.040   7.884 -25.562  1.00  0.00     0.210 HD
ENDBRANCH  29  30
ENDBRANCH  28  29
ENDBRANCH  27  28
ENDBRANCH  24  27
ENDBRANCH  21  22
ENDBRANCH   6  21
TORSDOF 8
ENDMDL
MODEL 2
REMARK VINA RESULT:      -8.5      4.941     10.363
REMARK  8 active torsions:
REMARK  status: ('A' for Active; 'I' for Inactive)
REMARK    1  A    between atoms: C_2  and  C_3 
REMARK    2  A    between atoms: C_3  and  N_4 
REMARK    3  A    between atoms: N_9  and  C_11 
REMARK    4  A    between atoms: C_11  and  C_12 
REMARK    5  A    between atoms: C_14  and  C_15 
REMARK    6  A    between atoms: C_15  and  C_16 
REMARK    7  A    between atoms: C_16  and  C_17 
REMARK    8  A    between atoms: C_17  and  O_18 
ROOT
HETATM    1  N   UNL     1      -1.616   6.399 -32.826  1.00  0.00    -0.066 N 
HETATM    2  H   UNL     1      -1.345   5.517 -32.376  1.00  0.00     0.280 HD
HETATM    3  C   UNL     1      -3.121   6.570 -32.808  1.00  0.00     0.246 C 
HETATM    4  C   UNL     1      -3.822   5.395 -33.516  1.00  0.00     0.009 C 
HETATM    5  C   UNL     1      -3.770   4.115 -32.669  1.00  0.00     0.246 C 
HETATM    6  N   UNL     1      -4.966   3.296 -33.099  1.00  0.00    -0.066 N 
HETATM    7  H   UNL     1      -4.662   2.611 -33.806  1.00  0.00     0.280 HD
HETATM    8  C   UNL     1      -5.952   4.233 -33.765  1.00  0.00     0.236 C 
HETATM    9  C   UNL     1      -5.344   5.618 -33.575  1.00  0.00     0.040 C 
HETATM   10  C   UNL     1      -3.234   5.213 -34.933  1.00  0.00     0.014 C 
HETATM   11  C   UNL     1      -1.703   5.178 -34.959  1.00  0.00     0.029 C 
HETATM   12  C   UNL     1      -1.076   6.366 -34.236  1.00  0.00     0.235 C 
ENDROOT
BRANCH   1  13
HETATM   13  C   UNL     1      -0.897   7.456 -31.982  1.00  0.00     0.273 C 
BRANCH  13  14
HETATM   14  C   UNL     1      -0.701   6.991 -30.560  1.00  0.00    -0.032 A 
HETATM   15  C   UNL     1      -1.462   7.544 -29.514  1.00  0.00     0.012 A 
HETATM   16  C   UNL     1      -1.214   7.175 -28.190  1.00  0.00     0.043 A 
HETATM   17  C   UNL     1      -0.220   6.245 -27.910  1.00  0.00     0.116 A 
HETATM   18  C   UNL     1       0.523   5.667 -28.930  1.00  0.00     0.043 A 
HETATM   19  F   UNL     1       0.027   5.907 -26.640  1.00  0.00    -0.206 F 
HETATM   20  C   UNL     1       0.284   6.036 -30.256  1.00  0.00     0.012 A 
ENDBRANCH  13  14
ENDBRANCH   1  13
BRANCH   6  21
HETATM   21  C   UNL     1      -5.583   2.456 -31.988  1.00  0.00     0.280 C 
BRANCH  21  22
HETATM   22  C   UNL     1      -6.276   1.242 -32.518  1.00  0.00     0.009 A 
HETATM   23  S   UNL     1      -5.354  -0.063 -33.149  1.00  0.00    -0.084 SA
HETATM   24  C   UNL     1      -6.750  -0.949 -33.562  1.00  0.00     0.058 A 
HETATM   25  C   UNL     1      -7.901  -0.290 -33.191  1.00  0.00     0.029 A 
HETATM   26  C   UNL     1      -7.629   0.974 -32.583  1.00  0.00     0.018 A 
BRANCH  24  27
HETATM   27  C   UNL     1      -6.704  -2.213 -34.220  1.00  0.00    -0.057 C 
BRANCH  27  28
HETATM   28  C   UNL     1      -6.685  -3.292 -34.748  1.00  0.00    -0.075 C 
BRANCH  28  29
HETATM   29  C   UNL     1      -6.646  -4.589 -35.421  1.00  0.00     0.258 C 
BRANCH  29  30
HETATM   30  O   UNL     1      -5.564  -5.348 -34.904  1.00  0.00    -0.389 OA
HETATM   31  H   UNL     1      -4.775  -5.091 -35.411  1.00  0.00     0.210 HD
ENDBRANCH  29  30
ENDBRANCH  28  29
ENDBRANCH  27  28
ENDBRANCH  24  27
ENDBRANCH  21  22
ENDBRANCH   6  21
TORSDOF 8
ENDMDL
MODEL 3
REMARK VINA RESULT:      -7.9      5.110     10.818
REMARK  8 active torsions:
REMARK  status: ('A' for Active; 'I' for Inactive)
REMARK    1  A    between atoms: C_2  and  C_3 
REMARK    2  A    between atoms: C_3  and  N_4 
REMARK    3  A    between atoms: N_9  and  C_11 
REMARK    4  A    between atoms: C_11  and  C_12 
REMARK    5  A    between atoms: C_14  and  C_15 
REMARK    6  A    between atoms: C_15  and  C_16 
REMARK    7  A    between atoms: C_16  and  C_17 
REMARK    8  A    between atoms: C_17  and  O_18 
ROOT
HETATM    1  N   UNL     1      -2.544   6.224 -30.278  1.00  0.00    -0.066 N 
HETATM    2  H   UNL     1      -2.596   5.450 -29.605  1.00  0.00     0.280 HD
HETATM    3  C   UNL     1      -3.746   6.216 -31.199  1.00  0.00     0.246 C 
HETATM    4  C   UNL     1      -3.855   4.880 -31.959  1.00  0.00     0.009 C 
HETATM    5  C   UNL     1      -4.319   3.742 -31.037  1.00  0.00     0.246 C 
HETATM    6  N   UNL     1      -4.992   2.736 -31.942  1.00  0.00    -0.066 N 
HETATM    7  H   UNL     1      -4.311   2.003 -32.187  1.00  0.00     0.280 HD
HETATM    8  C   UNL     1      -5.373   3.449 -33.222  1.00  0.00     0.236 C 
HETATM    9  C   UNL     1      -5.024   4.910 -32.960  1.00  0.00     0.040 C 
HETATM   10  C   UNL     1      -2.520   4.577 -32.677  1.00  0.00     0.014 C 
HETATM   11  C   UNL     1      -1.294   4.722 -31.770  1.00  0.00     0.029 C 
HETATM   12  C   UNL     1      -1.253   6.064 -31.046  1.00  0.00     0.235 C 
ENDROOT
BRANCH   1  13
HETATM   13  C   UNL     1      -2.504   7.464 -29.379  1.00  0.00     0.273 C 
BRANCH  13  14
HETATM   14  C   UNL     1      -1.266   7.483 -28.516  1.00  0.00    -0.032 A 
HETATM   15  C   UNL     1      -0.154   8.268 -28.874  1.00  0.00     0.012 A 
HETATM   16  C   UNL     1       1.020   8.212 -28.121  1.00  0.00     0.043 A 
HETATM   17  C   UNL     1       1.082   7.388 -27.003  1.00  0.00     0.116 A 
HETATM   18  C   UNL     1      -0.013   6.627 -26.617  1.00  0.00     0.043 A 
HETATM   19  F   UNL     1       2.214   7.323 -26.294  1.00  0.00    -0.206 F 
HETATM   20  C   UNL     1      -1.189   6.674 -27.370  1.00  0.00     0.012 A 
ENDBRANCH  13  14
ENDBRANCH   1  13
BRANCH   6  21
HETATM   21  C   UNL     1      -6.151   1.988 -31.296  1.00  0.00     0.280 C 
BRANCH  21  22
HETATM   22  C   UNL     1      -6.690   0.911 -32.182  1.00  0.00     0.009 A 
HETATM   23  S   UNL     1      -5.740  -0.482 -32.511  1.00  0.00    -0.084 SA
HETATM   24  C   UNL     1      -6.925  -1.139 -33.544  1.00  0.00     0.058 A 
HETATM   25  C   UNL     1      -8.045  -0.341 -33.608  1.00  0.00     0.029 A 
HETATM   26  C   UNL     1      -7.913   0.842 -32.819  1.00  0.00     0.018 A 
BRANCH  24  27
HETATM   27  C   UNL     1      -6.750  -2.365 -34.250  1.00  0.00    -0.057 C 
BRANCH  27  28
HETATM   28  C   UNL     1      -6.590  -3.413 -34.815  1.00  0.00    -0.075 C 
BRANCH  28  29
HETATM   29  C   UNL     1      -6.421  -4.678 -35.529  1.00  0.00     0.258 C 
BRANCH  29  30
HETATM   30  O   UNL     1      -5.405  -5.438 -34.892  1.00  0.00    -0.389 OA
HETATM   31  H   UNL     1      -5.482  -6.346 -35.232  1.00  0.00     0.210 HD
ENDBRANCH  29  30
ENDBRANCH  28  29
ENDBRANCH  27  28
ENDBRANCH  24  27
ENDBRANCH  21  22
ENDBRANCH   6  21
TORSDOF 8
ENDMDL
MODEL 4
REMARK VINA RESULT:      -7.7      6.290      9.213
REMARK  8 active torsions:
REMARK  status: ('A' for Active; 'I' for Inactive)
REMARK    1  A    between atoms: C_2  and  C_3 
REMARK    2  A    between atoms: C_3  and  N_4 
REMARK    3  A    between atoms: N_9  and  C_11 
REMARK    4  A    between atoms: C_11  and  C_12 
REMARK    5  A    between atoms: C_14  and  C_15 
REMARK    6  A    between atoms: C_15  and  C_16 
REMARK    7  A    between atoms: C_16  and  C_17 
REMARK    8  A    between atoms: C_17  and  O_18 
ROOT
HETATM    1  N   UNL     1      -4.297  -0.131 -32.706  1.00  0.00    -0.066 N 
HETATM    2  H   UNL     1      -4.420   0.165 -33.681  1.00  0.00     0.280 HD
HETATM    3  C   UNL     1      -5.633  -0.208 -31.996  1.00  0.00     0.246 C 
HETATM    4  C   UNL     1      -6.361   1.148 -32.033  1.00  0.00     0.009 C 
HETATM    5  C   UNL     1      -6.912   1.456 -33.433  1.00  0.00     0.246 C 
HETATM    6  N   UNL     1      -8.085   2.383 -33.214  1.00  0.00    -0.066 N 
HETATM    7  H   UNL     1      -7.766   3.355 -33.336  1.00  0.00     0.280 HD
HETATM    8  C   UNL     1      -8.533   2.227 -31.776  1.00  0.00     0.236 C 
HETATM    9  C   UNL     1      -7.675   1.090 -31.233  1.00  0.00     0.040 C 
HETATM   10  C   UNL     1      -5.431   2.256 -31.488  1.00  0.00     0.014 C 
HETATM   11  C   UNL     1      -4.033   2.241 -32.114  1.00  0.00     0.029 C 
HETATM   12  C   UNL     1      -3.374   0.867 -32.048  1.00  0.00     0.235 C 
ENDROOT
BRANCH   1  13
HETATM   13  C   UNL     1      -3.626  -1.502 -32.840  1.00  0.00     0.273 C 
BRANCH  13  14
HETATM   14  C   UNL     1      -4.457  -2.447 -33.673  1.00  0.00    -0.032 A 
HETATM   15  C   UNL     1      -5.623  -1.998 -34.317  1.00  0.00     0.012 A 
HETATM   16  C   UNL     1      -6.436  -2.896 -35.011  1.00  0.00     0.043 A 
HETATM   17  C   UNL     1      -6.079  -4.238 -35.076  1.00  0.00     0.116 A 
HETATM   18  C   UNL     1      -4.918  -4.696 -34.470  1.00  0.00     0.043 A 
HETATM   19  F   UNL     1      -6.869  -5.099 -35.726  1.00  0.00    -0.206 F 
HETATM   20  C   UNL     1      -4.104  -3.804 -33.769  1.00  0.00     0.012 A 
ENDBRANCH  13  14
ENDBRANCH   1  13
BRANCH   6  21
HETATM   21  C   UNL     1      -9.214   2.216 -34.223  1.00  0.00     0.280 C 
BRANCH  21  22
HETATM   22  C   UNL     1     -10.514   2.741 -33.704  1.00  0.00     0.009 A 
HETATM   23  S   UNL     1     -11.859   1.685 -33.536  1.00  0.00    -0.084 SA
HETATM   24  C   UNL     1     -12.875   2.941 -32.994  1.00  0.00     0.058 A 
HETATM   25  C   UNL     1     -12.199   4.137 -32.898  1.00  0.00     0.029 A 
HETATM   26  C   UNL     1     -10.835   4.023 -33.303  1.00  0.00     0.018 A 
BRANCH  24  27
HETATM   27  C   UNL     1     -14.255   2.751 -32.692  1.00  0.00    -0.057 C 
BRANCH  27  28
HETATM   28  C   UNL     1     -15.418   2.623 -32.420  1.00  0.00    -0.075 C 
BRANCH  28  29
HETATM   29  C   UNL     1     -16.842   2.497 -32.113  1.00  0.00     0.258 C 
BRANCH  29  30
HETATM   30  O   UNL     1     -17.561   2.302 -33.321  1.00  0.00    -0.389 OA
HETATM   31  H   UNL     1     -17.413   3.094 -33.865  1.00  0.00     0.210 HD
ENDBRANCH  29  30
ENDBRANCH  28  29
ENDBRANCH  27  28
ENDBRANCH  24  27
ENDBRANCH  21  22
ENDBRANCH   6  21
TORSDOF 8
ENDMDL
MODEL 5
REMARK VINA RESULT:      -7.6      5.149      8.427
REMARK  8 active torsions:
REMARK  status: ('A' for Active; 'I' for Inactive)
REMARK    1  A    between atoms: C_2  and  C_3 
REMARK    2  A    between atoms: C_3  and  N_4 
REMARK    3  A    between atoms: N_9  and  C_11 
REMARK    4  A    between atoms: C_11  and  C_12 
REMARK    5  A    between atoms: C_14  and  C_15 
REMARK    6  A    between atoms: C_15  and  C_16 
REMARK    7  A    between atoms: C_16  and  C_17 
REMARK    8  A    between atoms: C_17  and  O_18 
ROOT
HETATM    1  N   UNL     1      -4.499   3.403 -31.433  1.00  0.00    -0.066 N 
HETATM    2  H   UNL     1      -4.760   3.270 -32.417  1.00  0.00     0.280 HD
HETATM    3  C   UNL     1      -5.595   2.905 -30.515  1.00  0.00     0.246 C 
HETATM    4  C   UNL     1      -6.926   3.629 -30.794  1.00  0.00     0.009 C 
HETATM    5  C   UNL     1      -7.559   3.158 -32.112  1.00  0.00     0.246 C 
HETATM    6  N   UNL     1      -9.043   3.397 -31.957  1.00  0.00    -0.066 N 
HETATM    7  H   UNL     1      -9.280   4.302 -32.390  1.00  0.00     0.280 HD
HETATM    8  C   UNL     1      -9.341   3.507 -30.477  1.00  0.00     0.236 C 
HETATM    9  C   UNL     1      -8.013   3.186 -29.799  1.00  0.00     0.040 C 
HETATM   10  C   UNL     1      -6.711   5.159 -30.734  1.00  0.00     0.014 C 
HETATM   11  C   UNL     1      -5.513   5.639 -31.558  1.00  0.00     0.029 C 
HETATM   12  C   UNL     1      -4.232   4.877 -31.235  1.00  0.00     0.235 C 
ENDROOT
BRANCH   1  13
HETATM   13  C   UNL     1      -3.210   2.585 -31.303  1.00  0.00     0.273 C 
BRANCH  13  14
HETATM   14  C   UNL     1      -3.407   1.162 -31.764  1.00  0.00    -0.032 A 
HETATM   15  C   UNL     1      -2.819   0.093 -31.063  1.00  0.00     0.012 A 
HETATM   16  C   UNL     1      -2.931  -1.213 -31.545  1.00  0.00     0.043 A 
HETATM   17  C   UNL     1      -3.641  -1.456 -32.715  1.00  0.00     0.116 A 
HETATM   18  C   UNL     1      -4.252  -0.419 -33.406  1.00  0.00     0.043 A 
HETATM   19  F   UNL     1      -3.731  -2.705 -33.183  1.00  0.00    -0.206 F 
HETATM   20  C   UNL     1      -4.138   0.890 -32.933  1.00  0.00     0.012 A 
ENDBRANCH  13  14
ENDBRANCH   1  13
BRANCH   6  21
HETATM   21  C   UNL     1      -9.920   2.381 -32.678  1.00  0.00     0.280 C 
BRANCH  21  22
HETATM   22  C   UNL     1      -9.115   1.422 -33.494  1.00  0.00     0.009 A 
HETATM   23  S   UNL     1      -8.849  -0.176 -32.922  1.00  0.00    -0.084 SA
HETATM   24  C   UNL     1      -7.887  -0.579 -34.270  1.00  0.00     0.058 A 
HETATM   25  C   UNL     1      -7.800   0.463 -35.165  1.00  0.00     0.029 A 
HETATM   26  C   UNL     1      -8.513   1.618 -34.721  1.00  0.00     0.018 A 
BRANCH  24  27
HETATM   27  C   UNL     1      -7.252  -1.847 -34.422  1.00  0.00    -0.057 C 
BRANCH  27  28
HETATM   28  C   UNL     1      -6.742  -2.923 -34.577  1.00  0.00    -0.075 C 
BRANCH  28  29
HETATM   29  C   UNL     1      -6.111  -4.234 -34.727  1.00  0.00     0.258 C 
BRANCH  29  30
HETATM   30  O   UNL     1      -6.946  -5.062 -35.523  1.00  0.00    -0.389 OA
HETATM   31  H   UNL     1      -6.356  -5.641 -36.036  1.00  0.00     0.210 HD
ENDBRANCH  29  30
ENDBRANCH  28  29
ENDBRANCH  27  28
ENDBRANCH  24  27
ENDBRANCH  21  22
ENDBRANCH   6  21
TORSDOF 8
ENDMDL
MODEL 6
REMARK VINA RESULT:      -7.4      2.461      3.114
REMARK  8 active torsions:
REMARK  status: ('A' for Active; 'I' for Inactive)
REMARK    1  A    between atoms: C_2  and  C_3 
REMARK    2  A    between atoms: C_3  and  N_4 
REMARK    3  A    between atoms: N_9  and  C_11 
REMARK    4  A    between atoms: C_11  and  C_12 
REMARK    5  A    between atoms: C_14  and  C_15 
REMARK    6  A    between atoms: C_15  and  C_16 
REMARK    7  A    between atoms: C_16  and  C_17 
REMARK    8  A    between atoms: C_17  and  O_18 
ROOT
HETATM    1  N   UNL     1      -6.826   0.080 -33.865  1.00  0.00    -0.066 N 
HETATM    2  H   UNL     1      -5.872   0.459 -33.860  1.00  0.00     0.280 HD
HETATM    3  C   UNL     1      -7.845   1.193 -33.995  1.00  0.00     0.246 C 
HETATM    4  C   UNL     1      -7.703   2.213 -32.850  1.00  0.00     0.009 C 
HETATM    5  C   UNL     1      -6.451   3.086 -33.023  1.00  0.00     0.246 C 
HETATM    6  N   UNL     1      -6.753   4.378 -32.299  1.00  0.00    -0.066 N 
HETATM    7  H   UNL     1      -6.352   4.328 -31.351  1.00  0.00     0.280 HD
HETATM    8  C   UNL     1      -8.257   4.484 -32.153  1.00  0.00     0.236 C 
HETATM    9  C   UNL     1      -8.798   3.292 -32.934  1.00  0.00     0.040 C 
HETATM   10  C   UNL     1      -7.752   1.482 -31.489  1.00  0.00     0.014 C 
HETATM   11  C   UNL     1      -6.816   0.272 -31.413  1.00  0.00     0.029 C 
HETATM   12  C   UNL     1      -7.007  -0.693 -32.579  1.00  0.00     0.235 C 
ENDROOT
BRANCH   1  13
HETATM   13  C   UNL     1      -6.824  -0.856 -35.078  1.00  0.00     0.273 C 
BRANCH  13  14
HETATM   14  C   UNL     1      -6.072  -2.132 -34.791  1.00  0.00    -0.032 A 
HETATM   15  C   UNL     1      -6.692  -3.383 -34.960  1.00  0.00     0.012 A 
HETATM   16  C   UNL     1      -6.022  -4.556 -34.608  1.00  0.00     0.043 A 
HETATM   17  C   UNL     1      -4.729  -4.485 -34.102  1.00  0.00     0.116 A 
HETATM   18  C   UNL     1      -4.089  -3.262 -33.954  1.00  0.00     0.043 A 
HETATM   19  F   UNL     1      -4.096  -5.609 -33.749  1.00  0.00    -0.206 F 
HETATM   20  C   UNL     1      -4.756  -2.085 -34.299  1.00  0.00     0.012 A 
ENDBRANCH  13  14
ENDBRANCH   1  13
BRANCH   6  21
HETATM   21  C   UNL     1      -6.116   5.612 -32.925  1.00  0.00     0.280 C 
BRANCH  21  22
HETATM   22  C   UNL     1      -4.812   5.959 -32.283  1.00  0.00     0.009 A 
HETATM   23  S   UNL     1      -3.585   4.765 -32.134  1.00  0.00    -0.084 SA
HETATM   24  C   UNL     1      -2.537   5.834 -31.320  1.00  0.00     0.058 A 
HETATM   25  C   UNL     1      -3.085   7.091 -31.198  1.00  0.00     0.029 A 
HETATM   26  C   UNL     1      -4.397   7.167 -31.757  1.00  0.00     0.018 A 
BRANCH  24  27
HETATM   27  C   UNL     1      -1.256   5.446 -30.828  1.00  0.00    -0.057 C 
BRANCH  27  28
HETATM   28  C   UNL     1      -0.170   5.154 -30.407  1.00  0.00    -0.075 C 
BRANCH  28  29
HETATM   29  C   UNL     1       1.166   4.832 -29.908  1.00  0.00     0.258 C 
BRANCH  29  30
HETATM   30  O   UNL     1       1.842   4.038 -30.871  1.00  0.00    -0.389 OA
HETATM   31  H   UNL     1       2.613   3.651 -30.422  1.00  0.00     0.210 HD
ENDBRANCH  29  30
ENDBRANCH  28  29
ENDBRANCH  27  28
ENDBRANCH  24  27
ENDBRANCH  21  22
ENDBRANCH   6  21
TORSDOF 8
ENDMDL
MODEL 7
REMARK VINA RESULT:      -7.3      5.406     10.933
REMARK  8 active torsions:
REMARK  status: ('A' for Active; 'I' for Inactive)
REMARK    1  A    between atoms: C_2  and  C_3 
REMARK    2  A    between atoms: C_3  and  N_4 
REMARK    3  A    between atoms: N_9  and  C_11 
REMARK    4  A    between atoms: C_11  and  C_12 
REMARK    5  A    between atoms: C_14  and  C_15 
REMARK    6  A    between atoms: C_15  and  C_16 
REMARK    7  A    between atoms: C_16  and  C_17 
REMARK    8  A    between atoms: C_17  and  O_18 
ROOT
HETATM    1  N   UNL     1      -1.239   7.324 -29.835  1.00  0.00    -0.066 N 
HETATM    2  H   UNL     1      -1.685   6.657 -29.195  1.00  0.00     0.280 HD
HETATM    3  C   UNL     1      -1.832   7.215 -31.224  1.00  0.00     0.246 C 
HETATM    4  C   UNL     1      -1.682   5.788 -31.783  1.00  0.00     0.009 C 
HETATM    5  C   UNL     1      -2.641   4.807 -31.093  1.00  0.00     0.246 C 
HETATM    6  N   UNL     1      -2.879   3.699 -32.094  1.00  0.00    -0.066 N 
HETATM    7  H   UNL     1      -2.238   2.920 -31.884  1.00  0.00     0.280 HD
HETATM    8  C   UNL     1      -2.517   4.231 -33.464  1.00  0.00     0.236 C 
HETATM    9  C   UNL     1      -2.204   5.705 -33.229  1.00  0.00     0.040 C 
HETATM   10  C   UNL     1      -0.202   5.349 -31.704  1.00  0.00     0.014 C 
HETATM   11  C   UNL     1       0.433   5.590 -30.331  1.00  0.00     0.029 C 
HETATM   12  C   UNL     1       0.241   7.020 -29.837  1.00  0.00     0.235 C 
ENDROOT
BRANCH   1  13
HETATM   13  C   UNL     1      -1.525   8.679 -29.180  1.00  0.00     0.273 C 
BRANCH  13  14
HETATM   14  C   UNL     1      -1.900   8.524 -27.727  1.00  0.00    -0.032 A 
HETATM   15  C   UNL     1      -1.629   9.550 -26.803  1.00  0.00     0.012 A 
HETATM   16  C   UNL     1      -1.896   9.365 -25.445  1.00  0.00     0.043 A 
HETATM   17  C   UNL     1      -2.448   8.166 -25.010  1.00  0.00     0.116 A 
HETATM   18  C   UNL     1      -2.748   7.152 -25.909  1.00  0.00     0.043 A 
HETATM   19  F   UNL     1      -2.686   7.985 -23.706  1.00  0.00    -0.206 F 
HETATM   20  C   UNL     1      -2.477   7.328 -27.268  1.00  0.00     0.012 A 
ENDBRANCH  13  14
ENDBRANCH   1  13
BRANCH   6  21
HETATM   21  C   UNL     1      -4.271   3.084 -32.030  1.00  0.00     0.280 C 
BRANCH  21  22
HETATM   22  C   UNL     1      -4.261   1.632 -32.387  1.00  0.00     0.009 A 
HETATM   23  S   UNL     1      -5.530   0.976 -33.341  1.00  0.00    -0.084 SA
HETATM   24  C   UNL     1      -4.878  -0.597 -33.263  1.00  0.00     0.058 A 
HETATM   25  C   UNL     1      -3.693  -0.623 -32.561  1.00  0.00     0.029 A 
HETATM   26  C   UNL     1      -3.333   0.664 -32.058  1.00  0.00     0.018 A 
BRANCH  24  27
HETATM   27  C   UNL     1      -5.508  -1.731 -33.853  1.00  0.00    -0.057 C 
BRANCH  27  28
HETATM   28  C   UNL     1      -6.058  -2.665 -34.371  1.00  0.00    -0.075 C 
BRANCH  28  29
HETATM   29  C   UNL     1      -6.705  -3.796 -35.034  1.00  0.00     0.258 C 
BRANCH  29  30
HETATM   30  O   UNL     1      -5.923  -4.962 -34.831  1.00  0.00    -0.389 OA
HETATM   31  H   UNL     1      -6.399  -5.695 -35.258  1.00  0.00     0.210 HD
ENDBRANCH  29  30
ENDBRANCH  28  29
ENDBRANCH  27  28
ENDBRANCH  24  27
ENDBRANCH  21  22
ENDBRANCH   6  21
TORSDOF 8
ENDMDL
MODEL 8
REMARK VINA RESULT:      -7.3      5.811      8.876
REMARK  8 active torsions:
REMARK  status: ('A' for Active; 'I' for Inactive)
REMARK    1  A    between atoms: C_2  and  C_3 
REMARK    2  A    between atoms: C_3  and  N_4 
REMARK    3  A    between atoms: N_9  and  C_11 
REMARK    4  A    between atoms: C_11  and  C_12 
REMARK    5  A    between atoms: C_14  and  C_15 
REMARK    6  A    between atoms: C_15  and  C_16 
REMARK    7  A    between atoms: C_16  and  C_17 
REMARK    8  A    between atoms: C_17  and  O_18 
ROOT
HETATM    1  N   UNL     1      -4.230   0.263 -32.196  1.00  0.00    -0.066 N 
HETATM    2  H   UNL     1      -4.395   0.179 -33.205  1.00  0.00     0.280 HD
HETATM    3  C   UNL     1      -5.532   0.157 -31.429  1.00  0.00     0.246 C 
HETATM    4  C   UNL     1      -6.531   1.240 -31.877  1.00  0.00     0.009 C 
HETATM    5  C   UNL     1      -7.109   0.933 -33.268  1.00  0.00     0.246 C 
HETATM    6  N   UNL     1      -8.457   1.617 -33.307  1.00  0.00    -0.066 N 
HETATM    7  H   UNL     1      -8.349   2.534 -33.765  1.00  0.00     0.280 HD
HETATM    8  C   UNL     1      -8.888   1.868 -31.877  1.00  0.00     0.236 C 
HETATM    9  C   UNL     1      -7.818   1.186 -31.033  1.00  0.00     0.040 C 
HETATM   10  C   UNL     1      -5.869   2.633 -31.787  1.00  0.00     0.014 C 
HETATM   11  C   UNL     1      -4.488   2.696 -32.447  1.00  0.00     0.029 C 
HETATM   12  C   UNL     1      -3.553   1.593 -31.961  1.00  0.00     0.235 C 
ENDROOT
BRANCH   1  13
HETATM   13  C   UNL     1      -3.280  -0.902 -31.900  1.00  0.00     0.273 C 
BRANCH  13  14
HETATM   14  C   UNL     1      -3.686  -2.151 -32.643  1.00  0.00    -0.032 A 
HETATM   15  C   UNL     1      -3.223  -3.413 -32.231  1.00  0.00     0.012 A 
HETATM   16  C   UNL     1      -3.529  -4.554 -32.975  1.00  0.00     0.043 A 
HETATM   17  C   UNL     1      -4.308  -4.441 -34.120  1.00  0.00     0.116 A 
HETATM   18  C   UNL     1      -4.798  -3.208 -34.529  1.00  0.00     0.043 A 
HETATM   19  F   UNL     1      -4.584  -5.533 -34.840  1.00  0.00    -0.206 F 
HETATM   20  C   UNL     1      -4.490  -2.061 -33.793  1.00  0.00     0.012 A 
ENDBRANCH  13  14
ENDBRANCH   1  13
BRANCH   6  21
HETATM   21  C   UNL     1      -9.505   0.889 -34.138  1.00  0.00     0.280 C 
BRANCH  21  22
HETATM   22  C   UNL     1     -10.727   1.722 -34.358  1.00  0.00     0.009 A 
HETATM   23  S   UNL     1     -10.569   3.369 -34.822  1.00  0.00    -0.084 SA
HETATM   24  C   UNL     1     -12.256   3.611 -34.815  1.00  0.00     0.058 A 
HETATM   25  C   UNL     1     -12.936   2.454 -34.510  1.00  0.00     0.029 A 
HETATM   26  C   UNL     1     -12.055   1.360 -34.250  1.00  0.00     0.018 A 
BRANCH  24  27
HETATM   27  C   UNL     1     -12.862   4.872 -35.089  1.00  0.00    -0.057 C 
BRANCH  27  28
HETATM   28  C   UNL     1     -13.403   5.917 -35.329  1.00  0.00    -0.075 C 
BRANCH  28  29
HETATM   29  C   UNL     1     -14.051   7.202 -35.588  1.00  0.00     0.258 C 
BRANCH  29  30
HETATM   30  O   UNL     1     -13.461   7.797 -36.733  1.00  0.00    -0.389 OA
HETATM   31  H   UNL     1     -13.976   8.599 -36.928  1.00  0.00     0.210 HD
ENDBRANCH  29  30
ENDBRANCH  28  29
ENDBRANCH  27  28
ENDBRANCH  24  27
ENDBRANCH  21  22
ENDBRANCH   6  21
TORSDOF 8
ENDMDL
MODEL 9
REMARK VINA RESULT:      -7.3      3.082      4.444
REMARK  8 active torsions:
REMARK  status: ('A' for Active; 'I' for Inactive)
REMARK    1  A    between atoms: C_2  and  C_3 
REMARK    2  A    between atoms: C_3  and  N_4 
REMARK    3  A    between atoms: N_9  and  C_11 
REMARK    4  A    between atoms: C_11  and  C_12 
REMARK    5  A    between atoms: C_14  and  C_15 
REMARK    6  A    between atoms: C_15  and  C_16 
REMARK    7  A    between atoms: C_16  and  C_17 
REMARK    8  A    between atoms: C_17  and  O_18 
ROOT
HETATM    1  N   UNL     1      -7.394   0.543 -33.711  1.00  0.00    -0.066 N 
HETATM    2  H   UNL     1      -6.899   0.740 -32.833  1.00  0.00     0.280 HD
HETATM    3  C   UNL     1      -7.910   1.823 -34.335  1.00  0.00     0.246 C 
HETATM    4  C   UNL     1      -8.851   2.571 -33.372  1.00  0.00     0.009 C 
HETATM    5  C   UNL     1      -8.075   3.225 -32.219  1.00  0.00     0.246 C 
HETATM    6  N   UNL     1      -8.924   4.393 -31.770  1.00  0.00    -0.066 N 
HETATM    7  H   UNL     1      -9.493   4.097 -30.964  1.00  0.00     0.280 HD
HETATM    8  C   UNL     1      -9.873   4.734 -32.899  1.00  0.00     0.236 C 
HETATM    9  C   UNL     1      -9.444   3.823 -34.043  1.00  0.00     0.040 C 
HETATM   10  C   UNL     1      -9.970   1.620 -32.890  1.00  0.00     0.014 C 
HETATM   11  C   UNL     1      -9.448   0.270 -32.387  1.00  0.00     0.029 C 
HETATM   12  C   UNL     1      -8.519  -0.411 -33.387  1.00  0.00     0.235 C 
ENDROOT
BRANCH   1  13
HETATM   13  C   UNL     1      -6.322  -0.136 -34.569  1.00  0.00     0.273 C 
BRANCH  13  14
HETATM   14  C   UNL     1      -5.365  -0.942 -33.726  1.00  0.00    -0.032 A 
HETATM   15  C   UNL     1      -4.823  -0.404 -32.544  1.00  0.00     0.012 A 
HETATM   16  C   UNL     1      -3.870  -1.120 -31.816  1.00  0.00     0.043 A 
HETATM   17  C   UNL     1      -3.468  -2.376 -32.256  1.00  0.00     0.116 A 
HETATM   18  C   UNL     1      -4.011  -2.935 -33.404  1.00  0.00     0.043 A 
HETATM   19  F   UNL     1      -2.542  -3.050 -31.566  1.00  0.00    -0.206 F 
HETATM   20  C   UNL     1      -4.960  -2.222 -34.140  1.00  0.00     0.012 A 
ENDBRANCH  13  14
ENDBRANCH   1  13
BRANCH   6  21
HETATM   21  C   UNL     1      -8.128   5.589 -31.264  1.00  0.00     0.280 C 
BRANCH  21  22
HETATM   22  C   UNL     1      -6.715   5.572 -31.753  1.00  0.00     0.009 A 
HETATM   23  S   UNL     1      -5.427   5.317 -30.644  1.00  0.00    -0.084 SA
HETATM   24  C   UNL     1      -4.246   5.482 -31.861  1.00  0.00     0.058 A 
HETATM   25  C   UNL     1      -4.814   5.684 -33.099  1.00  0.00     0.029 A 
HETATM   26  C   UNL     1      -6.240   5.732 -33.040  1.00  0.00     0.018 A 
BRANCH  24  27
HETATM   27  C   UNL     1      -2.845   5.423 -31.600  1.00  0.00    -0.057 C 
BRANCH  27  28
HETATM   28  C   UNL     1      -1.672   5.344 -31.358  1.00  0.00    -0.075 C 
BRANCH  28  29
HETATM   29  C   UNL     1      -0.243   5.213 -31.079  1.00  0.00     0.258 C 
BRANCH  29  30
HETATM   30  O   UNL     1      -0.059   4.272 -30.032  1.00  0.00    -0.389 OA
HETATM   31  H   UNL     1      -0.902   3.796 -29.934  1.00  0.00     0.210 HD
ENDBRANCH  29  30
ENDBRANCH  28  29
ENDBRANCH  27  28
ENDBRANCH  24  27
ENDBRANCH  21  22
ENDBRANCH   6  21
TORSDOF 8
ENDMDL
MODEL 10
REMARK VINA RESULT:      -7.2      1.856      2.662
REMARK  8 active torsions:
REMARK  status: ('A' for Active; 'I' for Inactive)
REMARK    1  A    between atoms: C_2  and  C_3 
REMARK    2  A    between atoms: C_3  and  N_4 
REMARK    3  A    between atoms: N_9  and  C_11 
REMARK    4  A    between atoms: C_11  and  C_12 
REMARK    5  A    between atoms: C_14  and  C_15 
REMARK    6  A    between atoms: C_15  and  C_16 
REMARK    7  A    between atoms: C_16  and  C_17 
REMARK    8  A    between atoms: C_17  and  O_18 
ROOT
HETATM    1  N   UNL     1      -6.787   2.621 -31.515  1.00  0.00    -0.066 N 
HETATM    2  H   UNL     1      -5.915   2.215 -31.156  1.00  0.00     0.280 HD
HETATM    3  C   UNL     1      -6.499   3.828 -32.382  1.00  0.00     0.246 C 
HETATM    4  C   UNL     1      -5.716   4.900 -31.601  1.00  0.00     0.009 C 
HETATM    5  C   UNL     1      -4.256   4.481 -31.375  1.00  0.00     0.246 C 
HETATM    6  N   UNL     1      -3.481   5.771 -31.226  1.00  0.00    -0.066 N 
HETATM    7  H   UNL     1      -3.376   5.980 -30.223  1.00  0.00     0.280 HD
HETATM    8  C   UNL     1      -4.311   6.879 -31.839  1.00  0.00     0.236 C 
HETATM    9  C   UNL     1      -5.505   6.162 -32.458  1.00  0.00     0.040 C 
HETATM   10  C   UNL     1      -6.462   5.241 -30.290  1.00  0.00     0.014 C 
HETATM   11  C   UNL     1      -6.872   4.005 -29.484  1.00  0.00     0.029 C 
HETATM   12  C   UNL     1      -7.637   2.984 -30.320  1.00  0.00     0.235 C 
ENDROOT
BRANCH   1  13
HETATM   13  C   UNL     1      -7.409   1.466 -32.306  1.00  0.00     0.273 C 
BRANCH  13  14
HETATM   14  C   UNL     1      -6.432   0.330 -32.490  1.00  0.00    -0.032 A 
HETATM   15  C   UNL     1      -5.336   0.180 -31.621  1.00  0.00     0.012 A 
HETATM   16  C   UNL     1      -4.387  -0.818 -31.849  1.00  0.00     0.043 A 
HETATM   17  C   UNL     1      -4.536  -1.675 -32.933  1.00  0.00     0.116 A 
HETATM   18  C   UNL     1      -5.625  -1.560 -33.787  1.00  0.00     0.043 A 
HETATM   19  F   UNL     1      -3.616  -2.618 -33.160  1.00  0.00    -0.206 F 
HETATM   20  C   UNL     1      -6.575  -0.560 -33.567  1.00  0.00     0.012 A 
ENDBRANCH  13  14
ENDBRANCH   1  13
BRANCH   6  21
HETATM   21  C   UNL     1      -2.057   5.712 -31.763  1.00  0.00     0.280 C 
BRANCH  21  22
HETATM   22  C   UNL     1      -1.041   5.740 -30.666  1.00  0.00     0.009 A 
HETATM   23  S   UNL     1      -1.036   7.033 -29.535  1.00  0.00    -0.084 SA
HETATM   24  C   UNL     1       0.329   6.417 -28.722  1.00  0.00     0.058 A 
HETATM   25  C   UNL     1       0.753   5.226 -29.267  1.00  0.00     0.029 A 
HETATM   26  C   UNL     1      -0.039   4.831 -30.387  1.00  0.00     0.018 A 
BRANCH  24  27
HETATM   27  C   UNL     1       0.942   7.079 -27.618  1.00  0.00    -0.057 C 
BRANCH  27  28
HETATM   28  C   UNL     1       1.428   7.654 -26.682  1.00  0.00    -0.075 C 
BRANCH  28  29
HETATM   29  C   UNL     1       2.036   8.379 -25.567  1.00  0.00     0.258 C 
BRANCH  29  30
HETATM   30  O   UNL     1       1.064   9.230 -24.981  1.00  0.00    -0.389 OA
HETATM   31  H   UNL     1       1.040  10.040 -25.521  1.00  0.00     0.210 HD
ENDBRANCH  29  30
ENDBRANCH  28  29
ENDBRANCH  27  28
ENDBRANCH  24  27
ENDBRANCH  21  22
ENDBRANCH   6  21
TORSDOF 8
ENDMDL
