MODEL 1
REMARK VINA RESULT:      -8.7      0.000      0.000
REMARK  7 active torsions:
REMARK  status: ('A' for Active; 'I' for Inactive)
REMARK    1  A    between atoms: C_8  and  C_9 
REMARK    2  A    between atoms: C_9  and  N_10 
REMARK    3  A    between atoms: C_9  and  C_14 
REMARK       I    between atoms: C_14  and  N_15 
REMARK    4  A    between atoms: N_15  and  C_16 
REMARK    5  A    between atoms: C_16  and  C_17 
REMARK    6  A    between atoms: C_17  and  C_18 
REMARK    7  A    between atoms: C_20  and  C_21 
ROOT
HETATM    1  C   UNL     1     -10.634   2.166 -33.790  1.00  0.00     0.253 C 
HETATM    2  N   UNL     1      -9.780   1.367 -34.512  1.00  0.00    -0.359 N 
HETATM    3  O   UNL     1     -10.452   2.494 -32.616  1.00  0.00    -0.271 OA
HETATM    4  H   UNL     1      -9.871   1.317 -35.522  1.00  0.00     0.162 HD
ENDROOT
BRANCH   1   5
HETATM    5  C   UNL     1     -11.932   2.615 -34.494  1.00  0.00     0.311 C 
BRANCH   5   6
HETATM    6  C   UNL     1     -13.138   2.346 -33.661  1.00  0.00     0.031 A 
HETATM    7  C   UNL     1     -13.750   1.135 -33.358  1.00  0.00     0.035 A 
HETATM    8  C   UNL     1     -13.430  -0.276 -33.695  1.00  0.00     0.070 C 
HETATM    9  N   UNL     1     -14.823   1.443 -32.563  1.00  0.00    -0.282 N 
HETATM   10  H   UNL     1     -15.500   0.815 -32.136  1.00  0.00     0.189 HD
HETATM   11  N   UNL     1     -14.957   2.756 -32.351  1.00  0.00    -0.179 NA
HETATM   12  C   UNL     1     -13.938   3.318 -32.995  1.00  0.00     0.061 A 
HETATM   13  C   UNL     1     -13.770   4.797 -32.947  1.00  0.00     0.073 C 
ENDBRANCH   5   6
BRANCH   5  14
HETATM   14  N   UNL     1     -12.042   1.896 -35.807  1.00  0.00    -0.062 N 
HETATM   15  H   UNL     1     -11.152   1.451 -36.055  1.00  0.00     0.275 HD
HETATM   16  H   UNL     1     -12.713   1.125 -35.681  1.00  0.00     0.275 HD
HETATM   17  H   UNL     1     -12.364   2.508 -36.561  1.00  0.00     0.275 HD
ENDBRANCH   5  14
ENDBRANCH   1   5
BRANCH   2  18
HETATM   18  C   UNL     1      -8.487   0.947 -33.983  1.00  0.00     0.127 C 
BRANCH  18  19
HETATM   19  C   UNL     1      -7.511   0.522 -35.086  1.00  0.00     0.058 C 
BRANCH  19  20
HETATM   20  C   UNL     1      -6.516  -0.532 -34.653  1.00  0.00    -0.056 A 
HETATM   21  C   UNL     1      -6.753  -1.886 -34.934  1.00  0.00     0.023 A 
HETATM   22  C   UNL     1      -5.850  -2.881 -34.523  1.00  0.00     0.048 A 
HETATM   23  C   UNL     1      -4.695  -2.500 -33.826  1.00  0.00     0.016 A 
HETATM   24  C   UNL     1      -4.455  -1.158 -33.535  1.00  0.00     0.001 A 
HETATM   25  C   UNL     1      -5.362  -0.180 -33.942  1.00  0.00     0.007 A 
BRANCH  22  26
HETATM   26  C   UNL     1      -6.103  -4.340 -34.822  1.00  0.00     0.417 C 
HETATM   27  F   UNL     1      -5.158  -5.167 -34.292  1.00  0.00    -0.166 F 
HETATM   28  F   UNL     1      -7.291  -4.765 -34.310  1.00  0.00    -0.166 F 
HETATM   29  F   UNL     1      -6.141  -4.611 -36.153  1.00  0.00    -0.166 F 
ENDBRANCH  22  26
ENDBRANCH  19  20
ENDBRANCH  18  19
ENDBRANCH   2  18
TORSDOF 7
ENDMDL
MODEL 2
REMARK VINA RESULT:      -8.4      5.485      7.316
REMARK  7 active torsions:
REMARK  status: ('A' for Active; 'I' for Inactive)
REMARK    1  A    between atoms: C_8  and  C_9 
REMARK    2  A    between atoms: C_9  and  N_10 
REMARK    3  A    between atoms: C_9  and  C_14 
REMARK       I    between atoms: C_14  and  N_15 
REMARK    4  A    between atoms: N_15  and  C_16 
REMARK    5  A    between atoms: C_16  and  C_17 
REMARK    6  A    between atoms: C_17  and  C_18 
REMARK    7  A    between atoms: C_20  and  C_21 
ROOT
HETATM    1  C   UNL     1      -3.537   2.941 -31.430  1.00  0.00     0.253 C 
HETATM    2  N   UNL     1      -4.462   1.926 -31.465  1.00  0.00    -0.359 N 
HETATM    3  O   UNL     1      -2.348   2.788 -31.143  1.00  0.00    -0.271 OA
HETATM    4  H   UNL     1      -5.360   2.078 -31.916  1.00  0.00     0.162 HD
ENDROOT
BRANCH   1   5
HETATM    5  C   UNL     1      -4.058   4.369 -31.702  1.00  0.00     0.311 C 
BRANCH   5   6
HETATM    6  C   UNL     1      -3.832   4.784 -33.115  1.00  0.00     0.031 A 
HETATM    7  C   UNL     1      -2.667   5.231 -33.728  1.00  0.00     0.035 A 
HETATM    8  C   UNL     1      -1.274   5.417 -33.247  1.00  0.00     0.070 C 
HETATM    9  N   UNL     1      -3.001   5.484 -35.033  1.00  0.00    -0.282 N 
HETATM   10  H   UNL     1      -2.406   5.815 -35.790  1.00  0.00     0.189 HD
HETATM   11  N   UNL     1      -4.290   5.253 -35.298  1.00  0.00    -0.179 NA
HETATM   12  C   UNL     1      -4.807   4.814 -34.153  1.00  0.00     0.061 A 
HETATM   13  C   UNL     1      -6.245   4.436 -34.098  1.00  0.00     0.073 C 
ENDBRANCH   5   6
BRANCH   5  14
HETATM   14  N   UNL     1      -3.368   5.320 -30.769  1.00  0.00    -0.062 N 
HETATM   15  H   UNL     1      -2.487   5.654 -31.173  1.00  0.00     0.275 HD
HETATM   16  H   UNL     1      -3.967   6.153 -30.679  1.00  0.00     0.275 HD
HETATM   17  H   UNL     1      -3.211   4.913 -29.843  1.00  0.00     0.275 HD
ENDBRANCH   5  14
ENDBRANCH   1   5
BRANCH   2  18
HETATM   18  C   UNL     1      -4.077   0.528 -31.304  1.00  0.00     0.127 C 
BRANCH  18  19
HETATM   19  C   UNL     1      -3.677  -0.128 -32.630  1.00  0.00     0.058 C 
BRANCH  19  20
HETATM   20  C   UNL     1      -4.846  -0.654 -33.434  1.00  0.00    -0.056 A 
HETATM   21  C   UNL     1      -4.961  -2.026 -33.701  1.00  0.00     0.023 A 
HETATM   22  C   UNL     1      -6.028  -2.530 -34.463  1.00  0.00     0.048 A 
HETATM   23  C   UNL     1      -6.991  -1.637 -34.953  1.00  0.00     0.016 A 
HETATM   24  C   UNL     1      -6.882  -0.270 -34.699  1.00  0.00     0.001 A 
HETATM   25  C   UNL     1      -5.813   0.220 -33.948  1.00  0.00     0.007 A 
BRANCH  22  26
HETATM   26  C   UNL     1      -6.154  -4.007 -34.754  1.00  0.00     0.417 C 
HETATM   27  F   UNL     1      -7.349  -4.531 -34.362  1.00  0.00    -0.166 F 
HETATM   28  F   UNL     1      -6.056  -4.273 -36.086  1.00  0.00    -0.166 F 
HETATM   29  F   UNL     1      -5.195  -4.752 -34.145  1.00  0.00    -0.166 F 
ENDBRANCH  22  26
ENDBRANCH  19  20
ENDBRANCH  18  19
ENDBRANCH   2  18
TORSDOF 7
ENDMDL
MODEL 3
REMARK VINA RESULT:      -8.3      2.011      2.595
REMARK  7 active torsions:
REMARK  status: ('A' for Active; 'I' for Inactive)
REMARK    1  A    between atoms: C_8  and  C_9 
REMARK    2  A    between atoms: C_9  and  N_10 
REMARK    3  A    between atoms: C_9  and  C_14 
REMARK       I    between atoms: C_14  and  N_15 
REMARK    4  A    between atoms: N_15  and  C_16 
REMARK    5  A    between atoms: C_16  and  C_17 
REMARK    6  A    between atoms: C_17  and  C_18 
REMARK    7  A    between atoms: C_20  and  C_21 
ROOT
HETATM    1  C   UNL     1     -10.452   2.161 -33.990  1.00  0.00     0.253 C 
HETATM    2  N   UNL     1      -9.631   1.334 -34.718  1.00  0.00    -0.359 N 
HETATM    3  O   UNL     1     -10.203   2.561 -32.852  1.00  0.00    -0.271 OA
HETATM    4  H   UNL     1      -9.786   1.221 -35.716  1.00  0.00     0.162 HD
ENDROOT
BRANCH   1   5
HETATM    5  C   UNL     1     -11.802   2.545 -34.633  1.00  0.00     0.311 C 
BRANCH   5   6
HETATM    6  C   UNL     1     -12.950   2.272 -33.723  1.00  0.00     0.031 A 
HETATM    7  C   UNL     1     -13.514   1.056 -33.355  1.00  0.00     0.035 A 
HETATM    8  C   UNL     1     -13.182  -0.356 -33.677  1.00  0.00     0.070 C 
HETATM    9  N   UNL     1     -14.546   1.361 -32.505  1.00  0.00    -0.282 N 
HETATM   10  H   UNL     1     -15.182   0.730 -32.024  1.00  0.00     0.189 HD
HETATM   11  N   UNL     1     -14.697   2.675 -32.317  1.00  0.00    -0.179 NA
HETATM   12  C   UNL     1     -13.731   3.243 -33.034  1.00  0.00     0.061 A 
HETATM   13  C   UNL     1     -13.595   4.726 -33.032  1.00  0.00     0.073 C 
ENDBRANCH   5   6
BRANCH   5  14
HETATM   14  N   UNL     1     -11.963   1.777 -35.912  1.00  0.00    -0.062 N 
HETATM   15  H   UNL     1     -11.555   2.290 -36.700  1.00  0.00     0.275 HD
HETATM   16  H   UNL     1     -11.409   0.913 -35.825  1.00  0.00     0.275 HD
HETATM   17  H   UNL     1     -12.940   1.537 -36.102  1.00  0.00     0.275 HD
ENDBRANCH   5  14
ENDBRANCH   1   5
BRANCH   2  18
HETATM   18  C   UNL     1      -8.298   0.967 -34.251  1.00  0.00     0.127 C 
BRANCH  18  19
HETATM   19  C   UNL     1      -8.281  -0.378 -33.518  1.00  0.00     0.058 C 
BRANCH  19  20
HETATM   20  C   UNL     1      -6.991  -1.151 -33.681  1.00  0.00    -0.056 A 
HETATM   21  C   UNL     1      -5.881  -0.854 -32.876  1.00  0.00     0.023 A 
HETATM   22  C   UNL     1      -4.669  -1.547 -33.027  1.00  0.00     0.048 A 
HETATM   23  C   UNL     1      -4.581  -2.554 -33.998  1.00  0.00     0.016 A 
HETATM   24  C   UNL     1      -5.675  -2.851 -34.809  1.00  0.00     0.001 A 
HETATM   25  C   UNL     1      -6.872  -2.151 -34.655  1.00  0.00     0.007 A 
BRANCH  22  26
HETATM   26  C   UNL     1      -3.472  -1.228 -32.162  1.00  0.00     0.417 C 
HETATM   27  F   UNL     1      -2.587  -0.382 -32.761  1.00  0.00    -0.166 F 
HETATM   28  F   UNL     1      -3.833  -0.618 -30.999  1.00  0.00    -0.166 F 
HETATM   29  F   UNL     1      -2.762  -2.332 -31.810  1.00  0.00    -0.166 F 
ENDBRANCH  22  26
ENDBRANCH  19  20
ENDBRANCH  18  19
ENDBRANCH   2  18
TORSDOF 7
ENDMDL
MODEL 4
REMARK VINA RESULT:      -8.3      1.783      2.753
REMARK  7 active torsions:
REMARK  status: ('A' for Active; 'I' for Inactive)
REMARK    1  A    between atoms: C_8  and  C_9 
REMARK    2  A    between atoms: C_9  and  N_10 
REMARK    3  A    between atoms: C_9  and  C_14 
REMARK       I    between atoms: C_14  and  N_15 
REMARK    4  A    between atoms: N_15  and  C_16 
REMARK    5  A    between atoms: C_16  and  C_17 
REMARK    6  A    between atoms: C_17  and  C_18 
REMARK    7  A    between atoms: C_20  and  C_21 
ROOT
HETATM    1  C   UNL     1      -9.090   1.643 -33.355  1.00  0.00     0.253 C 
HETATM    2  N   UNL     1      -8.890   0.863 -34.468  1.00  0.00    -0.359 N 
HETATM    3  O   UNL     1      -8.186   2.148 -32.688  1.00  0.00    -0.271 OA
HETATM    4  H   UNL     1      -9.667   0.664 -35.091  1.00  0.00     0.162 HD
ENDROOT
BRANCH   1   5
HETATM    5  C   UNL     1     -10.550   1.829 -32.888  1.00  0.00     0.311 C 
BRANCH   5   6
HETATM    6  C   UNL     1     -11.471   2.094 -34.030  1.00  0.00     0.031 A 
HETATM    7  C   UNL     1     -11.451   3.130 -34.957  1.00  0.00     0.035 A 
HETATM    8  C   UNL     1     -10.536   4.279 -35.176  1.00  0.00     0.070 C 
HETATM    9  N   UNL     1     -12.518   2.910 -35.790  1.00  0.00    -0.282 N 
HETATM   10  H   UNL     1     -12.819   3.453 -36.595  1.00  0.00     0.189 HD
HETATM   11  N   UNL     1     -13.228   1.828 -35.456  1.00  0.00    -0.179 NA
HETATM   12  C   UNL     1     -12.601   1.312 -34.402  1.00  0.00     0.061 A 
HETATM   13  C   UNL     1     -13.124   0.065 -33.780  1.00  0.00     0.073 C 
ENDBRANCH   5   6
BRANCH   5  14
HETATM   14  N   UNL     1     -10.602   2.965 -31.909  1.00  0.00    -0.062 N 
HETATM   15  H   UNL     1      -9.909   2.837 -31.164  1.00  0.00     0.275 HD
HETATM   16  H   UNL     1     -10.318   3.818 -32.411  1.00  0.00     0.275 HD
HETATM   17  H   UNL     1     -11.538   3.098 -31.515  1.00  0.00     0.275 HD
ENDBRANCH   5  14
ENDBRANCH   1   5
BRANCH   2  18
HETATM   18  C   UNL     1      -7.565   0.681 -35.052  1.00  0.00     0.127 C 
BRANCH  18  19
HETATM   19  C   UNL     1      -7.209  -0.796 -35.252  1.00  0.00     0.058 C 
BRANCH  19  20
HETATM   20  C   UNL     1      -6.024  -1.259 -34.433  1.00  0.00    -0.056 A 
HETATM   21  C   UNL     1      -5.585  -2.589 -34.514  1.00  0.00     0.023 A 
HETATM   22  C   UNL     1      -4.499  -3.042 -33.746  1.00  0.00     0.048 A 
HETATM   23  C   UNL     1      -3.850  -2.140 -32.893  1.00  0.00     0.016 A 
HETATM   24  C   UNL     1      -4.285  -0.818 -32.799  1.00  0.00     0.001 A 
HETATM   25  C   UNL     1      -5.368  -0.381 -33.561  1.00  0.00     0.007 A 
BRANCH  22  26
HETATM   26  C   UNL     1      -4.024  -4.474 -33.829  1.00  0.00     0.417 C 
HETATM   27  F   UNL     1      -3.696  -5.002 -32.616  1.00  0.00    -0.166 F 
HETATM   28  F   UNL     1      -4.981  -5.298 -34.341  1.00  0.00    -0.166 F 
HETATM   29  F   UNL     1      -2.928  -4.625 -34.618  1.00  0.00    -0.166 F 
ENDBRANCH  22  26
ENDBRANCH  19  20
ENDBRANCH  18  19
ENDBRANCH   2  18
TORSDOF 7
ENDMDL
MODEL 5
REMARK VINA RESULT:      -8.2      3.733      5.929
REMARK  7 active torsions:
REMARK  status: ('A' for Active; 'I' for Inactive)
REMARK    1  A    between atoms: C_8  and  C_9 
REMARK    2  A    between atoms: C_9  and  N_10 
REMARK    3  A    between atoms: C_9  and  C_14 
REMARK       I    between atoms: C_14  and  N_15 
REMARK    4  A    between atoms: N_15  and  C_16 
REMARK    5  A    between atoms: C_16  and  C_17 
REMARK    6  A    between atoms: C_17  and  C_18 
REMARK    7  A    between atoms: C_20  and  C_21 
ROOT
HETATM    1  C   UNL     1      -7.405   1.473 -31.625  1.00  0.00     0.253 C 
HETATM    2  N   UNL     1      -7.849   1.865 -32.865  1.00  0.00    -0.359 N 
HETATM    3  O   UNL     1      -7.529   0.335 -31.171  1.00  0.00    -0.271 OA
HETATM    4  H   UNL     1      -7.525   2.743 -33.262  1.00  0.00     0.162 HD
ENDROOT
BRANCH   1   5
HETATM    5  C   UNL     1      -6.776   2.565 -30.733  1.00  0.00     0.311 C 
BRANCH   5   6
HETATM    6  C   UNL     1      -5.381   2.885 -31.145  1.00  0.00     0.031 A 
HETATM    7  C   UNL     1      -4.239   2.094 -31.085  1.00  0.00     0.035 A 
HETATM    8  C   UNL     1      -3.996   0.695 -30.650  1.00  0.00     0.070 C 
HETATM    9  N   UNL     1      -3.220   2.864 -31.583  1.00  0.00    -0.282 N 
HETATM   10  H   UNL     1      -2.240   2.621 -31.706  1.00  0.00     0.189 HD
HETATM   11  N   UNL     1      -3.616   4.090 -31.938  1.00  0.00    -0.179 NA
HETATM   12  C   UNL     1      -4.924   4.117 -31.695  1.00  0.00     0.061 A 
HETATM   13  C   UNL     1      -5.698   5.351 -32.002  1.00  0.00     0.073 C 
ENDBRANCH   5   6
BRANCH   5  14
HETATM   14  N   UNL     1      -6.798   2.095 -29.308  1.00  0.00    -0.062 N 
HETATM   15  H   UNL     1      -6.172   2.662 -28.727  1.00  0.00     0.275 HD
HETATM   16  H   UNL     1      -7.745   2.262 -28.943  1.00  0.00     0.275 HD
HETATM   17  H   UNL     1      -6.571   1.100 -29.222  1.00  0.00     0.275 HD
ENDBRANCH   5  14
ENDBRANCH   1   5
BRANCH   2  18
HETATM   18  C   UNL     1      -8.386   0.910 -33.828  1.00  0.00     0.127 C 
BRANCH  18  19
HETATM   19  C   UNL     1      -7.390   0.576 -34.944  1.00  0.00     0.058 C 
BRANCH  19  20
HETATM   20  C   UNL     1      -6.429  -0.539 -34.597  1.00  0.00    -0.056 A 
HETATM   21  C   UNL     1      -6.764  -1.874 -34.872  1.00  0.00     0.023 A 
HETATM   22  C   UNL     1      -5.893  -2.924 -34.539  1.00  0.00     0.048 A 
HETATM   23  C   UNL     1      -4.669  -2.620 -33.927  1.00  0.00     0.016 A 
HETATM   24  C   UNL     1      -4.331  -1.298 -33.641  1.00  0.00     0.001 A 
HETATM   25  C   UNL     1      -5.207  -0.263 -33.970  1.00  0.00     0.007 A 
BRANCH  22  26
HETATM   26  C   UNL     1      -6.251  -4.362 -34.832  1.00  0.00     0.417 C 
HETATM   27  F   UNL     1      -6.362  -4.625 -36.165  1.00  0.00    -0.166 F 
HETATM   28  F   UNL     1      -5.308  -5.226 -34.365  1.00  0.00    -0.166 F 
HETATM   29  F   UNL     1      -7.429  -4.741 -34.271  1.00  0.00    -0.166 F 
ENDBRANCH  22  26
ENDBRANCH  19  20
ENDBRANCH  18  19
ENDBRANCH   2  18
TORSDOF 7
ENDMDL
MODEL 6
REMARK VINA RESULT:      -8.2      4.234      5.902
REMARK  7 active torsions:
REMARK  status: ('A' for Active; 'I' for Inactive)
REMARK    1  A    between atoms: C_8  and  C_9 
REMARK    2  A    between atoms: C_9  and  N_10 
REMARK    3  A    between atoms: C_9  and  C_14 
REMARK       I    between atoms: C_14  and  N_15 
REMARK    4  A    between atoms: N_15  and  C_16 
REMARK    5  A    between atoms: C_16  and  C_17 
REMARK    6  A    between atoms: C_17  and  C_18 
REMARK    7  A    between atoms: C_20  and  C_21 
ROOT
HETATM    1  C   UNL     1      -3.968   1.913 -31.049  1.00  0.00     0.253 C 
HETATM    2  N   UNL     1      -4.231   0.565 -31.022  1.00  0.00    -0.359 N 
HETATM    3  O   UNL     1      -2.853   2.400 -31.243  1.00  0.00    -0.271 OA
HETATM    4  H   UNL     1      -5.191   0.237 -31.078  1.00  0.00     0.162 HD
ENDROOT
BRANCH   1   5
HETATM    5  C   UNL     1      -5.149   2.860 -30.745  1.00  0.00     0.311 C 
BRANCH   5   6
HETATM    6  C   UNL     1      -5.985   3.113 -31.952  1.00  0.00     0.031 A 
HETATM    7  C   UNL     1      -5.685   3.845 -33.095  1.00  0.00     0.035 A 
HETATM    8  C   UNL     1      -4.473   4.579 -33.542  1.00  0.00     0.070 C 
HETATM    9  N   UNL     1      -6.796   3.768 -33.895  1.00  0.00    -0.282 N 
HETATM   10  H   UNL     1      -6.946   4.170 -34.817  1.00  0.00     0.189 HD
HETATM   11  N   UNL     1      -7.788   3.061 -33.346  1.00  0.00    -0.179 NA
HETATM   12  C   UNL     1      -7.311   2.643 -32.176  1.00  0.00     0.061 A 
HETATM   13  C   UNL     1      -8.165   1.796 -31.299  1.00  0.00     0.073 C 
ENDBRANCH   5   6
BRANCH   5  14
HETATM   14  N   UNL     1      -4.606   4.153 -30.213  1.00  0.00    -0.062 N 
HETATM   15  H   UNL     1      -4.389   4.075 -29.214  1.00  0.00     0.275 HD
HETATM   16  H   UNL     1      -3.705   4.325 -30.682  1.00  0.00     0.275 HD
HETATM   17  H   UNL     1      -5.236   4.941 -30.387  1.00  0.00     0.275 HD
ENDBRANCH   5  14
ENDBRANCH   1   5
BRANCH   2  18
HETATM   18  C   UNL     1      -3.216  -0.424 -31.372  1.00  0.00     0.127 C 
BRANCH  18  19
HETATM   19  C   UNL     1      -3.118  -0.656 -32.884  1.00  0.00     0.058 C 
BRANCH  19  20
HETATM   20  C   UNL     1      -4.427  -1.051 -33.532  1.00  0.00    -0.056 A 
HETATM   21  C   UNL     1      -4.683  -2.395 -33.846  1.00  0.00     0.023 A 
HETATM   22  C   UNL     1      -5.884  -2.778 -34.466  1.00  0.00     0.048 A 
HETATM   23  C   UNL     1      -6.836  -1.793 -34.764  1.00  0.00     0.016 A 
HETATM   24  C   UNL     1      -6.587  -0.455 -34.463  1.00  0.00     0.001 A 
HETATM   25  C   UNL     1      -5.388  -0.085 -33.855  1.00  0.00     0.007 A 
BRANCH  22  26
HETATM   26  C   UNL     1      -6.163  -4.223 -34.807  1.00  0.00     0.417 C 
HETATM   27  F   UNL     1      -5.236  -5.082 -34.298  1.00  0.00    -0.166 F 
HETATM   28  F   UNL     1      -7.361  -4.640 -34.313  1.00  0.00    -0.166 F 
HETATM   29  F   UNL     1      -6.200  -4.455 -36.146  1.00  0.00    -0.166 F 
ENDBRANCH  22  26
ENDBRANCH  19  20
ENDBRANCH  18  19
ENDBRANCH   2  18
TORSDOF 7
ENDMDL
MODEL 7
REMARK VINA RESULT:      -7.9      5.387      7.891
REMARK  7 active torsions:
REMARK  status: ('A' for Active; 'I' for Inactive)
REMARK    1  A    between atoms: C_8  and  C_9 
REMARK    2  A    between atoms: C_9  and  N_10 
REMARK    3  A    between atoms: C_9  and  C_14 
REMARK       I    between atoms: C_14  and  N_15 
REMARK    4  A    between atoms: N_15  and  C_16 
REMARK    5  A    between atoms: C_16  and  C_17 
REMARK    6  A    between atoms: C_17  and  C_18 
REMARK    7  A    between atoms: C_20  and  C_21 
ROOT
HETATM    1  C   UNL     1      -3.394   2.899 -31.543  1.00  0.00     0.253 C 
HETATM    2  N   UNL     1      -4.156   1.826 -31.939  1.00  0.00    -0.359 N 
HETATM    3  O   UNL     1      -2.308   2.805 -30.967  1.00  0.00    -0.271 OA
HETATM    4  H   UNL     1      -4.920   1.965 -32.594  1.00  0.00     0.162 HD
ENDROOT
BRANCH   1   5
HETATM    5  C   UNL     1      -3.988   4.303 -31.784  1.00  0.00     0.311 C 
BRANCH   5   6
HETATM    6  C   UNL     1      -3.787   4.758 -33.189  1.00  0.00     0.031 A 
HETATM    7  C   UNL     1      -2.635   5.231 -33.808  1.00  0.00     0.035 A 
HETATM    8  C   UNL     1      -1.236   5.413 -33.344  1.00  0.00     0.070 C 
HETATM    9  N   UNL     1      -2.992   5.517 -35.100  1.00  0.00    -0.282 N 
HETATM   10  H   UNL     1      -2.412   5.873 -35.856  1.00  0.00     0.189 HD
HETATM   11  N   UNL     1      -4.284   5.285 -35.350  1.00  0.00    -0.179 NA
HETATM   12  C   UNL     1      -4.779   4.810 -34.210  1.00  0.00     0.061 A 
HETATM   13  C   UNL     1      -6.214   4.421 -34.143  1.00  0.00     0.073 C 
ENDBRANCH   5   6
BRANCH   5  14
HETATM   14  N   UNL     1      -3.345   5.268 -30.833  1.00  0.00    -0.062 N 
HETATM   15  H   UNL     1      -2.455   4.898 -30.482  1.00  0.00     0.275 HD
HETATM   16  H   UNL     1      -3.103   6.114 -31.367  1.00  0.00     0.275 HD
HETATM   17  H   UNL     1      -3.963   5.522 -30.057  1.00  0.00     0.275 HD
ENDBRANCH   5  14
ENDBRANCH   1   5
BRANCH   2  18
HETATM   18  C   UNL     1      -3.667   0.455 -31.838  1.00  0.00     0.127 C 
BRANCH  18  19
HETATM   19  C   UNL     1      -4.794  -0.555 -31.597  1.00  0.00     0.058 C 
BRANCH  19  20
HETATM   20  C   UNL     1      -5.873  -0.537 -32.658  1.00  0.00    -0.056 A 
HETATM   21  C   UNL     1      -7.177  -0.134 -32.334  1.00  0.00     0.023 A 
HETATM   22  C   UNL     1      -8.196  -0.131 -33.301  1.00  0.00     0.048 A 
HETATM   23  C   UNL     1      -7.890  -0.532 -34.609  1.00  0.00     0.016 A 
HETATM   24  C   UNL     1      -6.598  -0.942 -34.938  1.00  0.00     0.001 A 
HETATM   25  C   UNL     1      -5.596  -0.949 -33.968  1.00  0.00     0.007 A 
BRANCH  22  26
HETATM   26  C   UNL     1      -9.602   0.300 -32.956  1.00  0.00     0.417 C 
HETATM   27  F   UNL     1      -9.653   1.178 -31.915  1.00  0.00    -0.166 F 
HETATM   28  F   UNL     1     -10.211   0.932 -33.998  1.00  0.00    -0.166 F 
HETATM   29  F   UNL     1     -10.408  -0.739 -32.616  1.00  0.00    -0.166 F 
ENDBRANCH  22  26
ENDBRANCH  19  20
ENDBRANCH  18  19
ENDBRANCH   2  18
TORSDOF 7
ENDMDL
MODEL 8
REMARK VINA RESULT:      -7.9      5.819      8.012
REMARK  7 active torsions:
REMARK  status: ('A' for Active; 'I' for Inactive)
REMARK    1  A    between atoms: C_8  and  C_9 
REMARK    2  A    between atoms: C_9  and  N_10 
REMARK    3  A    between atoms: C_9  and  C_14 
REMARK       I    between atoms: C_14  and  N_15 
REMARK    4  A    between atoms: N_15  and  C_16 
REMARK    5  A    between atoms: C_16  and  C_17 
REMARK    6  A    between atoms: C_17  and  C_18 
REMARK    7  A    between atoms: C_20  and  C_21 
ROOT
HETATM    1  C   UNL     1      -3.690   3.693 -32.132  1.00  0.00     0.253 C 
HETATM    2  N   UNL     1      -4.904   3.378 -31.572  1.00  0.00    -0.359 N 
HETATM    3  O   UNL     1      -2.599   3.401 -31.638  1.00  0.00    -0.271 OA
HETATM    4  H   UNL     1      -5.750   3.450 -32.129  1.00  0.00     0.162 HD
ENDROOT
BRANCH   1   5
HETATM    5  C   UNL     1      -3.717   4.527 -33.431  1.00  0.00     0.311 C 
BRANCH   5   6
HETATM    6  C   UNL     1      -2.970   5.808 -33.285  1.00  0.00     0.031 A 
HETATM    7  C   UNL     1      -3.229   6.891 -32.453  1.00  0.00     0.035 A 
HETATM    8  C   UNL     1      -4.266   7.153 -31.422  1.00  0.00     0.070 C 
HETATM    9  N   UNL     1      -2.246   7.810 -32.713  1.00  0.00    -0.282 N 
HETATM   10  H   UNL     1      -2.100   8.723 -32.288  1.00  0.00     0.189 HD
HETATM   11  N   UNL     1      -1.391   7.409 -33.658  1.00  0.00    -0.179 NA
HETATM   12  C   UNL     1      -1.803   6.192 -34.006  1.00  0.00     0.061 A 
HETATM   13  C   UNL     1      -1.049   5.434 -35.041  1.00  0.00     0.073 C 
ENDBRANCH   5   6
BRANCH   5  14
HETATM   14  N   UNL     1      -5.145   4.802 -33.798  1.00  0.00    -0.062 N 
HETATM   15  H   UNL     1      -5.289   5.800 -33.983  1.00  0.00     0.275 HD
HETATM   16  H   UNL     1      -5.332   4.323 -34.690  1.00  0.00     0.275 HD
HETATM   17  H   UNL     1      -5.802   4.467 -33.088  1.00  0.00     0.275 HD
ENDBRANCH   5  14
ENDBRANCH   1   5
BRANCH   2  18
HETATM   18  C   UNL     1      -5.009   2.527 -30.391  1.00  0.00     0.127 C 
BRANCH  18  19
HETATM   19  C   UNL     1      -5.914   1.312 -30.621  1.00  0.00     0.058 C 
BRANCH  19  20
HETATM   20  C   UNL     1      -5.306   0.251 -31.513  1.00  0.00    -0.056 A 
HETATM   21  C   UNL     1      -6.050  -0.299 -32.567  1.00  0.00     0.023 A 
HETATM   22  C   UNL     1      -5.508  -1.298 -33.392  1.00  0.00     0.048 A 
HETATM   23  C   UNL     1      -4.200  -1.740 -33.151  1.00  0.00     0.016 A 
HETATM   24  C   UNL     1      -3.456  -1.206 -32.101  1.00  0.00     0.001 A 
HETATM   25  C   UNL     1      -4.006  -0.219 -31.283  1.00  0.00     0.007 A 
BRANCH  22  26
HETATM   26  C   UNL     1      -6.307  -1.894 -34.528  1.00  0.00     0.417 C 
HETATM   27  F   UNL     1      -5.542  -2.595 -35.412  1.00  0.00    -0.166 F 
HETATM   28  F   UNL     1      -7.248  -2.771 -34.082  1.00  0.00    -0.166 F 
HETATM   29  F   UNL     1      -6.971  -0.960 -35.258  1.00  0.00    -0.166 F 
ENDBRANCH  22  26
ENDBRANCH  19  20
ENDBRANCH  18  19
ENDBRANCH   2  18
TORSDOF 7
ENDMDL
MODEL 9
REMARK VINA RESULT:      -7.9      6.026      8.161
REMARK  7 active torsions:
REMARK  status: ('A' for Active; 'I' for Inactive)
REMARK    1  A    between atoms: C_8  and  C_9 
REMARK    2  A    between atoms: C_9  and  N_10 
REMARK    3  A    between atoms: C_9  and  C_14 
REMARK       I    between atoms: C_14  and  N_15 
REMARK    4  A    between atoms: N_15  and  C_16 
REMARK    5  A    between atoms: C_16  and  C_17 
REMARK    6  A    between atoms: C_17  and  C_18 
REMARK    7  A    between atoms: C_20  and  C_21 
ROOT
HETATM    1  C   UNL     1      -4.072   4.252 -32.257  1.00  0.00     0.253 C 
HETATM    2  N   UNL     1      -3.785   2.911 -32.174  1.00  0.00    -0.359 N 
HETATM    3  O   UNL     1      -5.038   4.720 -32.861  1.00  0.00    -0.271 OA
HETATM    4  H   UNL     1      -3.112   2.580 -31.488  1.00  0.00     0.162 HD
ENDROOT
BRANCH   1   5
HETATM    5  C   UNL     1      -3.065   5.221 -31.601  1.00  0.00     0.311 C 
BRANCH   5   6
HETATM    6  C   UNL     1      -2.517   6.202 -32.580  1.00  0.00     0.031 A 
HETATM    7  C   UNL     1      -2.085   5.997 -33.886  1.00  0.00     0.035 A 
HETATM    8  C   UNL     1      -2.045   4.801 -34.766  1.00  0.00     0.070 C 
HETATM    9  N   UNL     1      -1.672   7.221 -34.343  1.00  0.00    -0.282 N 
HETATM   10  H   UNL     1      -1.302   7.468 -35.258  1.00  0.00     0.189 HD
HETATM   11  N   UNL     1      -1.786   8.187 -33.427  1.00  0.00    -0.179 NA
HETATM   12  C   UNL     1      -2.310   7.593 -32.358  1.00  0.00     0.061 A 
HETATM   13  C   UNL     1      -2.595   8.399 -31.139  1.00  0.00     0.073 C 
ENDBRANCH   5   6
BRANCH   5  14
HETATM   14  N   UNL     1      -1.951   4.421 -30.993  1.00  0.00    -0.062 N 
HETATM   15  H   UNL     1      -1.806   3.546 -31.508  1.00  0.00     0.275 HD
HETATM   16  H   UNL     1      -1.082   4.961 -31.113  1.00  0.00     0.275 HD
HETATM   17  H   UNL     1      -2.101   4.235 -29.998  1.00  0.00     0.275 HD
ENDBRANCH   5  14
ENDBRANCH   1   5
BRANCH   2  18
HETATM   18  C   UNL     1      -4.701   1.895 -32.684  1.00  0.00     0.127 C 
BRANCH  18  19
HETATM   19  C   UNL     1      -4.385   0.496 -32.146  1.00  0.00     0.058 C 
BRANCH  19  20
HETATM   20  C   UNL     1      -4.831  -0.628 -33.056  1.00  0.00    -0.056 A 
HETATM   21  C   UNL     1      -4.222  -1.889 -32.974  1.00  0.00     0.023 A 
HETATM   22  C   UNL     1      -4.609  -2.938 -33.824  1.00  0.00     0.048 A 
HETATM   23  C   UNL     1      -5.626  -2.710 -34.761  1.00  0.00     0.016 A 
HETATM   24  C   UNL     1      -6.231  -1.457 -34.856  1.00  0.00     0.001 A 
HETATM   25  C   UNL     1      -5.833  -0.421 -34.012  1.00  0.00     0.007 A 
BRANCH  22  26
HETATM   26  C   UNL     1      -3.955  -4.297 -33.740  1.00  0.00     0.417 C 
HETATM   27  F   UNL     1      -3.385  -4.543 -32.526  1.00  0.00    -0.166 F 
HETATM   28  F   UNL     1      -4.849  -5.305 -33.936  1.00  0.00    -0.166 F 
HETATM   29  F   UNL     1      -2.972  -4.472 -34.662  1.00  0.00    -0.166 F 
ENDBRANCH  22  26
ENDBRANCH  19  20
ENDBRANCH  18  19
ENDBRANCH   2  18
TORSDOF 7
ENDMDL
MODEL 10
REMARK VINA RESULT:      -7.9      4.248      6.813
REMARK  7 active torsions:
REMARK  status: ('A' for Active; 'I' for Inactive)
REMARK    1  A    between atoms: C_8  and  C_9 
REMARK    2  A    between atoms: C_9  and  N_10 
REMARK    3  A    between atoms: C_9  and  C_14 
REMARK       I    between atoms: C_14  and  N_15 
REMARK    4  A    between atoms: N_15  and  C_16 
REMARK    5  A    between atoms: C_16  and  C_17 
REMARK    6  A    between atoms: C_17  and  C_18 
REMARK    7  A    between atoms: C_20  and  C_21 
ROOT
HETATM    1  C   UNL     1      -6.683   3.060 -33.533  1.00  0.00     0.253 C 
HETATM    2  N   UNL     1      -7.788   2.667 -32.817  1.00  0.00    -0.359 N 
HETATM    3  O   UNL     1      -6.258   2.475 -34.531  1.00  0.00    -0.271 OA
HETATM    4  H   UNL     1      -8.209   3.306 -32.149  1.00  0.00     0.162 HD
ENDROOT
BRANCH   1   5
HETATM    5  C   UNL     1      -5.898   4.274 -32.992  1.00  0.00     0.311 C 
BRANCH   5   6
HETATM    6  C   UNL     1      -4.614   3.868 -32.353  1.00  0.00     0.031 A 
HETATM    7  C   UNL     1      -4.401   3.136 -31.190  1.00  0.00     0.035 A 
HETATM    8  C   UNL     1      -5.316   2.483 -30.219  1.00  0.00     0.070 C 
HETATM    9  N   UNL     1      -3.040   3.047 -31.045  1.00  0.00    -0.282 N 
HETATM   10  H   UNL     1      -2.507   2.576 -30.318  1.00  0.00     0.189 HD
HETATM   11  N   UNL     1      -2.369   3.679 -32.012  1.00  0.00    -0.179 NA
HETATM   12  C   UNL     1      -3.304   4.170 -32.822  1.00  0.00     0.061 A 
HETATM   13  C   UNL     1      -2.895   4.928 -34.035  1.00  0.00     0.073 C 
ENDBRANCH   5   6
BRANCH   5  14
HETATM   14  N   UNL     1      -6.758   5.003 -32.003  1.00  0.00    -0.062 N 
HETATM   15  H   UNL     1      -6.599   4.654 -31.053  1.00  0.00     0.275 HD
HETATM   16  H   UNL     1      -6.452   5.986 -31.994  1.00  0.00     0.275 HD
HETATM   17  H   UNL     1      -7.752   4.959 -32.244  1.00  0.00     0.275 HD
ENDBRANCH   5  14
ENDBRANCH   1   5
BRANCH   2  18
HETATM   18  C   UNL     1      -8.656   1.586 -33.273  1.00  0.00     0.127 C 
BRANCH  18  19
HETATM   19  C   UNL     1      -8.405   0.275 -32.520  1.00  0.00     0.058 C 
BRANCH  19  20
HETATM   20  C   UNL     1      -7.189  -0.487 -33.002  1.00  0.00    -0.056 A 
HETATM   21  C   UNL     1      -5.994  -0.449 -32.268  1.00  0.00     0.023 A 
HETATM   22  C   UNL     1      -4.850  -1.134 -32.710  1.00  0.00     0.048 A 
HETATM   23  C   UNL     1      -4.918  -1.868 -33.901  1.00  0.00     0.016 A 
HETATM   24  C   UNL     1      -6.099  -1.905 -34.642  1.00  0.00     0.001 A 
HETATM   25  C   UNL     1      -7.227  -1.215 -34.198  1.00  0.00     0.007 A 
BRANCH  22  26
HETATM   26  C   UNL     1      -3.561  -1.094 -31.923  1.00  0.00     0.417 C 
HETATM   27  F   UNL     1      -3.099  -2.331 -31.586  1.00  0.00    -0.166 F 
HETATM   28  F   UNL     1      -2.554  -0.505 -32.626  1.00  0.00    -0.166 F 
HETATM   29  F   UNL     1      -3.670  -0.400 -30.759  1.00  0.00    -0.166 F 
ENDBRANCH  22  26
ENDBRANCH  19  20
ENDBRANCH  18  19
ENDBRANCH   2  18
TORSDOF 7
ENDMDL
