MODEL 1
REMARK VINA RESULT:     -10.7      0.000      0.000
REMARK  6 active torsions:
REMARK  status: ('A' for Active; 'I' for Inactive)
REMARK    1  A    between atoms: C_5  and  C_6 
REMARK    2  A    between atoms: C_6  and  N_7 
REMARK       I    between atoms: N_7  and  C_8 
REMARK    3  A    between atoms: C_8  and  C_9 
REMARK    4  A    between atoms: C_10  and  N_11 
REMARK    5  A    between atoms: N_12  and  C_13 
REMARK    6  A    between atoms: C_16  and  N_17 
REMARK       I    between atoms: N_17  and  C_18 
ROOT
HETATM    1  C   UNL     1      -3.980   1.138 -31.016  1.00  0.00     0.103 C 
HETATM    2  C   UNL     1      -5.288   1.190 -30.538  1.00  0.00     0.105 C 
HETATM    3  N   UNL     1      -5.937   2.127 -31.350  1.00  0.00    -0.284 N 
HETATM    4  C   UNL     1      -4.973   3.091 -31.623  1.00  0.00     0.166 A 
HETATM    5  C   UNL     1      -3.742   2.436 -31.538  1.00  0.00     0.123 A 
HETATM    6  N   UNL     1      -2.598   3.046 -31.940  1.00  0.00    -0.242 NA
HETATM    7  C   UNL     1      -2.740   4.323 -32.321  1.00  0.00     0.086 A 
HETATM    8  C   UNL     1      -3.998   4.982 -32.350  1.00  0.00     0.088 A 
HETATM    9  N   UNL     1      -5.149   4.369 -32.031  1.00  0.00    -0.226 NA
HETATM   10  C   UNL     1      -1.605   5.031 -32.694  1.00  0.00     0.034 A 
HETATM   11  C   UNL     1      -1.670   6.372 -33.075  1.00  0.00     0.002 A 
HETATM   12  C   UNL     1      -2.897   7.020 -33.087  1.00  0.00     0.002 A 
HETATM   13  C   UNL     1      -4.047   6.318 -32.728  1.00  0.00     0.034 A 
ENDROOT
BRANCH   1  14
HETATM   14  C   UNL     1      -3.096  -0.021 -30.981  1.00  0.00     0.257 C 
HETATM   15  N   UNL     1      -3.744  -1.192 -31.325  1.00  0.00    -0.352 N 
HETATM   16  H   UNL     1      -4.726  -1.095 -31.551  1.00  0.00     0.163 HD
HETATM   17  O   UNL     1      -1.885   0.041 -30.805  1.00  0.00    -0.267 OA
BRANCH  15  18
HETATM   18  C   UNL     1      -3.048  -2.279 -31.970  1.00  0.00     0.161 C 
BRANCH  18  19
HETATM   19  C   UNL     1      -3.927  -2.925 -33.018  1.00  0.00    -0.041 A 
HETATM   20  C   UNL     1      -4.898  -2.180 -33.707  1.00  0.00     0.009 A 
HETATM   21  C   UNL     1      -5.747  -2.790 -34.633  1.00  0.00     0.007 A 
HETATM   22  C   UNL     1      -5.629  -4.156 -34.906  1.00  0.00    -0.062 A 
HETATM   23  C   UNL     1      -6.538  -4.806 -35.907  1.00  0.00     0.048 C 
HETATM   24  C   UNL     1      -4.625  -4.891 -34.265  1.00  0.00     0.007 A 
HETATM   25  C   UNL     1      -3.786  -4.283 -33.325  1.00  0.00     0.009 A 
ENDBRANCH  18  19
ENDBRANCH  15  18
ENDBRANCH   1  14
BRANCH   2  26
HETATM   26  N   UNL     1      -5.920   0.417 -29.608  1.00  0.00    -0.287 NA
HETATM   27  H   UNL     1      -6.180   0.860 -28.722  1.00  0.00     0.125 HD
HETATM   28  H   UNL     1      -6.693  -0.172 -29.927  1.00  0.00     0.125 HD
ENDBRANCH   2  26
BRANCH   3  29
HETATM   29  C   UNL     1      -7.207   1.951 -32.000  1.00  0.00     0.042 A 
HETATM   30  C   UNL     1      -8.344   2.617 -31.516  1.00  0.00     0.032 A 
HETATM   31  C   UNL     1      -9.630   2.251 -31.924  1.00  0.00     0.032 A 
HETATM   32  C   UNL     1      -9.817   1.198 -32.812  1.00  0.00     0.034 A 
HETATM   33  C   UNL     1      -8.687   0.587 -33.367  1.00  0.00     0.032 A 
HETATM   34  C   UNL     1      -7.394   0.958 -32.969  1.00  0.00     0.032 A 
BRANCH  32  35
HETATM   35  N   UNL     1     -11.080   0.653 -33.118  1.00  0.00    -0.328 N 
HETATM   36  C   UNL     1     -12.019   1.169 -33.996  1.00  0.00     0.218 C 
HETATM   37  C   UNL     1     -13.353   0.479 -33.874  1.00  0.00     0.117 C 
HETATM   38  O   UNL     1     -11.857   2.077 -34.805  1.00  0.00    -0.274 OA
HETATM   39  H   UNL     1     -11.362  -0.149 -32.568  1.00  0.00     0.169 HD
ENDBRANCH  32  35
ENDBRANCH   3  29
TORSDOF 6
ENDMDL
MODEL 2
REMARK VINA RESULT:     -10.2      2.279      8.545
REMARK  6 active torsions:
REMARK  status: ('A' for Active; 'I' for Inactive)
REMARK    1  A    between atoms: C_5  and  C_6 
REMARK    2  A    between atoms: C_6  and  N_7 
REMARK       I    between atoms: N_7  and  C_8 
REMARK    3  A    between atoms: C_8  and  C_9 
REMARK    4  A    between atoms: C_10  and  N_11 
REMARK    5  A    between atoms: N_12  and  C_13 
REMARK    6  A    between atoms: C_16  and  N_17 
REMARK       I    between atoms: N_17  and  C_18 
ROOT
HETATM    1  C   UNL     1      -8.918   0.818 -32.606  1.00  0.00     0.103 C 
HETATM    2  C   UNL     1      -8.299   1.676 -31.699  1.00  0.00     0.105 C 
HETATM    3  N   UNL     1      -6.982   1.801 -32.154  1.00  0.00    -0.284 N 
HETATM    4  C   UNL     1      -6.661   0.550 -32.668  1.00  0.00     0.166 A 
HETATM    5  C   UNL     1      -7.871  -0.020 -33.070  1.00  0.00     0.123 A 
HETATM    6  N   UNL     1      -7.895  -1.167 -33.796  1.00  0.00    -0.242 NA
HETATM    7  C   UNL     1      -6.697  -1.735 -33.999  1.00  0.00     0.086 A 
HETATM    8  C   UNL     1      -5.485  -1.160 -33.533  1.00  0.00     0.088 A 
HETATM    9  N   UNL     1      -5.438   0.015 -32.883  1.00  0.00    -0.226 NA
HETATM   10  C   UNL     1      -6.646  -2.940 -34.685  1.00  0.00     0.034 A 
HETATM   11  C   UNL     1      -5.439  -3.605 -34.911  1.00  0.00     0.002 A 
HETATM   12  C   UNL     1      -4.256  -3.051 -34.441  1.00  0.00     0.002 A 
HETATM   13  C   UNL     1      -4.291  -1.833 -33.761  1.00  0.00     0.034 A 
ENDROOT
BRANCH   1  14
HETATM   14  C   UNL     1     -10.328   0.827 -32.975  1.00  0.00     0.257 C 
HETATM   15  N   UNL     1     -10.760   2.074 -33.386  1.00  0.00    -0.352 N 
HETATM   16  H   UNL     1     -10.057   2.802 -33.375  1.00  0.00     0.163 HD
HETATM   17  O   UNL     1     -11.027  -0.176 -33.052  1.00  0.00    -0.267 OA
BRANCH  15  18
HETATM   18  C   UNL     1     -11.818   2.226 -34.354  1.00  0.00     0.161 C 
BRANCH  18  19
HETATM   19  C   UNL     1     -13.165   2.271 -33.667  1.00  0.00    -0.041 A 
HETATM   20  C   UNL     1     -14.177   1.354 -33.999  1.00  0.00     0.009 A 
HETATM   21  C   UNL     1     -15.439   1.433 -33.404  1.00  0.00     0.007 A 
HETATM   22  C   UNL     1     -15.709   2.417 -32.449  1.00  0.00    -0.062 A 
HETATM   23  C   UNL     1     -17.063   2.491 -31.807  1.00  0.00     0.048 C 
HETATM   24  C   UNL     1     -14.687   3.295 -32.073  1.00  0.00     0.007 A 
HETATM   25  C   UNL     1     -13.429   3.227 -32.680  1.00  0.00     0.009 A 
ENDBRANCH  18  19
ENDBRANCH  15  18
ENDBRANCH   1  14
BRANCH   2  26
HETATM   26  N   UNL     1      -8.824   2.405 -30.672  1.00  0.00    -0.287 NA
HETATM   27  H   UNL     1      -8.936   1.938 -29.768  1.00  0.00     0.125 HD
HETATM   28  H   UNL     1      -8.454   3.346 -30.520  1.00  0.00     0.125 HD
ENDBRANCH   2  26
BRANCH   3  29
HETATM   29  C   UNL     1      -6.259   3.032 -32.332  1.00  0.00     0.042 A 
HETATM   30  C   UNL     1      -6.284   3.690 -33.572  1.00  0.00     0.032 A 
HETATM   31  C   UNL     1      -5.374   4.708 -33.873  1.00  0.00     0.032 A 
HETATM   32  C   UNL     1      -4.405   5.084 -32.951  1.00  0.00     0.034 A 
HETATM   33  C   UNL     1      -4.430   4.497 -31.682  1.00  0.00     0.032 A 
HETATM   34  C   UNL     1      -5.347   3.482 -31.372  1.00  0.00     0.032 A 
BRANCH  32  35
HETATM   35  N   UNL     1      -3.343   5.962 -33.253  1.00  0.00    -0.328 N 
HETATM   36  C   UNL     1      -2.263   5.708 -34.080  1.00  0.00     0.218 C 
HETATM   37  C   UNL     1      -1.192   6.762 -33.960  1.00  0.00     0.117 C 
HETATM   38  O   UNL     1      -2.123   4.761 -34.848  1.00  0.00    -0.274 OA
HETATM   39  H   UNL     1      -3.328   6.832 -32.736  1.00  0.00     0.169 HD
ENDBRANCH  32  35
ENDBRANCH   3  29
TORSDOF 6
ENDMDL
MODEL 3
REMARK VINA RESULT:     -10.0      1.920      7.025
REMARK  6 active torsions:
REMARK  status: ('A' for Active; 'I' for Inactive)
REMARK    1  A    between atoms: C_5  and  C_6 
REMARK    2  A    between atoms: C_6  and  N_7 
REMARK       I    between atoms: N_7  and  C_8 
REMARK    3  A    between atoms: C_8  and  C_9 
REMARK    4  A    between atoms: C_10  and  N_11 
REMARK    5  A    between atoms: N_12  and  C_13 
REMARK    6  A    between atoms: C_16  and  N_17 
REMARK       I    between atoms: N_17  and  C_18 
ROOT
HETATM    1  C   UNL     1      -5.406   1.312 -32.920  1.00  0.00     0.103 C 
HETATM    2  C   UNL     1      -6.359   1.812 -33.805  1.00  0.00     0.105 C 
HETATM    3  N   UNL     1      -7.211   0.735 -34.072  1.00  0.00    -0.284 N 
HETATM    4  C   UNL     1      -6.383  -0.382 -34.080  1.00  0.00     0.166 A 
HETATM    5  C   UNL     1      -5.305  -0.065 -33.250  1.00  0.00     0.123 A 
HETATM    6  N   UNL     1      -4.405  -1.012 -32.883  1.00  0.00    -0.242 NA
HETATM    7  C   UNL     1      -4.583  -2.214 -33.449  1.00  0.00     0.086 A 
HETATM    8  C   UNL     1      -5.659  -2.496 -34.331  1.00  0.00     0.088 A 
HETATM    9  N   UNL     1      -6.603  -1.593 -34.642  1.00  0.00    -0.226 NA
HETATM   10  C   UNL     1      -3.669  -3.219 -33.165  1.00  0.00     0.034 A 
HETATM   11  C   UNL     1      -3.773  -4.488 -33.739  1.00  0.00     0.002 A 
HETATM   12  C   UNL     1      -4.815  -4.758 -34.614  1.00  0.00     0.002 A 
HETATM   13  C   UNL     1      -5.749  -3.762 -34.898  1.00  0.00     0.034 A 
ENDROOT
BRANCH   1  14
HETATM   14  C   UNL     1      -4.706   2.069 -31.890  1.00  0.00     0.257 C 
HETATM   15  N   UNL     1      -4.527   3.395 -32.238  1.00  0.00    -0.352 N 
HETATM   16  H   UNL     1      -4.896   3.661 -33.142  1.00  0.00     0.163 HD
HETATM   17  O   UNL     1      -4.425   1.630 -30.782  1.00  0.00    -0.267 OA
BRANCH  15  18
HETATM   18  C   UNL     1      -4.475   4.437 -31.241  1.00  0.00     0.161 C 
BRANCH  18  19
HETATM   19  C   UNL     1      -3.126   5.121 -31.256  1.00  0.00    -0.041 A 
HETATM   20  C   UNL     1      -2.024   4.531 -31.898  1.00  0.00     0.009 A 
HETATM   21  C   UNL     1      -0.765   5.136 -31.862  1.00  0.00     0.007 A 
HETATM   22  C   UNL     1      -0.586   6.355 -31.202  1.00  0.00    -0.062 A 
HETATM   23  C   UNL     1       0.766   7.004 -31.174  1.00  0.00     0.048 C 
HETATM   24  C   UNL     1      -1.693   6.975 -30.612  1.00  0.00     0.007 A 
HETATM   25  C   UNL     1      -2.950   6.361 -30.633  1.00  0.00     0.009 A 
ENDBRANCH  18  19
ENDBRANCH  15  18
ENDBRANCH   1  14
BRANCH   2  26
HETATM   26  N   UNL     1      -6.585   3.088 -34.232  1.00  0.00    -0.287 NA
HETATM   27  H   UNL     1      -6.968   3.211 -35.174  1.00  0.00     0.125 HD
HETATM   28  H   UNL     1      -7.062   3.726 -33.590  1.00  0.00     0.125 HD
ENDBRANCH   2  26
BRANCH   3  29
HETATM   29  C   UNL     1      -8.648   0.758 -34.027  1.00  0.00     0.042 A 
HETATM   30  C   UNL     1      -9.354   1.815 -34.623  1.00  0.00     0.032 A 
HETATM   31  C   UNL     1     -10.709   2.029 -34.350  1.00  0.00     0.032 A 
HETATM   32  C   UNL     1     -11.390   1.205 -33.461  1.00  0.00     0.034 A 
HETATM   33  C   UNL     1     -10.718   0.098 -32.933  1.00  0.00     0.032 A 
HETATM   34  C   UNL     1      -9.362  -0.128 -33.211  1.00  0.00     0.032 A 
BRANCH  32  35
HETATM   35  N   UNL     1     -12.693   1.472 -32.996  1.00  0.00    -0.328 N 
HETATM   36  C   UNL     1     -13.867   1.410 -33.727  1.00  0.00     0.218 C 
HETATM   37  C   UNL     1     -15.032   2.016 -32.987  1.00  0.00     0.117 C 
HETATM   38  O   UNL     1     -14.019   0.933 -34.847  1.00  0.00    -0.274 OA
HETATM   39  H   UNL     1     -12.761   1.835 -32.053  1.00  0.00     0.169 HD
ENDBRANCH  32  35
ENDBRANCH   3  29
TORSDOF 6
ENDMDL
MODEL 4
REMARK VINA RESULT:      -9.9      2.792      8.467
REMARK  6 active torsions:
REMARK  status: ('A' for Active; 'I' for Inactive)
REMARK    1  A    between atoms: C_5  and  C_6 
REMARK    2  A    between atoms: C_6  and  N_7 
REMARK       I    between atoms: N_7  and  C_8 
REMARK    3  A    between atoms: C_8  and  C_9 
REMARK    4  A    between atoms: C_10  and  N_11 
REMARK    5  A    between atoms: N_12  and  C_13 
REMARK    6  A    between atoms: C_16  and  N_17 
REMARK       I    between atoms: N_17  and  C_18 
ROOT
HETATM    1  C   UNL     1      -8.899   0.928 -32.433  1.00  0.00     0.103 C 
HETATM    2  C   UNL     1      -8.243   1.767 -31.535  1.00  0.00     0.105 C 
HETATM    3  N   UNL     1      -6.942   1.892 -32.034  1.00  0.00    -0.284 N 
HETATM    4  C   UNL     1      -6.647   0.647 -32.578  1.00  0.00     0.166 A 
HETATM    5  C   UNL     1      -7.874   0.091 -32.947  1.00  0.00     0.123 A 
HETATM    6  N   UNL     1      -7.931  -1.045 -33.689  1.00  0.00    -0.242 NA
HETATM    7  C   UNL     1      -6.745  -1.616 -33.942  1.00  0.00     0.086 A 
HETATM    8  C   UNL     1      -5.513  -1.057 -33.510  1.00  0.00     0.088 A 
HETATM    9  N   UNL     1      -5.436   0.107 -32.844  1.00  0.00    -0.226 NA
HETATM   10  C   UNL     1      -6.726  -2.812 -34.649  1.00  0.00     0.034 A 
HETATM   11  C   UNL     1      -5.532  -3.480 -34.926  1.00  0.00     0.002 A 
HETATM   12  C   UNL     1      -4.330  -2.941 -34.489  1.00  0.00     0.002 A 
HETATM   13  C   UNL     1      -4.333  -1.734 -33.790  1.00  0.00     0.034 A 
ENDROOT
BRANCH   1  14
HETATM   14  C   UNL     1     -10.321   0.951 -32.753  1.00  0.00     0.257 C 
HETATM   15  N   UNL     1     -10.848   2.228 -32.726  1.00  0.00    -0.352 N 
HETATM   16  H   UNL     1     -10.193   2.964 -32.492  1.00  0.00     0.163 HD
HETATM   17  O   UNL     1     -10.956  -0.022 -33.139  1.00  0.00    -0.267 OA
BRANCH  15  18
HETATM   18  C   UNL     1     -11.954   2.607 -33.572  1.00  0.00     0.161 C 
BRANCH  18  19
HETATM   19  C   UNL     1     -11.667   3.920 -34.265  1.00  0.00    -0.041 A 
HETATM   20  C   UNL     1     -10.359   4.270 -34.640  1.00  0.00     0.009 A 
HETATM   21  C   UNL     1     -10.088   5.507 -35.228  1.00  0.00     0.007 A 
HETATM   22  C   UNL     1     -11.123   6.414 -35.475  1.00  0.00    -0.062 A 
HETATM   23  C   UNL     1     -10.827   7.738 -36.114  1.00  0.00     0.048 C 
HETATM   24  C   UNL     1     -12.435   6.047 -35.157  1.00  0.00     0.007 A 
HETATM   25  C   UNL     1     -12.705   4.815 -34.552  1.00  0.00     0.009 A 
ENDBRANCH  18  19
ENDBRANCH  15  18
ENDBRANCH   1  14
BRANCH   2  26
HETATM   26  N   UNL     1      -8.727   2.484 -30.480  1.00  0.00    -0.287 NA
HETATM   27  H   UNL     1      -9.355   3.266 -30.688  1.00  0.00     0.125 HD
HETATM   28  H   UNL     1      -9.093   1.963 -29.680  1.00  0.00     0.125 HD
ENDBRANCH   2  26
BRANCH   3  29
HETATM   29  C   UNL     1      -6.217   3.121 -32.218  1.00  0.00     0.042 A 
HETATM   30  C   UNL     1      -6.292   3.805 -33.442  1.00  0.00     0.032 A 
HETATM   31  C   UNL     1      -5.388   4.823 -33.762  1.00  0.00     0.032 A 
HETATM   32  C   UNL     1      -4.375   5.172 -32.877  1.00  0.00     0.034 A 
HETATM   33  C   UNL     1      -4.348   4.557 -31.620  1.00  0.00     0.032 A 
HETATM   34  C   UNL     1      -5.259   3.543 -31.290  1.00  0.00     0.032 A 
BRANCH  32  35
HETATM   35  N   UNL     1      -3.321   6.048 -33.207  1.00  0.00    -0.328 N 
HETATM   36  C   UNL     1      -2.144   5.725 -33.862  1.00  0.00     0.218 C 
HETATM   37  C   UNL     1      -1.136   6.843 -33.807  1.00  0.00     0.117 C 
HETATM   38  O   UNL     1      -1.882   4.676 -34.442  1.00  0.00    -0.274 OA
HETATM   39  H   UNL     1      -3.398   6.990 -32.843  1.00  0.00     0.169 HD
ENDBRANCH  32  35
ENDBRANCH   3  29
TORSDOF 6
ENDMDL
MODEL 5
REMARK VINA RESULT:      -9.7      1.961      6.867
REMARK  6 active torsions:
REMARK  status: ('A' for Active; 'I' for Inactive)
REMARK    1  A    between atoms: C_5  and  C_6 
REMARK    2  A    between atoms: C_6  and  N_7 
REMARK       I    between atoms: N_7  and  C_8 
REMARK    3  A    between atoms: C_8  and  C_9 
REMARK    4  A    between atoms: C_10  and  N_11 
REMARK    5  A    between atoms: N_12  and  C_13 
REMARK    6  A    between atoms: C_16  and  N_17 
REMARK       I    between atoms: N_17  and  C_18 
ROOT
HETATM    1  C   UNL     1      -4.939   1.023 -33.009  1.00  0.00     0.103 C 
HETATM    2  C   UNL     1      -5.912   1.743 -33.699  1.00  0.00     0.105 C 
HETATM    3  N   UNL     1      -6.976   0.850 -33.868  1.00  0.00    -0.284 N 
HETATM    4  C   UNL     1      -6.376  -0.388 -34.065  1.00  0.00     0.166 A 
HETATM    5  C   UNL     1      -5.141  -0.322 -33.414  1.00  0.00     0.123 A 
HETATM    6  N   UNL     1      -4.381  -1.434 -33.246  1.00  0.00    -0.242 NA
HETATM    7  C   UNL     1      -4.860  -2.542 -33.829  1.00  0.00     0.086 A 
HETATM    8  C   UNL     1      -6.095  -2.570 -34.530  1.00  0.00     0.088 A 
HETATM    9  N   UNL     1      -6.896  -1.498 -34.637  1.00  0.00    -0.226 NA
HETATM   10  C   UNL     1      -4.110  -3.708 -33.748  1.00  0.00     0.034 A 
HETATM   11  C   UNL     1      -4.530  -4.894 -34.353  1.00  0.00     0.002 A 
HETATM   12  C   UNL     1      -5.729  -4.916 -35.053  1.00  0.00     0.002 A 
HETATM   13  C   UNL     1      -6.500  -3.756 -35.130  1.00  0.00     0.034 A 
ENDROOT
BRANCH   1  14
HETATM   14  C   UNL     1      -3.960   1.571 -32.078  1.00  0.00     0.257 C 
HETATM   15  N   UNL     1      -3.393   2.745 -32.536  1.00  0.00    -0.352 N 
HETATM   16  H   UNL     1      -3.723   3.064 -33.438  1.00  0.00     0.163 HD
HETATM   17  O   UNL     1      -3.755   1.128 -30.955  1.00  0.00    -0.267 OA
BRANCH  15  18
HETATM   18  C   UNL     1      -2.940   3.770 -31.627  1.00  0.00     0.161 C 
BRANCH  18  19
HETATM   19  C   UNL     1      -4.027   4.795 -31.396  1.00  0.00    -0.041 A 
HETATM   20  C   UNL     1      -4.907   4.683 -30.306  1.00  0.00     0.009 A 
HETATM   21  C   UNL     1      -5.946   5.599 -30.126  1.00  0.00     0.007 A 
HETATM   22  C   UNL     1      -6.115   6.659 -31.021  1.00  0.00    -0.062 A 
HETATM   23  C   UNL     1      -7.229   7.645 -30.819  1.00  0.00     0.048 C 
HETATM   24  C   UNL     1      -5.207   6.808 -32.075  1.00  0.00     0.007 A 
HETATM   25  C   UNL     1      -4.177   5.882 -32.265  1.00  0.00     0.009 A 
ENDBRANCH  18  19
ENDBRANCH  15  18
ENDBRANCH   1  14
BRANCH   2  26
HETATM   26  N   UNL     1      -5.968   3.067 -34.024  1.00  0.00    -0.287 NA
HETATM   27  H   UNL     1      -5.087   3.588 -34.037  1.00  0.00     0.125 HD
HETATM   28  H   UNL     1      -6.528   3.333 -34.837  1.00  0.00     0.125 HD
ENDBRANCH   2  26
BRANCH   3  29
HETATM   29  C   UNL     1      -8.360   1.115 -33.582  1.00  0.00     0.042 A 
HETATM   30  C   UNL     1      -9.101   0.218 -32.796  1.00  0.00     0.032 A 
HETATM   31  C   UNL     1     -10.497   0.281 -32.742  1.00  0.00     0.032 A 
HETATM   32  C   UNL     1     -11.191   1.228 -33.486  1.00  0.00     0.034 A 
HETATM   33  C   UNL     1     -10.457   2.181 -34.200  1.00  0.00     0.032 A 
HETATM   34  C   UNL     1      -9.057   2.129 -34.249  1.00  0.00     0.032 A 
BRANCH  32  35
HETATM   35  N   UNL     1     -12.593   1.229 -33.629  1.00  0.00    -0.328 N 
HETATM   36  C   UNL     1     -13.425   0.124 -33.692  1.00  0.00     0.218 C 
HETATM   37  C   UNL     1     -14.825   0.487 -34.115  1.00  0.00     0.117 C 
HETATM   38  O   UNL     1     -13.129  -1.041 -33.445  1.00  0.00    -0.274 OA
HETATM   39  H   UNL     1     -13.021   2.132 -33.794  1.00  0.00     0.169 HD
ENDBRANCH  32  35
ENDBRANCH   3  29
TORSDOF 6
ENDMDL
MODEL 6
REMARK VINA RESULT:      -9.6      2.473      6.666
REMARK  6 active torsions:
REMARK  status: ('A' for Active; 'I' for Inactive)
REMARK    1  A    between atoms: C_5  and  C_6 
REMARK    2  A    between atoms: C_6  and  N_7 
REMARK       I    between atoms: N_7  and  C_8 
REMARK    3  A    between atoms: C_8  and  C_9 
REMARK    4  A    between atoms: C_10  and  N_11 
REMARK    5  A    between atoms: N_12  and  C_13 
REMARK    6  A    between atoms: C_16  and  N_17 
REMARK       I    between atoms: N_17  and  C_18 
ROOT
HETATM    1  C   UNL     1      -7.378   3.297 -32.991  1.00  0.00     0.103 C 
HETATM    2  C   UNL     1      -8.331   3.672 -33.936  1.00  0.00     0.105 C 
HETATM    3  N   UNL     1      -8.980   2.484 -34.291  1.00  0.00    -0.284 N 
HETATM    4  C   UNL     1      -7.988   1.511 -34.260  1.00  0.00     0.166 A 
HETATM    5  C   UNL     1      -7.037   1.965 -33.343  1.00  0.00     0.123 A 
HETATM    6  N   UNL     1      -6.027   1.158 -32.928  1.00  0.00    -0.242 NA
HETATM    7  C   UNL     1      -5.972  -0.037 -33.533  1.00  0.00     0.086 A 
HETATM    8  C   UNL     1      -6.923  -0.454 -34.501  1.00  0.00     0.088 A 
HETATM    9  N   UNL     1      -7.973   0.301 -34.864  1.00  0.00    -0.226 NA
HETATM   10  C   UNL     1      -4.933  -0.897 -33.202  1.00  0.00     0.034 A 
HETATM   11  C   UNL     1      -4.793  -2.146 -33.809  1.00  0.00     0.002 A 
HETATM   12  C   UNL     1      -5.714  -2.546 -34.768  1.00  0.00     0.002 A 
HETATM   13  C   UNL     1      -6.770  -1.699 -35.100  1.00  0.00     0.034 A 
ENDROOT
BRANCH   1  14
HETATM   14  C   UNL     1      -6.882   4.119 -31.894  1.00  0.00     0.257 C 
HETATM   15  N   UNL     1      -5.910   3.478 -31.150  1.00  0.00    -0.352 N 
HETATM   16  H   UNL     1      -5.675   2.542 -31.456  1.00  0.00     0.163 HD
HETATM   17  O   UNL     1      -7.182   5.294 -31.724  1.00  0.00    -0.267 OA
BRANCH  15  18
HETATM   18  C   UNL     1      -4.860   4.212 -30.486  1.00  0.00     0.161 C 
BRANCH  18  19
HETATM   19  C   UNL     1      -3.827   4.682 -31.485  1.00  0.00    -0.041 A 
HETATM   20  C   UNL     1      -3.498   6.043 -31.600  1.00  0.00     0.009 A 
HETATM   21  C   UNL     1      -2.585   6.482 -32.562  1.00  0.00     0.007 A 
HETATM   22  C   UNL     1      -1.965   5.566 -33.416  1.00  0.00    -0.062 A 
HETATM   23  C   UNL     1      -0.980   6.041 -34.443  1.00  0.00     0.048 C 
HETATM   24  C   UNL     1      -2.246   4.203 -33.268  1.00  0.00     0.007 A 
HETATM   25  C   UNL     1      -3.172   3.765 -32.315  1.00  0.00     0.009 A 
ENDBRANCH  18  19
ENDBRANCH  15  18
ENDBRANCH   1  14
BRANCH   2  26
HETATM   26  N   UNL     1      -8.725   4.910 -34.351  1.00  0.00    -0.287 NA
HETATM   27  H   UNL     1      -8.220   5.328 -35.138  1.00  0.00     0.125 HD
HETATM   28  H   UNL     1      -9.727   5.075 -34.469  1.00  0.00     0.125 HD
ENDBRANCH   2  26
BRANCH   3  29
HETATM   29  C   UNL     1     -10.403   2.281 -34.356  1.00  0.00     0.042 A 
HETATM   30  C   UNL     1     -11.226   3.256 -34.942  1.00  0.00     0.032 A 
HETATM   31  C   UNL     1     -12.613   3.238 -34.763  1.00  0.00     0.032 A 
HETATM   32  C   UNL     1     -13.212   2.259 -33.980  1.00  0.00     0.034 A 
HETATM   33  C   UNL     1     -12.409   1.234 -33.467  1.00  0.00     0.032 A 
HETATM   34  C   UNL     1     -11.019   1.241 -33.652  1.00  0.00     0.032 A 
BRANCH  32  35
HETATM   35  N   UNL     1     -14.570   2.287 -33.602  1.00  0.00    -0.328 N 
HETATM   36  C   UNL     1     -15.083   2.654 -32.369  1.00  0.00     0.218 C 
HETATM   37  C   UNL     1     -16.544   2.310 -32.234  1.00  0.00     0.117 C 
HETATM   38  O   UNL     1     -14.482   3.199 -31.448  1.00  0.00    -0.274 OA
HETATM   39  H   UNL     1     -15.225   1.913 -34.276  1.00  0.00     0.169 HD
ENDBRANCH  32  35
ENDBRANCH   3  29
TORSDOF 6
ENDMDL
MODEL 7
REMARK VINA RESULT:      -9.6      3.167      7.790
REMARK  6 active torsions:
REMARK  status: ('A' for Active; 'I' for Inactive)
REMARK    1  A    between atoms: C_5  and  C_6 
REMARK    2  A    between atoms: C_6  and  N_7 
REMARK       I    between atoms: N_7  and  C_8 
REMARK    3  A    between atoms: C_8  and  C_9 
REMARK    4  A    between atoms: C_10  and  N_11 
REMARK    5  A    between atoms: N_12  and  C_13 
REMARK    6  A    between atoms: C_16  and  N_17 
REMARK       I    between atoms: N_17  and  C_18 
ROOT
HETATM    1  C   UNL     1      -6.997   4.398 -33.398  1.00  0.00     0.103 C 
HETATM    2  C   UNL     1      -7.107   3.177 -32.735  1.00  0.00     0.105 C 
HETATM    3  N   UNL     1      -8.067   2.456 -33.453  1.00  0.00    -0.284 N 
HETATM    4  C   UNL     1      -8.989   3.408 -33.874  1.00  0.00     0.166 A 
HETATM    5  C   UNL     1      -8.283   4.611 -33.961  1.00  0.00     0.123 A 
HETATM    6  N   UNL     1      -8.842   5.708 -34.531  1.00  0.00    -0.242 NA
HETATM    7  C   UNL     1     -10.123   5.565 -34.900  1.00  0.00     0.086 A 
HETATM    8  C   UNL     1     -10.834   4.345 -34.753  1.00  0.00     0.088 A 
HETATM    9  N   UNL     1     -10.271   3.228 -34.264  1.00  0.00    -0.226 NA
HETATM   10  C   UNL     1     -10.780   6.662 -35.440  1.00  0.00     0.034 A 
HETATM   11  C   UNL     1     -12.122   6.598 -35.822  1.00  0.00     0.002 A 
HETATM   12  C   UNL     1     -12.821   5.410 -35.662  1.00  0.00     0.002 A 
HETATM   13  C   UNL     1     -12.169   4.295 -35.133  1.00  0.00     0.034 A 
ENDROOT
BRANCH   1  14
HETATM   14  C   UNL     1      -5.803   5.229 -33.479  1.00  0.00     0.257 C 
HETATM   15  N   UNL     1      -4.733   4.564 -34.049  1.00  0.00    -0.352 N 
HETATM   16  H   UNL     1      -4.914   3.608 -34.327  1.00  0.00     0.163 HD
HETATM   17  O   UNL     1      -5.774   6.423 -33.208  1.00  0.00    -0.267 OA
BRANCH  15  18
HETATM   18  C   UNL     1      -3.723   5.265 -34.803  1.00  0.00     0.161 C 
BRANCH  18  19
HETATM   19  C   UNL     1      -2.578   5.676 -33.904  1.00  0.00    -0.041 A 
HETATM   20  C   UNL     1      -1.952   4.744 -33.059  1.00  0.00     0.009 A 
HETATM   21  C   UNL     1      -0.932   5.136 -32.188  1.00  0.00     0.007 A 
HETATM   22  C   UNL     1      -0.503   6.466 -32.159  1.00  0.00    -0.062 A 
HETATM   23  C   UNL     1       0.598   6.881 -31.227  1.00  0.00     0.048 C 
HETATM   24  C   UNL     1      -1.082   7.386 -33.039  1.00  0.00     0.007 A 
HETATM   25  C   UNL     1      -2.114   6.996 -33.900  1.00  0.00     0.009 A 
ENDBRANCH  18  19
ENDBRANCH  15  18
ENDBRANCH   1  14
BRANCH   2  26
HETATM   26  N   UNL     1      -6.365   2.655 -31.716  1.00  0.00    -0.287 NA
HETATM   27  H   UNL     1      -6.257   3.222 -30.870  1.00  0.00     0.125 HD
HETATM   28  H   UNL     1      -6.543   1.684 -31.448  1.00  0.00     0.125 HD
ENDBRANCH   2  26
BRANCH   3  29
HETATM   29  C   UNL     1      -7.942   1.098 -33.911  1.00  0.00     0.042 A 
HETATM   30  C   UNL     1      -8.462   0.046 -33.141  1.00  0.00     0.032 A 
HETATM   31  C   UNL     1      -8.108  -1.284 -33.394  1.00  0.00     0.032 A 
HETATM   32  C   UNL     1      -7.212  -1.595 -34.409  1.00  0.00     0.034 A 
HETATM   33  C   UNL     1      -6.759  -0.563 -35.237  1.00  0.00     0.032 A 
HETATM   34  C   UNL     1      -7.119   0.771 -34.994  1.00  0.00     0.032 A 
BRANCH  32  35
HETATM   35  N   UNL     1      -6.667  -2.882 -34.598  1.00  0.00    -0.328 N 
HETATM   36  C   UNL     1      -5.357  -3.272 -34.372  1.00  0.00     0.218 C 
HETATM   37  C   UNL     1      -5.066  -4.640 -34.932  1.00  0.00     0.117 C 
HETATM   38  O   UNL     1      -4.483  -2.635 -33.793  1.00  0.00    -0.274 OA
HETATM   39  H   UNL     1      -7.278  -3.563 -35.029  1.00  0.00     0.169 HD
ENDBRANCH  32  35
ENDBRANCH   3  29
TORSDOF 6
ENDMDL
MODEL 8
REMARK VINA RESULT:      -9.6      3.175      7.541
REMARK  6 active torsions:
REMARK  status: ('A' for Active; 'I' for Inactive)
REMARK    1  A    between atoms: C_5  and  C_6 
REMARK    2  A    between atoms: C_6  and  N_7 
REMARK       I    between atoms: N_7  and  C_8 
REMARK    3  A    between atoms: C_8  and  C_9 
REMARK    4  A    between atoms: C_10  and  N_11 
REMARK    5  A    between atoms: N_12  and  C_13 
REMARK    6  A    between atoms: C_16  and  N_17 
REMARK       I    between atoms: N_17  and  C_18 
ROOT
HETATM    1  C   UNL     1      -4.129   4.444 -32.720  1.00  0.00     0.103 C 
HETATM    2  C   UNL     1      -4.204   3.168 -32.166  1.00  0.00     0.105 C 
HETATM    3  N   UNL     1      -5.564   2.839 -32.187  1.00  0.00    -0.284 N 
HETATM    4  C   UNL     1      -6.225   4.036 -31.938  1.00  0.00     0.166 A 
HETATM    5  C   UNL     1      -5.372   5.045 -32.391  1.00  0.00     0.123 A 
HETATM    6  N   UNL     1      -5.796   6.332 -32.475  1.00  0.00    -0.242 NA
HETATM    7  C   UNL     1      -7.032   6.553 -32.005  1.00  0.00     0.086 A 
HETATM    8  C   UNL     1      -7.860   5.516 -31.501  1.00  0.00     0.088 A 
HETATM    9  N   UNL     1      -7.485   4.226 -31.485  1.00  0.00    -0.226 NA
HETATM   10  C   UNL     1      -7.515   7.855 -32.005  1.00  0.00     0.034 A 
HETATM   11  C   UNL     1      -8.781   8.168 -31.507  1.00  0.00     0.002 A 
HETATM   12  C   UNL     1      -9.583   7.156 -30.998  1.00  0.00     0.002 A 
HETATM   13  C   UNL     1      -9.117   5.841 -31.005  1.00  0.00     0.034 A 
ENDROOT
BRANCH   1  14
HETATM   14  C   UNL     1      -3.009   4.991 -33.475  1.00  0.00     0.257 C 
HETATM   15  N   UNL     1      -3.028   6.372 -33.525  1.00  0.00    -0.352 N 
HETATM   16  H   UNL     1      -3.801   6.813 -33.042  1.00  0.00     0.163 HD
HETATM   17  O   UNL     1      -2.075   4.324 -33.903  1.00  0.00    -0.267 OA
BRANCH  15  18
HETATM   18  C   UNL     1      -1.811   7.142 -33.614  1.00  0.00     0.161 C 
BRANCH  18  19
HETATM   19  C   UNL     1      -1.175   7.289 -32.250  1.00  0.00    -0.041 A 
HETATM   20  C   UNL     1       0.068   6.699 -31.964  1.00  0.00     0.009 A 
HETATM   21  C   UNL     1       0.627   6.788 -30.686  1.00  0.00     0.007 A 
HETATM   22  C   UNL     1      -0.035   7.487 -29.673  1.00  0.00    -0.062 A 
HETATM   23  C   UNL     1       0.574   7.587 -28.306  1.00  0.00     0.048 C 
HETATM   24  C   UNL     1      -1.244   8.126 -29.969  1.00  0.00     0.007 A 
HETATM   25  C   UNL     1      -1.812   8.023 -31.243  1.00  0.00     0.009 A 
ENDBRANCH  18  19
ENDBRANCH  15  18
ENDBRANCH   1  14
BRANCH   2  26
HETATM   26  N   UNL     1      -3.214   2.297 -31.814  1.00  0.00    -0.287 NA
HETATM   27  H   UNL     1      -2.695   1.841 -32.570  1.00  0.00     0.125 HD
HETATM   28  H   UNL     1      -2.558   2.593 -31.087  1.00  0.00     0.125 HD
ENDBRANCH   2  26
BRANCH   3  29
HETATM   29  C   UNL     1      -6.132   1.610 -32.673  1.00  0.00     0.042 A 
HETATM   30  C   UNL     1      -6.269   0.510 -31.812  1.00  0.00     0.032 A 
HETATM   31  C   UNL     1      -6.534  -0.771 -32.307  1.00  0.00     0.032 A 
HETATM   32  C   UNL     1      -6.651  -0.990 -33.674  1.00  0.00     0.034 A 
HETATM   33  C   UNL     1      -6.605   0.114 -34.532  1.00  0.00     0.032 A 
HETATM   34  C   UNL     1      -6.350   1.403 -34.039  1.00  0.00     0.032 A 
BRANCH  32  35
HETATM   35  N   UNL     1      -6.727  -2.273 -34.253  1.00  0.00    -0.328 N 
HETATM   36  C   UNL     1      -5.668  -3.072 -34.648  1.00  0.00     0.218 C 
HETATM   37  C   UNL     1      -6.119  -4.254 -35.467  1.00  0.00     0.117 C 
HETATM   38  O   UNL     1      -4.478  -2.903 -34.399  1.00  0.00    -0.274 OA
HETATM   39  H   UNL     1      -7.657  -2.601 -34.484  1.00  0.00     0.169 HD
ENDBRANCH  32  35
ENDBRANCH   3  29
TORSDOF 6
ENDMDL
MODEL 9
REMARK VINA RESULT:      -9.5      2.267      2.686
REMARK  6 active torsions:
REMARK  status: ('A' for Active; 'I' for Inactive)
REMARK    1  A    between atoms: C_5  and  C_6 
REMARK    2  A    between atoms: C_6  and  N_7 
REMARK       I    between atoms: N_7  and  C_8 
REMARK    3  A    between atoms: C_8  and  C_9 
REMARK    4  A    between atoms: C_10  and  N_11 
REMARK    5  A    between atoms: N_12  and  C_13 
REMARK    6  A    between atoms: C_16  and  N_17 
REMARK       I    between atoms: N_17  and  C_18 
ROOT
HETATM    1  C   UNL     1      -4.972   2.457 -30.877  1.00  0.00     0.103 C 
HETATM    2  C   UNL     1      -6.061   2.983 -30.184  1.00  0.00     0.105 C 
HETATM    3  N   UNL     1      -6.217   4.282 -30.680  1.00  0.00    -0.284 N 
HETATM    4  C   UNL     1      -4.924   4.730 -30.921  1.00  0.00     0.166 A 
HETATM    5  C   UNL     1      -4.163   3.586 -31.171  1.00  0.00     0.123 A 
HETATM    6  N   UNL     1      -2.891   3.681 -31.635  1.00  0.00    -0.242 NA
HETATM    7  C   UNL     1      -2.415   4.931 -31.734  1.00  0.00     0.086 A 
HETATM    8  C   UNL     1      -3.194   6.077 -31.423  1.00  0.00     0.088 A 
HETATM    9  N   UNL     1      -4.479   6.002 -31.039  1.00  0.00    -0.226 NA
HETATM   10  C   UNL     1      -1.102   5.106 -32.149  1.00  0.00     0.034 A 
HETATM   11  C   UNL     1      -0.528   6.375 -32.249  1.00  0.00     0.002 A 
HETATM   12  C   UNL     1      -1.285   7.494 -31.929  1.00  0.00     0.002 A 
HETATM   13  C   UNL     1      -2.610   7.333 -31.524  1.00  0.00     0.034 A 
ENDROOT
BRANCH   1  14
HETATM   14  C   UNL     1      -4.761   1.055 -31.214  1.00  0.00     0.257 C 
HETATM   15  N   UNL     1      -4.400   0.877 -32.536  1.00  0.00    -0.352 N 
HETATM   16  H   UNL     1      -4.332   1.725 -33.086  1.00  0.00     0.163 HD
HETATM   17  O   UNL     1      -4.763   0.142 -30.398  1.00  0.00    -0.267 OA
BRANCH  15  18
HETATM   18  C   UNL     1      -3.554  -0.217 -32.949  1.00  0.00     0.161 C 
BRANCH  18  19
HETATM   19  C   UNL     1      -4.381  -1.329 -33.553  1.00  0.00    -0.041 A 
HETATM   20  C   UNL     1      -3.883  -2.640 -33.632  1.00  0.00     0.009 A 
HETATM   21  C   UNL     1      -4.625  -3.655 -34.241  1.00  0.00     0.007 A 
HETATM   22  C   UNL     1      -5.892  -3.384 -34.767  1.00  0.00    -0.062 A 
HETATM   23  C   UNL     1      -6.688  -4.479 -35.413  1.00  0.00     0.048 C 
HETATM   24  C   UNL     1      -6.417  -2.093 -34.639  1.00  0.00     0.007 A 
HETATM   25  C   UNL     1      -5.667  -1.074 -34.043  1.00  0.00     0.009 A 
ENDBRANCH  18  19
ENDBRANCH  15  18
ENDBRANCH   1  14
BRANCH   2  26
HETATM   26  N   UNL     1      -6.937   2.382 -29.328  1.00  0.00    -0.287 NA
HETATM   27  H   UNL     1      -7.151   2.868 -28.452  1.00  0.00     0.125 HD
HETATM   28  H   UNL     1      -7.801   2.003 -29.721  1.00  0.00     0.125 HD
ENDBRANCH   2  26
BRANCH   3  29
HETATM   29  C   UNL     1      -7.447   4.877 -31.129  1.00  0.00     0.042 A 
HETATM   30  C   UNL     1      -8.390   5.334 -30.194  1.00  0.00     0.032 A 
HETATM   31  C   UNL     1      -9.701   5.639 -30.574  1.00  0.00     0.032 A 
HETATM   32  C   UNL     1     -10.110   5.479 -31.893  1.00  0.00     0.034 A 
HETATM   33  C   UNL     1      -9.154   5.110 -32.846  1.00  0.00     0.032 A 
HETATM   34  C   UNL     1      -7.835   4.812 -32.471  1.00  0.00     0.032 A 
BRANCH  32  35
HETATM   35  N   UNL     1     -11.452   5.583 -32.309  1.00  0.00    -0.328 N 
HETATM   36  C   UNL     1     -12.315   4.542 -32.608  1.00  0.00     0.218 C 
HETATM   37  C   UNL     1     -13.579   5.021 -33.273  1.00  0.00     0.117 C 
HETATM   38  O   UNL     1     -12.140   3.348 -32.386  1.00  0.00    -0.274 OA
HETATM   39  H   UNL     1     -11.787   6.521 -32.495  1.00  0.00     0.169 HD
ENDBRANCH  32  35
ENDBRANCH   3  29
TORSDOF 6
ENDMDL
MODEL 10
REMARK VINA RESULT:      -9.5      2.512      8.379
REMARK  6 active torsions:
REMARK  status: ('A' for Active; 'I' for Inactive)
REMARK    1  A    between atoms: C_5  and  C_6 
REMARK    2  A    between atoms: C_6  and  N_7 
REMARK       I    between atoms: N_7  and  C_8 
REMARK    3  A    between atoms: C_8  and  C_9 
REMARK    4  A    between atoms: C_10  and  N_11 
REMARK    5  A    between atoms: N_12  and  C_13 
REMARK    6  A    between atoms: C_16  and  N_17 
REMARK       I    between atoms: N_17  and  C_18 
ROOT
HETATM    1  C   UNL     1      -8.784   3.654 -32.980  1.00  0.00     0.103 C 
HETATM    2  C   UNL     1      -7.903   2.804 -32.315  1.00  0.00     0.105 C 
HETATM    3  N   UNL     1      -8.178   1.527 -32.816  1.00  0.00    -0.284 N 
HETATM    4  C   UNL     1      -9.552   1.515 -33.027  1.00  0.00     0.166 A 
HETATM    5  C   UNL     1      -9.916   2.844 -33.257  1.00  0.00     0.123 A 
HETATM    6  N   UNL     1     -11.162   3.161 -33.690  1.00  0.00    -0.242 NA
HETATM    7  C   UNL     1     -12.012   2.128 -33.779  1.00  0.00     0.086 A 
HETATM    8  C   UNL     1     -11.630   0.791 -33.489  1.00  0.00     0.088 A 
HETATM    9  N   UNL     1     -10.380   0.451 -33.136  1.00  0.00    -0.226 NA
HETATM   10  C   UNL     1     -13.322   2.381 -34.163  1.00  0.00     0.034 A 
HETATM   11  C   UNL     1     -14.271   1.361 -34.251  1.00  0.00     0.002 A 
HETATM   12  C   UNL     1     -13.901   0.057 -33.951  1.00  0.00     0.002 A 
HETATM   13  C   UNL     1     -12.585  -0.214 -33.578  1.00  0.00     0.034 A 
ENDROOT
BRANCH   1  14
HETATM   14  C   UNL     1      -8.547   5.054 -33.310  1.00  0.00     0.257 C 
HETATM   15  N   UNL     1      -7.944   5.747 -32.277  1.00  0.00    -0.352 N 
HETATM   16  H   UNL     1      -7.752   5.204 -31.444  1.00  0.00     0.163 HD
HETATM   17  O   UNL     1      -8.727   5.541 -34.419  1.00  0.00    -0.267 OA
BRANCH  15  18
HETATM   18  C   UNL     1      -7.063   6.861 -32.527  1.00  0.00     0.161 C 
BRANCH  18  19
HETATM   19  C   UNL     1      -5.622   6.404 -32.551  1.00  0.00    -0.041 A 
HETATM   20  C   UNL     1      -5.142   5.577 -33.581  1.00  0.00     0.009 A 
HETATM   21  C   UNL     1      -3.826   5.109 -33.571  1.00  0.00     0.007 A 
HETATM   22  C   UNL     1      -2.954   5.475 -32.541  1.00  0.00    -0.062 A 
HETATM   23  C   UNL     1      -1.539   4.976 -32.539  1.00  0.00     0.048 C 
HETATM   24  C   UNL     1      -3.410   6.344 -31.544  1.00  0.00     0.007 A 
HETATM   25  C   UNL     1      -4.733   6.800 -31.545  1.00  0.00     0.009 A 
ENDBRANCH  18  19
ENDBRANCH  15  18
ENDBRANCH   1  14
BRANCH   2  26
HETATM   26  N   UNL     1      -6.863   3.088 -31.479  1.00  0.00    -0.287 NA
HETATM   27  H   UNL     1      -6.857   2.635 -30.560  1.00  0.00     0.125 HD
HETATM   28  H   UNL     1      -5.919   3.065 -31.871  1.00  0.00     0.125 HD
ENDBRANCH   2  26
BRANCH   3  29
HETATM   29  C   UNL     1      -7.211   0.577 -33.295  1.00  0.00     0.042 A 
HETATM   30  C   UNL     1      -7.316   0.061 -34.596  1.00  0.00     0.032 A 
HETATM   31  C   UNL     1      -6.588  -1.065 -34.993  1.00  0.00     0.032 A 
HETATM   32  C   UNL     1      -5.751  -1.717 -34.096  1.00  0.00     0.034 A 
HETATM   33  C   UNL     1      -5.572  -1.158 -32.825  1.00  0.00     0.032 A 
HETATM   34  C   UNL     1      -6.292  -0.022 -32.427  1.00  0.00     0.032 A 
BRANCH  32  35
HETATM   35  N   UNL     1      -5.138  -2.958 -34.364  1.00  0.00    -0.328 N 
HETATM   36  C   UNL     1      -5.772  -4.156 -34.645  1.00  0.00     0.218 C 
HETATM   37  C   UNL     1      -4.822  -5.325 -34.613  1.00  0.00     0.117 C 
HETATM   38  O   UNL     1      -6.960  -4.324 -34.900  1.00  0.00    -0.274 OA
HETATM   39  H   UNL     1      -4.132  -2.989 -34.248  1.00  0.00     0.169 HD
ENDBRANCH  32  35
ENDBRANCH   3  29
TORSDOF 6
ENDMDL
