MODEL 1
REMARK VINA RESULT:      -9.6      0.000      0.000
REMARK  9 active torsions:
REMARK  status: ('A' for Active; 'I' for Inactive)
REMARK    1  A    between atoms: C_2  and  C_3 
REMARK    2  A    between atoms: C_3  and  C_4 
REMARK    3  A    between atoms: C_4  and  C_5 
REMARK    4  A    between atoms: C_5  and  N_6 
REMARK    5  A    between atoms: C_15  and  C_16 
REMARK       I    between atoms: C_16  and  N_17 
REMARK    6  A    between atoms: N_17  and  C_18 
REMARK    7  A    between atoms: C_18  and  C_19 
REMARK    8  A    between atoms: C_19  and  N_20 
REMARK    9  A    between atoms: N_24  and  C_25 
ROOT
HETATM    1  C   UNL     1      -6.907   4.154 -33.031  1.00  0.00     0.251 C 
HETATM    2  N   UNL     1      -7.741   3.860 -31.976  1.00  0.00    -0.355 N 
HETATM    3  O   UNL     1      -7.301   4.184 -34.193  1.00  0.00    -0.268 OA
HETATM    4  H   UNL     1      -7.345   3.884 -31.042  1.00  0.00     0.162 HD
ENDROOT
BRANCH   1   5
HETATM    5  C   UNL     1      -5.487   4.449 -32.722  1.00  0.00     0.034 A 
HETATM    6  C   UNL     1      -4.951   5.732 -32.903  1.00  0.00     0.047 A 
HETATM    7  C   UNL     1      -3.645   5.993 -32.479  1.00  0.00     0.053 A 
HETATM    8  N   UNL     1      -3.109   7.269 -32.616  1.00  0.00    -0.308 N 
HETATM    9  C   UNL     1      -2.878   4.990 -31.895  1.00  0.00     0.059 A 
HETATM   10  C   UNL     1      -1.868   7.630 -32.168  1.00  0.00     0.329 A 
HETATM   11  H   UNL     1      -3.631   8.023 -33.047  1.00  0.00     0.170 HD
HETATM   12  N   UNL     1      -1.124   6.649 -31.534  1.00  0.00    -0.266 N 
HETATM   13  O   UNL     1      -1.492   8.787 -32.346  1.00  0.00    -0.246 OA
HETATM   14  C   UNL     1      -1.523   5.321 -31.418  1.00  0.00     0.264 A 
HETATM   15  O   UNL     1      -0.829   4.425 -30.942  1.00  0.00    -0.267 OA
HETATM   16  C   UNL     1      -3.404   3.705 -31.732  1.00  0.00     0.020 A 
HETATM   17  C   UNL     1      -4.713   3.438 -32.135  1.00  0.00     0.018 A 
BRANCH  12  18
HETATM   18  C   UNL     1       0.188   7.013 -31.007  1.00  0.00     0.137 C 
BRANCH  18  19
HETATM   19  C   UNL     1       0.092   7.664 -29.625  1.00  0.00     0.020 C 
BRANCH  19  20
HETATM   20  C   UNL     1       0.221   6.616 -28.519  1.00  0.00     0.001 C 
BRANCH  20  21
HETATM   21  C   UNL     1       1.136   7.099 -27.394  1.00  0.00    -0.004 C 
HETATM   22  C   UNL     1       1.453   8.579 -27.534  1.00  0.00     0.005 C 
ENDBRANCH  20  21
ENDBRANCH  19  20
ENDBRANCH  18  19
ENDBRANCH  12  18
ENDBRANCH   1   5
BRANCH   2  23
HETATM   23  C   UNL     1      -9.058   3.238 -32.110  1.00  0.00     0.150 C 
BRANCH  23  24
HETATM   24  C   UNL     1      -9.107   1.711 -32.362  1.00  0.00     0.254 C 
BRANCH  24  25
HETATM   25  N   UNL     1      -7.853   1.164 -32.992  1.00  0.00    -0.067 N 
HETATM   26  H   UNL     1      -7.267   1.995 -33.220  1.00  0.00     0.280 HD
HETATM   27  C   UNL     1      -6.977   0.308 -32.081  1.00  0.00     0.254 C 
HETATM   28  C   UNL     1      -5.648  -0.025 -32.791  1.00  0.00     0.150 C 
HETATM   29  N   UNL     1      -5.894  -0.671 -34.091  1.00  0.00    -0.378 N 
HETATM   30  C   UNL     1      -6.762   0.098 -35.007  1.00  0.00     0.150 C 
HETATM   31  C   UNL     1      -8.100   0.458 -34.320  1.00  0.00     0.254 C 
BRANCH  29  32
HETATM   32  C   UNL     1      -5.768  -2.044 -34.260  1.00  0.00     0.031 A 
HETATM   33  C   UNL     1      -4.579  -2.739 -33.992  1.00  0.00     0.053 A 
HETATM   34  C   UNL     1      -4.474  -4.119 -34.204  1.00  0.00     0.036 A 
HETATM   35 CL   UNL     1      -2.992  -4.919 -33.846  1.00  0.00    -0.084 Cl
HETATM   36  C   UNL     1      -5.549  -4.846 -34.696  1.00  0.00     0.024 A 
HETATM   37  C   UNL     1      -6.736  -4.184 -34.983  1.00  0.00     0.004 A 
HETATM   38  C   UNL     1      -6.837  -2.804 -34.768  1.00  0.00     0.029 A 
ENDBRANCH  29  32
ENDBRANCH  24  25
ENDBRANCH  23  24
ENDBRANCH   2  23
TORSDOF 9
ENDMDL
MODEL 2
REMARK VINA RESULT:      -9.1      1.845      2.586
REMARK  9 active torsions:
REMARK  status: ('A' for Active; 'I' for Inactive)
REMARK    1  A    between atoms: C_2  and  C_3 
REMARK    2  A    between atoms: C_3  and  C_4 
REMARK    3  A    between atoms: C_4  and  C_5 
REMARK    4  A    between atoms: C_5  and  N_6 
REMARK    5  A    between atoms: C_15  and  C_16 
REMARK       I    between atoms: C_16  and  N_17 
REMARK    6  A    between atoms: N_17  and  C_18 
REMARK    7  A    between atoms: C_18  and  C_19 
REMARK    8  A    between atoms: C_19  and  N_20 
REMARK    9  A    between atoms: N_24  and  C_25 
ROOT
HETATM    1  C   UNL     1      -5.112   5.090 -33.886  1.00  0.00     0.251 C 
HETATM    2  N   UNL     1      -6.358   5.337 -33.358  1.00  0.00    -0.355 N 
HETATM    3  O   UNL     1      -4.954   4.623 -35.010  1.00  0.00    -0.268 OA
HETATM    4  H   UNL     1      -6.404   5.750 -32.432  1.00  0.00     0.162 HD
ENDROOT
BRANCH   1   5
HETATM    5  C   UNL     1      -3.933   5.414 -33.047  1.00  0.00     0.034 A 
HETATM    6  C   UNL     1      -4.048   6.222 -31.906  1.00  0.00     0.047 A 
HETATM    7  C   UNL     1      -2.937   6.395 -31.077  1.00  0.00     0.053 A 
HETATM    8  N   UNL     1      -3.042   7.163 -29.921  1.00  0.00    -0.308 N 
HETATM    9  C   UNL     1      -1.725   5.785 -31.382  1.00  0.00     0.059 A 
HETATM   10  C   UNL     1      -2.028   7.330 -29.018  1.00  0.00     0.329 A 
HETATM   11  H   UNL     1      -3.904   7.633 -29.670  1.00  0.00     0.170 HD
HETATM   12  N   UNL     1      -0.838   6.676 -29.290  1.00  0.00    -0.266 N 
HETATM   13  O   UNL     1      -2.229   8.034 -28.031  1.00  0.00    -0.246 OA
HETATM   14  C   UNL     1      -0.592   5.955 -30.454  1.00  0.00     0.264 A 
HETATM   15  O   UNL     1       0.490   5.452 -30.747  1.00  0.00    -0.267 OA
HETATM   16  C   UNL     1      -1.603   4.995 -32.530  1.00  0.00     0.020 A 
HETATM   17  C   UNL     1      -2.712   4.801 -33.355  1.00  0.00     0.018 A 
BRANCH  12  18
HETATM   18  C   UNL     1       0.251   6.800 -28.325  1.00  0.00     0.137 C 
BRANCH  18  19
HETATM   19  C   UNL     1       1.167   7.984 -28.642  1.00  0.00     0.020 C 
BRANCH  19  20
HETATM   20  C   UNL     1       1.512   8.762 -27.372  1.00  0.00     0.001 C 
BRANCH  20  21
HETATM   21  C   UNL     1       1.651   7.834 -26.166  1.00  0.00    -0.004 C 
HETATM   22  C   UNL     1       2.317   8.540 -24.996  1.00  0.00     0.005 C 
ENDBRANCH  20  21
ENDBRANCH  19  20
ENDBRANCH  18  19
ENDBRANCH  12  18
ENDBRANCH   1   5
BRANCH   2  23
HETATM   23  C   UNL     1      -7.607   4.792 -33.889  1.00  0.00     0.150 C 
BRANCH  23  24
HETATM   24  C   UNL     1      -8.669   4.309 -32.869  1.00  0.00     0.254 C 
BRANCH  24  25
HETATM   25  N   UNL     1      -8.733   2.811 -32.729  1.00  0.00    -0.067 N 
HETATM   26  H   UNL     1      -9.662   2.608 -32.303  1.00  0.00     0.280 HD
HETATM   27  C   UNL     1      -8.724   2.025 -34.036  1.00  0.00     0.254 C 
HETATM   28  C   UNL     1      -8.981   0.530 -33.753  1.00  0.00     0.150 C 
HETATM   29  N   UNL     1      -8.007   0.004 -32.781  1.00  0.00    -0.378 N 
HETATM   30  C   UNL     1      -7.948   0.744 -31.504  1.00  0.00     0.150 C 
HETATM   31  C   UNL     1      -7.703   2.250 -31.754  1.00  0.00     0.254 C 
BRANCH  29  32
HETATM   32  C   UNL     1      -6.916  -0.758 -33.181  1.00  0.00     0.031 A 
HETATM   33  C   UNL     1      -5.704  -0.783 -32.476  1.00  0.00     0.053 A 
HETATM   34  C   UNL     1      -4.611  -1.537 -32.923  1.00  0.00     0.036 A 
HETATM   35 CL   UNL     1      -3.153  -1.536 -32.009  1.00  0.00    -0.084 Cl
HETATM   36  C   UNL     1      -4.693  -2.282 -34.092  1.00  0.00     0.024 A 
HETATM   37  C   UNL     1      -5.877  -2.268 -34.819  1.00  0.00     0.004 A 
HETATM   38  C   UNL     1      -6.967  -1.514 -34.366  1.00  0.00     0.029 A 
ENDBRANCH  29  32
ENDBRANCH  24  25
ENDBRANCH  23  24
ENDBRANCH   2  23
TORSDOF 9
ENDMDL
MODEL 3
REMARK VINA RESULT:      -8.8      1.903      2.905
REMARK  9 active torsions:
REMARK  status: ('A' for Active; 'I' for Inactive)
REMARK    1  A    between atoms: C_2  and  C_3 
REMARK    2  A    between atoms: C_3  and  C_4 
REMARK    3  A    between atoms: C_4  and  C_5 
REMARK    4  A    between atoms: C_5  and  N_6 
REMARK    5  A    between atoms: C_15  and  C_16 
REMARK       I    between atoms: C_16  and  N_17 
REMARK    6  A    between atoms: N_17  and  C_18 
REMARK    7  A    between atoms: C_18  and  C_19 
REMARK    8  A    between atoms: C_19  and  N_20 
REMARK    9  A    between atoms: N_24  and  C_25 
ROOT
HETATM    1  C   UNL     1      -6.273   4.921 -33.512  1.00  0.00     0.251 C 
HETATM    2  N   UNL     1      -7.444   5.643 -33.490  1.00  0.00    -0.355 N 
HETATM    3  O   UNL     1      -6.092   3.983 -34.282  1.00  0.00    -0.268 OA
HETATM    4  H   UNL     1      -7.506   6.422 -32.843  1.00  0.00     0.162 HD
ENDROOT
BRANCH   1   5
HETATM    5  C   UNL     1      -5.204   5.317 -32.563  1.00  0.00     0.034 A 
HETATM    6  C   UNL     1      -3.916   4.769 -32.642  1.00  0.00     0.047 A 
HETATM    7  C   UNL     1      -2.910   5.266 -31.810  1.00  0.00     0.053 A 
HETATM    8  N   UNL     1      -1.616   4.760 -31.901  1.00  0.00    -0.308 N 
HETATM    9  C   UNL     1      -3.181   6.283 -30.903  1.00  0.00     0.059 A 
HETATM   10  C   UNL     1      -0.557   5.232 -31.176  1.00  0.00     0.329 A 
HETATM   11  H   UNL     1      -1.381   4.011 -32.541  1.00  0.00     0.170 HD
HETATM   12  N   UNL     1      -0.812   6.285 -30.313  1.00  0.00    -0.266 N 
HETATM   13  O   UNL     1       0.543   4.708 -31.333  1.00  0.00    -0.246 OA
HETATM   14  C   UNL     1      -2.079   6.812 -30.078  1.00  0.00     0.264 A 
HETATM   15  O   UNL     1      -2.328   7.680 -29.245  1.00  0.00    -0.267 OA
HETATM   16  C   UNL     1      -4.470   6.818 -30.808  1.00  0.00     0.020 A 
HETATM   17  C   UNL     1      -5.479   6.342 -31.647  1.00  0.00     0.018 A 
BRANCH  12  18
HETATM   18  C   UNL     1       0.306   6.840 -29.556  1.00  0.00     0.137 C 
BRANCH  18  19
HETATM   19  C   UNL     1       0.583   6.046 -28.277  1.00  0.00     0.020 C 
BRANCH  19  20
HETATM   20  C   UNL     1       0.652   6.974 -27.063  1.00  0.00     0.001 C 
BRANCH  20  21
HETATM   21  C   UNL     1       1.468   8.230 -27.364  1.00  0.00    -0.004 C 
HETATM   22  C   UNL     1       2.139   8.769 -26.112  1.00  0.00     0.005 C 
ENDBRANCH  20  21
ENDBRANCH  19  20
ENDBRANCH  18  19
ENDBRANCH  12  18
ENDBRANCH   1   5
BRANCH   2  23
HETATM   23  C   UNL     1      -8.699   5.206 -34.104  1.00  0.00     0.150 C 
BRANCH  23  24
HETATM   24  C   UNL     1      -9.782   4.608 -33.171  1.00  0.00     0.254 C 
BRANCH  24  25
HETATM   25  N   UNL     1      -9.700   3.110 -33.035  1.00  0.00    -0.067 N 
HETATM   26  H   UNL     1     -10.668   2.794 -32.817  1.00  0.00     0.280 HD
HETATM   27  C   UNL     1      -9.320   2.352 -34.304  1.00  0.00     0.254 C 
HETATM   28  C   UNL     1      -9.457   0.833 -34.070  1.00  0.00     0.150 C 
HETATM   29  N   UNL     1      -8.659   0.407 -32.909  1.00  0.00    -0.378 N 
HETATM   30  C   UNL     1      -8.961   1.127 -31.654  1.00  0.00     0.150 C 
HETATM   31  C   UNL     1      -8.844   2.655 -31.859  1.00  0.00     0.254 C 
BRANCH  29  32
HETATM   32  C   UNL     1      -7.427  -0.218 -33.059  1.00  0.00     0.031 A 
HETATM   33  C   UNL     1      -6.357  -0.018 -32.174  1.00  0.00     0.053 A 
HETATM   34  C   UNL     1      -5.117  -0.638 -32.372  1.00  0.00     0.036 A 
HETATM   35 CL   UNL     1      -3.845  -0.362 -31.246  1.00  0.00    -0.084 Cl
HETATM   36  C   UNL     1      -4.905  -1.469 -33.464  1.00  0.00     0.024 A 
HETATM   37  C   UNL     1      -5.942  -1.678 -34.365  1.00  0.00     0.004 A 
HETATM   38  C   UNL     1      -7.180  -1.057 -34.161  1.00  0.00     0.029 A 
ENDBRANCH  29  32
ENDBRANCH  24  25
ENDBRANCH  23  24
ENDBRANCH   2  23
TORSDOF 9
ENDMDL
MODEL 4
REMARK VINA RESULT:      -8.7      2.743      4.517
REMARK  9 active torsions:
REMARK  status: ('A' for Active; 'I' for Inactive)
REMARK    1  A    between atoms: C_2  and  C_3 
REMARK    2  A    between atoms: C_3  and  C_4 
REMARK    3  A    between atoms: C_4  and  C_5 
REMARK    4  A    between atoms: C_5  and  N_6 
REMARK    5  A    between atoms: C_15  and  C_16 
REMARK       I    between atoms: C_16  and  N_17 
REMARK    6  A    between atoms: N_17  and  C_18 
REMARK    7  A    between atoms: C_18  and  C_19 
REMARK    8  A    between atoms: C_19  and  N_20 
REMARK    9  A    between atoms: N_24  and  C_25 
ROOT
HETATM    1  C   UNL     1      -2.121   5.068 -31.277  1.00  0.00     0.251 C 
HETATM    2  N   UNL     1      -3.465   4.888 -31.045  1.00  0.00    -0.355 N 
HETATM    3  O   UNL     1      -1.506   4.426 -32.123  1.00  0.00    -0.268 OA
HETATM    4  H   UNL     1      -3.907   5.478 -30.348  1.00  0.00     0.162 HD
ENDROOT
BRANCH   1   5
HETATM    5  C   UNL     1      -1.415   6.089 -30.465  1.00  0.00     0.034 A 
HETATM    6  C   UNL     1      -2.097   6.877 -29.526  1.00  0.00     0.047 A 
HETATM    7  C   UNL     1      -1.370   7.734 -28.696  1.00  0.00     0.053 A 
HETATM    8  N   UNL     1      -2.026   8.495 -27.733  1.00  0.00    -0.308 N 
HETATM    9  C   UNL     1       0.014   7.817 -28.805  1.00  0.00     0.059 A 
HETATM   10  C   UNL     1      -1.389   9.307 -26.835  1.00  0.00     0.329 A 
HETATM   11  H   UNL     1      -3.033   8.471 -27.631  1.00  0.00     0.170 HD
HETATM   12  N   UNL     1      -0.007   9.347 -26.903  1.00  0.00    -0.266 N 
HETATM   13  O   UNL     1      -2.068   9.939 -26.029  1.00  0.00    -0.246 OA
HETATM   14  C   UNL     1       0.747   8.697 -27.876  1.00  0.00     0.264 A 
HETATM   15  O   UNL     1       1.964   8.804 -28.001  1.00  0.00    -0.267 OA
HETATM   16  C   UNL     1       0.694   7.047 -29.754  1.00  0.00     0.020 A 
HETATM   17  C   UNL     1      -0.020   6.174 -30.576  1.00  0.00     0.018 A 
BRANCH  12  18
HETATM   18  C   UNL     1       0.706  10.172 -25.931  1.00  0.00     0.137 C 
BRANCH  18  19
HETATM   19  C   UNL     1       0.984   9.415 -24.630  1.00  0.00     0.020 C 
BRANCH  19  20
HETATM   20  C   UNL     1       2.414   8.874 -24.609  1.00  0.00     0.001 C 
BRANCH  20  21
HETATM   21  C   UNL     1       3.398   9.913 -24.074  1.00  0.00    -0.004 C 
HETATM   22  C   UNL     1       2.895  10.542 -22.785  1.00  0.00     0.005 C 
ENDBRANCH  20  21
ENDBRANCH  19  20
ENDBRANCH  18  19
ENDBRANCH  12  18
ENDBRANCH   1   5
BRANCH   2  23
HETATM   23  C   UNL     1      -4.237   3.732 -31.502  1.00  0.00     0.150 C 
BRANCH  23  24
HETATM   24  C   UNL     1      -5.781   3.866 -31.524  1.00  0.00     0.254 C 
BRANCH  24  25
HETATM   25  N   UNL     1      -6.478   2.700 -32.174  1.00  0.00    -0.067 N 
HETATM   26  H   UNL     1      -7.483   2.968 -32.228  1.00  0.00     0.280 HD
HETATM   27  C   UNL     1      -6.074   2.411 -33.617  1.00  0.00     0.254 C 
HETATM   28  C   UNL     1      -6.992   1.323 -34.212  1.00  0.00     0.150 C 
HETATM   29  N   UNL     1      -6.977   0.109 -33.378  1.00  0.00    -0.378 N 
HETATM   30  C   UNL     1      -7.331   0.330 -31.961  1.00  0.00     0.150 C 
HETATM   31  C   UNL     1      -6.435   1.426 -31.337  1.00  0.00     0.254 C 
BRANCH  29  32
HETATM   32  C   UNL     1      -6.233  -1.010 -33.730  1.00  0.00     0.031 A 
HETATM   33  C   UNL     1      -6.784  -2.111 -34.404  1.00  0.00     0.053 A 
HETATM   34  C   UNL     1      -6.015  -3.238 -34.716  1.00  0.00     0.036 A 
HETATM   35 CL   UNL     1      -6.744  -4.554 -35.553  1.00  0.00    -0.084 Cl
HETATM   36  C   UNL     1      -4.675  -3.305 -34.359  1.00  0.00     0.024 A 
HETATM   37  C   UNL     1      -4.104  -2.235 -33.681  1.00  0.00     0.004 A 
HETATM   38  C   UNL     1      -4.877  -1.109 -33.373  1.00  0.00     0.029 A 
ENDBRANCH  29  32
ENDBRANCH  24  25
ENDBRANCH  23  24
ENDBRANCH   2  23
TORSDOF 9
ENDMDL
MODEL 5
REMARK VINA RESULT:      -8.7      3.685     11.032
REMARK  9 active torsions:
REMARK  status: ('A' for Active; 'I' for Inactive)
REMARK    1  A    between atoms: C_2  and  C_3 
REMARK    2  A    between atoms: C_3  and  C_4 
REMARK    3  A    between atoms: C_4  and  C_5 
REMARK    4  A    between atoms: C_5  and  N_6 
REMARK    5  A    between atoms: C_15  and  C_16 
REMARK       I    between atoms: C_16  and  N_17 
REMARK    6  A    between atoms: N_17  and  C_18 
REMARK    7  A    between atoms: C_18  and  C_19 
REMARK    8  A    between atoms: C_19  and  N_20 
REMARK    9  A    between atoms: N_24  and  C_25 
ROOT
HETATM    1  C   UNL     1      -2.464   4.795 -32.169  1.00  0.00     0.251 C 
HETATM    2  N   UNL     1      -2.961   6.014 -32.568  1.00  0.00    -0.355 N 
HETATM    3  O   UNL     1      -1.295   4.641 -31.827  1.00  0.00    -0.268 OA
HETATM    4  H   UNL     1      -3.946   6.066 -32.809  1.00  0.00     0.162 HD
ENDROOT
BRANCH   1   5
HETATM    5  C   UNL     1      -3.399   3.644 -32.153  1.00  0.00     0.034 A 
HETATM    6  C   UNL     1      -4.471   3.561 -33.054  1.00  0.00     0.047 A 
HETATM    7  C   UNL     1      -5.247   2.399 -33.086  1.00  0.00     0.053 A 
HETATM    8  N   UNL     1      -6.291   2.283 -33.999  1.00  0.00    -0.308 N 
HETATM    9  C   UNL     1      -4.971   1.340 -32.228  1.00  0.00     0.059 A 
HETATM   10  C   UNL     1      -7.057   1.159 -34.146  1.00  0.00     0.329 A 
HETATM   11  H   UNL     1      -6.531   3.036 -34.632  1.00  0.00     0.170 HD
HETATM   12  N   UNL     1      -6.747   0.082 -33.333  1.00  0.00    -0.266 N 
HETATM   13  O   UNL     1      -7.958   1.168 -34.982  1.00  0.00    -0.246 OA
HETATM   14  C   UNL     1      -5.784   0.114 -32.329  1.00  0.00     0.264 A 
HETATM   15  O   UNL     1      -5.568  -0.803 -31.542  1.00  0.00    -0.267 OA
HETATM   16  C   UNL     1      -3.914   1.430 -31.316  1.00  0.00     0.020 A 
HETATM   17  C   UNL     1      -3.121   2.578 -31.287  1.00  0.00     0.018 A 
BRANCH  12  18
HETATM   18  C   UNL     1      -7.519  -1.146 -33.495  1.00  0.00     0.137 C 
BRANCH  18  19
HETATM   19  C   UNL     1      -7.087  -1.936 -34.733  1.00  0.00     0.020 C 
BRANCH  19  20
HETATM   20  C   UNL     1      -5.622  -2.359 -34.628  1.00  0.00     0.001 C 
BRANCH  20  21
HETATM   21  C   UNL     1      -5.433  -3.828 -35.004  1.00  0.00    -0.004 C 
HETATM   22  C   UNL     1      -6.768  -4.514 -35.244  1.00  0.00     0.005 C 
ENDBRANCH  20  21
ENDBRANCH  19  20
ENDBRANCH  18  19
ENDBRANCH  12  18
ENDBRANCH   1   5
BRANCH   2  23
HETATM   23  C   UNL     1      -2.136   7.160 -32.953  1.00  0.00     0.150 C 
BRANCH  23  24
HETATM   24  C   UNL     1      -1.731   8.157 -31.839  1.00  0.00     0.254 C 
BRANCH  24  25
HETATM   25  N   UNL     1      -1.456   7.499 -30.512  1.00  0.00    -0.067 N 
HETATM   26  H   UNL     1      -1.880   6.550 -30.576  1.00  0.00     0.280 HD
HETATM   27  C   UNL     1       0.015   7.249 -30.193  1.00  0.00     0.254 C 
HETATM   28  C   UNL     1       0.138   6.409 -28.905  1.00  0.00     0.150 C 
HETATM   29  N   UNL     1      -0.570   7.055 -27.787  1.00  0.00    -0.378 N 
HETATM   30  C   UNL     1      -1.994   7.351 -28.047  1.00  0.00     0.150 C 
HETATM   31  C   UNL     1      -2.153   8.183 -29.341  1.00  0.00     0.254 C 
BRANCH  29  32
HETATM   32  C   UNL     1       0.109   7.770 -26.808  1.00  0.00     0.031 A 
HETATM   33  C   UNL     1      -0.526   8.680 -25.950  1.00  0.00     0.053 A 
HETATM   34  C   UNL     1       0.193   9.409 -24.994  1.00  0.00     0.036 A 
HETATM   35 CL   UNL     1      -0.643  10.504 -23.962  1.00  0.00    -0.084 Cl
HETATM   36  C   UNL     1       1.568   9.258 -24.872  1.00  0.00     0.024 A 
HETATM   37  C   UNL     1       2.227   8.373 -25.716  1.00  0.00     0.004 A 
HETATM   38  C   UNL     1       1.503   7.645 -26.668  1.00  0.00     0.029 A 
ENDBRANCH  29  32
ENDBRANCH  24  25
ENDBRANCH  23  24
ENDBRANCH   2  23
TORSDOF 9
ENDMDL
MODEL 6
REMARK VINA RESULT:      -8.6      1.536      2.100
REMARK  9 active torsions:
REMARK  status: ('A' for Active; 'I' for Inactive)
REMARK    1  A    between atoms: C_2  and  C_3 
REMARK    2  A    between atoms: C_3  and  C_4 
REMARK    3  A    between atoms: C_4  and  C_5 
REMARK    4  A    between atoms: C_5  and  N_6 
REMARK    5  A    between atoms: C_15  and  C_16 
REMARK       I    between atoms: C_16  and  N_17 
REMARK    6  A    between atoms: N_17  and  C_18 
REMARK    7  A    between atoms: C_18  and  C_19 
REMARK    8  A    between atoms: C_19  and  N_20 
REMARK    9  A    between atoms: N_24  and  C_25 
ROOT
HETATM    1  C   UNL     1      -7.905   5.188 -31.167  1.00  0.00     0.251 C 
HETATM    2  N   UNL     1      -8.071   3.834 -31.343  1.00  0.00    -0.355 N 
HETATM    3  O   UNL     1      -8.835   5.984 -31.265  1.00  0.00    -0.268 OA
HETATM    4  H   UNL     1      -7.258   3.239 -31.217  1.00  0.00     0.162 HD
ENDROOT
BRANCH   1   5
HETATM    5  C   UNL     1      -6.544   5.677 -30.839  1.00  0.00     0.034 A 
HETATM    6  C   UNL     1      -5.410   4.879 -31.051  1.00  0.00     0.047 A 
HETATM    7  C   UNL     1      -4.141   5.427 -30.848  1.00  0.00     0.053 A 
HETATM    8  N   UNL     1      -3.004   4.662 -31.089  1.00  0.00    -0.308 N 
HETATM    9  C   UNL     1      -4.000   6.745 -30.428  1.00  0.00     0.059 A 
HETATM   10  C   UNL     1      -1.725   5.138 -30.982  1.00  0.00     0.329 A 
HETATM   11  H   UNL     1      -3.065   3.696 -31.384  1.00  0.00     0.170 HD
HETATM   12  N   UNL     1      -1.582   6.466 -30.620  1.00  0.00    -0.266 N 
HETATM   13  O   UNL     1      -0.793   4.372 -31.214  1.00  0.00    -0.246 OA
HETATM   14  C   UNL     1      -2.642   7.299 -30.273  1.00  0.00     0.264 A 
HETATM   15  O   UNL     1      -2.517   8.449 -29.860  1.00  0.00    -0.267 OA
HETATM   16  C   UNL     1      -5.130   7.537 -30.197  1.00  0.00     0.020 A 
HETATM   17  C   UNL     1      -6.401   7.005 -30.414  1.00  0.00     0.018 A 
BRANCH  12  18
HETATM   18  C   UNL     1      -0.232   7.015 -30.538  1.00  0.00     0.137 C 
BRANCH  18  19
HETATM   19  C   UNL     1       0.370   6.853 -29.141  1.00  0.00     0.020 C 
BRANCH  19  20
HETATM   20  C   UNL     1       0.716   8.213 -28.534  1.00  0.00     0.001 C 
BRANCH  20  21
HETATM   21  C   UNL     1       1.570   8.065 -27.275  1.00  0.00    -0.004 C 
HETATM   22  C   UNL     1       0.811   7.345 -26.173  1.00  0.00     0.005 C 
ENDBRANCH  20  21
ENDBRANCH  19  20
ENDBRANCH  18  19
ENDBRANCH  12  18
ENDBRANCH   1   5
BRANCH   2  23
HETATM   23  C   UNL     1      -9.236   3.217 -31.977  1.00  0.00     0.150 C 
BRANCH  23  24
HETATM   24  C   UNL     1      -9.219   1.679 -32.164  1.00  0.00     0.254 C 
BRANCH  24  25
HETATM   25  N   UNL     1      -7.960   1.165 -32.812  1.00  0.00    -0.067 N 
HETATM   26  H   UNL     1      -7.379   2.008 -33.006  1.00  0.00     0.280 HD
HETATM   27  C   UNL     1      -7.081   0.279 -31.934  1.00  0.00     0.254 C 
HETATM   28  C   UNL     1      -5.748  -0.017 -32.654  1.00  0.00     0.150 C 
HETATM   29  N   UNL     1      -5.988  -0.613 -33.979  1.00  0.00    -0.378 N 
HETATM   30  C   UNL     1      -6.859   0.186 -34.866  1.00  0.00     0.150 C 
HETATM   31  C   UNL     1      -8.200   0.511 -34.168  1.00  0.00     0.254 C 
BRANCH  29  32
HETATM   32  C   UNL     1      -5.853  -1.978 -34.202  1.00  0.00     0.031 A 
HETATM   33  C   UNL     1      -4.662  -2.676 -33.954  1.00  0.00     0.053 A 
HETATM   34  C   UNL     1      -4.548  -4.046 -34.220  1.00  0.00     0.036 A 
HETATM   35 CL   UNL     1      -3.064  -4.852 -33.885  1.00  0.00    -0.084 Cl
HETATM   36  C   UNL     1      -5.616  -4.759 -34.748  1.00  0.00     0.024 A 
HETATM   37  C   UNL     1      -6.805  -4.092 -35.015  1.00  0.00     0.004 A 
HETATM   38  C   UNL     1      -6.915  -2.723 -34.746  1.00  0.00     0.029 A 
ENDBRANCH  29  32
ENDBRANCH  24  25
ENDBRANCH  23  24
ENDBRANCH   2  23
TORSDOF 9
ENDMDL
MODEL 7
REMARK VINA RESULT:      -8.4      2.982      5.416
REMARK  9 active torsions:
REMARK  status: ('A' for Active; 'I' for Inactive)
REMARK    1  A    between atoms: C_2  and  C_3 
REMARK    2  A    between atoms: C_3  and  C_4 
REMARK    3  A    between atoms: C_4  and  C_5 
REMARK    4  A    between atoms: C_5  and  N_6 
REMARK    5  A    between atoms: C_15  and  C_16 
REMARK       I    between atoms: C_16  and  N_17 
REMARK    6  A    between atoms: N_17  and  C_18 
REMARK    7  A    between atoms: C_18  and  C_19 
REMARK    8  A    between atoms: C_19  and  N_20 
REMARK    9  A    between atoms: N_24  and  C_25 
ROOT
HETATM    1  C   UNL     1      -0.946   5.694 -31.006  1.00  0.00     0.251 C 
HETATM    2  N   UNL     1      -1.891   6.305 -31.798  1.00  0.00    -0.355 N 
HETATM    3  O   UNL     1      -0.533   4.559 -31.230  1.00  0.00    -0.268 OA
HETATM    4  H   UNL     1      -2.159   7.255 -31.563  1.00  0.00     0.162 HD
ENDROOT
BRANCH   1   5
HETATM    5  C   UNL     1      -0.418   6.459 -29.851  1.00  0.00     0.034 A 
HETATM    6  C   UNL     1      -0.896   7.742 -29.544  1.00  0.00     0.047 A 
HETATM    7  C   UNL     1      -0.462   8.371 -28.375  1.00  0.00     0.053 A 
HETATM    8  N   UNL     1      -0.953   9.627 -28.035  1.00  0.00    -0.308 N 
HETATM    9  C   UNL     1       0.443   7.741 -27.528  1.00  0.00     0.059 A 
HETATM   10  C   UNL     1      -0.637  10.286 -26.878  1.00  0.00     0.329 A 
HETATM   11  H   UNL     1      -1.604  10.124 -28.631  1.00  0.00     0.170 HD
HETATM   12  N   UNL     1       0.219   9.636 -26.005  1.00  0.00    -0.266 N 
HETATM   13  O   UNL     1      -1.126  11.396 -26.681  1.00  0.00    -0.246 OA
HETATM   14  C   UNL     1       0.838   8.419 -26.279  1.00  0.00     0.264 A 
HETATM   15  O   UNL     1       1.671   7.882 -25.553  1.00  0.00    -0.267 OA
HETATM   16  C   UNL     1       0.936   6.470 -27.842  1.00  0.00     0.020 A 
HETATM   17  C   UNL     1       0.495   5.825 -28.998  1.00  0.00     0.018 A 
BRANCH  12  18
HETATM   18  C   UNL     1       0.544  10.294 -24.743  1.00  0.00     0.137 C 
BRANCH  18  19
HETATM   19  C   UNL     1       1.844  11.097 -24.832  1.00  0.00     0.020 C 
BRANCH  19  20
HETATM   20  C   UNL     1       2.782  10.747 -23.677  1.00  0.00     0.001 C 
BRANCH  20  21
HETATM   21  C   UNL     1       2.118   9.791 -22.686  1.00  0.00    -0.004 C 
HETATM   22  C   UNL     1       3.039   8.636 -22.328  1.00  0.00     0.005 C 
ENDBRANCH  20  21
ENDBRANCH  19  20
ENDBRANCH  18  19
ENDBRANCH  12  18
ENDBRANCH   1   5
BRANCH   2  23
HETATM   23  C   UNL     1      -2.745   5.606 -32.759  1.00  0.00     0.150 C 
BRANCH  23  24
HETATM   24  C   UNL     1      -4.203   5.303 -32.333  1.00  0.00     0.254 C 
BRANCH  24  25
HETATM   25  N   UNL     1      -4.415   3.884 -31.874  1.00  0.00    -0.067 N 
HETATM   26  H   UNL     1      -4.223   3.888 -30.850  1.00  0.00     0.280 HD
HETATM   27  C   UNL     1      -5.840   3.355 -32.001  1.00  0.00     0.254 C 
HETATM   28  C   UNL     1      -5.950   1.972 -31.328  1.00  0.00     0.150 C 
HETATM   29  N   UNL     1      -4.958   1.036 -31.885  1.00  0.00    -0.378 N 
HETATM   30  C   UNL     1      -3.560   1.506 -31.818  1.00  0.00     0.150 C 
HETATM   31  C   UNL     1      -3.418   2.899 -32.475  1.00  0.00     0.254 C 
BRANCH  29  32
HETATM   32  C   UNL     1      -5.311   0.070 -32.820  1.00  0.00     0.031 A 
HETATM   33  C   UNL     1      -4.624  -1.145 -32.957  1.00  0.00     0.053 A 
HETATM   34  C   UNL     1      -4.984  -2.084 -33.931  1.00  0.00     0.036 A 
HETATM   35 CL   UNL     1      -4.110  -3.563 -34.044  1.00  0.00    -0.084 Cl
HETATM   36  C   UNL     1      -6.036  -1.836 -34.803  1.00  0.00     0.024 A 
HETATM   37  C   UNL     1      -6.728  -0.635 -34.700  1.00  0.00     0.004 A 
HETATM   38  C   UNL     1      -6.365   0.299 -33.723  1.00  0.00     0.029 A 
ENDBRANCH  29  32
ENDBRANCH  24  25
ENDBRANCH  23  24
ENDBRANCH   2  23
TORSDOF 9
ENDMDL
MODEL 8
REMARK VINA RESULT:      -8.3      3.901      9.421
REMARK  9 active torsions:
REMARK  status: ('A' for Active; 'I' for Inactive)
REMARK    1  A    between atoms: C_2  and  C_3 
REMARK    2  A    between atoms: C_3  and  C_4 
REMARK    3  A    between atoms: C_4  and  C_5 
REMARK    4  A    between atoms: C_5  and  N_6 
REMARK    5  A    between atoms: C_15  and  C_16 
REMARK       I    between atoms: C_16  and  N_17 
REMARK    6  A    between atoms: N_17  and  C_18 
REMARK    7  A    between atoms: C_18  and  C_19 
REMARK    8  A    between atoms: C_19  and  N_20 
REMARK    9  A    between atoms: N_24  and  C_25 
ROOT
HETATM    1  C   UNL     1      -7.004   6.569 -28.533  1.00  0.00     0.251 C 
HETATM    2  N   UNL     1      -6.072   7.550 -28.781  1.00  0.00    -0.355 N 
HETATM    3  O   UNL     1      -7.922   6.719 -27.733  1.00  0.00    -0.268 OA
HETATM    4  H   UNL     1      -5.360   7.360 -29.478  1.00  0.00     0.162 HD
ENDROOT
BRANCH   1   5
HETATM    5  C   UNL     1      -6.874   5.294 -29.281  1.00  0.00     0.034 A 
HETATM    6  C   UNL     1      -5.620   4.792 -29.657  1.00  0.00     0.047 A 
HETATM    7  C   UNL     1      -5.539   3.528 -30.246  1.00  0.00     0.053 A 
HETATM    8  N   UNL     1      -4.300   2.997 -30.592  1.00  0.00    -0.308 N 
HETATM    9  C   UNL     1      -6.689   2.778 -30.471  1.00  0.00     0.059 A 
HETATM   10  C   UNL     1      -4.122   1.743 -31.109  1.00  0.00     0.329 A 
HETATM   11  H   UNL     1      -3.442   3.516 -30.456  1.00  0.00     0.170 HD
HETATM   12  N   UNL     1      -5.259   0.972 -31.280  1.00  0.00    -0.266 N 
HETATM   13  O   UNL     1      -2.982   1.377 -31.384  1.00  0.00    -0.246 OA
HETATM   14  C   UNL     1      -6.554   1.428 -31.050  1.00  0.00     0.264 A 
HETATM   15  O   UNL     1      -7.572   0.784 -31.288  1.00  0.00    -0.267 OA
HETATM   16  C   UNL     1      -7.942   3.285 -30.114  1.00  0.00     0.020 A 
HETATM   17  C   UNL     1      -8.033   4.539 -29.508  1.00  0.00     0.018 A 
BRANCH  12  18
HETATM   18  C   UNL     1      -5.099  -0.387 -31.790  1.00  0.00     0.137 C 
BRANCH  18  19
HETATM   19  C   UNL     1      -5.038  -0.422 -33.320  1.00  0.00     0.020 C 
BRANCH  19  20
HETATM   20  C   UNL     1      -5.965  -1.503 -33.877  1.00  0.00     0.001 C 
BRANCH  20  21
HETATM   21  C   UNL     1      -7.288  -0.911 -34.363  1.00  0.00    -0.004 C 
HETATM   22  C   UNL     1      -7.058   0.267 -35.296  1.00  0.00     0.005 C 
ENDBRANCH  20  21
ENDBRANCH  19  20
ENDBRANCH  18  19
ENDBRANCH  12  18
ENDBRANCH   1   5
BRANCH   2  23
HETATM   23  C   UNL     1      -5.848   8.716 -27.925  1.00  0.00     0.150 C 
BRANCH  23  24
HETATM   24  C   UNL     1      -5.103   8.488 -26.586  1.00  0.00     0.254 C 
BRANCH  24  25
HETATM   25  N   UNL     1      -3.612   8.347 -26.741  1.00  0.00    -0.067 N 
HETATM   26  H   UNL     1      -3.195   8.866 -25.940  1.00  0.00     0.280 HD
HETATM   27  C   UNL     1      -3.066   6.928 -26.612  1.00  0.00     0.254 C 
HETATM   28  C   UNL     1      -1.524   6.957 -26.605  1.00  0.00     0.150 C 
HETATM   29  N   UNL     1      -1.005   7.645 -27.800  1.00  0.00    -0.378 N 
HETATM   30  C   UNL     1      -1.522   9.015 -27.996  1.00  0.00     0.150 C 
HETATM   31  C   UNL     1      -3.068   9.022 -27.996  1.00  0.00     0.254 C 
BRANCH  29  32
HETATM   32  C   UNL     1      -0.504   6.941 -28.888  1.00  0.00     0.031 A 
HETATM   33  C   UNL     1      -0.797   7.282 -30.217  1.00  0.00     0.053 A 
HETATM   34  C   UNL     1      -0.302   6.531 -31.291  1.00  0.00     0.036 A 
HETATM   35 CL   UNL     1      -0.686   7.005 -32.901  1.00  0.00    -0.084 Cl
HETATM   36  C   UNL     1       0.493   5.414 -31.071  1.00  0.00     0.024 A 
HETATM   37  C   UNL     1       0.790   5.045 -29.765  1.00  0.00     0.004 A 
HETATM   38  C   UNL     1       0.294   5.799 -28.695  1.00  0.00     0.029 A 
ENDBRANCH  29  32
ENDBRANCH  24  25
ENDBRANCH  23  24
ENDBRANCH   2  23
TORSDOF 9
ENDMDL
MODEL 9
REMARK VINA RESULT:      -8.1      3.615      9.562
REMARK  9 active torsions:
REMARK  status: ('A' for Active; 'I' for Inactive)
REMARK    1  A    between atoms: C_2  and  C_3 
REMARK    2  A    between atoms: C_3  and  C_4 
REMARK    3  A    between atoms: C_4  and  C_5 
REMARK    4  A    between atoms: C_5  and  N_6 
REMARK    5  A    between atoms: C_15  and  C_16 
REMARK       I    between atoms: C_16  and  N_17 
REMARK    6  A    between atoms: N_17  and  C_18 
REMARK    7  A    between atoms: C_18  and  C_19 
REMARK    8  A    between atoms: C_19  and  N_20 
REMARK    9  A    between atoms: N_24  and  C_25 
ROOT
HETATM    1  C   UNL     1      -7.335   6.209 -28.677  1.00  0.00     0.251 C 
HETATM    2  N   UNL     1      -6.710   7.315 -29.204  1.00  0.00    -0.355 N 
HETATM    3  O   UNL     1      -8.118   6.280 -27.735  1.00  0.00    -0.268 OA
HETATM    4  H   UNL     1      -6.098   7.176 -30.002  1.00  0.00     0.162 HD
ENDROOT
BRANCH   1   5
HETATM    5  C   UNL     1      -7.040   4.894 -29.296  1.00  0.00     0.034 A 
HETATM    6  C   UNL     1      -8.068   4.035 -29.713  1.00  0.00     0.047 A 
HETATM    7  C   UNL     1      -7.742   2.865 -30.405  1.00  0.00     0.053 A 
HETATM    8  N   UNL     1      -8.750   2.020 -30.859  1.00  0.00    -0.308 N 
HETATM    9  C   UNL     1      -6.415   2.547 -30.669  1.00  0.00     0.059 A 
HETATM   10  C   UNL     1      -8.526   0.893 -31.602  1.00  0.00     0.329 A 
HETATM   11  H   UNL     1      -9.727   2.211 -30.677  1.00  0.00     0.170 HD
HETATM   12  N   UNL     1      -7.209   0.604 -31.916  1.00  0.00    -0.266 N 
HETATM   13  O   UNL     1      -9.492   0.215 -31.947  1.00  0.00    -0.246 OA
HETATM   14  C   UNL     1      -6.118   1.328 -31.445  1.00  0.00     0.264 A 
HETATM   15  O   UNL     1      -4.944   1.024 -31.640  1.00  0.00    -0.267 OA
HETATM   16  C   UNL     1      -5.387   3.392 -30.237  1.00  0.00     0.020 A 
HETATM   17  C   UNL     1      -5.702   4.572 -29.561  1.00  0.00     0.018 A 
BRANCH  12  18
HETATM   18  C   UNL     1      -6.940  -0.569 -32.742  1.00  0.00     0.137 C 
BRANCH  18  19
HETATM   19  C   UNL     1      -7.189  -0.294 -34.228  1.00  0.00     0.020 C 
BRANCH  19  20
HETATM   20  C   UNL     1      -6.453  -1.310 -35.101  1.00  0.00     0.001 C 
BRANCH  20  21
HETATM   21  C   UNL     1      -6.076  -2.561 -34.308  1.00  0.00    -0.004 C 
HETATM   22  C   UNL     1      -6.765  -3.798 -34.863  1.00  0.00     0.005 C 
ENDBRANCH  20  21
ENDBRANCH  19  20
ENDBRANCH  18  19
ENDBRANCH  12  18
ENDBRANCH   1   5
BRANCH   2  23
HETATM   23  C   UNL     1      -6.623   8.614 -28.536  1.00  0.00     0.150 C 
BRANCH  23  24
HETATM   24  C   UNL     1      -5.789   8.696 -27.234  1.00  0.00     0.254 C 
BRANCH  24  25
HETATM   25  N   UNL     1      -4.304   8.589 -27.461  1.00  0.00    -0.067 N 
HETATM   26  H   UNL     1      -3.864   9.189 -26.732  1.00  0.00     0.280 HD
HETATM   27  C   UNL     1      -3.700   7.205 -27.243  1.00  0.00     0.254 C 
HETATM   28  C   UNL     1      -2.162   7.283 -27.325  1.00  0.00     0.150 C 
HETATM   29  N   UNL     1      -1.734   7.880 -28.602  1.00  0.00    -0.378 N 
HETATM   30  C   UNL     1      -2.309   9.211 -28.884  1.00  0.00     0.150 C 
HETATM   31  C   UNL     1      -3.853   9.170 -28.797  1.00  0.00     0.254 C 
BRANCH  29  32
HETATM   32  C   UNL     1      -1.266   7.100 -29.652  1.00  0.00     0.031 A 
HETATM   33  C   UNL     1      -2.096   6.249 -30.397  1.00  0.00     0.053 A 
HETATM   34  C   UNL     1      -1.587   5.450 -31.429  1.00  0.00     0.036 A 
HETATM   35 CL   UNL     1      -2.656   4.433 -32.316  1.00  0.00    -0.084 Cl
HETATM   36  C   UNL     1      -0.235   5.472 -31.745  1.00  0.00     0.024 A 
HETATM   37  C   UNL     1       0.613   6.297 -31.017  1.00  0.00     0.004 A 
HETATM   38  C   UNL     1       0.100   7.095 -29.987  1.00  0.00     0.029 A 
ENDBRANCH  29  32
ENDBRANCH  24  25
ENDBRANCH  23  24
ENDBRANCH   2  23
TORSDOF 9
ENDMDL
MODEL 10
REMARK VINA RESULT:      -8.1      3.602      5.976
REMARK  9 active torsions:
REMARK  status: ('A' for Active; 'I' for Inactive)
REMARK    1  A    between atoms: C_2  and  C_3 
REMARK    2  A    between atoms: C_3  and  C_4 
REMARK    3  A    between atoms: C_4  and  C_5 
REMARK    4  A    between atoms: C_5  and  N_6 
REMARK    5  A    between atoms: C_15  and  C_16 
REMARK       I    between atoms: C_16  and  N_17 
REMARK    6  A    between atoms: N_17  and  C_18 
REMARK    7  A    between atoms: C_18  and  C_19 
REMARK    8  A    between atoms: C_19  and  N_20 
REMARK    9  A    between atoms: N_24  and  C_25 
ROOT
HETATM    1  C   UNL     1      -8.923   1.173 -33.283  1.00  0.00     0.251 C 
HETATM    2  N   UNL     1      -9.660   1.594 -34.366  1.00  0.00    -0.355 N 
HETATM    3  O   UNL     1      -9.383   0.426 -32.424  1.00  0.00    -0.268 OA
HETATM    4  H   UNL     1      -9.199   2.188 -35.048  1.00  0.00     0.162 HD
ENDROOT
BRANCH   1   5
HETATM    5  C   UNL     1      -7.522   1.647 -33.179  1.00  0.00     0.034 A 
HETATM    6  C   UNL     1      -7.056   2.723 -33.949  1.00  0.00     0.047 A 
HETATM    7  C   UNL     1      -5.768   3.216 -33.724  1.00  0.00     0.053 A 
HETATM    8  N   UNL     1      -5.301   4.306 -34.453  1.00  0.00    -0.308 N 
HETATM    9  C   UNL     1      -4.950   2.641 -32.758  1.00  0.00     0.059 A 
HETATM   10  C   UNL     1      -4.083   4.895 -34.252  1.00  0.00     0.329 A 
HETATM   11  H   UNL     1      -5.862   4.745 -35.173  1.00  0.00     0.170 HD
HETATM   12  N   UNL     1      -3.289   4.361 -33.251  1.00  0.00    -0.266 N 
HETATM   13  O   UNL     1      -3.770   5.852 -34.956  1.00  0.00    -0.246 OA
HETATM   14  C   UNL     1      -3.616   3.223 -32.520  1.00  0.00     0.264 A 
HETATM   15  O   UNL     1      -2.877   2.687 -31.698  1.00  0.00    -0.267 OA
HETATM   16  C   UNL     1      -5.406   1.555 -32.003  1.00  0.00     0.020 A 
HETATM   17  C   UNL     1      -6.697   1.067 -32.206  1.00  0.00     0.018 A 
BRANCH  12  18
HETATM   18  C   UNL     1      -2.001   4.994 -32.984  1.00  0.00     0.137 C 
BRANCH  18  19
HETATM   19  C   UNL     1      -2.126   6.160 -32.000  1.00  0.00     0.020 C 
BRANCH  19  20
HETATM   20  C   UNL     1      -1.532   5.792 -30.640  1.00  0.00     0.001 C 
BRANCH  20  21
HETATM   21  C   UNL     1      -0.031   5.522 -30.739  1.00  0.00    -0.004 C 
HETATM   22  C   UNL     1       0.737   6.783 -31.102  1.00  0.00     0.005 C 
ENDBRANCH  20  21
ENDBRANCH  19  20
ENDBRANCH  18  19
ENDBRANCH  12  18
ENDBRANCH   1   5
BRANCH   2  23
HETATM   23  C   UNL     1     -11.117   1.501 -34.464  1.00  0.00     0.150 C 
BRANCH  23  24
HETATM   24  C   UNL     1     -11.894   2.789 -34.836  1.00  0.00     0.254 C 
BRANCH  24  25
HETATM   25  N   UNL     1     -11.390   4.021 -34.131  1.00  0.00    -0.067 N 
HETATM   26  H   UNL     1     -12.159   4.720 -34.204  1.00  0.00     0.280 HD
HETATM   27  C   UNL     1     -11.143   3.869 -32.633  1.00  0.00     0.254 C 
HETATM   28  C   UNL     1     -10.815   5.243 -32.012  1.00  0.00     0.150 C 
HETATM   29  N   UNL     1      -9.676   5.873 -32.702  1.00  0.00    -0.378 N 
HETATM   30  C   UNL     1      -9.845   6.020 -34.162  1.00  0.00     0.150 C 
HETATM   31  C   UNL     1     -10.187   4.661 -34.815  1.00  0.00     0.254 C 
BRANCH  29  32
HETATM   32  C   UNL     1      -8.398   5.864 -32.159  1.00  0.00     0.031 A 
HETATM   33  C   UNL     1      -7.992   4.945 -31.179  1.00  0.00     0.053 A 
HETATM   34  C   UNL     1      -6.705   4.984 -30.627  1.00  0.00     0.036 A 
HETATM   35 CL   UNL     1      -6.261   3.823 -29.436  1.00  0.00    -0.084 Cl
HETATM   36  C   UNL     1      -5.788   5.944 -31.030  1.00  0.00     0.024 A 
HETATM   37  C   UNL     1      -6.164   6.876 -31.991  1.00  0.00     0.004 A 
HETATM   38  C   UNL     1      -7.451   6.832 -32.540  1.00  0.00     0.029 A 
ENDBRANCH  29  32
ENDBRANCH  24  25
ENDBRANCH  23  24
ENDBRANCH   2  23
TORSDOF 9
ENDMDL
