MODEL 1
REMARK VINA RESULT:      -7.7      0.000      0.000
REMARK  6 active torsions:
REMARK  status: ('A' for Active; 'I' for Inactive)
REMARK    1  A    between atoms: C_2  and  N_3 
REMARK    2  A    between atoms: C_2  and  C_18 
REMARK    3  A    between atoms: N_3  and  C_6 
REMARK    4  A    between atoms: C_6  and  C_7 
REMARK    5  A    between atoms: C_10  and  N_11 
REMARK       I    between atoms: N_11  and  C_12 
REMARK    6  A    between atoms: C_12  and  O_13 
ROOT
HETATM    1  N   UNL     1      -7.017   1.259 -32.638  1.00  0.00    -0.063 N 
HETATM    2  H   UNL     1      -7.856   0.769 -32.305  1.00  0.00     0.278 HD
HETATM    3  H   UNL     1      -6.263   0.933 -32.017  1.00  0.00     0.278 HD
ENDROOT
BRANCH   1   4
HETATM    4  C   UNL     1      -6.693   0.843 -34.041  1.00  0.00     0.216 C 
HETATM    5  C   UNL     1      -7.973   0.823 -34.876  1.00  0.00     0.045 C 
BRANCH   4   6
HETATM    6  C   UNL     1      -5.998  -0.496 -34.052  1.00  0.00    -0.009 A 
HETATM    7  C   UNL     1      -4.708  -0.618 -33.539  1.00  0.00     0.126 A 
HETATM    8  N   UNL     1      -3.998  -1.755 -33.466  1.00  0.00    -0.259 NA
HETATM    9  C   UNL     1      -4.597  -2.871 -33.958  1.00  0.00     0.074 A 
HETATM   10  C   UNL     1      -5.879  -2.853 -34.503  1.00  0.00     0.034 A 
HETATM   11  C   UNL     1      -4.022  -4.173 -33.987  1.00  0.00     0.040 A 
HETATM   12  S   UNL     1      -6.351  -4.418 -35.036  1.00  0.00    -0.100 SA
HETATM   13  C   UNL     1      -6.606  -1.652 -34.560  1.00  0.00     0.032 A 
HETATM   14  C   UNL     1      -4.865  -5.108 -34.545  1.00  0.00     0.053 A 
ENDBRANCH   4   6
ENDBRANCH   1   4
BRANCH   1  15
HETATM   15  C   UNL     1      -7.186   2.720 -32.399  1.00  0.00     0.271 C 
BRANCH  15  16
HETATM   16  C   UNL     1      -5.960   3.465 -32.847  1.00  0.00    -0.033 A 
HETATM   17  C   UNL     1      -6.012   4.327 -33.949  1.00  0.00     0.011 A 
HETATM   18  C   UNL     1      -4.858   4.978 -34.405  1.00  0.00     0.030 A 
HETATM   19  C   UNL     1      -3.630   4.780 -33.775  1.00  0.00     0.036 A 
HETATM   20  C   UNL     1      -3.583   3.922 -32.668  1.00  0.00     0.030 A 
HETATM   21  C   UNL     1      -4.731   3.266 -32.209  1.00  0.00     0.011 A 
BRANCH  19  22
HETATM   22  N   UNL     1      -2.420   5.379 -34.158  1.00  0.00    -0.303 N 
HETATM   23  C   UNL     1      -1.853   6.591 -33.869  1.00  0.00     0.364 C 
HETATM   24  O   UNL     1      -0.754   6.878 -34.332  1.00  0.00    -0.238 OA
HETATM   25  H   UNL     1      -1.812   4.851 -34.774  1.00  0.00     0.171 HD
BRANCH  23  26
HETATM   26  O   UNL     1      -2.586   7.412 -33.078  1.00  0.00    -0.309 OA
HETATM   27  C   UNL     1      -1.835   8.047 -32.041  1.00  0.00     0.215 C 
ENDBRANCH  23  26
ENDBRANCH  19  22
ENDBRANCH  15  16
ENDBRANCH   1  15
TORSDOF 6
ENDMDL
MODEL 2
REMARK VINA RESULT:      -7.6      1.355      1.819
REMARK  6 active torsions:
REMARK  status: ('A' for Active; 'I' for Inactive)
REMARK    1  A    between atoms: C_2  and  N_3 
REMARK    2  A    between atoms: C_2  and  C_18 
REMARK    3  A    between atoms: N_3  and  C_6 
REMARK    4  A    between atoms: C_6  and  C_7 
REMARK    5  A    between atoms: C_10  and  N_11 
REMARK       I    between atoms: N_11  and  C_12 
REMARK    6  A    between atoms: C_12  and  O_13 
ROOT
HETATM    1  N   UNL     1      -6.430   1.264 -32.069  1.00  0.00    -0.063 N 
HETATM    2  H   UNL     1      -7.191   1.954 -32.115  1.00  0.00     0.278 HD
HETATM    3  H   UNL     1      -6.888   0.393 -31.766  1.00  0.00     0.278 HD
ENDROOT
BRANCH   1   4
HETATM    4  C   UNL     1      -5.842   1.046 -33.431  1.00  0.00     0.216 C 
HETATM    5  C   UNL     1      -6.874   1.412 -34.497  1.00  0.00     0.045 C 
BRANCH   4   6
HETATM    6  C   UNL     1      -5.364  -0.377 -33.581  1.00  0.00    -0.009 A 
HETATM    7  C   UNL     1      -4.120  -0.753 -33.077  1.00  0.00     0.126 A 
HETATM    8  N   UNL     1      -3.597  -1.989 -33.123  1.00  0.00    -0.259 NA
HETATM    9  C   UNL     1      -4.352  -2.939 -33.735  1.00  0.00     0.074 A 
HETATM   10  C   UNL     1      -5.604  -2.663 -34.282  1.00  0.00     0.034 A 
HETATM   11  C   UNL     1      -3.986  -4.305 -33.900  1.00  0.00     0.040 A 
HETATM   12  S   UNL     1      -6.301  -4.070 -34.982  1.00  0.00    -0.100 SA
HETATM   13  C   UNL     1      -6.133  -1.364 -34.213  1.00  0.00     0.032 A 
HETATM   14  C   UNL     1      -4.951  -5.032 -34.560  1.00  0.00     0.053 A 
ENDBRANCH   4   6
ENDBRANCH   1   4
BRANCH   1  15
HETATM   15  C   UNL     1      -5.482   1.664 -30.991  1.00  0.00     0.271 C 
BRANCH  15  16
HETATM   16  C   UNL     1      -4.722   2.894 -31.397  1.00  0.00    -0.033 A 
HETATM   17  C   UNL     1      -3.329   2.861 -31.531  1.00  0.00     0.011 A 
HETATM   18  C   UNL     1      -2.611   4.021 -31.853  1.00  0.00     0.030 A 
HETATM   19  C   UNL     1      -3.267   5.236 -32.044  1.00  0.00     0.036 A 
HETATM   20  C   UNL     1      -4.662   5.265 -31.917  1.00  0.00     0.030 A 
HETATM   21  C   UNL     1      -5.385   4.111 -31.592  1.00  0.00     0.011 A 
BRANCH  19  22
HETATM   22  N   UNL     1      -2.640   6.451 -32.363  1.00  0.00    -0.303 N 
HETATM   23  C   UNL     1      -2.177   6.975 -33.540  1.00  0.00     0.364 C 
HETATM   24  O   UNL     1      -1.665   8.090 -33.553  1.00  0.00    -0.238 OA
HETATM   25  H   UNL     1      -2.469   7.101 -31.604  1.00  0.00     0.171 HD
BRANCH  23  26
HETATM   26  O   UNL     1      -2.313   6.184 -34.632  1.00  0.00    -0.309 OA
HETATM   27  C   UNL     1      -1.150   5.413 -34.941  1.00  0.00     0.215 C 
ENDBRANCH  23  26
ENDBRANCH  19  22
ENDBRANCH  15  16
ENDBRANCH   1  15
TORSDOF 6
ENDMDL
MODEL 3
REMARK VINA RESULT:      -7.5      4.869      7.832
REMARK  6 active torsions:
REMARK  status: ('A' for Active; 'I' for Inactive)
REMARK    1  A    between atoms: C_2  and  N_3 
REMARK    2  A    between atoms: C_2  and  C_18 
REMARK    3  A    between atoms: N_3  and  C_6 
REMARK    4  A    between atoms: C_6  and  C_7 
REMARK    5  A    between atoms: C_10  and  N_11 
REMARK       I    between atoms: N_11  and  C_12 
REMARK    6  A    between atoms: C_12  and  O_13 
ROOT
HETATM    1  N   UNL     1      -7.640   3.139 -33.702  1.00  0.00    -0.063 N 
HETATM    2  H   UNL     1      -8.046   2.697 -34.536  1.00  0.00     0.278 HD
HETATM    3  H   UNL     1      -7.449   4.109 -33.990  1.00  0.00     0.278 HD
ENDROOT
BRANCH   1   4
HETATM    4  C   UNL     1      -8.639   3.161 -32.584  1.00  0.00     0.216 C 
HETATM    5  C   UNL     1      -7.951   2.767 -31.278  1.00  0.00     0.045 C 
BRANCH   4   6
HETATM    6  C   UNL     1      -9.807   2.258 -32.896  1.00  0.00    -0.009 A 
HETATM    7  C   UNL     1      -9.703   0.885 -32.686  1.00  0.00     0.126 A 
HETATM    8  N   UNL     1     -10.677  -0.016 -32.897  1.00  0.00    -0.259 NA
HETATM    9  C   UNL     1     -11.852   0.470 -33.376  1.00  0.00     0.074 A 
HETATM   10  C   UNL     1     -12.053   1.825 -33.631  1.00  0.00     0.034 A 
HETATM   11  C   UNL     1     -13.007  -0.307 -33.676  1.00  0.00     0.040 A 
HETATM   12  S   UNL     1     -13.638   2.118 -34.228  1.00  0.00    -0.100 SA
HETATM   13  C   UNL     1     -11.022   2.749 -33.393  1.00  0.00     0.032 A 
HETATM   14  C   UNL     1     -14.049   0.460 -34.147  1.00  0.00     0.053 A 
ENDBRANCH   4   6
ENDBRANCH   1   4
BRANCH   1  15
HETATM   15  C   UNL     1      -6.327   2.498 -33.409  1.00  0.00     0.271 C 
BRANCH  15  16
HETATM   16  C   UNL     1      -6.385   1.030 -33.719  1.00  0.00    -0.033 A 
HETATM   17  C   UNL     1      -5.815   0.093 -32.847  1.00  0.00     0.011 A 
HETATM   18  C   UNL     1      -5.816  -1.272 -33.161  1.00  0.00     0.030 A 
HETATM   19  C   UNL     1      -6.381  -1.731 -34.350  1.00  0.00     0.036 A 
HETATM   20  C   UNL     1      -6.957  -0.793 -35.218  1.00  0.00     0.030 A 
HETATM   21  C   UNL     1      -6.956   0.573 -34.912  1.00  0.00     0.011 A 
BRANCH  19  22
HETATM   22  N   UNL     1      -6.427  -3.074 -34.758  1.00  0.00    -0.303 N 
HETATM   23  C   UNL     1      -5.495  -4.077 -34.753  1.00  0.00     0.364 C 
HETATM   24  O   UNL     1      -5.795  -5.193 -35.165  1.00  0.00    -0.238 OA
HETATM   25  H   UNL     1      -7.300  -3.414 -35.145  1.00  0.00     0.171 HD
BRANCH  23  26
HETATM   26  O   UNL     1      -4.266  -3.739 -34.291  1.00  0.00    -0.309 OA
HETATM   27  C   UNL     1      -3.538  -4.828 -33.720  1.00  0.00     0.215 C 
ENDBRANCH  23  26
ENDBRANCH  19  22
ENDBRANCH  15  16
ENDBRANCH   1  15
TORSDOF 6
ENDMDL
MODEL 4
REMARK VINA RESULT:      -7.5      4.575      6.234
REMARK  6 active torsions:
REMARK  status: ('A' for Active; 'I' for Inactive)
REMARK    1  A    between atoms: C_2  and  N_3 
REMARK    2  A    between atoms: C_2  and  C_18 
REMARK    3  A    between atoms: N_3  and  C_6 
REMARK    4  A    between atoms: C_6  and  C_7 
REMARK    5  A    between atoms: C_10  and  N_11 
REMARK       I    between atoms: N_11  and  C_12 
REMARK    6  A    between atoms: C_12  and  O_13 
ROOT
HETATM    1  N   UNL     1      -6.518   1.040 -30.103  1.00  0.00    -0.063 N 
HETATM    2  H   UNL     1      -7.055   0.265 -30.511  1.00  0.00     0.278 HD
HETATM    3  H   UNL     1      -6.579   0.892 -29.086  1.00  0.00     0.278 HD
ENDROOT
BRANCH   1   4
HETATM    4  C   UNL     1      -5.078   0.948 -30.513  1.00  0.00     0.216 C 
HETATM    5  C   UNL     1      -4.604   2.310 -31.021  1.00  0.00     0.045 C 
BRANCH   4   6
HETATM    6  C   UNL     1      -4.888  -0.132 -31.550  1.00  0.00    -0.009 A 
HETATM    7  C   UNL     1      -3.702  -0.862 -31.589  1.00  0.00     0.126 A 
HETATM    8  N   UNL     1      -3.426  -1.863 -32.440  1.00  0.00    -0.259 NA
HETATM    9  C   UNL     1      -4.391  -2.163 -33.350  1.00  0.00     0.074 A 
HETATM   10  C   UNL     1      -5.607  -1.484 -33.402  1.00  0.00     0.034 A 
HETATM   11  C   UNL     1      -4.301  -3.177 -34.344  1.00  0.00     0.040 A 
HETATM   12  S   UNL     1      -6.607  -2.096 -34.658  1.00  0.00    -0.100 SA
HETATM   13  C   UNL     1      -5.876  -0.447 -32.494  1.00  0.00     0.032 A 
HETATM   14  C   UNL     1      -5.434  -3.250 -35.123  1.00  0.00     0.053 A 
ENDBRANCH   4   6
ENDBRANCH   1   4
BRANCH   1  15
HETATM   15  C   UNL     1      -7.215   2.321 -30.407  1.00  0.00     0.271 C 
BRANCH  15  16
HETATM   16  C   UNL     1      -8.106   2.157 -31.604  1.00  0.00    -0.033 A 
HETATM   17  C   UNL     1      -8.108   3.111 -32.629  1.00  0.00     0.011 A 
HETATM   18  C   UNL     1      -8.980   2.991 -33.720  1.00  0.00     0.030 A 
HETATM   19  C   UNL     1      -9.869   1.921 -33.809  1.00  0.00     0.036 A 
HETATM   20  C   UNL     1      -9.860   0.963 -32.786  1.00  0.00     0.030 A 
HETATM   21  C   UNL     1      -8.994   1.079 -31.692  1.00  0.00     0.011 A 
BRANCH  19  22
HETATM   22  N   UNL     1     -10.783   1.714 -34.854  1.00  0.00    -0.303 N 
HETATM   23  C   UNL     1     -12.099   2.057 -35.017  1.00  0.00     0.364 C 
HETATM   24  O   UNL     1     -12.684   1.761 -36.053  1.00  0.00    -0.238 OA
HETATM   25  H   UNL     1     -10.453   1.212 -35.670  1.00  0.00     0.171 HD
BRANCH  23  26
HETATM   26  O   UNL     1     -12.673   2.704 -33.974  1.00  0.00    -0.309 OA
HETATM   27  C   UNL     1     -13.775   2.006 -33.390  1.00  0.00     0.215 C 
ENDBRANCH  23  26
ENDBRANCH  19  22
ENDBRANCH  15  16
ENDBRANCH   1  15
TORSDOF 6
ENDMDL
MODEL 5
REMARK VINA RESULT:      -7.4      1.298      1.720
REMARK  6 active torsions:
REMARK  status: ('A' for Active; 'I' for Inactive)
REMARK    1  A    between atoms: C_2  and  N_3 
REMARK    2  A    between atoms: C_2  and  C_18 
REMARK    3  A    between atoms: N_3  and  C_6 
REMARK    4  A    between atoms: C_6  and  C_7 
REMARK    5  A    between atoms: C_10  and  N_11 
REMARK       I    between atoms: N_11  and  C_12 
REMARK    6  A    between atoms: C_12  and  O_13 
ROOT
HETATM    1  N   UNL     1      -6.620   1.738 -33.227  1.00  0.00    -0.063 N 
HETATM    2  H   UNL     1      -7.403   1.624 -32.572  1.00  0.00     0.278 HD
HETATM    3  H   UNL     1      -5.798   1.392 -32.712  1.00  0.00     0.278 HD
ENDROOT
BRANCH   1   4
HETATM    4  C   UNL     1      -6.822   0.875 -34.437  1.00  0.00     0.216 C 
HETATM    5  C   UNL     1      -8.318   0.651 -34.660  1.00  0.00     0.045 C 
BRANCH   4   6
HETATM    6  C   UNL     1      -6.077  -0.429 -34.291  1.00  0.00    -0.009 A 
HETATM    7  C   UNL     1      -4.857  -0.465 -33.619  1.00  0.00     0.126 A 
HETATM    8  N   UNL     1      -4.116  -1.562 -33.400  1.00  0.00    -0.259 NA
HETATM    9  C   UNL     1      -4.604  -2.728 -33.901  1.00  0.00     0.074 A 
HETATM   10  C   UNL     1      -5.808  -2.797 -34.597  1.00  0.00     0.034 A 
HETATM   11  C   UNL     1      -3.977  -4.001 -33.789  1.00  0.00     0.040 A 
HETATM   12  S   UNL     1      -6.146  -4.406 -35.099  1.00  0.00    -0.100 SA
HETATM   13  C   UNL     1      -6.571  -1.635 -34.806  1.00  0.00     0.032 A 
HETATM   14  C   UNL     1      -4.706  -5.000 -34.395  1.00  0.00     0.053 A 
ENDBRANCH   4   6
ENDBRANCH   1   4
BRANCH   1  15
HETATM   15  C   UNL     1      -6.408   3.192 -33.474  1.00  0.00     0.271 C 
BRANCH  15  16
HETATM   16  C   UNL     1      -5.003   3.580 -33.113  1.00  0.00    -0.033 A 
HETATM   17  C   UNL     1      -4.354   2.982 -32.026  1.00  0.00     0.011 A 
HETATM   18  C   UNL     1      -3.065   3.383 -31.649  1.00  0.00     0.030 A 
HETATM   19  C   UNL     1      -2.399   4.390 -32.346  1.00  0.00     0.036 A 
HETATM   20  C   UNL     1      -3.048   4.983 -33.438  1.00  0.00     0.030 A 
HETATM   21  C   UNL     1      -4.337   4.590 -33.817  1.00  0.00     0.011 A 
BRANCH  19  22
HETATM   22  N   UNL     1      -1.113   4.867 -32.045  1.00  0.00    -0.303 N 
HETATM   23  C   UNL     1      -0.666   5.916 -31.287  1.00  0.00     0.364 C 
HETATM   24  O   UNL     1       0.538   6.119 -31.174  1.00  0.00    -0.238 OA
HETATM   25  H   UNL     1      -0.326   4.372 -32.450  1.00  0.00     0.171 HD
BRANCH  23  26
HETATM   26  O   UNL     1      -1.627   6.683 -30.717  1.00  0.00    -0.309 OA
HETATM   27  C   UNL     1      -1.845   7.931 -31.378  1.00  0.00     0.215 C 
ENDBRANCH  23  26
ENDBRANCH  19  22
ENDBRANCH  15  16
ENDBRANCH   1  15
TORSDOF 6
ENDMDL
MODEL 6
REMARK VINA RESULT:      -7.2      4.830      8.668
REMARK  6 active torsions:
REMARK  status: ('A' for Active; 'I' for Inactive)
REMARK    1  A    between atoms: C_2  and  N_3 
REMARK    2  A    between atoms: C_2  and  C_18 
REMARK    3  A    between atoms: N_3  and  C_6 
REMARK    4  A    between atoms: C_6  and  C_7 
REMARK    5  A    between atoms: C_10  and  N_11 
REMARK       I    between atoms: N_11  and  C_12 
REMARK    6  A    between atoms: C_12  and  O_13 
ROOT
HETATM    1  N   UNL     1      -5.138   2.989 -32.898  1.00  0.00    -0.063 N 
HETATM    2  H   UNL     1      -4.488   3.317 -33.623  1.00  0.00     0.278 HD
HETATM    3  H   UNL     1      -4.733   2.101 -32.569  1.00  0.00     0.278 HD
ENDROOT
BRANCH   1   4
HETATM    4  C   UNL     1      -5.168   3.954 -31.750  1.00  0.00     0.216 C 
HETATM    5  C   UNL     1      -6.234   5.018 -32.007  1.00  0.00     0.045 C 
BRANCH   4   6
HETATM    6  C   UNL     1      -3.806   4.566 -31.535  1.00  0.00    -0.009 A 
HETATM    7  C   UNL     1      -2.680   3.990 -32.120  1.00  0.00     0.126 A 
HETATM    8  N   UNL     1      -1.424   4.455 -32.026  1.00  0.00    -0.259 NA
HETATM    9  C   UNL     1      -1.251   5.576 -31.276  1.00  0.00     0.074 A 
HETATM   10  C   UNL     1      -2.310   6.221 -30.641  1.00  0.00     0.034 A 
HETATM   11  C   UNL     1      -0.008   6.228 -31.040  1.00  0.00     0.040 A 
HETATM   12  S   UNL     1      -1.767   7.602 -29.773  1.00  0.00    -0.100 SA
HETATM   13  C   UNL     1      -3.617   5.720 -30.761  1.00  0.00     0.032 A 
HETATM   14  C   UNL     1      -0.143   7.341 -30.241  1.00  0.00     0.053 A 
ENDBRANCH   4   6
ENDBRANCH   1   4
BRANCH   1  15
HETATM   15  C   UNL     1      -6.447   2.670 -33.534  1.00  0.00     0.271 C 
BRANCH  15  16
HETATM   16  C   UNL     1      -6.562   1.191 -33.772  1.00  0.00    -0.033 A 
HETATM   17  C   UNL     1      -6.082   0.277 -32.827  1.00  0.00     0.011 A 
HETATM   18  C   UNL     1      -6.134  -1.102 -33.072  1.00  0.00     0.030 A 
HETATM   19  C   UNL     1      -6.663  -1.596 -34.264  1.00  0.00     0.036 A 
HETATM   20  C   UNL     1      -7.150  -0.678 -35.205  1.00  0.00     0.030 A 
HETATM   21  C   UNL     1      -7.097   0.700 -34.968  1.00  0.00     0.011 A 
BRANCH  19  22
HETATM   22  N   UNL     1      -6.755  -2.954 -34.606  1.00  0.00    -0.303 N 
HETATM   23  C   UNL     1      -5.813  -3.897 -34.923  1.00  0.00     0.364 C 
HETATM   24  O   UNL     1      -6.160  -5.045 -35.181  1.00  0.00    -0.238 OA
HETATM   25  H   UNL     1      -7.681  -3.364 -34.645  1.00  0.00     0.171 HD
BRANCH  23  26
HETATM   26  O   UNL     1      -4.529  -3.465 -34.943  1.00  0.00    -0.309 OA
HETATM   27  C   UNL     1      -3.741  -3.925 -33.842  1.00  0.00     0.215 C 
ENDBRANCH  23  26
ENDBRANCH  19  22
ENDBRANCH  15  16
ENDBRANCH   1  15
TORSDOF 6
ENDMDL
MODEL 7
REMARK VINA RESULT:      -7.1      5.543      8.654
REMARK  6 active torsions:
REMARK  status: ('A' for Active; 'I' for Inactive)
REMARK    1  A    between atoms: C_2  and  N_3 
REMARK    2  A    between atoms: C_2  and  C_18 
REMARK    3  A    between atoms: N_3  and  C_6 
REMARK    4  A    between atoms: C_6  and  C_7 
REMARK    5  A    between atoms: C_10  and  N_11 
REMARK       I    between atoms: N_11  and  C_12 
REMARK    6  A    between atoms: C_12  and  O_13 
ROOT
HETATM    1  N   UNL     1      -9.259   1.733 -34.590  1.00  0.00    -0.063 N 
HETATM    2  H   UNL     1      -9.862   1.075 -35.098  1.00  0.00     0.278 HD
HETATM    3  H   UNL     1      -8.418   1.822 -35.179  1.00  0.00     0.278 HD
ENDROOT
BRANCH   1   4
HETATM    4  C   UNL     1      -9.919   3.076 -34.494  1.00  0.00     0.216 C 
HETATM    5  C   UNL     1      -9.009   4.038 -33.730  1.00  0.00     0.045 C 
BRANCH   4   6
HETATM    6  C   UNL     1     -11.276   2.957 -33.845  1.00  0.00    -0.009 A 
HETATM    7  C   UNL     1     -11.611   3.777 -32.771  1.00  0.00     0.126 A 
HETATM    8  N   UNL     1     -12.791   3.786 -32.130  1.00  0.00    -0.259 NA
HETATM    9  C   UNL     1     -13.721   2.897 -32.570  1.00  0.00     0.074 A 
HETATM   10  C   UNL     1     -13.480   2.025 -33.629  1.00  0.00     0.034 A 
HETATM   11  C   UNL     1     -15.029   2.735 -32.030  1.00  0.00     0.040 A 
HETATM   12  S   UNL     1     -14.848   1.031 -33.940  1.00  0.00    -0.100 SA
HETATM   13  C   UNL     1     -12.240   2.041 -34.289  1.00  0.00     0.032 A 
HETATM   14  C   UNL     1     -15.747   1.756 -32.679  1.00  0.00     0.053 A 
ENDBRANCH   4   6
ENDBRANCH   1   4
BRANCH   1  15
HETATM   15  C   UNL     1      -8.835   1.106 -33.306  1.00  0.00     0.271 C 
BRANCH  15  16
HETATM   16  C   UNL     1      -7.677   0.178 -33.539  1.00  0.00    -0.033 A 
HETATM   17  C   UNL     1      -7.473  -0.408 -34.794  1.00  0.00     0.011 A 
HETATM   18  C   UNL     1      -6.429  -1.320 -34.999  1.00  0.00     0.030 A 
HETATM   19  C   UNL     1      -5.570  -1.667 -33.957  1.00  0.00     0.036 A 
HETATM   20  C   UNL     1      -5.772  -1.073 -32.703  1.00  0.00     0.030 A 
HETATM   21  C   UNL     1      -6.816  -0.165 -32.491  1.00  0.00     0.011 A 
BRANCH  19  22
HETATM   22  N   UNL     1      -4.501  -2.571 -34.058  1.00  0.00    -0.303 N 
HETATM   23  C   UNL     1      -4.448  -3.933 -34.196  1.00  0.00     0.364 C 
HETATM   24  O   UNL     1      -3.361  -4.497 -34.273  1.00  0.00    -0.238 OA
HETATM   25  H   UNL     1      -3.562  -2.190 -34.023  1.00  0.00     0.171 HD
BRANCH  23  26
HETATM   26  O   UNL     1      -5.643  -4.571 -34.219  1.00  0.00    -0.309 OA
HETATM   27  C   UNL     1      -6.135  -4.839 -35.534  1.00  0.00     0.215 C 
ENDBRANCH  23  26
ENDBRANCH  19  22
ENDBRANCH  15  16
ENDBRANCH   1  15
TORSDOF 6
ENDMDL
MODEL 8
REMARK VINA RESULT:      -7.0      5.096      7.313
REMARK  6 active torsions:
REMARK  status: ('A' for Active; 'I' for Inactive)
REMARK    1  A    between atoms: C_2  and  N_3 
REMARK    2  A    between atoms: C_2  and  C_18 
REMARK    3  A    between atoms: N_3  and  C_6 
REMARK    4  A    between atoms: C_6  and  C_7 
REMARK    5  A    between atoms: C_10  and  N_11 
REMARK       I    between atoms: N_11  and  C_12 
REMARK    6  A    between atoms: C_12  and  O_13 
ROOT
HETATM    1  N   UNL     1      -7.299   1.776 -32.040  1.00  0.00    -0.063 N 
HETATM    2  H   UNL     1      -7.765   0.866 -32.149  1.00  0.00     0.278 HD
HETATM    3  H   UNL     1      -7.535   2.074 -31.083  1.00  0.00     0.278 HD
ENDROOT
BRANCH   1   4
HETATM    4  C   UNL     1      -5.811   1.614 -32.136  1.00  0.00     0.216 C 
HETATM    5  C   UNL     1      -5.230   2.741 -32.989  1.00  0.00     0.045 C 
BRANCH   4   6
HETATM    6  C   UNL     1      -5.459   0.255 -32.690  1.00  0.00    -0.009 A 
HETATM    7  C   UNL     1      -6.037  -0.186 -33.878  1.00  0.00     0.126 A 
HETATM    8  N   UNL     1      -5.784  -1.357 -34.484  1.00  0.00    -0.259 NA
HETATM    9  C   UNL     1      -4.899  -2.179 -33.860  1.00  0.00     0.074 A 
HETATM   10  C   UNL     1      -4.275  -1.836 -32.663  1.00  0.00     0.034 A 
HETATM   11  C   UNL     1      -4.496  -3.464 -34.324  1.00  0.00     0.040 A 
HETATM   12  S   UNL     1      -3.218  -3.083 -32.132  1.00  0.00    -0.100 SA
HETATM   13  C   UNL     1      -4.550  -0.601 -32.052  1.00  0.00     0.032 A 
HETATM   14  C   UNL     1      -3.587  -4.065 -33.483  1.00  0.00     0.053 A 
ENDBRANCH   4   6
ENDBRANCH   1   4
BRANCH   1  15
HETATM   15  C   UNL     1      -7.924   2.753 -32.975  1.00  0.00     0.271 C 
BRANCH  15  16
HETATM   16  C   UNL     1      -9.257   2.244 -33.443  1.00  0.00    -0.033 A 
HETATM   17  C   UNL     1     -10.051   3.010 -34.305  1.00  0.00     0.011 A 
HETATM   18  C   UNL     1     -11.321   2.565 -34.697  1.00  0.00     0.030 A 
HETATM   19  C   UNL     1     -11.825   1.349 -34.236  1.00  0.00     0.036 A 
HETATM   20  C   UNL     1     -11.025   0.580 -33.379  1.00  0.00     0.030 A 
HETATM   21  C   UNL     1      -9.758   1.022 -32.981  1.00  0.00     0.011 A 
BRANCH  19  22
HETATM   22  N   UNL     1     -13.082   0.819 -34.564  1.00  0.00    -0.303 N 
HETATM   23  C   UNL     1     -14.360   1.203 -34.255  1.00  0.00     0.364 C 
HETATM   24  O   UNL     1     -15.312   0.559 -34.685  1.00  0.00    -0.238 OA
HETATM   25  H   UNL     1     -13.101  -0.016 -35.139  1.00  0.00     0.171 HD
BRANCH  23  26
HETATM   26  O   UNL     1     -14.473   2.292 -33.457  1.00  0.00    -0.309 OA
HETATM   27  C   UNL     1     -15.152   2.043 -32.224  1.00  0.00     0.215 C 
ENDBRANCH  23  26
ENDBRANCH  19  22
ENDBRANCH  15  16
ENDBRANCH   1  15
TORSDOF 6
ENDMDL
MODEL 9
REMARK VINA RESULT:      -6.9      2.928      4.968
REMARK  6 active torsions:
REMARK  status: ('A' for Active; 'I' for Inactive)
REMARK    1  A    between atoms: C_2  and  N_3 
REMARK    2  A    between atoms: C_2  and  C_18 
REMARK    3  A    between atoms: N_3  and  C_6 
REMARK    4  A    between atoms: C_6  and  C_7 
REMARK    5  A    between atoms: C_10  and  N_11 
REMARK       I    between atoms: N_11  and  C_12 
REMARK    6  A    between atoms: C_12  and  O_13 
ROOT
HETATM    1  N   UNL     1      -7.028   1.580 -31.937  1.00  0.00    -0.063 N 
HETATM    2  H   UNL     1      -7.176   2.444 -32.472  1.00  0.00     0.278 HD
HETATM    3  H   UNL     1      -7.384   1.794 -30.994  1.00  0.00     0.278 HD
ENDROOT
BRANCH   1   4
HETATM    4  C   UNL     1      -7.847   0.464 -32.513  1.00  0.00     0.216 C 
HETATM    5  C   UNL     1      -7.002  -0.326 -33.512  1.00  0.00     0.045 C 
BRANCH   4   6
HETATM    6  C   UNL     1      -9.107   1.000 -33.147  1.00  0.00    -0.009 A 
HETATM    7  C   UNL     1      -9.066   2.173 -33.899  1.00  0.00     0.126 A 
HETATM    8  N   UNL     1     -10.108   2.734 -34.533  1.00  0.00    -0.259 NA
HETATM    9  C   UNL     1     -11.303   2.099 -34.405  1.00  0.00     0.074 A 
HETATM   10  C   UNL     1     -11.452   0.927 -33.666  1.00  0.00     0.034 A 
HETATM   11  C   UNL     1     -12.531   2.525 -34.986  1.00  0.00     0.040 A 
HETATM   12  S   UNL     1     -13.079   0.375 -33.696  1.00  0.00    -0.100 SA
HETATM   13  C   UNL     1     -10.344   0.355 -33.018  1.00  0.00     0.032 A 
HETATM   14  C   UNL     1     -13.576   1.681 -34.682  1.00  0.00     0.053 A 
ENDBRANCH   4   6
ENDBRANCH   1   4
BRANCH   1  15
HETATM   15  C   UNL     1      -5.564   1.335 -31.813  1.00  0.00     0.271 C 
BRANCH  15  16
HETATM   16  C   UNL     1      -4.794   2.469 -32.428  1.00  0.00    -0.033 A 
HETATM   17  C   UNL     1      -3.414   2.589 -32.223  1.00  0.00     0.011 A 
HETATM   18  C   UNL     1      -2.702   3.677 -32.746  1.00  0.00     0.030 A 
HETATM   19  C   UNL     1      -3.352   4.668 -33.481  1.00  0.00     0.036 A 
HETATM   20  C   UNL     1      -4.732   4.541 -33.691  1.00  0.00     0.030 A 
HETATM   21  C   UNL     1      -5.449   3.460 -33.167  1.00  0.00     0.011 A 
BRANCH  19  22
HETATM   22  N   UNL     1      -2.732   5.796 -34.040  1.00  0.00    -0.303 N 
HETATM   23  C   UNL     1      -2.277   6.968 -33.499  1.00  0.00     0.364 C 
HETATM   24  O   UNL     1      -1.752   7.811 -34.219  1.00  0.00    -0.238 OA
HETATM   25  H   UNL     1      -2.573   5.793 -35.041  1.00  0.00     0.171 HD
BRANCH  23  26
HETATM   26  O   UNL     1      -2.464   7.114 -32.165  1.00  0.00    -0.309 OA
HETATM   27  C   UNL     1      -1.264   7.026 -31.394  1.00  0.00     0.215 C 
ENDBRANCH  23  26
ENDBRANCH  19  22
ENDBRANCH  15  16
ENDBRANCH   1  15
TORSDOF 6
ENDMDL
MODEL 10
REMARK VINA RESULT:      -6.7     15.943     17.424
REMARK  6 active torsions:
REMARK  status: ('A' for Active; 'I' for Inactive)
REMARK    1  A    between atoms: C_2  and  N_3 
REMARK    2  A    between atoms: C_2  and  C_18 
REMARK    3  A    between atoms: N_3  and  C_6 
REMARK    4  A    between atoms: C_6  and  C_7 
REMARK    5  A    between atoms: C_10  and  N_11 
REMARK       I    between atoms: N_11  and  C_12 
REMARK    6  A    between atoms: C_12  and  O_13 
ROOT
HETATM    1  N   UNL     1      -4.104 -12.200 -37.540  1.00  0.00    -0.063 N 
HETATM    2  H   UNL     1      -5.002 -12.014 -37.077  1.00  0.00     0.278 HD
HETATM    3  H   UNL     1      -3.544 -11.353 -37.370  1.00  0.00     0.278 HD
ENDROOT
BRANCH   1   4
HETATM    4  C   UNL     1      -3.417 -13.366 -36.895  1.00  0.00     0.216 C 
HETATM    5  C   UNL     1      -2.717 -14.202 -37.966  1.00  0.00     0.045 C 
BRANCH   4   6
HETATM    6  C   UNL     1      -4.399 -14.188 -36.097  1.00  0.00    -0.009 A 
HETATM    7  C   UNL     1      -5.113 -15.214 -36.712  1.00  0.00     0.126 A 
HETATM    8  N   UNL     1      -5.990 -16.030 -36.107  1.00  0.00    -0.259 NA
HETATM    9  C   UNL     1      -6.202 -15.810 -34.782  1.00  0.00     0.074 A 
HETATM   10  C   UNL     1      -5.546 -14.802 -34.078  1.00  0.00     0.034 A 
HETATM   11  C   UNL     1      -7.092 -16.550 -33.953  1.00  0.00     0.040 A 
HETATM   12  S   UNL     1      -6.030 -14.781 -32.428  1.00  0.00    -0.100 SA
HETATM   13  C   UNL     1      -4.626 -13.966 -34.732  1.00  0.00     0.032 A 
HETATM   14  C   UNL     1      -7.097 -16.098 -32.653  1.00  0.00     0.053 A 
ENDBRANCH   4   6
ENDBRANCH   1   4
BRANCH   1  15
HETATM   15  C   UNL     1      -4.332 -12.292 -39.010  1.00  0.00     0.271 C 
BRANCH  15  16
HETATM   16  C   UNL     1      -5.804 -12.338 -39.306  1.00  0.00    -0.033 A 
HETATM   17  C   UNL     1      -6.738 -12.434 -38.268  1.00  0.00     0.011 A 
HETATM   18  C   UNL     1      -8.108 -12.536 -38.542  1.00  0.00     0.030 A 
HETATM   19  C   UNL     1      -8.574 -12.547 -39.856  1.00  0.00     0.036 A 
HETATM   20  C   UNL     1      -7.637 -12.444 -40.894  1.00  0.00     0.030 A 
HETATM   21  C   UNL     1      -6.267 -12.346 -40.627  1.00  0.00     0.011 A 
BRANCH  19  22
HETATM   22  N   UNL     1      -9.922 -12.651 -40.235  1.00  0.00    -0.303 N 
HETATM   23  C   UNL     1     -10.790 -13.709 -40.295  1.00  0.00     0.364 C 
HETATM   24  O   UNL     1     -11.947 -13.530 -40.660  1.00  0.00    -0.238 OA
HETATM   25  H   UNL     1     -10.388 -11.804 -40.537  1.00  0.00     0.171 HD
BRANCH  23  26
HETATM   26  O   UNL     1     -10.276 -14.914 -39.950  1.00  0.00    -0.309 OA
HETATM   27  C   UNL     1      -9.830 -15.697 -41.059  1.00  0.00     0.215 C 
ENDBRANCH  23  26
ENDBRANCH  19  22
ENDBRANCH  15  16
ENDBRANCH   1  15
TORSDOF 6
ENDMDL
