MODEL 1
REMARK VINA RESULT:      -8.5      0.000      0.000
REMARK  10 active torsions:
REMARK  status: ('A' for Active; 'I' for Inactive)
REMARK       I    between atoms: C_2  and  N_3 
REMARK    1  A    between atoms: N_3  and  C_4 
REMARK    2  A    between atoms: C_6  and  O_7 
REMARK    3  A    between atoms: O_7  and  C_8 
REMARK    4  A    between atoms: C_8  and  C_9 
REMARK    5  A    between atoms: C_9  and  C_10 
REMARK    6  A    between atoms: C_10  and  C_11 
REMARK    7  A    between atoms: C_11  and  N_12 
REMARK       I    between atoms: N_12  and  C_13 
REMARK    8  A    between atoms: C_13  and  C_14 
REMARK    9  A    between atoms: C_18  and  C_19 
REMARK   10  A    between atoms: C_21  and  O_22 
ROOT
HETATM    1  N   UNL     1      -1.494   5.541 -31.081  1.00  0.00    -0.345 N 
HETATM    2  C   UNL     1      -0.200   5.442 -30.638  1.00  0.00     0.270 C 
HETATM    3  O   UNL     1       0.665   4.831 -31.258  1.00  0.00    -0.266 OA
HETATM    4  H   UNL     1      -2.185   6.026 -30.531  1.00  0.00     0.163 HD
ENDROOT
BRANCH   1   5
HETATM    5  C   UNL     1      -1.907   4.912 -32.306  1.00  0.00     0.217 C 
BRANCH   5   6
HETATM    6  C   UNL     1      -2.631   3.676 -32.010  1.00  0.00    -0.085 C 
BRANCH   6   7
HETATM    7  C   UNL     1      -3.272   2.570 -31.752  1.00  0.00    -0.078 C 
BRANCH   7   8
HETATM    8  C   UNL     1      -4.020   1.280 -31.454  1.00  0.00     0.269 C 
BRANCH   8   9
HETATM    9  O   UNL     1      -5.418   1.477 -31.650  1.00  0.00    -0.339 OA
BRANCH   9  10
HETATM   10  C   UNL     1      -5.953   0.896 -32.771  1.00  0.00     0.072 A 
HETATM   11  C   UNL     1      -6.100  -0.479 -32.991  1.00  0.00     0.066 A 
HETATM   12  C   UNL     1      -6.671  -0.959 -34.174  1.00  0.00     0.037 A 
HETATM   13  C   UNL     1      -7.090  -0.042 -35.146  1.00  0.00     0.029 A 
HETATM   14  C   UNL     1      -6.944   1.330 -34.936  1.00  0.00     0.005 A 
HETATM   15  C   UNL     1      -6.377   1.795 -33.750  1.00  0.00     0.037 A 
BRANCH  12  16
HETATM   16  N   UNL     1      -6.859  -2.331 -34.457  1.00  0.00    -0.327 N 
HETATM   17  C   UNL     1      -5.905  -3.247 -34.862  1.00  0.00     0.218 C 
HETATM   18  C   UNL     1      -6.477  -4.629 -35.063  1.00  0.00     0.117 C 
HETATM   19  O   UNL     1      -4.718  -3.029 -35.080  1.00  0.00    -0.274 OA
HETATM   20  H   UNL     1      -7.805  -2.675 -34.351  1.00  0.00     0.169 HD
ENDBRANCH  12  16
ENDBRANCH   9  10
ENDBRANCH   8   9
ENDBRANCH   7   8
ENDBRANCH   6   7
ENDBRANCH   5   6
ENDBRANCH   1   5
BRANCH   2  21
HETATM   21  C   UNL     1       0.073   6.094 -29.387  1.00  0.00     0.120 A 
HETATM   22  N   UNL     1      -0.290   5.536 -28.195  1.00  0.00    -0.272 N 
HETATM   23  H   UNL     1      -0.760   4.645 -28.060  1.00  0.00     0.189 HD
HETATM   24  N   UNL     1       0.008   6.282 -27.121  1.00  0.00    -0.174 NA
HETATM   25  C   UNL     1       0.624   7.365 -27.623  1.00  0.00     0.089 A 
HETATM   26  C   UNL     1       0.682   7.284 -29.043  1.00  0.00     0.071 A 
BRANCH  25  27
HETATM   27  C   UNL     1       1.123   8.439 -26.758  1.00  0.00    -0.003 A 
HETATM   28  C   UNL     1       2.089   8.163 -25.774  1.00  0.00     0.050 A 
HETATM   29  C   UNL     1       2.560   9.173 -24.932  1.00  0.00     0.069 A 
HETATM   30  C   UNL     1       2.069  10.471 -25.078  1.00  0.00     0.037 A 
HETATM   31  C   UNL     1       1.117  10.763 -26.053  1.00  0.00     0.004 A 
HETATM   32  C   UNL     1       0.644   9.750 -26.890  1.00  0.00     0.014 A 
BRANCH  29  33
HETATM   33  O   UNL     1       3.488   9.023 -23.937  1.00  0.00    -0.356 OA
HETATM   34  C   UNL     1       2.999   9.027 -22.601  1.00  0.00     0.210 C 
ENDBRANCH  29  33
ENDBRANCH  25  27
ENDBRANCH   2  21
TORSDOF 10
ENDMDL
MODEL 2
REMARK VINA RESULT:      -8.4      1.575      2.430
REMARK  10 active torsions:
REMARK  status: ('A' for Active; 'I' for Inactive)
REMARK       I    between atoms: C_2  and  N_3 
REMARK    1  A    between atoms: N_3  and  C_4 
REMARK    2  A    between atoms: C_6  and  O_7 
REMARK    3  A    between atoms: O_7  and  C_8 
REMARK    4  A    between atoms: C_8  and  C_9 
REMARK    5  A    between atoms: C_9  and  C_10 
REMARK    6  A    between atoms: C_10  and  C_11 
REMARK    7  A    between atoms: C_11  and  N_12 
REMARK       I    between atoms: N_12  and  C_13 
REMARK    8  A    between atoms: C_13  and  C_14 
REMARK    9  A    between atoms: C_18  and  C_19 
REMARK   10  A    between atoms: C_21  and  O_22 
ROOT
HETATM    1  N   UNL     1      -2.255   4.960 -30.965  1.00  0.00    -0.345 N 
HETATM    2  C   UNL     1      -0.907   5.197 -31.053  1.00  0.00     0.270 C 
HETATM    3  O   UNL     1      -0.251   4.910 -32.050  1.00  0.00    -0.266 OA
HETATM    4  H   UNL     1      -2.757   5.183 -30.119  1.00  0.00     0.163 HD
ENDROOT
BRANCH   1   5
HETATM    5  C   UNL     1      -2.971   4.342 -32.048  1.00  0.00     0.217 C 
BRANCH   5   6
HETATM    6  C   UNL     1      -3.199   2.929 -31.749  1.00  0.00    -0.085 C 
BRANCH   6   7
HETATM    7  C   UNL     1      -3.409   1.671 -31.475  1.00  0.00    -0.078 C 
BRANCH   7   8
HETATM    8  C   UNL     1      -3.654   0.204 -31.157  1.00  0.00     0.269 C 
BRANCH   8   9
HETATM    9  O   UNL     1      -3.479  -0.579 -32.335  1.00  0.00    -0.339 OA
BRANCH   9  10
HETATM   10  C   UNL     1      -4.630  -0.984 -32.961  1.00  0.00     0.072 A 
HETATM   11  C   UNL     1      -5.914  -0.478 -32.726  1.00  0.00     0.066 A 
HETATM   12  C   UNL     1      -7.018  -0.964 -33.434  1.00  0.00     0.037 A 
HETATM   13  C   UNL     1      -6.823  -1.974 -34.384  1.00  0.00     0.029 A 
HETATM   14  C   UNL     1      -5.547  -2.486 -34.622  1.00  0.00     0.005 A 
HETATM   15  C   UNL     1      -4.456  -1.991 -33.911  1.00  0.00     0.037 A 
BRANCH  12  16
HETATM   16  N   UNL     1      -8.338  -0.491 -33.255  1.00  0.00    -0.327 N 
HETATM   17  C   UNL     1      -8.928   0.607 -33.853  1.00  0.00     0.218 C 
HETATM   18  C   UNL     1     -10.362   0.800 -33.423  1.00  0.00     0.117 C 
HETATM   19  O   UNL     1      -8.403   1.396 -34.631  1.00  0.00    -0.274 OA
HETATM   20  H   UNL     1      -8.911  -1.023 -32.611  1.00  0.00     0.169 HD
ENDBRANCH  12  16
ENDBRANCH   9  10
ENDBRANCH   8   9
ENDBRANCH   7   8
ENDBRANCH   6   7
ENDBRANCH   5   6
ENDBRANCH   1   5
BRANCH   2  21
HETATM   21  C   UNL     1      -0.311   5.796 -29.891  1.00  0.00     0.120 A 
HETATM   22  N   UNL     1       0.341   5.046 -28.955  1.00  0.00    -0.272 N 
HETATM   23  H   UNL     1       0.480   4.040 -28.973  1.00  0.00     0.189 HD
HETATM   24  N   UNL     1       0.815   5.749 -27.915  1.00  0.00    -0.174 NA
HETATM   25  C   UNL     1       0.491   7.022 -28.192  1.00  0.00     0.089 A 
HETATM   26  C   UNL     1      -0.220   7.092 -29.424  1.00  0.00     0.071 A 
BRANCH  25  27
HETATM   27  C   UNL     1       0.845   8.122 -27.290  1.00  0.00    -0.003 A 
HETATM   28  C   UNL     1       1.892   7.968 -26.364  1.00  0.00     0.050 A 
HETATM   29  C   UNL     1       2.229   9.000 -25.486  1.00  0.00     0.069 A 
HETATM   30  C   UNL     1       1.521  10.202 -25.539  1.00  0.00     0.037 A 
HETATM   31  C   UNL     1       0.486  10.375 -26.457  1.00  0.00     0.004 A 
HETATM   32  C   UNL     1       0.148   9.338 -27.328  1.00  0.00     0.014 A 
BRANCH  29  33
HETATM   33  O   UNL     1       3.217   8.962 -24.540  1.00  0.00    -0.356 OA
HETATM   34  C   UNL     1       2.802   8.816 -23.188  1.00  0.00     0.210 C 
ENDBRANCH  29  33
ENDBRANCH  25  27
ENDBRANCH   2  21
TORSDOF 10
ENDMDL
MODEL 3
REMARK VINA RESULT:      -8.3      3.529     10.759
REMARK  10 active torsions:
REMARK  status: ('A' for Active; 'I' for Inactive)
REMARK       I    between atoms: C_2  and  N_3 
REMARK    1  A    between atoms: N_3  and  C_4 
REMARK    2  A    between atoms: C_6  and  O_7 
REMARK    3  A    between atoms: O_7  and  C_8 
REMARK    4  A    between atoms: C_8  and  C_9 
REMARK    5  A    between atoms: C_9  and  C_10 
REMARK    6  A    between atoms: C_10  and  C_11 
REMARK    7  A    between atoms: C_11  and  N_12 
REMARK       I    between atoms: N_12  and  C_13 
REMARK    8  A    between atoms: C_13  and  C_14 
REMARK    9  A    between atoms: C_18  and  C_19 
REMARK   10  A    between atoms: C_21  and  O_22 
ROOT
HETATM    1  N   UNL     1      -5.599   4.196 -28.984  1.00  0.00    -0.345 N 
HETATM    2  C   UNL     1      -5.463   4.236 -30.348  1.00  0.00     0.270 C 
HETATM    3  O   UNL     1      -5.711   5.242 -31.006  1.00  0.00    -0.266 OA
HETATM    4  H   UNL     1      -5.415   3.344 -28.478  1.00  0.00     0.163 HD
ENDROOT
BRANCH   1   5
HETATM    5  C   UNL     1      -6.058   5.346 -28.252  1.00  0.00     0.217 C 
BRANCH   5   6
HETATM    6  C   UNL     1      -4.933   6.240 -27.977  1.00  0.00    -0.085 C 
BRANCH   6   7
HETATM    7  C   UNL     1      -3.926   7.033 -27.740  1.00  0.00    -0.078 C 
BRANCH   7   8
HETATM    8  C   UNL     1      -2.751   7.957 -27.461  1.00  0.00     0.269 C 
BRANCH   8   9
HETATM    9  O   UNL     1      -2.405   8.666 -28.648  1.00  0.00    -0.339 OA
BRANCH   9  10
HETATM   10  C   UNL     1      -1.536   8.025 -29.496  1.00  0.00     0.072 A 
HETATM   11  C   UNL     1      -1.825   7.599 -30.798  1.00  0.00     0.066 A 
HETATM   12  C   UNL     1      -0.854   6.962 -31.576  1.00  0.00     0.037 A 
HETATM   13  C   UNL     1       0.419   6.747 -31.031  1.00  0.00     0.029 A 
HETATM   14  C   UNL     1       0.713   7.165 -29.733  1.00  0.00     0.005 A 
HETATM   15  C   UNL     1      -0.263   7.802 -28.970  1.00  0.00     0.037 A 
BRANCH  12  16
HETATM   16  N   UNL     1      -1.073   6.516 -32.899  1.00  0.00    -0.327 N 
HETATM   17  C   UNL     1      -1.495   5.264 -33.308  1.00  0.00     0.218 C 
HETATM   18  C   UNL     1      -1.624   5.157 -34.808  1.00  0.00     0.117 C 
HETATM   19  O   UNL     1      -1.729   4.295 -32.595  1.00  0.00    -0.274 OA
HETATM   20  H   UNL     1      -0.897   7.198 -33.627  1.00  0.00     0.169 HD
ENDBRANCH  12  16
ENDBRANCH   9  10
ENDBRANCH   8   9
ENDBRANCH   7   8
ENDBRANCH   6   7
ENDBRANCH   5   6
ENDBRANCH   1   5
BRANCH   2  21
HETATM   21  C   UNL     1      -5.021   3.012 -30.958  1.00  0.00     0.120 A 
HETATM   22  N   UNL     1      -3.709   2.633 -30.930  1.00  0.00    -0.272 N 
HETATM   23  H   UNL     1      -2.941   3.135 -30.496  1.00  0.00     0.189 HD
HETATM   24  N   UNL     1      -3.454   1.481 -31.569  1.00  0.00    -0.174 NA
HETATM   25  C   UNL     1      -4.652   1.065 -32.009  1.00  0.00     0.089 A 
HETATM   26  C   UNL     1      -5.662   2.002 -31.647  1.00  0.00     0.071 A 
BRANCH  25  27
HETATM   27  C   UNL     1      -4.807  -0.183 -32.763  1.00  0.00    -0.003 A 
HETATM   28  C   UNL     1      -3.986  -1.288 -32.475  1.00  0.00     0.050 A 
HETATM   29  C   UNL     1      -4.111  -2.478 -33.196  1.00  0.00     0.069 A 
HETATM   30  C   UNL     1      -5.068  -2.568 -34.207  1.00  0.00     0.037 A 
HETATM   31  C   UNL     1      -5.895  -1.485 -34.500  1.00  0.00     0.004 A 
HETATM   32  C   UNL     1      -5.764  -0.295 -33.781  1.00  0.00     0.014 A 
BRANCH  29  33
HETATM   33  O   UNL     1      -3.365  -3.611 -33.013  1.00  0.00    -0.356 OA
HETATM   34  C   UNL     1      -3.843  -4.798 -33.635  1.00  0.00     0.210 C 
ENDBRANCH  29  33
ENDBRANCH  25  27
ENDBRANCH   2  21
TORSDOF 10
ENDMDL
MODEL 4
REMARK VINA RESULT:      -8.2      3.508     10.678
REMARK  10 active torsions:
REMARK  status: ('A' for Active; 'I' for Inactive)
REMARK       I    between atoms: C_2  and  N_3 
REMARK    1  A    between atoms: N_3  and  C_4 
REMARK    2  A    between atoms: C_6  and  O_7 
REMARK    3  A    between atoms: O_7  and  C_8 
REMARK    4  A    between atoms: C_8  and  C_9 
REMARK    5  A    between atoms: C_9  and  C_10 
REMARK    6  A    between atoms: C_10  and  C_11 
REMARK    7  A    between atoms: C_11  and  N_12 
REMARK       I    between atoms: N_12  and  C_13 
REMARK    8  A    between atoms: C_13  and  C_14 
REMARK    9  A    between atoms: C_18  and  C_19 
REMARK   10  A    between atoms: C_21  and  O_22 
ROOT
HETATM    1  N   UNL     1      -5.661   4.778 -28.360  1.00  0.00    -0.345 N 
HETATM    2  C   UNL     1      -6.074   4.485 -29.634  1.00  0.00     0.270 C 
HETATM    3  O   UNL     1      -6.556   5.330 -30.382  1.00  0.00    -0.266 OA
HETATM    4  H   UNL     1      -5.295   4.052 -27.762  1.00  0.00     0.163 HD
ENDROOT
BRANCH   1   5
HETATM    5  C   UNL     1      -5.788   6.108 -27.828  1.00  0.00     0.217 C 
BRANCH   5   6
HETATM    6  C   UNL     1      -4.463   6.710 -27.678  1.00  0.00    -0.085 C 
BRANCH   6   7
HETATM    7  C   UNL     1      -3.283   7.251 -27.553  1.00  0.00    -0.078 C 
BRANCH   7   8
HETATM    8  C   UNL     1      -1.907   7.882 -27.409  1.00  0.00     0.269 C 
BRANCH   8   9
HETATM    9  O   UNL     1      -1.391   8.209 -28.696  1.00  0.00    -0.339 OA
BRANCH   9  10
HETATM   10  C   UNL     1      -0.919   7.155 -29.437  1.00  0.00     0.072 A 
HETATM   11  C   UNL     1      -1.401   6.750 -30.688  1.00  0.00     0.066 A 
HETATM   12  C   UNL     1      -0.834   5.661 -31.357  1.00  0.00     0.037 A 
HETATM   13  C   UNL     1       0.225   4.971 -30.754  1.00  0.00     0.029 A 
HETATM   14  C   UNL     1       0.708   5.365 -29.506  1.00  0.00     0.005 A 
HETATM   15  C   UNL     1       0.137   6.455 -28.852  1.00  0.00     0.037 A 
BRANCH  12  16
HETATM   16  N   UNL     1      -1.263   5.206 -32.625  1.00  0.00    -0.327 N 
HETATM   17  C   UNL     1      -1.262   5.908 -33.817  1.00  0.00     0.218 C 
HETATM   18  C   UNL     1      -1.790   5.090 -34.971  1.00  0.00     0.117 C 
HETATM   19  O   UNL     1      -0.914   7.071 -33.988  1.00  0.00    -0.274 OA
HETATM   20  H   UNL     1      -1.612   4.256 -32.655  1.00  0.00     0.169 HD
ENDBRANCH  12  16
ENDBRANCH   9  10
ENDBRANCH   8   9
ENDBRANCH   7   8
ENDBRANCH   6   7
ENDBRANCH   5   6
ENDBRANCH   1   5
BRANCH   2  21
HETATM   21  C   UNL     1      -5.914   3.113 -30.032  1.00  0.00     0.120 A 
HETATM   22  N   UNL     1      -6.525   2.096 -29.355  1.00  0.00    -0.272 N 
HETATM   23  H   UNL     1      -7.132   2.185 -28.546  1.00  0.00     0.189 HD
HETATM   24  N   UNL     1      -6.252   0.873 -29.832  1.00  0.00    -0.174 NA
HETATM   25  C   UNL     1      -5.454   1.092 -30.889  1.00  0.00     0.089 A 
HETATM   26  C   UNL     1      -5.216   2.487 -31.045  1.00  0.00     0.071 A 
BRANCH  25  27
HETATM   27  C   UNL     1      -4.932  -0.010 -31.704  1.00  0.00    -0.003 A 
HETATM   28  C   UNL     1      -5.643  -0.452 -32.834  1.00  0.00     0.050 A 
HETATM   29  C   UNL     1      -5.167  -1.512 -33.609  1.00  0.00     0.069 A 
HETATM   30  C   UNL     1      -3.966  -2.130 -33.259  1.00  0.00     0.037 A 
HETATM   31  C   UNL     1      -3.244  -1.699 -32.147  1.00  0.00     0.004 A 
HETATM   32  C   UNL     1      -3.726  -0.644 -31.371  1.00  0.00     0.014 A 
BRANCH  29  33
HETATM   33  O   UNL     1      -5.775  -2.033 -34.719  1.00  0.00    -0.356 OA
HETATM   34  C   UNL     1      -5.682  -3.441 -34.897  1.00  0.00     0.210 C 
ENDBRANCH  29  33
ENDBRANCH  25  27
ENDBRANCH   2  21
TORSDOF 10
ENDMDL
MODEL 5
REMARK VINA RESULT:      -8.1      3.598     10.984
REMARK  10 active torsions:
REMARK  status: ('A' for Active; 'I' for Inactive)
REMARK       I    between atoms: C_2  and  N_3 
REMARK    1  A    between atoms: N_3  and  C_4 
REMARK    2  A    between atoms: C_6  and  O_7 
REMARK    3  A    between atoms: O_7  and  C_8 
REMARK    4  A    between atoms: C_8  and  C_9 
REMARK    5  A    between atoms: C_9  and  C_10 
REMARK    6  A    between atoms: C_10  and  C_11 
REMARK    7  A    between atoms: C_11  and  N_12 
REMARK       I    between atoms: N_12  and  C_13 
REMARK    8  A    between atoms: C_13  and  C_14 
REMARK    9  A    between atoms: C_18  and  C_19 
REMARK   10  A    between atoms: C_21  and  O_22 
ROOT
HETATM    1  N   UNL     1      -6.373   4.593 -28.854  1.00  0.00    -0.345 N 
HETATM    2  C   UNL     1      -7.346   3.965 -29.588  1.00  0.00     0.270 C 
HETATM    3  O   UNL     1      -8.463   4.446 -29.752  1.00  0.00    -0.266 OA
HETATM    4  H   UNL     1      -5.475   4.155 -28.716  1.00  0.00     0.163 HD
ENDROOT
BRANCH   1   5
HETATM    5  C   UNL     1      -6.625   5.859 -28.220  1.00  0.00     0.217 C 
BRANCH   5   6
HETATM    6  C   UNL     1      -5.361   6.559 -27.992  1.00  0.00    -0.085 C 
BRANCH   6   7
HETATM    7  C   UNL     1      -4.239   7.189 -27.782  1.00  0.00    -0.078 C 
BRANCH   7   8
HETATM    8  C   UNL     1      -2.930   7.925 -27.539  1.00  0.00     0.269 C 
BRANCH   8   9
HETATM    9  O   UNL     1      -2.558   8.645 -28.711  1.00  0.00    -0.339 OA
BRANCH   9  10
HETATM   10  C   UNL     1      -1.649   8.026 -29.531  1.00  0.00     0.072 A 
HETATM   11  C   UNL     1      -1.885   7.599 -30.844  1.00  0.00     0.066 A 
HETATM   12  C   UNL     1      -0.875   6.984 -31.590  1.00  0.00     0.037 A 
HETATM   13  C   UNL     1       0.382   6.793 -31.003  1.00  0.00     0.029 A 
HETATM   14  C   UNL     1       0.624   7.212 -29.694  1.00  0.00     0.005 A 
HETATM   15  C   UNL     1      -0.390   7.827 -28.962  1.00  0.00     0.037 A 
BRANCH  12  16
HETATM   16  N   UNL     1      -1.040   6.540 -32.921  1.00  0.00    -0.327 N 
HETATM   17  C   UNL     1      -1.498   5.306 -33.348  1.00  0.00     0.218 C 
HETATM   18  C   UNL     1      -1.548   5.194 -34.852  1.00  0.00     0.117 C 
HETATM   19  O   UNL     1      -1.819   4.354 -32.644  1.00  0.00    -0.274 OA
HETATM   20  H   UNL     1      -0.791   7.207 -33.641  1.00  0.00     0.169 HD
ENDBRANCH  12  16
ENDBRANCH   9  10
ENDBRANCH   8   9
ENDBRANCH   7   8
ENDBRANCH   6   7
ENDBRANCH   5   6
ENDBRANCH   1   5
BRANCH   2  21
HETATM   21  C   UNL     1      -6.971   2.695 -30.146  1.00  0.00     0.120 A 
HETATM   22  N   UNL     1      -6.499   1.681 -29.362  1.00  0.00    -0.272 N 
HETATM   23  H   UNL     1      -6.373   1.701 -28.354  1.00  0.00     0.189 HD
HETATM   24  N   UNL     1      -6.165   0.570 -30.036  1.00  0.00    -0.174 NA
HETATM   25  C   UNL     1      -6.460   0.850 -31.316  1.00  0.00     0.089 A 
HETATM   26  C   UNL     1      -6.966   2.177 -31.425  1.00  0.00     0.071 A 
BRANCH  25  27
HETATM   27  C   UNL     1      -6.244  -0.126 -32.389  1.00  0.00    -0.003 A 
HETATM   28  C   UNL     1      -5.165  -1.025 -32.320  1.00  0.00     0.050 A 
HETATM   29  C   UNL     1      -4.937  -1.948 -33.342  1.00  0.00     0.069 A 
HETATM   30  C   UNL     1      -5.799  -1.981 -34.439  1.00  0.00     0.037 A 
HETATM   31  C   UNL     1      -6.878  -1.103 -34.520  1.00  0.00     0.004 A 
HETATM   32  C   UNL     1      -7.099  -0.176 -33.499  1.00  0.00     0.014 A 
BRANCH  29  33
HETATM   33  O   UNL     1      -3.919  -2.862 -33.389  1.00  0.00    -0.356 OA
HETATM   34  C   UNL     1      -3.191  -3.070 -32.185  1.00  0.00     0.210 C 
ENDBRANCH  29  33
ENDBRANCH  25  27
ENDBRANCH   2  21
TORSDOF 10
ENDMDL
MODEL 6
REMARK VINA RESULT:      -7.9      3.160     12.019
REMARK  10 active torsions:
REMARK  status: ('A' for Active; 'I' for Inactive)
REMARK       I    between atoms: C_2  and  N_3 
REMARK    1  A    between atoms: N_3  and  C_4 
REMARK    2  A    between atoms: C_6  and  O_7 
REMARK    3  A    between atoms: O_7  and  C_8 
REMARK    4  A    between atoms: C_8  and  C_9 
REMARK    5  A    between atoms: C_9  and  C_10 
REMARK    6  A    between atoms: C_10  and  C_11 
REMARK    7  A    between atoms: C_11  and  N_12 
REMARK       I    between atoms: N_12  and  C_13 
REMARK    8  A    between atoms: C_13  and  C_14 
REMARK    9  A    between atoms: C_18  and  C_19 
REMARK   10  A    between atoms: C_21  and  O_22 
ROOT
HETATM    1  N   UNL     1      -7.019   4.962 -32.279  1.00  0.00    -0.345 N 
HETATM    2  C   UNL     1      -6.411   4.417 -33.381  1.00  0.00     0.270 C 
HETATM    3  O   UNL     1      -6.175   5.069 -34.393  1.00  0.00    -0.266 OA
HETATM    4  H   UNL     1      -7.224   4.389 -31.475  1.00  0.00     0.163 HD
ENDROOT
BRANCH   1   5
HETATM    5  C   UNL     1      -7.425   6.341 -32.263  1.00  0.00     0.217 C 
BRANCH   5   6
HETATM    6  C   UNL     1      -6.340   7.172 -31.741  1.00  0.00    -0.085 C 
BRANCH   6   7
HETATM    7  C   UNL     1      -5.376   7.920 -31.281  1.00  0.00    -0.078 C 
BRANCH   7   8
HETATM    8  C   UNL     1      -4.252   8.793 -30.746  1.00  0.00     0.269 C 
BRANCH   8   9
HETATM    9  O   UNL     1      -3.157   8.780 -31.658  1.00  0.00    -0.339 OA
BRANCH   9  10
HETATM   10  C   UNL     1      -2.017   8.159 -31.216  1.00  0.00     0.072 A 
HETATM   11  C   UNL     1      -1.580   8.095 -29.887  1.00  0.00     0.066 A 
HETATM   12  C   UNL     1      -0.400   7.424 -29.551  1.00  0.00     0.037 A 
HETATM   13  C   UNL     1       0.349   6.819 -30.568  1.00  0.00     0.029 A 
HETATM   14  C   UNL     1      -0.077   6.882 -31.895  1.00  0.00     0.005 A 
HETATM   15  C   UNL     1      -1.257   7.550 -32.215  1.00  0.00     0.037 A 
BRANCH  12  16
HETATM   16  N   UNL     1       0.093   7.311 -28.231  1.00  0.00    -0.327 N 
HETATM   17  C   UNL     1       1.153   7.996 -27.666  1.00  0.00     0.218 C 
HETATM   18  C   UNL     1       1.385   7.617 -26.223  1.00  0.00     0.117 C 
HETATM   19  O   UNL     1       1.885   8.811 -28.218  1.00  0.00    -0.274 OA
HETATM   20  H   UNL     1      -0.391   6.650 -27.637  1.00  0.00     0.169 HD
ENDBRANCH  12  16
ENDBRANCH   9  10
ENDBRANCH   8   9
ENDBRANCH   7   8
ENDBRANCH   6   7
ENDBRANCH   5   6
ENDBRANCH   1   5
BRANCH   2  21
HETATM   21  C   UNL     1      -6.079   3.023 -33.274  1.00  0.00     0.120 A 
HETATM   22  N   UNL     1      -5.279   2.553 -32.272  1.00  0.00    -0.272 N 
HETATM   23  H   UNL     1      -4.856   3.099 -31.527  1.00  0.00     0.189 HD
HETATM   24  N   UNL     1      -5.039   1.235 -32.329  1.00  0.00    -0.174 NA
HETATM   25  C   UNL     1      -5.738   0.810 -33.394  1.00  0.00     0.089 A 
HETATM   26  C   UNL     1      -6.402   1.905 -34.016  1.00  0.00     0.071 A 
BRANCH  25  27
HETATM   27  C   UNL     1      -5.747  -0.600 -33.798  1.00  0.00    -0.003 A 
HETATM   28  C   UNL     1      -4.621  -1.410 -33.563  1.00  0.00     0.050 A 
HETATM   29  C   UNL     1      -4.608  -2.749 -33.958  1.00  0.00     0.069 A 
HETATM   30  C   UNL     1      -5.732  -3.288 -34.585  1.00  0.00     0.037 A 
HETATM   31  C   UNL     1      -6.860  -2.502 -34.819  1.00  0.00     0.004 A 
HETATM   32  C   UNL     1      -6.866  -1.161 -34.428  1.00  0.00     0.014 A 
BRANCH  29  33
HETATM   33  O   UNL     1      -3.572  -3.627 -33.792  1.00  0.00    -0.356 OA
HETATM   34  C   UNL     1      -3.900  -5.011 -33.800  1.00  0.00     0.210 C 
ENDBRANCH  29  33
ENDBRANCH  25  27
ENDBRANCH   2  21
TORSDOF 10
ENDMDL
MODEL 7
REMARK VINA RESULT:      -7.9      2.210      2.974
REMARK  10 active torsions:
REMARK  status: ('A' for Active; 'I' for Inactive)
REMARK       I    between atoms: C_2  and  N_3 
REMARK    1  A    between atoms: N_3  and  C_4 
REMARK    2  A    between atoms: C_6  and  O_7 
REMARK    3  A    between atoms: O_7  and  C_8 
REMARK    4  A    between atoms: C_8  and  C_9 
REMARK    5  A    between atoms: C_9  and  C_10 
REMARK    6  A    between atoms: C_10  and  C_11 
REMARK    7  A    between atoms: C_11  and  N_12 
REMARK       I    between atoms: N_12  and  C_13 
REMARK    8  A    between atoms: C_13  and  C_14 
REMARK    9  A    between atoms: C_18  and  C_19 
REMARK   10  A    between atoms: C_21  and  O_22 
ROOT
HETATM    1  N   UNL     1      -2.387   4.704 -31.244  1.00  0.00    -0.345 N 
HETATM    2  C   UNL     1      -1.107   5.151 -31.041  1.00  0.00     0.270 C 
HETATM    3  O   UNL     1      -0.157   4.756 -31.709  1.00  0.00    -0.266 OA
HETATM    4  H   UNL     1      -3.140   5.028 -30.657  1.00  0.00     0.163 HD
ENDROOT
BRANCH   1   5
HETATM    5  C   UNL     1      -2.677   3.725 -32.258  1.00  0.00     0.217 C 
BRANCH   5   6
HETATM    6  C   UNL     1      -3.437   2.619 -31.675  1.00  0.00    -0.085 C 
BRANCH   6   7
HETATM    7  C   UNL     1      -4.112   1.636 -31.147  1.00  0.00    -0.078 C 
BRANCH   7   8
HETATM    8  C   UNL     1      -4.901   0.491 -30.532  1.00  0.00     0.269 C 
BRANCH   8   9
HETATM    9  O   UNL     1      -4.890  -0.629 -31.413  1.00  0.00    -0.339 OA
BRANCH   9  10
HETATM   10  C   UNL     1      -5.775  -0.577 -32.459  1.00  0.00     0.072 A 
HETATM   11  C   UNL     1      -6.972   0.150 -32.486  1.00  0.00     0.066 A 
HETATM   12  C   UNL     1      -7.796   0.135 -33.616  1.00  0.00     0.037 A 
HETATM   13  C   UNL     1      -7.409  -0.626 -34.727  1.00  0.00     0.029 A 
HETATM   14  C   UNL     1      -6.220  -1.356 -34.707  1.00  0.00     0.005 A 
HETATM   15  C   UNL     1      -5.407  -1.329 -33.575  1.00  0.00     0.037 A 
BRANCH  12  16
HETATM   16  N   UNL     1      -9.009   0.852 -33.715  1.00  0.00    -0.327 N 
HETATM   17  C   UNL     1     -10.257   0.464 -33.263  1.00  0.00     0.218 C 
HETATM   18  C   UNL     1     -11.322   1.497 -33.541  1.00  0.00     0.117 C 
HETATM   19  O   UNL     1     -10.547  -0.594 -32.715  1.00  0.00    -0.274 OA
HETATM   20  H   UNL     1      -8.950   1.753 -34.173  1.00  0.00     0.169 HD
ENDBRANCH  12  16
ENDBRANCH   9  10
ENDBRANCH   8   9
ENDBRANCH   7   8
ENDBRANCH   6   7
ENDBRANCH   5   6
ENDBRANCH   1   5
BRANCH   2  21
HETATM   21  C   UNL     1      -0.952   6.108 -29.980  1.00  0.00     0.120 A 
HETATM   22  N   UNL     1      -1.831   7.140 -29.814  1.00  0.00    -0.272 N 
HETATM   23  H   UNL     1      -2.652   7.335 -30.379  1.00  0.00     0.189 HD
HETATM   24  N   UNL     1      -1.532   7.963 -28.798  1.00  0.00    -0.174 NA
HETATM   25  C   UNL     1      -0.426   7.434 -28.249  1.00  0.00     0.089 A 
HETATM   26  C   UNL     1      -0.029   6.270 -28.966  1.00  0.00     0.071 A 
BRANCH  25  27
HETATM   27  C   UNL     1       0.226   8.045 -27.086  1.00  0.00    -0.003 A 
HETATM   28  C   UNL     1      -0.549   8.621 -26.064  1.00  0.00     0.050 A 
HETATM   29  C   UNL     1       0.059   9.221 -24.958  1.00  0.00     0.069 A 
HETATM   30  C   UNL     1       1.451   9.239 -24.868  1.00  0.00     0.037 A 
HETATM   31  C   UNL     1       2.234   8.665 -25.869  1.00  0.00     0.004 A 
HETATM   32  C   UNL     1       1.624   8.071 -26.976  1.00  0.00     0.014 A 
BRANCH  29  33
HETATM   33  O   UNL     1      -0.588   9.820 -23.911  1.00  0.00    -0.356 OA
HETATM   34  C   UNL     1       0.230  10.372 -22.886  1.00  0.00     0.210 C 
ENDBRANCH  29  33
ENDBRANCH  25  27
ENDBRANCH   2  21
TORSDOF 10
ENDMDL
MODEL 8
REMARK VINA RESULT:      -7.8      2.956     11.964
REMARK  10 active torsions:
REMARK  status: ('A' for Active; 'I' for Inactive)
REMARK       I    between atoms: C_2  and  N_3 
REMARK    1  A    between atoms: N_3  and  C_4 
REMARK    2  A    between atoms: C_6  and  O_7 
REMARK    3  A    between atoms: O_7  and  C_8 
REMARK    4  A    between atoms: C_8  and  C_9 
REMARK    5  A    between atoms: C_9  and  C_10 
REMARK    6  A    between atoms: C_10  and  C_11 
REMARK    7  A    between atoms: C_11  and  N_12 
REMARK       I    between atoms: N_12  and  C_13 
REMARK    8  A    between atoms: C_13  and  C_14 
REMARK    9  A    between atoms: C_18  and  C_19 
REMARK   10  A    between atoms: C_21  and  O_22 
ROOT
HETATM    1  N   UNL     1      -5.534   4.318 -28.969  1.00  0.00    -0.345 N 
HETATM    2  C   UNL     1      -6.478   3.896 -29.869  1.00  0.00     0.270 C 
HETATM    3  O   UNL     1      -7.414   4.604 -30.224  1.00  0.00    -0.266 OA
HETATM    4  H   UNL     1      -4.794   3.699 -28.678  1.00  0.00     0.163 HD
ENDROOT
BRANCH   1   5
HETATM    5  C   UNL     1      -5.606   5.629 -28.381  1.00  0.00     0.217 C 
BRANCH   5   6
HETATM    6  C   UNL     1      -4.712   6.542 -29.093  1.00  0.00    -0.085 C 
BRANCH   6   7
HETATM    7  C   UNL     1      -3.908   7.350 -29.726  1.00  0.00    -0.078 C 
BRANCH   7   8
HETATM    8  C   UNL     1      -2.969   8.292 -30.463  1.00  0.00     0.269 C 
BRANCH   8   9
HETATM    9  O   UNL     1      -1.981   7.538 -31.161  1.00  0.00    -0.339 OA
BRANCH   9  10
HETATM   10  C   UNL     1      -1.065   6.882 -30.378  1.00  0.00     0.072 A 
HETATM   11  C   UNL     1      -0.532   7.351 -29.171  1.00  0.00     0.066 A 
HETATM   12  C   UNL     1       0.394   6.589 -28.451  1.00  0.00     0.037 A 
HETATM   13  C   UNL     1       0.790   5.345 -28.959  1.00  0.00     0.029 A 
HETATM   14  C   UNL     1       0.266   4.873 -30.163  1.00  0.00     0.005 A 
HETATM   15  C   UNL     1      -0.658   5.641 -30.868  1.00  0.00     0.037 A 
BRANCH  12  16
HETATM   16  N   UNL     1       0.962   6.996 -27.223  1.00  0.00    -0.327 N 
HETATM   17  C   UNL     1       1.662   8.160 -26.962  1.00  0.00     0.218 C 
HETATM   18  C   UNL     1       2.114   8.255 -25.525  1.00  0.00     0.117 C 
HETATM   19  O   UNL     1       1.945   9.046 -27.762  1.00  0.00    -0.274 OA
HETATM   20  H   UNL     1       0.841   6.355 -26.449  1.00  0.00     0.169 HD
ENDBRANCH  12  16
ENDBRANCH   9  10
ENDBRANCH   8   9
ENDBRANCH   7   8
ENDBRANCH   6   7
ENDBRANCH   5   6
ENDBRANCH   1   5
BRANCH   2  21
HETATM   21  C   UNL     1      -6.303   2.557 -30.361  1.00  0.00     0.120 A 
HETATM   22  N   UNL     1      -6.613   1.468 -29.597  1.00  0.00    -0.272 N 
HETATM   23  H   UNL     1      -6.988   1.476 -28.653  1.00  0.00     0.189 HD
HETATM   24  N   UNL     1      -6.364   0.290 -30.188  1.00  0.00    -0.174 NA
HETATM   25  C   UNL     1      -5.901   0.613 -31.406  1.00  0.00     0.089 A 
HETATM   26  C   UNL     1      -5.845   2.028 -31.551  1.00  0.00     0.071 A 
BRANCH  25  27
HETATM   27  C   UNL     1      -5.514  -0.411 -32.382  1.00  0.00    -0.003 A 
HETATM   28  C   UNL     1      -6.500  -1.096 -33.115  1.00  0.00     0.050 A 
HETATM   29  C   UNL     1      -6.148  -2.086 -34.035  1.00  0.00     0.069 A 
HETATM   30  C   UNL     1      -4.800  -2.389 -34.232  1.00  0.00     0.037 A 
HETATM   31  C   UNL     1      -3.810  -1.714 -33.519  1.00  0.00     0.004 A 
HETATM   32  C   UNL     1      -4.166  -0.730 -32.595  1.00  0.00     0.014 A 
BRANCH  29  33
HETATM   33  O   UNL     1      -7.015  -2.823 -34.795  1.00  0.00    -0.356 OA
HETATM   34  C   UNL     1      -6.685  -4.192 -34.996  1.00  0.00     0.210 C 
ENDBRANCH  29  33
ENDBRANCH  25  27
ENDBRANCH   2  21
TORSDOF 10
ENDMDL
MODEL 9
REMARK VINA RESULT:      -7.7     19.195     20.211
REMARK  10 active torsions:
REMARK  status: ('A' for Active; 'I' for Inactive)
REMARK       I    between atoms: C_2  and  N_3 
REMARK    1  A    between atoms: N_3  and  C_4 
REMARK    2  A    between atoms: C_6  and  O_7 
REMARK    3  A    between atoms: O_7  and  C_8 
REMARK    4  A    between atoms: C_8  and  C_9 
REMARK    5  A    between atoms: C_9  and  C_10 
REMARK    6  A    between atoms: C_10  and  C_11 
REMARK    7  A    between atoms: C_11  and  N_12 
REMARK       I    between atoms: N_12  and  C_13 
REMARK    8  A    between atoms: C_13  and  C_14 
REMARK    9  A    between atoms: C_18  and  C_19 
REMARK   10  A    between atoms: C_21  and  O_22 
ROOT
HETATM    1  N   UNL     1      -5.373 -14.201 -32.849  1.00  0.00    -0.345 N 
HETATM    2  C   UNL     1      -5.854 -15.262 -32.125  1.00  0.00     0.270 C 
HETATM    3  O   UNL     1      -6.886 -15.853 -32.426  1.00  0.00    -0.266 OA
HETATM    4  H   UNL     1      -4.537 -13.721 -32.556  1.00  0.00     0.163 HD
ENDROOT
BRANCH   1   5
HETATM    5  C   UNL     1      -6.076 -13.716 -34.006  1.00  0.00     0.217 C 
BRANCH   5   6
HETATM    6  C   UNL     1      -5.134 -13.508 -35.107  1.00  0.00    -0.085 C 
BRANCH   6   7
HETATM    7  C   UNL     1      -4.287 -13.325 -36.081  1.00  0.00    -0.078 C 
BRANCH   7   8
HETATM    8  C   UNL     1      -3.299 -13.114 -37.218  1.00  0.00     0.269 C 
BRANCH   8   9
HETATM    9  O   UNL     1      -3.747 -12.048 -38.052  1.00  0.00    -0.339 OA
BRANCH   9  10
HETATM   10  C   UNL     1      -4.565 -12.407 -39.094  1.00  0.00     0.072 A 
HETATM   11  C   UNL     1      -5.909 -12.044 -39.244  1.00  0.00     0.066 A 
HETATM   12  C   UNL     1      -6.645 -12.463 -40.356  1.00  0.00     0.037 A 
HETATM   13  C   UNL     1      -6.019 -13.261 -41.323  1.00  0.00     0.029 A 
HETATM   14  C   UNL     1      -4.681 -13.630 -41.178  1.00  0.00     0.005 A 
HETATM   15  C   UNL     1      -3.958 -13.202 -40.066  1.00  0.00     0.037 A 
BRANCH  12  16
HETATM   16  N   UNL     1      -8.000 -12.126 -40.576  1.00  0.00    -0.327 N 
HETATM   17  C   UNL     1      -9.084 -12.420 -39.769  1.00  0.00     0.218 C 
HETATM   18  C   UNL     1     -10.382 -11.889 -40.326  1.00  0.00     0.117 C 
HETATM   19  O   UNL     1      -9.072 -13.058 -38.721  1.00  0.00    -0.274 OA
HETATM   20  H   UNL     1      -8.191 -11.610 -41.426  1.00  0.00     0.169 HD
ENDBRANCH  12  16
ENDBRANCH   9  10
ENDBRANCH   8   9
ENDBRANCH   7   8
ENDBRANCH   6   7
ENDBRANCH   5   6
ENDBRANCH   1   5
BRANCH   2  21
HETATM   21  C   UNL     1      -5.069 -15.629 -30.978  1.00  0.00     0.120 A 
HETATM   22  N   UNL     1      -5.647 -15.869 -29.764  1.00  0.00    -0.272 N 
HETATM   23  H   UNL     1      -6.638 -15.828 -29.544  1.00  0.00     0.189 HD
HETATM   24  N   UNL     1      -4.777 -16.171 -28.788  1.00  0.00    -0.174 NA
HETATM   25  C   UNL     1      -3.577 -16.162 -29.391  1.00  0.00     0.089 A 
HETATM   26  C   UNL     1      -3.719 -15.823 -30.766  1.00  0.00     0.071 A 
BRANCH  25  27
HETATM   27  C   UNL     1      -2.342 -16.456 -28.656  1.00  0.00    -0.003 A 
HETATM   28  C   UNL     1      -1.291 -15.522 -28.639  1.00  0.00     0.050 A 
HETATM   29  C   UNL     1      -0.103 -15.795 -27.957  1.00  0.00     0.069 A 
HETATM   30  C   UNL     1       0.034 -17.007 -27.280  1.00  0.00     0.037 A 
HETATM   31  C   UNL     1      -1.001 -17.941 -27.280  1.00  0.00     0.004 A 
HETATM   32  C   UNL     1      -2.185 -17.667 -27.967  1.00  0.00     0.014 A 
BRANCH  29  33
HETATM   33  O   UNL     1       0.987 -14.972 -27.878  1.00  0.00    -0.356 OA
HETATM   34  C   UNL     1       2.147 -15.375 -28.597  1.00  0.00     0.210 C 
ENDBRANCH  29  33
ENDBRANCH  25  27
ENDBRANCH   2  21
TORSDOF 10
ENDMDL
MODEL 10
REMARK VINA RESULT:      -7.5      3.444     12.485
REMARK  10 active torsions:
REMARK  status: ('A' for Active; 'I' for Inactive)
REMARK       I    between atoms: C_2  and  N_3 
REMARK    1  A    between atoms: N_3  and  C_4 
REMARK    2  A    between atoms: C_6  and  O_7 
REMARK    3  A    between atoms: O_7  and  C_8 
REMARK    4  A    between atoms: C_8  and  C_9 
REMARK    5  A    between atoms: C_9  and  C_10 
REMARK    6  A    between atoms: C_10  and  C_11 
REMARK    7  A    between atoms: C_11  and  N_12 
REMARK       I    between atoms: N_12  and  C_13 
REMARK    8  A    between atoms: C_13  and  C_14 
REMARK    9  A    between atoms: C_18  and  C_19 
REMARK   10  A    between atoms: C_21  and  O_22 
ROOT
HETATM    1  N   UNL     1      -6.972   4.319 -28.754  1.00  0.00    -0.345 N 
HETATM    2  C   UNL     1      -7.011   4.089 -30.105  1.00  0.00     0.270 C 
HETATM    3  O   UNL     1      -7.286   4.967 -30.916  1.00  0.00    -0.266 OA
HETATM    4  H   UNL     1      -6.770   3.567 -28.113  1.00  0.00     0.163 HD
ENDROOT
BRANCH   1   5
HETATM    5  C   UNL     1      -7.270   5.619 -28.216  1.00  0.00     0.217 C 
BRANCH   5   6
HETATM    6  C   UNL     1      -6.028   6.302 -27.851  1.00  0.00    -0.085 C 
BRANCH   6   7
HETATM    7  C   UNL     1      -4.927   6.918 -27.525  1.00  0.00    -0.078 C 
BRANCH   7   8
HETATM    8  C   UNL     1      -3.642   7.637 -27.145  1.00  0.00     0.269 C 
BRANCH   8   9
HETATM    9  O   UNL     1      -2.604   6.685 -26.929  1.00  0.00    -0.339 OA
BRANCH   9  10
HETATM   10  C   UNL     1      -1.327   7.126 -27.170  1.00  0.00     0.072 A 
HETATM   11  C   UNL     1      -0.312   7.264 -26.214  1.00  0.00     0.066 A 
HETATM   12  C   UNL     1       0.959   7.717 -26.578  1.00  0.00     0.037 A 
HETATM   13  C   UNL     1       1.206   8.040 -27.919  1.00  0.00     0.029 A 
HETATM   14  C   UNL     1       0.199   7.909 -28.876  1.00  0.00     0.005 A 
HETATM   15  C   UNL     1      -1.063   7.453 -28.500  1.00  0.00     0.037 A 
BRANCH  12  16
HETATM   16  N   UNL     1       2.031   7.869 -25.670  1.00  0.00    -0.327 N 
HETATM   17  C   UNL     1       2.246   8.911 -24.787  1.00  0.00     0.218 C 
HETATM   18  C   UNL     1       3.499   8.726 -23.965  1.00  0.00     0.117 C 
HETATM   19  O   UNL     1       1.558   9.917 -24.650  1.00  0.00    -0.274 OA
HETATM   20  H   UNL     1       2.717   7.125 -25.673  1.00  0.00     0.169 HD
ENDBRANCH  12  16
ENDBRANCH   9  10
ENDBRANCH   8   9
ENDBRANCH   7   8
ENDBRANCH   6   7
ENDBRANCH   5   6
ENDBRANCH   1   5
BRANCH   2  21
HETATM   21  C   UNL     1      -6.717   2.741 -30.507  1.00  0.00     0.120 A 
HETATM   22  N   UNL     1      -6.513   1.749 -29.590  1.00  0.00    -0.272 N 
HETATM   23  H   UNL     1      -6.549   1.841 -28.579  1.00  0.00     0.189 HD
HETATM   24  N   UNL     1      -6.220   0.554 -30.123  1.00  0.00    -0.174 NA
HETATM   25  C   UNL     1      -6.265   0.756 -31.450  1.00  0.00     0.089 A 
HETATM   26  C   UNL     1      -6.572   2.118 -31.730  1.00  0.00     0.071 A 
BRANCH  25  27
HETATM   27  C   UNL     1      -6.006  -0.326 -32.405  1.00  0.00    -0.003 A 
HETATM   28  C   UNL     1      -4.832  -1.094 -32.302  1.00  0.00     0.050 A 
HETATM   29  C   UNL     1      -4.564  -2.116 -33.214  1.00  0.00     0.069 A 
HETATM   30  C   UNL     1      -5.480  -2.381 -34.233  1.00  0.00     0.037 A 
HETATM   31  C   UNL     1      -6.652  -1.635 -34.346  1.00  0.00     0.004 A 
HETATM   32  C   UNL     1      -6.914  -0.610 -33.435  1.00  0.00     0.014 A 
BRANCH  29  33
HETATM   33  O   UNL     1      -3.456  -2.920 -33.219  1.00  0.00    -0.356 OA
HETATM   34  C   UNL     1      -3.103  -3.530 -31.984  1.00  0.00     0.210 C 
ENDBRANCH  29  33
ENDBRANCH  25  27
ENDBRANCH   2  21
TORSDOF 10
ENDMDL
