MODEL 1
REMARK VINA RESULT:      -8.6      0.000      0.000
REMARK  4 active torsions:
REMARK  status: ('A' for Active; 'I' for Inactive)
REMARK    1  A    between atoms: O_2  and  C_3 
REMARK    2  A    between atoms: C_4  and  O_5 
REMARK    3  A    between atoms: C_9  and  C_10 
REMARK    4  A    between atoms: C_10  and  N_11 
ROOT
HETATM    1  N   UNL     1      -6.444   2.280 -33.323  1.00  0.00    -0.066 N 
HETATM    2  H   UNL     1      -5.420   2.191 -33.407  1.00  0.00     0.280 HD
HETATM    3  C   UNL     1      -6.838   3.433 -34.230  1.00  0.00     0.246 C 
HETATM    4  C   UNL     1      -6.273   4.770 -33.706  1.00  0.00     0.062 C 
HETATM    5  C   UNL     1      -6.807   5.027 -32.302  1.00  0.00     0.020 C 
HETATM    6  C   UNL     1      -6.283   3.922 -31.394  1.00  0.00     0.031 C 
HETATM    7  C   UNL     1      -4.760   4.008 -31.323  1.00  0.00     0.138 C 
HETATM    8  N   UNL     1      -4.080   4.238 -32.596  1.00  0.00    -0.317 N 
HETATM    9  C   UNL     1      -4.753   4.749 -33.710  1.00  0.00     0.020 A 
HETATM   10  C   UNL     1      -4.053   5.194 -34.769  1.00  0.00     0.026 A 
HETATM   11  C   UNL     1      -2.676   4.171 -32.539  1.00  0.00     0.247 A 
HETATM   12  O   UNL     1      -2.056   3.731 -31.576  1.00  0.00    -0.268 OA
HETATM   13  C   UNL     1      -1.941   4.662 -33.727  1.00  0.00     0.074 A 
HETATM   14  C   UNL     1      -2.614   5.154 -34.773  1.00  0.00     0.007 A 
HETATM   15  C   UNL     1      -6.762   2.548 -31.865  1.00  0.00     0.241 C 
ENDROOT
BRANCH   1  16
HETATM   16  C   UNL     1      -7.029   0.940 -33.728  1.00  0.00     0.273 C 
BRANCH  16  17
HETATM   17  C   UNL     1      -6.086  -0.232 -33.743  1.00  0.00    -0.028 A 
HETATM   18  C   UNL     1      -6.466  -1.428 -34.379  1.00  0.00     0.031 A 
HETATM   19  C   UNL     1      -5.646  -2.560 -34.326  1.00  0.00     0.047 A 
HETATM   20  C   UNL     1      -4.441  -2.515 -33.626  1.00  0.00     0.116 A 
HETATM   21 BR   UNL     1      -6.250  -4.144 -35.172  1.00  0.00    -0.048 Br
HETATM   22  C   UNL     1      -4.026  -1.316 -33.044  1.00  0.00     0.103 A 
HETATM   23  C   UNL     1      -4.848  -0.184 -33.087  1.00  0.00     0.048 A 
BRANCH  20  24
HETATM   24  O   UNL     1      -3.704  -3.655 -33.473  1.00  0.00    -0.357 OA
HETATM   25  H   UNL     1      -3.796  -4.173 -34.293  1.00  0.00     0.218 HD
ENDBRANCH  20  24
BRANCH  22  26
HETATM   26  O   UNL     1      -2.863  -1.208 -32.328  1.00  0.00    -0.353 OA
HETATM   27  C   UNL     1      -2.922  -0.181 -31.332  1.00  0.00     0.210 C 
ENDBRANCH  22  26
ENDBRANCH  16  17
ENDBRANCH   1  16
TORSDOF 4
ENDMDL
MODEL 2
REMARK VINA RESULT:      -8.6      3.843      5.996
REMARK  4 active torsions:
REMARK  status: ('A' for Active; 'I' for Inactive)
REMARK    1  A    between atoms: O_2  and  C_3 
REMARK    2  A    between atoms: C_4  and  O_5 
REMARK    3  A    between atoms: C_9  and  C_10 
REMARK    4  A    between atoms: C_10  and  N_11 
ROOT
HETATM    1  N   UNL     1      -8.128   0.959 -34.446  1.00  0.00    -0.066 N 
HETATM    2  H   UNL     1      -8.880   1.196 -35.112  1.00  0.00     0.280 HD
HETATM    3  C   UNL     1      -8.757   0.030 -33.422  1.00  0.00     0.246 C 
HETATM    4  C   UNL     1      -9.821   0.767 -32.583  1.00  0.00     0.062 C 
HETATM    5  C   UNL     1      -9.171   1.943 -31.865  1.00  0.00     0.020 C 
HETATM    6  C   UNL     1      -8.670   2.916 -32.924  1.00  0.00     0.031 C 
HETATM    7  C   UNL     1      -9.859   3.465 -33.708  1.00  0.00     0.138 C 
HETATM    8  N   UNL     1     -10.869   2.481 -34.096  1.00  0.00    -0.317 N 
HETATM    9  C   UNL     1     -10.968   1.238 -33.463  1.00  0.00     0.020 A 
HETATM   10  C   UNL     1     -12.057   0.474 -33.656  1.00  0.00     0.026 A 
HETATM   11  C   UNL     1     -11.882   2.973 -34.938  1.00  0.00     0.247 A 
HETATM   12  O   UNL     1     -11.827   4.059 -35.505  1.00  0.00    -0.268 OA
HETATM   13  C   UNL     1     -13.062   2.099 -35.132  1.00  0.00     0.074 A 
HETATM   14  C   UNL     1     -13.130   0.919 -34.506  1.00  0.00     0.007 A 
HETATM   15  C   UNL     1      -7.634   2.255 -33.835  1.00  0.00     0.241 C 
ENDROOT
BRANCH   1  16
HETATM   16  C   UNL     1      -7.013   0.328 -35.260  1.00  0.00     0.273 C 
BRANCH  16  17
HETATM   17  C   UNL     1      -6.137  -0.667 -34.549  1.00  0.00    -0.028 A 
HETATM   18  C   UNL     1      -5.235  -0.227 -33.563  1.00  0.00     0.031 A 
HETATM   19  C   UNL     1      -4.345  -1.119 -32.957  1.00  0.00     0.047 A 
HETATM   20  C   UNL     1      -4.337  -2.460 -33.335  1.00  0.00     0.116 A 
HETATM   21 BR   UNL     1      -3.134  -0.438 -31.669  1.00  0.00    -0.048 Br
HETATM   22  C   UNL     1      -5.269  -2.920 -34.268  1.00  0.00     0.103 A 
HETATM   23  C   UNL     1      -6.155  -2.028 -34.884  1.00  0.00     0.048 A 
BRANCH  20  24
HETATM   24  O   UNL     1      -3.386  -3.300 -32.831  1.00  0.00    -0.357 OA
HETATM   25  H   UNL     1      -3.844  -4.096 -32.504  1.00  0.00     0.218 HD
ENDBRANCH  20  24
BRANCH  22  26
HETATM   26  O   UNL     1      -5.303  -4.220 -34.697  1.00  0.00    -0.353 OA
HETATM   27  C   UNL     1      -6.528  -4.550 -35.361  1.00  0.00     0.210 C 
ENDBRANCH  22  26
ENDBRANCH  16  17
ENDBRANCH   1  16
TORSDOF 4
ENDMDL
MODEL 3
REMARK VINA RESULT:      -8.1      3.405      5.397
REMARK  4 active torsions:
REMARK  status: ('A' for Active; 'I' for Inactive)
REMARK    1  A    between atoms: O_2  and  C_3 
REMARK    2  A    between atoms: C_4  and  O_5 
REMARK    3  A    between atoms: C_9  and  C_10 
REMARK    4  A    between atoms: C_10  and  N_11 
ROOT
HETATM    1  N   UNL     1      -7.768   0.519 -34.251  1.00  0.00    -0.066 N 
HETATM    2  H   UNL     1      -8.463   0.801 -34.960  1.00  0.00     0.280 HD
HETATM    3  C   UNL     1      -8.537  -0.266 -33.203  1.00  0.00     0.246 C 
HETATM    4  C   UNL     1      -9.535   0.640 -32.452  1.00  0.00     0.062 C 
HETATM    5  C   UNL     1      -8.774   1.775 -31.776  1.00  0.00     0.020 C 
HETATM    6  C   UNL     1      -8.125   2.616 -32.867  1.00  0.00     0.031 C 
HETATM    7  C   UNL     1      -9.214   3.251 -33.729  1.00  0.00     0.138 C 
HETATM    8  N   UNL     1     -10.320   2.368 -34.101  1.00  0.00    -0.317 N 
HETATM    9  C   UNL     1     -10.586   1.186 -33.403  1.00  0.00     0.020 A 
HETATM   10  C   UNL     1     -11.752   0.544 -33.597  1.00  0.00     0.026 A 
HETATM   11  C   UNL     1     -11.238   2.922 -35.011  1.00  0.00     0.247 A 
HETATM   12  O   UNL     1     -11.035   3.958 -35.636  1.00  0.00    -0.268 OA
HETATM   13  C   UNL     1     -12.506   2.181 -35.204  1.00  0.00     0.074 A 
HETATM   14  C   UNL     1     -12.735   1.058 -34.515  1.00  0.00     0.007 A 
HETATM   15  C   UNL     1      -7.145   1.784 -33.695  1.00  0.00     0.241 C 
ENDROOT
BRANCH   1  16
HETATM   16  C   UNL     1      -6.709  -0.286 -34.981  1.00  0.00     0.273 C 
BRANCH  16  17
HETATM   17  C   UNL     1      -5.603  -0.867 -34.143  1.00  0.00    -0.028 A 
HETATM   18  C   UNL     1      -5.201  -2.200 -34.341  1.00  0.00     0.031 A 
HETATM   19  C   UNL     1      -4.242  -2.790 -33.512  1.00  0.00     0.047 A 
HETATM   20  C   UNL     1      -3.680  -2.058 -32.467  1.00  0.00     0.116 A 
HETATM   21 BR   UNL     1      -3.787  -4.603 -33.819  1.00  0.00    -0.048 Br
HETATM   22  C   UNL     1      -4.027  -0.716 -32.300  1.00  0.00     0.103 A 
HETATM   23  C   UNL     1      -4.993  -0.125 -33.122  1.00  0.00     0.048 A 
BRANCH  20  24
HETATM   24  O   UNL     1      -2.837  -2.674 -31.586  1.00  0.00    -0.357 OA
HETATM   25  H   UNL     1      -3.317  -3.429 -31.202  1.00  0.00     0.218 HD
ENDBRANCH  20  24
BRANCH  22  26
HETATM   26  O   UNL     1      -3.526   0.054 -31.283  1.00  0.00    -0.353 OA
HETATM   27  C   UNL     1      -4.146   1.342 -31.210  1.00  0.00     0.210 C 
ENDBRANCH  22  26
ENDBRANCH  16  17
ENDBRANCH   1  16
TORSDOF 4
ENDMDL
MODEL 4
REMARK VINA RESULT:      -8.0      1.381      2.236
REMARK  4 active torsions:
REMARK  status: ('A' for Active; 'I' for Inactive)
REMARK    1  A    between atoms: O_2  and  C_3 
REMARK    2  A    between atoms: C_4  and  O_5 
REMARK    3  A    between atoms: C_9  and  C_10 
REMARK    4  A    between atoms: C_10  and  N_11 
ROOT
HETATM    1  N   UNL     1      -6.606   2.386 -33.264  1.00  0.00    -0.066 N 
HETATM    2  H   UNL     1      -5.588   2.257 -33.365  1.00  0.00     0.280 HD
HETATM    3  C   UNL     1      -6.974   3.537 -34.184  1.00  0.00     0.246 C 
HETATM    4  C   UNL     1      -6.350   4.860 -33.695  1.00  0.00     0.062 C 
HETATM    5  C   UNL     1      -6.848   5.161 -32.286  1.00  0.00     0.020 C 
HETATM    6  C   UNL     1      -6.348   4.054 -31.368  1.00  0.00     0.031 C 
HETATM    7  C   UNL     1      -4.822   4.084 -31.326  1.00  0.00     0.138 C 
HETATM    8  N   UNL     1      -4.158   4.266 -32.616  1.00  0.00    -0.317 N 
HETATM    9  C   UNL     1      -4.833   4.783 -33.726  1.00  0.00     0.020 A 
HETATM   10  C   UNL     1      -4.137   5.183 -34.805  1.00  0.00     0.026 A 
HETATM   11  C   UNL     1      -2.757   4.147 -32.582  1.00  0.00     0.247 A 
HETATM   12  O   UNL     1      -2.135   3.702 -31.623  1.00  0.00    -0.268 OA
HETATM   13  C   UNL     1      -2.027   4.590 -33.793  1.00  0.00     0.074 A 
HETATM   14  C   UNL     1      -2.701   5.088 -34.834  1.00  0.00     0.007 A 
HETATM   15  C   UNL     1      -6.886   2.690 -31.805  1.00  0.00     0.241 C 
ENDROOT
BRANCH   1  16
HETATM   16  C   UNL     1      -7.248   1.061 -33.634  1.00  0.00     0.273 C 
BRANCH  16  17
HETATM   17  C   UNL     1      -6.351  -0.147 -33.638  1.00  0.00    -0.028 A 
HETATM   18  C   UNL     1      -5.202  -0.169 -32.827  1.00  0.00     0.031 A 
HETATM   19  C   UNL     1      -4.305  -1.239 -32.884  1.00  0.00     0.047 A 
HETATM   20  C   UNL     1      -4.538  -2.298 -33.760  1.00  0.00     0.116 A 
HETATM   21 BR   UNL     1      -2.759  -1.171 -31.790  1.00  0.00    -0.048 Br
HETATM   22  C   UNL     1      -5.706  -2.316 -34.525  1.00  0.00     0.103 A 
HETATM   23  C   UNL     1      -6.602  -1.241 -34.477  1.00  0.00     0.048 A 
BRANCH  20  24
HETATM   24  O   UNL     1      -3.599  -3.280 -33.901  1.00  0.00    -0.357 OA
HETATM   25  H   UNL     1      -3.106  -3.096 -34.721  1.00  0.00     0.218 HD
ENDBRANCH  20  24
BRANCH  22  26
HETATM   26  O   UNL     1      -5.987  -3.316 -35.418  1.00  0.00    -0.353 OA
HETATM   27  C   UNL     1      -6.759  -4.373 -34.838  1.00  0.00     0.210 C 
ENDBRANCH  22  26
ENDBRANCH  16  17
ENDBRANCH   1  16
TORSDOF 4
ENDMDL
MODEL 5
REMARK VINA RESULT:      -7.7      1.315      1.730
REMARK  4 active torsions:
REMARK  status: ('A' for Active; 'I' for Inactive)
REMARK    1  A    between atoms: O_2  and  C_3 
REMARK    2  A    between atoms: C_4  and  O_5 
REMARK    3  A    between atoms: C_9  and  C_10 
REMARK    4  A    between atoms: C_10  and  N_11 
ROOT
HETATM    1  N   UNL     1      -7.868   1.397 -32.944  1.00  0.00    -0.066 N 
HETATM    2  H   UNL     1      -6.855   1.566 -33.044  1.00  0.00     0.280 HD
HETATM    3  C   UNL     1      -8.556   2.558 -33.642  1.00  0.00     0.246 C 
HETATM    4  C   UNL     1      -8.293   3.886 -32.900  1.00  0.00     0.062 C 
HETATM    5  C   UNL     1      -8.814   3.776 -31.472  1.00  0.00     0.020 C 
HETATM    6  C   UNL     1      -8.011   2.691 -30.766  1.00  0.00     0.031 C 
HETATM    7  C   UNL     1      -6.547   3.119 -30.683  1.00  0.00     0.138 C 
HETATM    8  N   UNL     1      -5.992   3.709 -31.901  1.00  0.00    -0.317 N 
HETATM    9  C   UNL     1      -6.811   4.224 -32.911  1.00  0.00     0.020 A 
HETATM   10  C   UNL     1      -6.278   4.988 -33.880  1.00  0.00     0.026 A 
HETATM   11  C   UNL     1      -4.610   3.965 -31.858  1.00  0.00     0.247 A 
HETATM   12  O   UNL     1      -3.866   3.531 -30.985  1.00  0.00    -0.268 OA
HETATM   13  C   UNL     1      -4.059   4.804 -32.948  1.00  0.00     0.074 A 
HETATM   14  C   UNL     1      -4.870   5.288 -33.893  1.00  0.00     0.007 A 
HETATM   15  C   UNL     1      -8.178   1.339 -31.462  1.00  0.00     0.241 C 
ENDROOT
BRANCH   1  16
HETATM   16  C   UNL     1      -8.143   0.042 -33.570  1.00  0.00     0.273 C 
BRANCH  16  17
HETATM   17  C   UNL     1      -6.952  -0.840 -33.824  1.00  0.00    -0.028 A 
HETATM   18  C   UNL     1      -7.125  -2.088 -34.448  1.00  0.00     0.031 A 
HETATM   19  C   UNL     1      -6.048  -2.965 -34.609  1.00  0.00     0.047 A 
HETATM   20  C   UNL     1      -4.785  -2.610 -34.139  1.00  0.00     0.116 A 
HETATM   21 BR   UNL     1      -6.374  -4.645 -35.421  1.00  0.00    -0.048 Br
HETATM   22  C   UNL     1      -4.588  -1.348 -33.573  1.00  0.00     0.103 A 
HETATM   23  C   UNL     1      -5.666  -0.472 -33.402  1.00  0.00     0.048 A 
BRANCH  20  24
HETATM   24  O   UNL     1      -3.764  -3.516 -34.188  1.00  0.00    -0.357 OA
HETATM   25  H   UNL     1      -3.516  -3.726 -33.269  1.00  0.00     0.218 HD
ENDBRANCH  20  24
BRANCH  22  26
HETATM   26  O   UNL     1      -3.378  -0.944 -33.075  1.00  0.00    -0.353 OA
HETATM   27  C   UNL     1      -3.509  -0.032 -31.980  1.00  0.00     0.210 C 
ENDBRANCH  22  26
ENDBRANCH  16  17
ENDBRANCH   1  16
TORSDOF 4
ENDMDL
MODEL 6
REMARK VINA RESULT:      -7.6      2.433      3.335
REMARK  4 active torsions:
REMARK  status: ('A' for Active; 'I' for Inactive)
REMARK    1  A    between atoms: O_2  and  C_3 
REMARK    2  A    between atoms: C_4  and  O_5 
REMARK    3  A    between atoms: C_9  and  C_10 
REMARK    4  A    between atoms: C_10  and  N_11 
ROOT
HETATM    1  N   UNL     1      -3.922   3.309 -31.482  1.00  0.00    -0.066 N 
HETATM    2  H   UNL     1      -3.362   3.681 -30.700  1.00  0.00     0.280 HD
HETATM    3  C   UNL     1      -2.972   3.208 -32.663  1.00  0.00     0.246 C 
HETATM    4  C   UNL     1      -2.511   4.605 -33.127  1.00  0.00     0.062 C 
HETATM    5  C   UNL     1      -3.729   5.430 -33.528  1.00  0.00     0.020 C 
HETATM    6  C   UNL     1      -4.591   5.621 -32.287  1.00  0.00     0.031 C 
HETATM    7  C   UNL     1      -3.814   6.433 -31.253  1.00  0.00     0.138 C 
HETATM    8  N   UNL     1      -2.415   6.050 -31.070  1.00  0.00    -0.317 N 
HETATM    9  C   UNL     1      -1.724   5.303 -32.030  1.00  0.00     0.020 A 
HETATM   10  C   UNL     1      -0.385   5.197 -31.958  1.00  0.00     0.026 A 
HETATM   11  C   UNL     1      -1.754   6.706 -30.017  1.00  0.00     0.247 A 
HETATM   12  O   UNL     1      -2.330   7.371 -29.162  1.00  0.00    -0.268 OA
HETATM   13  C   UNL     1      -0.280   6.558 -29.967  1.00  0.00     0.074 A 
HETATM   14  C   UNL     1       0.352   5.845 -30.905  1.00  0.00     0.007 A 
HETATM   15  C   UNL     1      -5.062   4.277 -31.730  1.00  0.00     0.241 C 
ENDROOT
BRANCH   1  16
HETATM   16  C   UNL     1      -4.482   1.978 -31.017  1.00  0.00     0.273 C 
BRANCH  16  17
HETATM   17  C   UNL     1      -4.784   0.960 -32.083  1.00  0.00    -0.028 A 
HETATM   18  C   UNL     1      -5.862   1.166 -32.962  1.00  0.00     0.031 A 
HETATM   19  C   UNL     1      -6.219   0.192 -33.899  1.00  0.00     0.047 A 
HETATM   20  C   UNL     1      -5.510  -1.006 -33.962  1.00  0.00     0.116 A 
HETATM   21 BR   UNL     1      -7.711   0.529 -35.017  1.00  0.00    -0.048 Br
HETATM   22  C   UNL     1      -4.400  -1.196 -33.136  1.00  0.00     0.103 A 
HETATM   23  C   UNL     1      -4.046  -0.226 -32.191  1.00  0.00     0.048 A 
BRANCH  20  24
HETATM   24  O   UNL     1      -5.938  -2.003 -34.793  1.00  0.00    -0.357 OA
HETATM   25  H   UNL     1      -6.641  -1.632 -35.356  1.00  0.00     0.218 HD
ENDBRANCH  20  24
BRANCH  22  26
HETATM   26  O   UNL     1      -3.671  -2.356 -33.135  1.00  0.00    -0.353 OA
HETATM   27  C   UNL     1      -3.038  -2.608 -31.877  1.00  0.00     0.210 C 
ENDBRANCH  22  26
ENDBRANCH  16  17
ENDBRANCH   1  16
TORSDOF 4
ENDMDL
MODEL 7
REMARK VINA RESULT:      -7.6      2.487      3.287
REMARK  4 active torsions:
REMARK  status: ('A' for Active; 'I' for Inactive)
REMARK    1  A    between atoms: O_2  and  C_3 
REMARK    2  A    between atoms: C_4  and  O_5 
REMARK    3  A    between atoms: C_9  and  C_10 
REMARK    4  A    between atoms: C_10  and  N_11 
ROOT
HETATM    1  N   UNL     1      -7.383   0.616 -33.860  1.00  0.00    -0.066 N 
HETATM    2  H   UNL     1      -6.727   1.284 -33.425  1.00  0.00     0.280 HD
HETATM    3  C   UNL     1      -8.287   1.445 -34.756  1.00  0.00     0.246 C 
HETATM    4  C   UNL     1      -9.173   2.395 -33.925  1.00  0.00     0.062 C 
HETATM    5  C   UNL     1     -10.027   1.576 -32.964  1.00  0.00     0.020 C 
HETATM    6  C   UNL     1      -9.090   0.863 -31.999  1.00  0.00     0.031 C 
HETATM    7  C   UNL     1      -8.340   1.900 -31.166  1.00  0.00     0.138 C 
HETATM    8  N   UNL     1      -7.826   3.053 -31.906  1.00  0.00    -0.317 N 
HETATM    9  C   UNL     1      -8.320   3.400 -33.167  1.00  0.00     0.020 A 
HETATM   10  C   UNL     1      -8.022   4.599 -33.695  1.00  0.00     0.026 A 
HETATM   11  C   UNL     1      -7.015   3.924 -31.156  1.00  0.00     0.247 A 
HETATM   12  O   UNL     1      -6.569   3.651 -30.046  1.00  0.00    -0.268 OA
HETATM   13  C   UNL     1      -6.701   5.232 -31.776  1.00  0.00     0.074 A 
HETATM   14  C   UNL     1      -7.197   5.537 -32.979  1.00  0.00     0.007 A 
HETATM   15  C   UNL     1      -8.140  -0.075 -32.744  1.00  0.00     0.241 C 
ENDROOT
BRANCH   1  16
HETATM   16  C   UNL     1      -6.534  -0.401 -34.600  1.00  0.00     0.273 C 
BRANCH  16  17
HETATM   17  C   UNL     1      -5.385  -1.005 -33.839  1.00  0.00    -0.028 A 
HETATM   18  C   UNL     1      -5.020  -2.344 -34.068  1.00  0.00     0.031 A 
HETATM   19  C   UNL     1      -4.019  -2.954 -33.307  1.00  0.00     0.047 A 
HETATM   20  C   UNL     1      -3.376  -2.238 -32.299  1.00  0.00     0.116 A 
HETATM   21 BR   UNL     1      -3.617  -4.773 -33.650  1.00  0.00    -0.048 Br
HETATM   22  C   UNL     1      -3.687  -0.890 -32.104  1.00  0.00     0.103 A 
HETATM   23  C   UNL     1      -4.696  -0.279 -32.858  1.00  0.00     0.048 A 
BRANCH  20  24
HETATM   24  O   UNL     1      -2.487  -2.872 -31.479  1.00  0.00    -0.357 OA
HETATM   25  H   UNL     1      -2.359  -3.773 -31.828  1.00  0.00     0.218 HD
ENDBRANCH  20  24
BRANCH  22  26
HETATM   26  O   UNL     1      -3.107  -0.134 -31.120  1.00  0.00    -0.353 OA
HETATM   27  C   UNL     1      -3.585   1.215 -31.107  1.00  0.00     0.210 C 
ENDBRANCH  22  26
ENDBRANCH  16  17
ENDBRANCH   1  16
TORSDOF 4
ENDMDL
MODEL 8
REMARK VINA RESULT:      -7.5      2.604      3.818
REMARK  4 active torsions:
REMARK  status: ('A' for Active; 'I' for Inactive)
REMARK    1  A    between atoms: O_2  and  C_3 
REMARK    2  A    between atoms: C_4  and  O_5 
REMARK    3  A    between atoms: C_9  and  C_10 
REMARK    4  A    between atoms: C_10  and  N_11 
ROOT
HETATM    1  N   UNL     1      -4.032   3.810 -31.729  1.00  0.00    -0.066 N 
HETATM    2  H   UNL     1      -3.577   4.317 -30.953  1.00  0.00     0.280 HD
HETATM    3  C   UNL     1      -2.911   3.373 -32.655  1.00  0.00     0.246 C 
HETATM    4  C   UNL     1      -2.227   4.589 -33.314  1.00  0.00     0.062 C 
HETATM    5  C   UNL     1      -3.260   5.378 -34.110  1.00  0.00     0.020 C 
HETATM    6  C   UNL     1      -4.296   5.911 -33.130  1.00  0.00     0.031 C 
HETATM    7  C   UNL     1      -3.625   6.887 -32.166  1.00  0.00     0.138 C 
HETATM    8  N   UNL     1      -2.328   6.464 -31.640  1.00  0.00    -0.317 N 
HETATM    9  C   UNL     1      -1.568   5.469 -32.264  1.00  0.00     0.020 A 
HETATM   10  C   UNL     1      -0.281   5.293 -31.915  1.00  0.00     0.026 A 
HETATM   11  C   UNL     1      -1.790   7.302 -30.647  1.00  0.00     0.247 A 
HETATM   12  O   UNL     1      -2.428   8.185 -30.084  1.00  0.00    -0.268 OA
HETATM   13  C   UNL     1      -0.372   7.071 -30.285  1.00  0.00     0.074 A 
HETATM   14  C   UNL     1       0.330   6.118 -30.906  1.00  0.00     0.007 A 
HETATM   15  C   UNL     1      -5.000   4.768 -32.395  1.00  0.00     0.241 C 
ENDROOT
BRANCH   1  16
HETATM   16  C   UNL     1      -4.806   2.666 -31.102  1.00  0.00     0.273 C 
BRANCH  16  17
HETATM   17  C   UNL     1      -4.961   1.420 -31.931  1.00  0.00    -0.028 A 
HETATM   18  C   UNL     1      -4.215   0.271 -31.613  1.00  0.00     0.031 A 
HETATM   19  C   UNL     1      -4.271  -0.867 -32.424  1.00  0.00     0.047 A 
HETATM   20  C   UNL     1      -5.066  -0.868 -33.569  1.00  0.00     0.116 A 
HETATM   21 BR   UNL     1      -3.202  -2.358 -31.950  1.00  0.00    -0.048 Br
HETATM   22  C   UNL     1      -5.858   0.245 -33.860  1.00  0.00     0.103 A 
HETATM   23  C   UNL     1      -5.797   1.389 -33.056  1.00  0.00     0.048 A 
BRANCH  20  24
HETATM   24  O   UNL     1      -5.024  -1.934 -34.422  1.00  0.00    -0.357 OA
HETATM   25  H   UNL     1      -4.094  -2.217 -34.488  1.00  0.00     0.218 HD
ENDBRANCH  20  24
BRANCH  22  26
HETATM   26  O   UNL     1      -6.647   0.316 -34.978  1.00  0.00    -0.353 OA
HETATM   27  C   UNL     1      -8.044   0.281 -34.670  1.00  0.00     0.210 C 
ENDBRANCH  22  26
ENDBRANCH  16  17
ENDBRANCH   1  16
TORSDOF 4
ENDMDL
MODEL 9
REMARK VINA RESULT:      -7.5      5.084      7.115
REMARK  4 active torsions:
REMARK  status: ('A' for Active; 'I' for Inactive)
REMARK    1  A    between atoms: O_2  and  C_3 
REMARK    2  A    between atoms: C_4  and  O_5 
REMARK    3  A    between atoms: C_9  and  C_10 
REMARK    4  A    between atoms: C_10  and  N_11 
ROOT
HETATM    1  N   UNL     1     -10.392   1.197 -32.665  1.00  0.00    -0.066 N 
HETATM    2  H   UNL     1     -11.333   0.795 -32.535  1.00  0.00     0.280 HD
HETATM    3  C   UNL     1     -10.458   2.607 -32.105  1.00  0.00     0.246 C 
HETATM    4  C   UNL     1     -11.396   3.496 -32.948  1.00  0.00     0.062 C 
HETATM    5  C   UNL     1     -10.886   3.547 -34.384  1.00  0.00     0.020 C 
HETATM    6  C   UNL     1     -10.957   2.137 -34.954  1.00  0.00     0.031 C 
HETATM    7  C   UNL     1     -12.416   1.688 -35.007  1.00  0.00     0.138 C 
HETATM    8  N   UNL     1     -13.216   1.996 -33.822  1.00  0.00    -0.317 N 
HETATM    9  C   UNL     1     -12.822   2.971 -32.900  1.00  0.00     0.020 A 
HETATM   10  C   UNL     1     -13.696   3.412 -31.979  1.00  0.00     0.026 A 
HETATM   11  C   UNL     1     -14.512   1.452 -33.825  1.00  0.00     0.247 A 
HETATM   12  O   UNL     1     -14.890   0.599 -34.622  1.00  0.00    -0.268 OA
HETATM   13  C   UNL     1     -15.444   1.957 -32.790  1.00  0.00     0.074 A 
HETATM   14  C   UNL     1     -15.039   2.896 -31.928  1.00  0.00     0.007 A 
HETATM   15  C   UNL     1     -10.086   1.171 -34.150  1.00  0.00     0.241 C 
ENDROOT
BRANCH   1  16
HETATM   16  C   UNL     1      -9.427   0.280 -31.936  1.00  0.00     0.273 C 
BRANCH  16  17
HETATM   17  C   UNL     1      -8.026   0.204 -32.478  1.00  0.00    -0.028 A 
HETATM   18  C   UNL     1      -7.643  -0.889 -33.275  1.00  0.00     0.031 A 
HETATM   19  C   UNL     1      -6.322  -1.030 -33.712  1.00  0.00     0.047 A 
HETATM   20  C   UNL     1      -5.364  -0.085 -33.347  1.00  0.00     0.116 A 
HETATM   21 BR   UNL     1      -5.877  -2.553 -34.747  1.00  0.00    -0.048 Br
HETATM   22  C   UNL     1      -5.746   1.036 -32.607  1.00  0.00     0.103 A 
HETATM   23  C   UNL     1      -7.066   1.175 -32.161  1.00  0.00     0.048 A 
BRANCH  20  24
HETATM   24  O   UNL     1      -4.053  -0.290 -33.672  1.00  0.00    -0.357 OA
HETATM   25  H   UNL     1      -3.872   0.215 -34.485  1.00  0.00     0.218 HD
ENDBRANCH  20  24
BRANCH  22  26
HETATM   26  O   UNL     1      -4.853   1.991 -32.200  1.00  0.00    -0.353 OA
HETATM   27  C   UNL     1      -5.017   3.231 -32.896  1.00  0.00     0.210 C 
ENDBRANCH  22  26
ENDBRANCH  16  17
ENDBRANCH   1  16
TORSDOF 4
ENDMDL
MODEL 10
REMARK VINA RESULT:      -7.3      3.071      5.010
REMARK  4 active torsions:
REMARK  status: ('A' for Active; 'I' for Inactive)
REMARK    1  A    between atoms: O_2  and  C_3 
REMARK    2  A    between atoms: C_4  and  O_5 
REMARK    3  A    between atoms: C_9  and  C_10 
REMARK    4  A    between atoms: C_10  and  N_11 
ROOT
HETATM    1  N   UNL     1      -4.089   5.108 -33.542  1.00  0.00    -0.066 N 
HETATM    2  H   UNL     1      -4.176   5.892 -32.877  1.00  0.00     0.280 HD
HETATM    3  C   UNL     1      -3.215   4.073 -32.854  1.00  0.00     0.246 C 
HETATM    4  C   UNL     1      -1.778   4.599 -32.661  1.00  0.00     0.062 C 
HETATM    5  C   UNL     1      -1.180   4.941 -34.021  1.00  0.00     0.020 C 
HETATM    6  C   UNL     1      -2.004   6.072 -34.622  1.00  0.00     0.031 C 
HETATM    7  C   UNL     1      -1.872   7.314 -33.743  1.00  0.00     0.138 C 
HETATM    8  N   UNL     1      -1.963   7.082 -32.302  1.00  0.00    -0.317 N 
HETATM    9  C   UNL     1      -1.768   5.814 -31.747  1.00  0.00     0.020 A 
HETATM   10  C   UNL     1      -1.596   5.685 -30.419  1.00  0.00     0.026 A 
HETATM   11  C   UNL     1      -1.985   8.247 -31.515  1.00  0.00     0.247 A 
HETATM   12  O   UNL     1      -2.150   9.373 -31.972  1.00  0.00    -0.268 OA
HETATM   13  C   UNL     1      -1.800   8.062 -30.057  1.00  0.00     0.074 A 
HETATM   14  C   UNL     1      -1.607   6.838 -29.557  1.00  0.00     0.007 A 
HETATM   15  C   UNL     1      -3.463   5.652 -34.810  1.00  0.00     0.241 C 
ENDROOT
BRANCH   1  16
HETATM   16  C   UNL     1      -5.500   4.635 -33.838  1.00  0.00     0.273 C 
BRANCH  16  17
HETATM   17  C   UNL     1      -6.037   3.524 -32.978  1.00  0.00    -0.028 A 
HETATM   18  C   UNL     1      -6.102   2.214 -33.486  1.00  0.00     0.031 A 
HETATM   19  C   UNL     1      -6.682   1.184 -32.740  1.00  0.00     0.047 A 
HETATM   20  C   UNL     1      -7.215   1.451 -31.481  1.00  0.00     0.116 A 
HETATM   21 BR   UNL     1      -6.769  -0.543 -33.515  1.00  0.00    -0.048 Br
HETATM   22  C   UNL     1      -7.101   2.734 -30.941  1.00  0.00     0.103 A 
HETATM   23  C   UNL     1      -6.529   3.770 -31.688  1.00  0.00     0.048 A 
BRANCH  20  24
HETATM   24  O   UNL     1      -7.889   0.472 -30.808  1.00  0.00    -0.357 OA
HETATM   25  H   UNL     1      -8.755   0.363 -31.242  1.00  0.00     0.218 HD
ENDBRANCH  20  24
BRANCH  22  26
HETATM   26  O   UNL     1      -7.619   3.068 -29.717  1.00  0.00    -0.353 OA
HETATM   27  C   UNL     1      -8.056   4.430 -29.657  1.00  0.00     0.210 C 
ENDBRANCH  22  26
ENDBRANCH  16  17
ENDBRANCH   1  16
TORSDOF 4
ENDMDL
