MODEL 1
REMARK VINA RESULT:      -9.0      0.000      0.000
REMARK  5 active torsions:
REMARK  status: ('A' for Active; 'I' for Inactive)
REMARK    1  A    between atoms: N_2  and  C_4 
REMARK    2  A    between atoms: C_4  and  C_5 
REMARK    3  A    between atoms: C_5  and  N_6 
REMARK    4  A    between atoms: C_11  and  C_12 
REMARK    5  A    between atoms: C_15  and  O_16 
ROOT
HETATM    1  N   UNL     1      -4.326   1.567 -31.339  1.00  0.00    -0.332 N 
HETATM    2  C   UNL     1      -3.526   0.445 -31.462  1.00  0.00     0.279 C 
HETATM    3  O   UNL     1      -2.429   0.303 -30.959  1.00  0.00    -0.265 OA
HETATM    4  C   UNL     1      -4.290  -0.539 -32.250  1.00  0.00     0.156 A 
HETATM    5  C   UNL     1      -5.509  -0.023 -32.416  1.00  0.00     0.060 A 
HETATM    6  C   UNL     1      -5.708   1.273 -31.722  1.00  0.00     0.161 C 
HETATM    7  O   UNL     1      -3.815  -1.739 -32.696  1.00  0.00    -0.303 OA
HETATM    8  C   UNL     1      -4.680  -2.472 -33.481  1.00  0.00     0.090 A 
HETATM    9  C   UNL     1      -5.989  -2.053 -33.765  1.00  0.00     0.051 A 
HETATM   10  C   UNL     1      -6.494  -0.797 -33.160  1.00  0.00     0.196 A 
HETATM   11  O   UNL     1      -7.658  -0.442 -33.247  1.00  0.00    -0.287 OA
HETATM   12  C   UNL     1      -4.200  -3.675 -34.000  1.00  0.00     0.041 A 
HETATM   13  C   UNL     1      -5.024  -4.445 -34.823  1.00  0.00     0.045 A 
HETATM   14  C   UNL     1      -6.314  -4.005 -35.119  1.00  0.00     0.117 A 
HETATM   15  F   UNL     1      -7.090  -4.745 -35.920  1.00  0.00    -0.206 F 
HETATM   16  C   UNL     1      -6.811  -2.817 -34.595  1.00  0.00     0.060 A 
ENDROOT
BRANCH   6  17
HETATM   17  C   UNL     1      -6.395   2.396 -32.453  1.00  0.00    -0.030 A 
HETATM   18  C   UNL     1      -7.543   2.977 -31.880  1.00  0.00     0.012 A 
HETATM   19  C   UNL     1      -8.180   4.062 -32.484  1.00  0.00     0.037 A 
HETATM   20  C   UNL     1      -7.671   4.570 -33.670  1.00  0.00     0.065 A 
HETATM   21  C   UNL     1      -6.545   4.007 -34.261  1.00  0.00     0.037 A 
HETATM   22  C   UNL     1      -5.908   2.919 -33.659  1.00  0.00     0.012 A 
BRANCH  20  23
HETATM   23  O   UNL     1      -8.249   5.635 -34.291  1.00  0.00    -0.361 OA
HETATM   24  H   UNL     1      -8.801   5.315 -35.025  1.00  0.00     0.217 HD
ENDBRANCH  20  23
ENDBRANCH   6  17
BRANCH   1  25
HETATM   25  C   UNL     1      -3.837   2.859 -30.861  1.00  0.00     0.155 C 
BRANCH  25  26
HETATM   26  C   UNL     1      -2.868   3.560 -31.816  1.00  0.00     0.254 C 
BRANCH  26  27
HETATM   27  N   UNL     1      -2.144   4.716 -31.152  1.00  0.00    -0.077 N 
HETATM   28  C   UNL     1      -3.061   5.881 -30.918  1.00  0.00     0.269 C 
HETATM   29  H   UNL     1      -1.808   4.382 -30.233  1.00  0.00     0.279 HD
HETATM   30  C   UNL     1      -0.894   5.142 -31.878  1.00  0.00     0.269 C 
ENDBRANCH  26  27
ENDBRANCH  25  26
ENDBRANCH   1  25
TORSDOF 5
ENDMDL
MODEL 2
REMARK VINA RESULT:      -8.6      2.723      5.038
REMARK  5 active torsions:
REMARK  status: ('A' for Active; 'I' for Inactive)
REMARK    1  A    between atoms: N_2  and  C_4 
REMARK    2  A    between atoms: C_4  and  C_5 
REMARK    3  A    between atoms: C_5  and  N_6 
REMARK    4  A    between atoms: C_11  and  C_12 
REMARK    5  A    between atoms: C_15  and  O_16 
ROOT
HETATM    1  N   UNL     1      -7.601   1.624 -34.063  1.00  0.00    -0.332 N 
HETATM    2  C   UNL     1      -7.999   0.489 -34.748  1.00  0.00     0.279 C 
HETATM    3  O   UNL     1      -8.994   0.396 -35.439  1.00  0.00    -0.265 OA
HETATM    4  C   UNL     1      -6.958  -0.529 -34.526  1.00  0.00     0.156 A 
HETATM    5  C   UNL     1      -5.967   0.082 -33.873  1.00  0.00     0.060 A 
HETATM    6  C   UNL     1      -6.197   1.531 -33.662  1.00  0.00     0.161 C 
HETATM    7  O   UNL     1      -7.021  -1.831 -34.934  1.00  0.00    -0.303 OA
HETATM    8  C   UNL     1      -5.964  -2.631 -34.555  1.00  0.00     0.090 A 
HETATM    9  C   UNL     1      -4.857  -2.141 -33.843  1.00  0.00     0.051 A 
HETATM   10  C   UNL     1      -4.784  -0.695 -33.526  1.00  0.00     0.196 A 
HETATM   11  O   UNL     1      -3.794  -0.174 -33.037  1.00  0.00    -0.287 OA
HETATM   12  C   UNL     1      -6.031  -3.979 -34.906  1.00  0.00     0.041 A 
HETATM   13  C   UNL     1      -5.001  -4.840 -34.523  1.00  0.00     0.045 A 
HETATM   14  C   UNL     1      -3.919  -4.346 -33.795  1.00  0.00     0.117 A 
HETATM   15  F   UNL     1      -2.944  -5.185 -33.423  1.00  0.00    -0.206 F 
HETATM   16  C   UNL     1      -3.831  -3.002 -33.452  1.00  0.00     0.060 A 
ENDROOT
BRANCH   6  17
HETATM   17  C   UNL     1      -5.904   2.129 -32.311  1.00  0.00    -0.030 A 
HETATM   18  C   UNL     1      -5.134   3.307 -32.244  1.00  0.00     0.012 A 
HETATM   19  C   UNL     1      -4.887   3.938 -31.023  1.00  0.00     0.037 A 
HETATM   20  C   UNL     1      -5.409   3.388 -29.861  1.00  0.00     0.065 A 
HETATM   21  C   UNL     1      -6.163   2.220 -29.901  1.00  0.00     0.037 A 
HETATM   22  C   UNL     1      -6.408   1.587 -31.121  1.00  0.00     0.012 A 
BRANCH  20  23
HETATM   23  O   UNL     1      -5.206   3.973 -28.647  1.00  0.00    -0.361 OA
HETATM   24  H   UNL     1      -6.066   4.191 -28.250  1.00  0.00     0.217 HD
ENDBRANCH  20  23
ENDBRANCH   6  17
BRANCH   1  25
HETATM   25  C   UNL     1      -8.480   2.765 -33.811  1.00  0.00     0.155 C 
BRANCH  25  26
HETATM   26  C   UNL     1      -9.651   2.464 -32.871  1.00  0.00     0.254 C 
BRANCH  26  27
HETATM   27  N   UNL     1     -10.993   2.746 -33.519  1.00  0.00    -0.077 N 
HETATM   28  C   UNL     1     -11.831   1.504 -33.616  1.00  0.00     0.269 C 
HETATM   29  H   UNL     1     -11.490   3.421 -32.916  1.00  0.00     0.279 HD
HETATM   30  C   UNL     1     -10.886   3.438 -34.853  1.00  0.00     0.269 C 
ENDBRANCH  26  27
ENDBRANCH  25  26
ENDBRANCH   1  25
TORSDOF 5
ENDMDL
MODEL 3
REMARK VINA RESULT:      -8.5      2.663      4.564
REMARK  5 active torsions:
REMARK  status: ('A' for Active; 'I' for Inactive)
REMARK    1  A    between atoms: N_2  and  C_4 
REMARK    2  A    between atoms: C_4  and  C_5 
REMARK    3  A    between atoms: C_5  and  N_6 
REMARK    4  A    between atoms: C_11  and  C_12 
REMARK    5  A    between atoms: C_15  and  O_16 
ROOT
HETATM    1  N   UNL     1      -7.591   1.603 -34.095  1.00  0.00    -0.332 N 
HETATM    2  C   UNL     1      -7.993   0.469 -34.779  1.00  0.00     0.279 C 
HETATM    3  O   UNL     1      -8.989   0.379 -35.469  1.00  0.00    -0.265 OA
HETATM    4  C   UNL     1      -6.955  -0.553 -34.556  1.00  0.00     0.156 A 
HETATM    5  C   UNL     1      -5.963   0.055 -33.903  1.00  0.00     0.060 A 
HETATM    6  C   UNL     1      -6.187   1.505 -33.694  1.00  0.00     0.161 C 
HETATM    7  O   UNL     1      -7.024  -1.855 -34.963  1.00  0.00    -0.303 OA
HETATM    8  C   UNL     1      -5.970  -2.658 -34.583  1.00  0.00     0.090 A 
HETATM    9  C   UNL     1      -4.861  -2.172 -33.872  1.00  0.00     0.051 A 
HETATM   10  C   UNL     1      -4.782  -0.726 -33.556  1.00  0.00     0.196 A 
HETATM   11  O   UNL     1      -3.791  -0.208 -33.067  1.00  0.00    -0.287 OA
HETATM   12  C   UNL     1      -6.042  -4.007 -34.932  1.00  0.00     0.041 A 
HETATM   13  C   UNL     1      -5.015  -4.872 -34.549  1.00  0.00     0.045 A 
HETATM   14  C   UNL     1      -3.931  -4.381 -33.822  1.00  0.00     0.117 A 
HETATM   15  F   UNL     1      -2.959  -5.223 -33.449  1.00  0.00    -0.206 F 
HETATM   16  C   UNL     1      -3.838  -3.037 -33.480  1.00  0.00     0.060 A 
ENDROOT
BRANCH   6  17
HETATM   17  C   UNL     1      -5.891   2.103 -32.344  1.00  0.00    -0.030 A 
HETATM   18  C   UNL     1      -5.108   3.272 -32.276  1.00  0.00     0.012 A 
HETATM   19  C   UNL     1      -4.858   3.903 -31.056  1.00  0.00     0.037 A 
HETATM   20  C   UNL     1      -5.390   3.363 -29.895  1.00  0.00     0.065 A 
HETATM   21  C   UNL     1      -6.157   2.204 -29.934  1.00  0.00     0.037 A 
HETATM   22  C   UNL     1      -6.406   1.570 -31.154  1.00  0.00     0.012 A 
BRANCH  20  23
HETATM   23  O   UNL     1      -5.184   3.948 -28.682  1.00  0.00    -0.361 OA
HETATM   24  H   UNL     1      -4.257   3.823 -28.420  1.00  0.00     0.217 HD
ENDBRANCH  20  23
ENDBRANCH   6  17
BRANCH   1  25
HETATM   25  C   UNL     1      -8.465   2.747 -33.844  1.00  0.00     0.155 C 
BRANCH  25  26
HETATM   26  C   UNL     1      -9.498   2.521 -32.736  1.00  0.00     0.254 C 
BRANCH  26  27
HETATM   27  N   UNL     1      -9.669   3.743 -31.854  1.00  0.00    -0.077 N 
HETATM   28  C   UNL     1      -8.509   4.687 -31.985  1.00  0.00     0.269 C 
HETATM   29  H   UNL     1     -10.520   4.235 -32.172  1.00  0.00     0.279 HD
HETATM   30  C   UNL     1      -9.943   3.412 -30.410  1.00  0.00     0.269 C 
ENDBRANCH  26  27
ENDBRANCH  25  26
ENDBRANCH   1  25
TORSDOF 5
ENDMDL
MODEL 4
REMARK VINA RESULT:      -8.0      2.064      2.551
REMARK  5 active torsions:
REMARK  status: ('A' for Active; 'I' for Inactive)
REMARK    1  A    between atoms: N_2  and  C_4 
REMARK    2  A    between atoms: C_4  and  C_5 
REMARK    3  A    between atoms: C_5  and  N_6 
REMARK    4  A    between atoms: C_11  and  C_12 
REMARK    5  A    between atoms: C_15  and  O_16 
ROOT
HETATM    1  N   UNL     1      -6.379   2.931 -31.512  1.00  0.00    -0.332 N 
HETATM    2  C   UNL     1      -5.200   2.227 -31.681  1.00  0.00     0.279 C 
HETATM    3  O   UNL     1      -4.105   2.580 -31.288  1.00  0.00    -0.265 OA
HETATM    4  C   UNL     1      -5.551   0.965 -32.357  1.00  0.00     0.156 A 
HETATM    5  C   UNL     1      -6.883   0.927 -32.413  1.00  0.00     0.060 A 
HETATM    6  C   UNL     1      -7.542   2.073 -31.743  1.00  0.00     0.161 C 
HETATM    7  O   UNL     1      -4.660   0.035 -32.812  1.00  0.00    -0.303 OA
HETATM    8  C   UNL     1      -5.206  -1.040 -33.481  1.00  0.00     0.090 A 
HETATM    9  C   UNL     1      -6.590  -1.212 -33.643  1.00  0.00     0.051 A 
HETATM   10  C   UNL     1      -7.517  -0.232 -33.029  1.00  0.00     0.196 A 
HETATM   11  O   UNL     1      -8.728  -0.389 -33.007  1.00  0.00    -0.287 OA
HETATM   12  C   UNL     1      -4.316  -1.976 -34.010  1.00  0.00     0.041 A 
HETATM   13  C   UNL     1      -4.813  -3.070 -34.721  1.00  0.00     0.045 A 
HETATM   14  C   UNL     1      -6.189  -3.216 -34.896  1.00  0.00     0.117 A 
HETATM   15  F   UNL     1      -6.652  -4.262 -35.591  1.00  0.00    -0.206 F 
HETATM   16  C   UNL     1      -7.087  -2.300 -34.362  1.00  0.00     0.060 A 
ENDROOT
BRANCH   6  17
HETATM   17  C   UNL     1      -8.687   2.765 -32.434  1.00  0.00    -0.030 A 
HETATM   18  C   UNL     1      -9.860   3.033 -31.701  1.00  0.00     0.012 A 
HETATM   19  C   UNL     1     -10.925   3.728 -32.275  1.00  0.00     0.037 A 
HETATM   20  C   UNL     1     -10.823   4.156 -33.590  1.00  0.00     0.065 A 
HETATM   21  C   UNL     1      -9.680   3.895 -34.338  1.00  0.00     0.037 A 
HETATM   22  C   UNL     1      -8.614   3.197 -33.765  1.00  0.00     0.012 A 
BRANCH  20  23
HETATM   23  O   UNL     1     -11.831   4.849 -34.191  1.00  0.00    -0.361 OA
HETATM   24  H   UNL     1     -11.935   4.532 -35.104  1.00  0.00     0.217 HD
ENDBRANCH  20  23
ENDBRANCH   6  17
BRANCH   1  25
HETATM   25  C   UNL     1      -6.429   4.340 -31.125  1.00  0.00     0.155 C 
BRANCH  25  26
HETATM   26  C   UNL     1      -6.519   4.577 -29.615  1.00  0.00     0.254 C 
BRANCH  26  27
HETATM   27  N   UNL     1      -5.233   5.147 -29.047  1.00  0.00    -0.077 N 
HETATM   28  C   UNL     1      -5.465   5.824 -27.727  1.00  0.00     0.269 C 
HETATM   29  H   UNL     1      -4.588   4.356 -28.892  1.00  0.00     0.279 HD
HETATM   30  C   UNL     1      -4.500   6.051 -30.003  1.00  0.00     0.269 C 
ENDBRANCH  26  27
ENDBRANCH  25  26
ENDBRANCH   1  25
TORSDOF 5
ENDMDL
MODEL 5
REMARK VINA RESULT:      -7.9      3.559      6.993
REMARK  5 active torsions:
REMARK  status: ('A' for Active; 'I' for Inactive)
REMARK    1  A    between atoms: N_2  and  C_4 
REMARK    2  A    between atoms: C_4  and  C_5 
REMARK    3  A    between atoms: C_5  and  N_6 
REMARK    4  A    between atoms: C_11  and  C_12 
REMARK    5  A    between atoms: C_15  and  O_16 
ROOT
HETATM    1  N   UNL     1      -4.751   1.290 -31.505  1.00  0.00    -0.332 N 
HETATM    2  C   UNL     1      -3.396   1.503 -31.317  1.00  0.00     0.279 C 
HETATM    3  O   UNL     1      -2.576   0.640 -31.071  1.00  0.00    -0.265 OA
HETATM    4  C   UNL     1      -3.155   2.939 -31.538  1.00  0.00     0.156 A 
HETATM    5  C   UNL     1      -4.307   3.451 -31.974  1.00  0.00     0.060 A 
HETATM    6  C   UNL     1      -5.378   2.441 -32.156  1.00  0.00     0.161 C 
HETATM    7  O   UNL     1      -1.968   3.585 -31.337  1.00  0.00    -0.303 OA
HETATM    8  C   UNL     1      -1.987   4.949 -31.537  1.00  0.00     0.090 A 
HETATM    9  C   UNL     1      -3.129   5.638 -31.974  1.00  0.00     0.051 A 
HETATM   10  C   UNL     1      -4.359   4.873 -32.288  1.00  0.00     0.196 A 
HETATM   11  O   UNL     1      -5.342   5.382 -32.804  1.00  0.00    -0.287 OA
HETATM   12  C   UNL     1      -0.803   5.643 -31.281  1.00  0.00     0.041 A 
HETATM   13  C   UNL     1      -0.773   7.030 -31.440  1.00  0.00     0.045 A 
HETATM   14  C   UNL     1      -1.921   7.706 -31.851  1.00  0.00     0.117 A 
HETATM   15  F   UNL     1      -1.883   9.036 -31.987  1.00  0.00    -0.206 F 
HETATM   16  C   UNL     1      -3.102   7.025 -32.125  1.00  0.00     0.060 A 
ENDROOT
BRANCH   6  17
HETATM   17  C   UNL     1      -6.765   2.748 -31.657  1.00  0.00    -0.030 A 
HETATM   18  C   UNL     1      -7.862   2.500 -32.507  1.00  0.00     0.012 A 
HETATM   19  C   UNL     1      -9.172   2.706 -32.070  1.00  0.00     0.037 A 
HETATM   20  C   UNL     1      -9.390   3.166 -30.781  1.00  0.00     0.065 A 
HETATM   21  C   UNL     1      -8.323   3.429 -29.927  1.00  0.00     0.037 A 
HETATM   22  C   UNL     1      -7.012   3.226 -30.363  1.00  0.00     0.012 A 
BRANCH  20  23
HETATM   23  O   UNL     1     -10.650   3.372 -30.305  1.00  0.00    -0.361 OA
HETATM   24  H   UNL     1     -10.725   2.978 -29.420  1.00  0.00     0.217 HD
ENDBRANCH  20  23
ENDBRANCH   6  17
BRANCH   1  25
HETATM   25  C   UNL     1      -5.436   0.058 -31.120  1.00  0.00     0.155 C 
BRANCH  25  26
HETATM   26  C   UNL     1      -6.042  -0.720 -32.291  1.00  0.00     0.254 C 
BRANCH  26  27
HETATM   27  N   UNL     1      -4.981  -1.239 -33.244  1.00  0.00    -0.077 N 
HETATM   28  C   UNL     1      -5.590  -1.990 -34.393  1.00  0.00     0.269 C 
HETATM   29  H   UNL     1      -4.482  -0.419 -33.626  1.00  0.00     0.279 HD
HETATM   30  C   UNL     1      -3.909  -2.052 -32.568  1.00  0.00     0.269 C 
ENDBRANCH  26  27
ENDBRANCH  25  26
ENDBRANCH   1  25
TORSDOF 5
ENDMDL
MODEL 6
REMARK VINA RESULT:      -7.8     15.250     16.973
REMARK  5 active torsions:
REMARK  status: ('A' for Active; 'I' for Inactive)
REMARK    1  A    between atoms: N_2  and  C_4 
REMARK    2  A    between atoms: C_4  and  C_5 
REMARK    3  A    between atoms: C_5  and  N_6 
REMARK    4  A    between atoms: C_11  and  C_12 
REMARK    5  A    between atoms: C_15  and  O_16 
ROOT
HETATM    1  N   UNL     1      -7.242 -14.053 -38.636  1.00  0.00    -0.332 N 
HETATM    2  C   UNL     1      -6.568 -14.205 -39.835  1.00  0.00     0.279 C 
HETATM    3  O   UNL     1      -7.090 -14.376 -40.919  1.00  0.00    -0.265 OA
HETATM    4  C   UNL     1      -5.133 -14.055 -39.539  1.00  0.00     0.156 A 
HETATM    5  C   UNL     1      -5.049 -13.686 -38.260  1.00  0.00     0.060 A 
HETATM    6  C   UNL     1      -6.366 -13.486 -37.609  1.00  0.00     0.161 C 
HETATM    7  O   UNL     1      -4.115 -14.250 -40.429  1.00  0.00    -0.303 OA
HETATM    8  C   UNL     1      -2.840 -14.125 -39.918  1.00  0.00     0.090 A 
HETATM    9  C   UNL     1      -2.587 -13.765 -38.585  1.00  0.00     0.051 A 
HETATM   10  C   UNL     1      -3.728 -13.451 -37.691  1.00  0.00     0.196 A 
HETATM   11  O   UNL     1      -3.583 -12.998 -36.567  1.00  0.00    -0.287 OA
HETATM   12  C   UNL     1      -1.781 -14.378 -40.790  1.00  0.00     0.041 A 
HETATM   13  C   UNL     1      -0.469 -14.293 -40.319  1.00  0.00     0.045 A 
HETATM   14  C   UNL     1      -0.232 -13.959 -38.986  1.00  0.00     0.117 A 
HETATM   15  F   UNL     1       1.030 -13.894 -38.543  1.00  0.00    -0.206 F 
HETATM   16  C   UNL     1      -1.277 -13.689 -38.111  1.00  0.00     0.060 A 
ENDROOT
BRANCH   6  17
HETATM   17  C   UNL     1      -6.594 -14.048 -36.230  1.00  0.00    -0.030 A 
HETATM   18  C   UNL     1      -6.282 -15.401 -35.989  1.00  0.00     0.012 A 
HETATM   19  C   UNL     1      -6.413 -15.954 -34.715  1.00  0.00     0.037 A 
HETATM   20  C   UNL     1      -6.863 -15.155 -33.674  1.00  0.00     0.065 A 
HETATM   21  C   UNL     1      -7.187 -13.820 -33.889  1.00  0.00     0.037 A 
HETATM   22  C   UNL     1      -7.059 -13.266 -35.165  1.00  0.00     0.012 A 
BRANCH  20  23
HETATM   23  O   UNL     1      -6.996 -15.646 -32.410  1.00  0.00    -0.361 OA
HETATM   24  H   UNL     1      -6.136 -15.609 -31.961  1.00  0.00     0.217 HD
ENDBRANCH  20  23
ENDBRANCH   6  17
BRANCH   1  25
HETATM   25  C   UNL     1      -8.652 -14.393 -38.452  1.00  0.00     0.155 C 
BRANCH  25  26
HETATM   26  C   UNL     1      -9.618 -13.230 -38.688  1.00  0.00     0.254 C 
BRANCH  26  27
HETATM   27  N   UNL     1      -9.931 -13.034 -40.160  1.00  0.00    -0.077 N 
HETATM   28  C   UNL     1     -10.521 -11.679 -40.424  1.00  0.00     0.269 C 
HETATM   29  H   UNL     1      -9.038 -13.101 -40.676  1.00  0.00     0.279 HD
HETATM   30  C   UNL     1     -10.788 -14.126 -40.745  1.00  0.00     0.269 C 
ENDBRANCH  26  27
ENDBRANCH  25  26
ENDBRANCH   1  25
TORSDOF 5
ENDMDL
MODEL 7
REMARK VINA RESULT:      -7.8      3.712      6.178
REMARK  5 active torsions:
REMARK  status: ('A' for Active; 'I' for Inactive)
REMARK    1  A    between atoms: N_2  and  C_4 
REMARK    2  A    between atoms: C_4  and  C_5 
REMARK    3  A    between atoms: C_5  and  N_6 
REMARK    4  A    between atoms: C_11  and  C_12 
REMARK    5  A    between atoms: C_15  and  O_16 
ROOT
HETATM    1  N   UNL     1      -7.680   4.032 -33.801  1.00  0.00    -0.332 N 
HETATM    2  C   UNL     1      -8.869   4.503 -34.329  1.00  0.00     0.279 C 
HETATM    3  O   UNL     1      -9.031   5.598 -34.831  1.00  0.00    -0.265 OA
HETATM    4  C   UNL     1      -9.848   3.408 -34.219  1.00  0.00     0.156 A 
HETATM    5  C   UNL     1      -9.172   2.342 -33.787  1.00  0.00     0.060 A 
HETATM    6  C   UNL     1      -7.716   2.578 -33.640  1.00  0.00     0.161 C 
HETATM    7  O   UNL     1     -11.177   3.499 -34.520  1.00  0.00    -0.303 OA
HETATM    8  C   UNL     1     -11.926   2.368 -34.273  1.00  0.00     0.090 A 
HETATM    9  C   UNL     1     -11.365   1.173 -33.796  1.00  0.00     0.051 A 
HETATM   10  C   UNL     1      -9.898   1.093 -33.595  1.00  0.00     0.196 A 
HETATM   11  O   UNL     1      -9.324   0.052 -33.319  1.00  0.00    -0.287 OA
HETATM   12  C   UNL     1     -13.298   2.451 -34.515  1.00  0.00     0.041 A 
HETATM   13  C   UNL     1     -14.109   1.344 -34.256  1.00  0.00     0.045 A 
HETATM   14  C   UNL     1     -13.542   0.171 -33.759  1.00  0.00     0.117 A 
HETATM   15  F   UNL     1     -14.332  -0.879 -33.502  1.00  0.00    -0.206 F 
HETATM   16  C   UNL     1     -12.176   0.069 -33.529  1.00  0.00     0.060 A 
ENDROOT
BRANCH   6  17
HETATM   17  C   UNL     1      -7.016   2.080 -32.403  1.00  0.00    -0.030 A 
HETATM   18  C   UNL     1      -7.441   2.554 -31.146  1.00  0.00     0.012 A 
HETATM   19  C   UNL     1      -6.869   2.077 -29.965  1.00  0.00     0.037 A 
HETATM   20  C   UNL     1      -5.865   1.124 -30.038  1.00  0.00     0.065 A 
HETATM   21  C   UNL     1      -5.421   0.648 -31.267  1.00  0.00     0.037 A 
HETATM   22  C   UNL     1      -5.990   1.126 -32.449  1.00  0.00     0.012 A 
BRANCH  20  23
HETATM   23  O   UNL     1      -5.284   0.619 -28.914  1.00  0.00    -0.361 OA
HETATM   24  H   UNL     1      -5.884   0.745 -28.160  1.00  0.00     0.217 HD
ENDBRANCH  20  23
ENDBRANCH   6  17
BRANCH   1  25
HETATM   25  C   UNL     1      -6.541   4.891 -33.481  1.00  0.00     0.155 C 
BRANCH  25  26
HETATM   26  C   UNL     1      -5.289   4.618 -34.318  1.00  0.00     0.254 C 
BRANCH  26  27
HETATM   27  N   UNL     1      -4.017   4.723 -33.498  1.00  0.00    -0.077 N 
HETATM   28  C   UNL     1      -4.280   4.492 -32.038  1.00  0.00     0.269 C 
HETATM   29  H   UNL     1      -3.375   3.984 -33.830  1.00  0.00     0.279 HD
HETATM   30  C   UNL     1      -3.261   6.006 -33.720  1.00  0.00     0.269 C 
ENDBRANCH  26  27
ENDBRANCH  25  26
ENDBRANCH   1  25
TORSDOF 5
ENDMDL
MODEL 8
REMARK VINA RESULT:      -7.7      3.564      7.607
REMARK  5 active torsions:
REMARK  status: ('A' for Active; 'I' for Inactive)
REMARK    1  A    between atoms: N_2  and  C_4 
REMARK    2  A    between atoms: C_4  and  C_5 
REMARK    3  A    between atoms: C_5  and  N_6 
REMARK    4  A    between atoms: C_11  and  C_12 
REMARK    5  A    between atoms: C_15  and  O_16 
ROOT
HETATM    1  N   UNL     1      -8.193   3.591 -33.370  1.00  0.00    -0.332 N 
HETATM    2  C   UNL     1      -7.729   4.892 -33.458  1.00  0.00     0.279 C 
HETATM    3  O   UNL     1      -8.411   5.868 -33.697  1.00  0.00    -0.265 OA
HETATM    4  C   UNL     1      -6.290   4.852 -33.143  1.00  0.00     0.156 A 
HETATM    5  C   UNL     1      -6.024   3.604 -32.754  1.00  0.00     0.060 A 
HETATM    6  C   UNL     1      -7.220   2.729 -32.697  1.00  0.00     0.161 C 
HETATM    7  O   UNL     1      -5.429   5.909 -33.231  1.00  0.00    -0.303 OA
HETATM    8  C   UNL     1      -4.107   5.630 -32.958  1.00  0.00     0.090 A 
HETATM    9  C   UNL     1      -3.665   4.359 -32.558  1.00  0.00     0.051 A 
HETATM   10  C   UNL     1      -4.658   3.275 -32.366  1.00  0.00     0.196 A 
HETATM   11  O   UNL     1      -4.370   2.190 -31.888  1.00  0.00    -0.287 OA
HETATM   12  C   UNL     1      -3.196   6.678 -33.098  1.00  0.00     0.041 A 
HETATM   13  C   UNL     1      -1.840   6.445 -32.861  1.00  0.00     0.045 A 
HETATM   14  C   UNL     1      -1.411   5.171 -32.488  1.00  0.00     0.117 A 
HETATM   15  F   UNL     1      -0.107   4.957 -32.276  1.00  0.00    -0.206 F 
HETATM   16  C   UNL     1      -2.309   4.123 -32.329  1.00  0.00     0.060 A 
ENDROOT
BRANCH   6  17
HETATM   17  C   UNL     1      -7.136   1.338 -33.267  1.00  0.00    -0.030 A 
HETATM   18  C   UNL     1      -6.964   1.183 -34.657  1.00  0.00     0.012 A 
HETATM   19  C   UNL     1      -6.816  -0.082 -35.229  1.00  0.00     0.037 A 
HETATM   20  C   UNL     1      -6.843  -1.201 -34.410  1.00  0.00     0.065 A 
HETATM   21  C   UNL     1      -7.022  -1.074 -33.036  1.00  0.00     0.037 A 
HETATM   22  C   UNL     1      -7.173   0.190 -32.464  1.00  0.00     0.012 A 
BRANCH  20  23
HETATM   23  O   UNL     1      -6.691  -2.455 -34.919  1.00  0.00    -0.361 OA
HETATM   24  H   UNL     1      -5.844  -2.507 -35.392  1.00  0.00     0.217 HD
ENDBRANCH  20  23
ENDBRANCH   6  17
BRANCH   1  25
HETATM   25  C   UNL     1      -9.501   3.165 -33.866  1.00  0.00     0.155 C 
BRANCH  25  26
HETATM   26  C   UNL     1     -10.601   3.137 -32.801  1.00  0.00     0.254 C 
BRANCH  26  27
HETATM   27  N   UNL     1     -11.503   1.926 -32.941  1.00  0.00    -0.077 N 
HETATM   28  C   UNL     1     -10.748   0.729 -33.441  1.00  0.00     0.269 C 
HETATM   29  H   UNL     1     -11.869   1.704 -32.000  1.00  0.00     0.279 HD
HETATM   30  C   UNL     1     -12.733   2.182 -33.773  1.00  0.00     0.269 C 
ENDBRANCH  26  27
ENDBRANCH  25  26
ENDBRANCH   1  25
TORSDOF 5
ENDMDL
MODEL 9
REMARK VINA RESULT:      -7.6      3.364      5.954
REMARK  5 active torsions:
REMARK  status: ('A' for Active; 'I' for Inactive)
REMARK    1  A    between atoms: N_2  and  C_4 
REMARK    2  A    between atoms: C_4  and  C_5 
REMARK    3  A    between atoms: C_5  and  N_6 
REMARK    4  A    between atoms: C_11  and  C_12 
REMARK    5  A    between atoms: C_15  and  O_16 
ROOT
HETATM    1  N   UNL     1      -6.194   2.127 -31.939  1.00  0.00    -0.332 N 
HETATM    2  C   UNL     1      -7.214   1.207 -32.108  1.00  0.00     0.279 C 
HETATM    3  O   UNL     1      -7.217   0.071 -31.675  1.00  0.00    -0.265 OA
HETATM    4  C   UNL     1      -8.292   1.895 -32.839  1.00  0.00     0.156 A 
HETATM    5  C   UNL     1      -7.928   3.176 -32.928  1.00  0.00     0.060 A 
HETATM    6  C   UNL     1      -6.657   3.484 -32.230  1.00  0.00     0.161 C 
HETATM    7  O   UNL     1      -9.433   1.308 -33.309  1.00  0.00    -0.303 OA
HETATM    8  C   UNL     1     -10.274   2.127 -34.031  1.00  0.00     0.090 A 
HETATM    9  C   UNL     1     -10.018   3.493 -34.233  1.00  0.00     0.051 A 
HETATM   10  C   UNL     1      -8.824   4.106 -33.604  1.00  0.00     0.196 A 
HETATM   11  O   UNL     1      -8.612   5.308 -33.617  1.00  0.00    -0.287 OA
HETATM   12  C   UNL     1     -11.418   1.540 -34.574  1.00  0.00     0.041 A 
HETATM   13  C   UNL     1     -12.291   2.317 -35.338  1.00  0.00     0.045 A 
HETATM   14  C   UNL     1     -12.013   3.666 -35.552  1.00  0.00     0.117 A 
HETATM   15  F   UNL     1     -12.851   4.397 -36.297  1.00  0.00    -0.206 F 
HETATM   16  C   UNL     1     -10.886   4.268 -35.004  1.00  0.00     0.060 A 
ENDROOT
BRANCH   6  17
HETATM   17  C   UNL     1      -5.633   4.346 -32.922  1.00  0.00    -0.030 A 
HETATM   18  C   UNL     1      -4.933   5.307 -32.165  1.00  0.00     0.012 A 
HETATM   19  C   UNL     1      -3.929   6.086 -32.743  1.00  0.00     0.037 A 
HETATM   20  C   UNL     1      -3.624   5.911 -34.084  1.00  0.00     0.065 A 
HETATM   21  C   UNL     1      -4.309   4.977 -34.854  1.00  0.00     0.037 A 
HETATM   22  C   UNL     1      -5.315   4.198 -34.279  1.00  0.00     0.012 A 
BRANCH  20  23
HETATM   23  O   UNL     1      -2.646   6.639 -34.690  1.00  0.00    -0.361 OA
HETATM   24  H   UNL     1      -3.036   7.442 -35.074  1.00  0.00     0.217 HD
ENDBRANCH  20  23
ENDBRANCH   6  17
BRANCH   1  25
HETATM   25  C   UNL     1      -4.847   1.767 -31.500  1.00  0.00     0.155 C 
BRANCH  25  26
HETATM   26  C   UNL     1      -4.017   1.027 -32.553  1.00  0.00     0.254 C 
BRANCH  26  27
HETATM   27  N   UNL     1      -4.087  -0.479 -32.383  1.00  0.00    -0.077 N 
HETATM   28  C   UNL     1      -2.814  -1.031 -31.809  1.00  0.00     0.269 C 
HETATM   29  H   UNL     1      -4.852  -0.679 -31.718  1.00  0.00     0.279 HD
HETATM   30  C   UNL     1      -4.481  -1.210 -33.640  1.00  0.00     0.269 C 
ENDBRANCH  26  27
ENDBRANCH  25  26
ENDBRANCH   1  25
TORSDOF 5
ENDMDL
MODEL 10
REMARK VINA RESULT:      -7.4      3.373      5.678
REMARK  5 active torsions:
REMARK  status: ('A' for Active; 'I' for Inactive)
REMARK    1  A    between atoms: N_2  and  C_4 
REMARK    2  A    between atoms: C_4  and  C_5 
REMARK    3  A    between atoms: C_5  and  N_6 
REMARK    4  A    between atoms: C_11  and  C_12 
REMARK    5  A    between atoms: C_15  and  O_16 
ROOT
HETATM    1  N   UNL     1      -9.048   3.135 -33.453  1.00  0.00    -0.332 N 
HETATM    2  C   UNL     1      -9.384   2.034 -34.221  1.00  0.00     0.279 C 
HETATM    3  O   UNL     1     -10.412   1.906 -34.856  1.00  0.00    -0.265 OA
HETATM    4  C   UNL     1      -8.240   1.109 -34.163  1.00  0.00     0.156 A 
HETATM    5  C   UNL     1      -7.268   1.753 -33.514  1.00  0.00     0.060 A 
HETATM    6  C   UNL     1      -7.617   3.146 -33.148  1.00  0.00     0.161 C 
HETATM    7  O   UNL     1      -8.209  -0.150 -34.693  1.00  0.00    -0.303 OA
HETATM    8  C   UNL     1      -7.058  -0.871 -34.458  1.00  0.00     0.090 A 
HETATM    9  C   UNL     1      -5.955  -0.341 -33.770  1.00  0.00     0.051 A 
HETATM   10  C   UNL     1      -5.996   1.070 -33.317  1.00  0.00     0.196 A 
HETATM   11  O   UNL     1      -5.028   1.640 -32.839  1.00  0.00    -0.287 OA
HETATM   12  C   UNL     1      -7.023  -2.182 -34.936  1.00  0.00     0.041 A 
HETATM   13  C   UNL     1      -5.892  -2.967 -34.703  1.00  0.00     0.045 A 
HETATM   14  C   UNL     1      -4.813  -2.437 -33.996  1.00  0.00     0.117 A 
HETATM   15  F   UNL     1      -3.741  -3.205 -33.768  1.00  0.00    -0.206 F 
HETATM   16  C   UNL     1      -4.828  -1.128 -33.528  1.00  0.00     0.060 A 
ENDROOT
BRANCH   6  17
HETATM   17  C   UNL     1      -7.288   3.643 -31.765  1.00  0.00    -0.030 A 
HETATM   18  C   UNL     1      -6.594   4.862 -31.629  1.00  0.00     0.012 A 
HETATM   19  C   UNL     1      -6.321   5.399 -30.370  1.00  0.00     0.037 A 
HETATM   20  C   UNL     1      -6.739   4.716 -29.238  1.00  0.00     0.065 A 
HETATM   21  C   UNL     1      -7.417   3.506 -29.346  1.00  0.00     0.037 A 
HETATM   22  C   UNL     1      -7.688   2.966 -30.605  1.00  0.00     0.012 A 
BRANCH  20  23
HETATM   23  O   UNL     1      -6.507   5.205 -27.988  1.00  0.00    -0.361 OA
HETATM   24  H   UNL     1      -7.271   5.007 -27.421  1.00  0.00     0.217 HD
ENDBRANCH  20  23
ENDBRANCH   6  17
BRANCH   1  25
HETATM   25  C   UNL     1     -10.011   4.154 -33.037  1.00  0.00     0.155 C 
BRANCH  25  26
HETATM   26  C   UNL     1     -11.126   3.634 -32.126  1.00  0.00     0.254 C 
BRANCH  26  27
HETATM   27  N   UNL     1     -12.427   3.421 -32.877  1.00  0.00    -0.077 N 
HETATM   28  C   UNL     1     -12.622   4.453 -33.949  1.00  0.00     0.269 C 
HETATM   29  H   UNL     1     -12.372   2.494 -33.331  1.00  0.00     0.279 HD
HETATM   30  C   UNL     1     -13.633   3.330 -31.980  1.00  0.00     0.269 C 
ENDBRANCH  26  27
ENDBRANCH  25  26
ENDBRANCH   1  25
TORSDOF 5
ENDMDL
