MODEL 1
REMARK VINA RESULT:      -7.7      0.000      0.000
REMARK  7 active torsions:
REMARK  status: ('A' for Active; 'I' for Inactive)
REMARK    1  A    between atoms: C_10  and  C_11 
REMARK       I    between atoms: C_11  and  N_12 
REMARK    2  A    between atoms: N_12  and  C_13 
REMARK    3  A    between atoms: C_13  and  C_14 
REMARK    4  A    between atoms: C_14  and  O_15 
REMARK    5  A    between atoms: C_14  and  C_16 
REMARK    6  A    between atoms: C_16  and  O_17 
REMARK    7  A    between atoms: O_17  and  C_18 
ROOT
HETATM    1  C   UNL     1      -5.528   4.460 -33.487  1.00  0.00     0.257 C 
HETATM    2  N   UNL     1      -5.601   3.797 -32.283  1.00  0.00    -0.354 N 
HETATM    3  O   UNL     1      -6.481   4.579 -34.249  1.00  0.00    -0.267 OA
HETATM    4  H   UNL     1      -4.706   3.672 -31.811  1.00  0.00     0.162 HD
ENDROOT
BRANCH   2   5
HETATM    5  C   UNL     1      -6.685   2.903 -31.890  1.00  0.00     0.156 C 
BRANCH   5   6
HETATM    6  C   UNL     1      -6.319   1.778 -30.903  1.00  0.00     0.160 C 
BRANCH   6   7
HETATM    7  O   UNL     1      -7.454   0.917 -30.718  1.00  0.00    -0.392 OA
HETATM    8  H   UNL     1      -8.232   1.511 -30.629  1.00  0.00     0.210 HD
ENDBRANCH   6   7
BRANCH   6   9
HETATM    9  C   UNL     1      -5.175   0.916 -31.462  1.00  0.00     0.209 C 
BRANCH   9  10
HETATM   10  O   UNL     1      -5.269   0.904 -32.893  1.00  0.00    -0.349 OA
BRANCH  10  11
HETATM   11  C   UNL     1      -5.591  -0.282 -33.491  1.00  0.00     0.069 A 
HETATM   12  C   UNL     1      -4.535  -1.194 -33.578  1.00  0.00     0.038 A 
HETATM   13  C   UNL     1      -4.720  -2.447 -34.168  1.00  0.00     0.026 A 
HETATM   14  C   UNL     1      -5.971  -2.785 -34.677  1.00  0.00     0.034 A 
HETATM   15 CL   UNL     1      -6.211  -4.326 -35.406  1.00  0.00    -0.084 Cl
HETATM   16  C   UNL     1      -7.030  -1.883 -34.600  1.00  0.00     0.026 A 
HETATM   17  C   UNL     1      -6.840  -0.628 -34.008  1.00  0.00     0.038 A 
ENDBRANCH  10  11
ENDBRANCH   9  10
ENDBRANCH   6   9
ENDBRANCH   5   6
ENDBRANCH   2   5
BRANCH   1  18
HETATM   18  C   UNL     1      -4.230   5.014 -33.813  1.00  0.00     0.098 A 
HETATM   19  C   UNL     1      -3.234   5.456 -32.959  1.00  0.00     0.167 A 
HETATM   20  N   UNL     1      -2.161   5.834 -33.775  1.00  0.00    -0.226 N 
HETATM   21  N   UNL     1      -3.165   5.526 -31.589  1.00  0.00    -0.240 NA
HETATM   22  C   UNL     1      -0.966   6.272 -33.216  1.00  0.00     0.128 A 
HETATM   23  N   UNL     1      -2.451   5.692 -35.089  1.00  0.00    -0.178 NA
HETATM   24  C   UNL     1      -0.820   6.341 -31.884  1.00  0.00    -0.027 A 
HETATM   25  C   UNL     1       0.405   6.764 -31.154  1.00  0.00     0.051 C 
HETATM   26  C   UNL     1      -2.030   5.939 -31.103  1.00  0.00     0.127 A 
HETATM   27  C   UNL     1      -3.685   5.186 -35.101  1.00  0.00     0.160 A 
ENDBRANCH   1  18
TORSDOF 7
ENDMDL
MODEL 2
REMARK VINA RESULT:      -7.7      3.619      7.909
REMARK  7 active torsions:
REMARK  status: ('A' for Active; 'I' for Inactive)
REMARK    1  A    between atoms: C_10  and  C_11 
REMARK       I    between atoms: C_11  and  N_12 
REMARK    2  A    between atoms: N_12  and  C_13 
REMARK    3  A    between atoms: C_13  and  C_14 
REMARK    4  A    between atoms: C_14  and  O_15 
REMARK    5  A    between atoms: C_14  and  C_16 
REMARK    6  A    between atoms: C_16  and  O_17 
REMARK    7  A    between atoms: O_17  and  C_18 
ROOT
HETATM    1  C   UNL     1      -5.333   1.273 -31.962  1.00  0.00     0.257 C 
HETATM    2  N   UNL     1      -6.018   1.974 -32.927  1.00  0.00    -0.354 N 
HETATM    3  O   UNL     1      -5.181   1.679 -30.815  1.00  0.00    -0.267 OA
HETATM    4  H   UNL     1      -5.963   1.575 -33.864  1.00  0.00     0.162 HD
ENDROOT
BRANCH   2   5
HETATM    5  C   UNL     1      -6.379   3.385 -32.832  1.00  0.00     0.156 C 
BRANCH   5   6
HETATM    6  C   UNL     1      -6.218   4.220 -34.117  1.00  0.00     0.160 C 
BRANCH   6   7
HETATM    7  O   UNL     1      -7.177   5.289 -34.116  1.00  0.00    -0.392 OA
HETATM    8  H   UNL     1      -7.435   5.420 -33.177  1.00  0.00     0.210 HD
ENDBRANCH   6   7
BRANCH   6   9
HETATM    9  C   UNL     1      -4.819   4.856 -34.179  1.00  0.00     0.209 C 
BRANCH   9  10
HETATM   10  O   UNL     1      -3.902   4.015 -33.467  1.00  0.00    -0.349 OA
BRANCH  10  11
HETATM   11  C   UNL     1      -2.834   4.619 -32.866  1.00  0.00     0.069 A 
HETATM   12  C   UNL     1      -2.226   5.619 -33.631  1.00  0.00     0.038 A 
HETATM   13  C   UNL     1      -1.120   6.318 -33.142  1.00  0.00     0.026 A 
HETATM   14  C   UNL     1      -0.618   6.011 -31.881  1.00  0.00     0.034 A 
HETATM   15 CL   UNL     1       0.744   6.866 -31.268  1.00  0.00    -0.084 Cl
HETATM   16  C   UNL     1      -1.213   5.013 -31.111  1.00  0.00     0.026 A 
HETATM   17  C   UNL     1      -2.320   4.313 -31.605  1.00  0.00     0.038 A 
ENDBRANCH  10  11
ENDBRANCH   9  10
ENDBRANCH   6   9
ENDBRANCH   5   6
ENDBRANCH   2   5
BRANCH   1  18
HETATM   18  C   UNL     1      -4.785   0.002 -32.389  1.00  0.00     0.098 A 
HETATM   19  C   UNL     1      -5.386  -0.999 -33.132  1.00  0.00     0.167 A 
HETATM   20  N   UNL     1      -4.408  -1.982 -33.325  1.00  0.00    -0.226 N 
HETATM   21  N   UNL     1      -6.647  -1.114 -33.664  1.00  0.00    -0.240 NA
HETATM   22  C   UNL     1      -4.678  -3.108 -34.093  1.00  0.00     0.128 A 
HETATM   23  N   UNL     1      -3.247  -1.668 -32.706  1.00  0.00    -0.178 NA
HETATM   24  C   UNL     1      -5.881  -3.274 -34.664  1.00  0.00    -0.027 A 
HETATM   25  C   UNL     1      -6.297  -4.411 -35.528  1.00  0.00     0.051 C 
HETATM   26  C   UNL     1      -6.861  -2.182 -34.379  1.00  0.00     0.127 A 
HETATM   27  C   UNL     1      -3.476  -0.472 -32.163  1.00  0.00     0.160 A 
ENDBRANCH   1  18
TORSDOF 7
ENDMDL
MODEL 3
REMARK VINA RESULT:      -7.6      3.588      6.566
REMARK  7 active torsions:
REMARK  status: ('A' for Active; 'I' for Inactive)
REMARK    1  A    between atoms: C_10  and  C_11 
REMARK       I    between atoms: C_11  and  N_12 
REMARK    2  A    between atoms: N_12  and  C_13 
REMARK    3  A    between atoms: C_13  and  C_14 
REMARK    4  A    between atoms: C_14  and  O_15 
REMARK    5  A    between atoms: C_14  and  C_16 
REMARK    6  A    between atoms: C_16  and  O_17 
REMARK    7  A    between atoms: O_17  and  C_18 
ROOT
HETATM    1  C   UNL     1      -7.952   3.909 -33.733  1.00  0.00     0.257 C 
HETATM    2  N   UNL     1      -7.471   2.986 -32.834  1.00  0.00    -0.354 N 
HETATM    3  O   UNL     1      -7.287   4.851 -34.152  1.00  0.00    -0.267 OA
HETATM    4  H   UNL     1      -8.168   2.330 -32.483  1.00  0.00     0.162 HD
ENDROOT
BRANCH   2   5
HETATM    5  C   UNL     1      -6.262   3.155 -32.034  1.00  0.00     0.156 C 
BRANCH   5   6
HETATM    6  C   UNL     1      -5.990   2.073 -30.971  1.00  0.00     0.160 C 
BRANCH   6   7
HETATM    7  O   UNL     1      -7.231   1.465 -30.579  1.00  0.00    -0.392 OA
HETATM    8  H   UNL     1      -7.027   0.518 -30.413  1.00  0.00     0.210 HD
ENDBRANCH   6   7
BRANCH   6   9
HETATM    9  C   UNL     1      -5.094   0.962 -31.544  1.00  0.00     0.209 C 
BRANCH   9  10
HETATM   10  O   UNL     1      -5.310   0.885 -32.960  1.00  0.00    -0.349 OA
BRANCH  10  11
HETATM   11  C   UNL     1      -5.472  -0.357 -33.504  1.00  0.00     0.069 A 
HETATM   12  C   UNL     1      -6.769  -0.634 -33.945  1.00  0.00     0.038 A 
HETATM   13  C   UNL     1      -7.079  -1.869 -34.521  1.00  0.00     0.026 A 
HETATM   14  C   UNL     1      -6.084  -2.833 -34.651  1.00  0.00     0.034 A 
HETATM   15 CL   UNL     1      -6.455  -4.357 -35.358  1.00  0.00    -0.084 Cl
HETATM   16  C   UNL     1      -4.789  -2.570 -34.210  1.00  0.00     0.026 A 
HETATM   17  C   UNL     1      -4.482  -1.332 -33.633  1.00  0.00     0.038 A 
ENDBRANCH  10  11
ENDBRANCH   9  10
ENDBRANCH   6   9
ENDBRANCH   5   6
ENDBRANCH   2   5
BRANCH   1  18
HETATM   18  C   UNL     1      -9.320   3.705 -34.162  1.00  0.00     0.098 A 
HETATM   19  C   UNL     1     -10.130   2.596 -33.985  1.00  0.00     0.167 A 
HETATM   20  N   UNL     1     -11.376   2.934 -34.527  1.00  0.00    -0.226 N 
HETATM   21  N   UNL     1      -9.902   1.380 -33.391  1.00  0.00    -0.240 NA
HETATM   22  C   UNL     1     -12.444   2.048 -34.454  1.00  0.00     0.128 A 
HETATM   23  N   UNL     1     -11.372   4.174 -35.068  1.00  0.00    -0.178 NA
HETATM   24  C   UNL     1     -12.299   0.851 -33.864  1.00  0.00    -0.027 A 
HETATM   25  C   UNL     1     -13.358  -0.180 -33.693  1.00  0.00     0.051 C 
HETATM   26  C   UNL     1     -10.926   0.577 -33.340  1.00  0.00     0.127 A 
HETATM   27  C   UNL     1     -10.143   4.634 -34.831  1.00  0.00     0.160 A 
ENDBRANCH   1  18
TORSDOF 7
ENDMDL
MODEL 4
REMARK VINA RESULT:      -7.6      2.091      3.280
REMARK  7 active torsions:
REMARK  status: ('A' for Active; 'I' for Inactive)
REMARK    1  A    between atoms: C_10  and  C_11 
REMARK       I    between atoms: C_11  and  N_12 
REMARK    2  A    between atoms: N_12  and  C_13 
REMARK    3  A    between atoms: C_13  and  C_14 
REMARK    4  A    between atoms: C_14  and  O_15 
REMARK    5  A    between atoms: C_14  and  C_16 
REMARK    6  A    between atoms: C_16  and  O_17 
REMARK    7  A    between atoms: O_17  and  C_18 
ROOT
HETATM    1  C   UNL     1      -6.612   2.350 -31.809  1.00  0.00     0.257 C 
HETATM    2  N   UNL     1      -7.246   2.325 -33.030  1.00  0.00    -0.354 N 
HETATM    3  O   UNL     1      -7.194   2.175 -30.744  1.00  0.00    -0.267 OA
HETATM    4  H   UNL     1      -6.664   2.604 -33.818  1.00  0.00     0.162 HD
ENDROOT
BRANCH   2   5
HETATM    5  C   UNL     1      -8.692   2.399 -33.218  1.00  0.00     0.156 C 
BRANCH   5   6
HETATM    6  C   UNL     1      -9.398   1.086 -33.608  1.00  0.00     0.160 C 
BRANCH   6   7
HETATM    7  O   UNL     1      -9.649   1.081 -35.023  1.00  0.00    -0.392 OA
HETATM    8  H   UNL     1      -9.079   1.786 -35.401  1.00  0.00     0.210 HD
ENDBRANCH   6   7
BRANCH   6   9
HETATM    9  C   UNL     1      -8.504  -0.126 -33.296  1.00  0.00     0.209 C 
BRANCH   9  10
HETATM   10  O   UNL     1      -7.689  -0.401 -34.443  1.00  0.00    -0.349 OA
BRANCH  10  11
HETATM   11  C   UNL     1      -6.641  -1.262 -34.278  1.00  0.00     0.069 A 
HETATM   12  C   UNL     1      -6.832  -2.525 -34.846  1.00  0.00     0.038 A 
HETATM   13  C   UNL     1      -5.843  -3.507 -34.751  1.00  0.00     0.026 A 
HETATM   14  C   UNL     1      -4.657  -3.222 -34.079  1.00  0.00     0.034 A 
HETATM   15 CL   UNL     1      -3.432  -4.424 -33.955  1.00  0.00    -0.084 Cl
HETATM   16  C   UNL     1      -4.458  -1.968 -33.504  1.00  0.00     0.026 A 
HETATM   17  C   UNL     1      -5.452  -0.987 -33.601  1.00  0.00     0.038 A 
ENDBRANCH  10  11
ENDBRANCH   9  10
ENDBRANCH   6   9
ENDBRANCH   5   6
ENDBRANCH   2   5
BRANCH   1  18
HETATM   18  C   UNL     1      -5.187   2.607 -31.855  1.00  0.00     0.098 A 
HETATM   19  C   UNL     1      -4.491   3.501 -32.649  1.00  0.00     0.167 A 
HETATM   20  N   UNL     1      -3.149   3.405 -32.258  1.00  0.00    -0.226 N 
HETATM   21  N   UNL     1      -4.904   4.380 -33.619  1.00  0.00    -0.240 NA
HETATM   22  C   UNL     1      -2.185   4.228 -32.829  1.00  0.00     0.128 A 
HETATM   23  N   UNL     1      -2.968   2.471 -31.296  1.00  0.00    -0.178 NA
HETATM   24  C   UNL     1      -2.522   5.128 -33.765  1.00  0.00    -0.027 A 
HETATM   25  C   UNL     1      -1.603   6.085 -34.438  1.00  0.00     0.051 C 
HETATM   26  C   UNL     1      -3.972   5.135 -34.129  1.00  0.00     0.127 A 
HETATM   27  C   UNL     1      -4.195   2.010 -31.050  1.00  0.00     0.160 A 
ENDBRANCH   1  18
TORSDOF 7
ENDMDL
MODEL 5
REMARK VINA RESULT:      -7.5      1.904      2.346
REMARK  7 active torsions:
REMARK  status: ('A' for Active; 'I' for Inactive)
REMARK    1  A    between atoms: C_10  and  C_11 
REMARK       I    between atoms: C_11  and  N_12 
REMARK    2  A    between atoms: N_12  and  C_13 
REMARK    3  A    between atoms: C_13  and  C_14 
REMARK    4  A    between atoms: C_14  and  O_15 
REMARK    5  A    between atoms: C_14  and  C_16 
REMARK    6  A    between atoms: C_16  and  O_17 
REMARK    7  A    between atoms: O_17  and  C_18 
ROOT
HETATM    1  C   UNL     1      -3.984   4.988 -31.321  1.00  0.00     0.257 C 
HETATM    2  N   UNL     1      -4.397   3.913 -30.567  1.00  0.00    -0.354 N 
HETATM    3  O   UNL     1      -4.749   5.679 -31.985  1.00  0.00    -0.267 OA
HETATM    4  H   UNL     1      -3.642   3.359 -30.165  1.00  0.00     0.162 HD
ENDROOT
BRANCH   2   5
HETATM    5  C   UNL     1      -5.700   3.266 -30.686  1.00  0.00     0.156 C 
BRANCH   5   6
HETATM    6  C   UNL     1      -5.724   1.739 -30.480  1.00  0.00     0.160 C 
BRANCH   6   7
HETATM    7  O   UNL     1      -6.451   1.430 -29.280  1.00  0.00    -0.392 OA
HETATM    8  H   UNL     1      -6.979   2.232 -29.070  1.00  0.00     0.210 HD
ENDBRANCH   6   7
BRANCH   6   9
HETATM    9  C   UNL     1      -6.446   1.045 -31.647  1.00  0.00     0.209 C 
BRANCH   9  10
HETATM   10  O   UNL     1      -5.465   0.614 -32.600  1.00  0.00    -0.349 OA
BRANCH  10  11
HETATM   11  C   UNL     1      -5.712  -0.548 -33.274  1.00  0.00     0.069 A 
HETATM   12  C   UNL     1      -4.588  -1.357 -33.470  1.00  0.00     0.038 A 
HETATM   13  C   UNL     1      -4.694  -2.574 -34.147  1.00  0.00     0.026 A 
HETATM   14  C   UNL     1      -5.933  -2.982 -34.633  1.00  0.00     0.034 A 
HETATM   15 CL   UNL     1      -6.075  -4.480 -35.469  1.00  0.00    -0.084 Cl
HETATM   16  C   UNL     1      -7.059  -2.182 -34.448  1.00  0.00     0.026 A 
HETATM   17  C   UNL     1      -6.949  -0.962 -33.770  1.00  0.00     0.038 A 
ENDBRANCH  10  11
ENDBRANCH   9  10
ENDBRANCH   6   9
ENDBRANCH   5   6
ENDBRANCH   2   5
BRANCH   1  18
HETATM   18  C   UNL     1      -2.561   5.257 -31.290  1.00  0.00     0.098 A 
HETATM   19  C   UNL     1      -1.856   6.109 -30.459  1.00  0.00     0.167 A 
HETATM   20  N   UNL     1      -0.506   5.953 -30.796  1.00  0.00    -0.226 N 
HETATM   21  N   UNL     1      -2.260   6.951 -29.452  1.00  0.00    -0.240 NA
HETATM   22  C   UNL     1       0.483   6.633 -30.096  1.00  0.00     0.128 A 
HETATM   23  N   UNL     1      -0.338   5.084 -31.820  1.00  0.00    -0.178 NA
HETATM   24  C   UNL     1       0.162   7.453 -29.083  1.00  0.00    -0.027 A 
HETATM   25  C   UNL     1       1.113   8.219 -28.235  1.00  0.00     0.051 C 
HETATM   26  C   UNL     1      -1.305   7.570 -28.818  1.00  0.00     0.127 A 
HETATM   27  C   UNL     1      -1.572   4.661 -32.098  1.00  0.00     0.160 A 
ENDBRANCH   1  18
TORSDOF 7
ENDMDL
MODEL 6
REMARK VINA RESULT:      -7.5      3.552      7.139
REMARK  7 active torsions:
REMARK  status: ('A' for Active; 'I' for Inactive)
REMARK    1  A    between atoms: C_10  and  C_11 
REMARK       I    between atoms: C_11  and  N_12 
REMARK    2  A    between atoms: N_12  and  C_13 
REMARK    3  A    between atoms: C_13  and  C_14 
REMARK    4  A    between atoms: C_14  and  O_15 
REMARK    5  A    between atoms: C_14  and  C_16 
REMARK    6  A    between atoms: C_16  and  O_17 
REMARK    7  A    between atoms: O_17  and  C_18 
ROOT
HETATM    1  C   UNL     1      -6.256   1.481 -32.921  1.00  0.00     0.257 C 
HETATM    2  N   UNL     1      -6.874   1.549 -31.693  1.00  0.00    -0.354 N 
HETATM    3  O   UNL     1      -6.370   2.348 -33.780  1.00  0.00    -0.267 OA
HETATM    4  H   UNL     1      -6.789   0.706 -31.126  1.00  0.00     0.162 HD
ENDROOT
BRANCH   2   5
HETATM    5  C   UNL     1      -7.962   2.462 -31.358  1.00  0.00     0.156 C 
BRANCH   5   6
HETATM    6  C   UNL     1      -7.719   3.405 -30.164  1.00  0.00     0.160 C 
BRANCH   6   7
HETATM    7  O   UNL     1      -7.053   2.686 -29.115  1.00  0.00    -0.392 OA
HETATM    8  H   UNL     1      -7.286   3.148 -28.280  1.00  0.00     0.210 HD
ENDBRANCH   6   7
BRANCH   6   9
HETATM    9  C   UNL     1      -6.808   4.574 -30.572  1.00  0.00     0.209 C 
BRANCH   9  10
HETATM   10  O   UNL     1      -5.445   4.130 -30.525  1.00  0.00    -0.349 OA
BRANCH  10  11
HETATM   11  C   UNL     1      -4.652   4.423 -31.598  1.00  0.00     0.069 A 
HETATM   12  C   UNL     1      -3.475   3.672 -31.672  1.00  0.00     0.038 A 
HETATM   13  C   UNL     1      -2.568   3.868 -32.716  1.00  0.00     0.026 A 
HETATM   14  C   UNL     1      -2.840   4.826 -33.689  1.00  0.00     0.034 A 
HETATM   15 CL   UNL     1      -1.730   5.077 -34.980  1.00  0.00    -0.084 Cl
HETATM   16  C   UNL     1      -4.007   5.584 -33.622  1.00  0.00     0.026 A 
HETATM   17  C   UNL     1      -4.914   5.385 -32.574  1.00  0.00     0.038 A 
ENDBRANCH  10  11
ENDBRANCH   9  10
ENDBRANCH   6   9
ENDBRANCH   5   6
ENDBRANCH   2   5
BRANCH   1  18
HETATM   18  C   UNL     1      -5.451   0.298 -33.146  1.00  0.00     0.098 A 
HETATM   19  C   UNL     1      -5.832  -0.925 -33.668  1.00  0.00     0.167 A 
HETATM   20  N   UNL     1      -4.667  -1.699 -33.736  1.00  0.00    -0.226 N 
HETATM   21  N   UNL     1      -7.045  -1.399 -34.104  1.00  0.00    -0.240 NA
HETATM   22  C   UNL     1      -4.697  -2.978 -34.279  1.00  0.00     0.128 A 
HETATM   23  N   UNL     1      -3.593  -1.040 -33.245  1.00  0.00    -0.178 NA
HETATM   24  C   UNL     1      -5.843  -3.495 -34.748  1.00  0.00    -0.027 A 
HETATM   25  C   UNL     1      -6.015  -4.832 -35.375  1.00  0.00     0.051 C 
HETATM   26  C   UNL     1      -7.033  -2.600 -34.608  1.00  0.00     0.127 A 
HETATM   27  C   UNL     1      -4.068   0.160 -32.909  1.00  0.00     0.160 A 
ENDBRANCH   1  18
TORSDOF 7
ENDMDL
MODEL 7
REMARK VINA RESULT:      -7.4      1.717      2.270
REMARK  7 active torsions:
REMARK  status: ('A' for Active; 'I' for Inactive)
REMARK    1  A    between atoms: C_10  and  C_11 
REMARK       I    between atoms: C_11  and  N_12 
REMARK    2  A    between atoms: N_12  and  C_13 
REMARK    3  A    between atoms: C_13  and  C_14 
REMARK    4  A    between atoms: C_14  and  O_15 
REMARK    5  A    between atoms: C_14  and  C_16 
REMARK    6  A    between atoms: C_16  and  O_17 
REMARK    7  A    between atoms: O_17  and  C_18 
ROOT
HETATM    1  C   UNL     1      -3.441   3.028 -31.452  1.00  0.00     0.257 C 
HETATM    2  N   UNL     1      -4.791   3.014 -31.191  1.00  0.00    -0.354 N 
HETATM    3  O   UNL     1      -2.694   2.091 -31.190  1.00  0.00    -0.267 OA
HETATM    4  H   UNL     1      -5.266   3.903 -31.349  1.00  0.00     0.162 HD
ENDROOT
BRANCH   2   5
HETATM    5  C   UNL     1      -5.459   2.058 -30.314  1.00  0.00     0.156 C 
BRANCH   5   6
HETATM    6  C   UNL     1      -6.566   1.200 -30.956  1.00  0.00     0.160 C 
BRANCH   6   7
HETATM    7  O   UNL     1      -7.852   1.731 -30.596  1.00  0.00    -0.392 OA
HETATM    8  H   UNL     1      -8.016   2.479 -31.212  1.00  0.00     0.210 HD
ENDBRANCH   6   7
BRANCH   6   9
HETATM    9  C   UNL     1      -6.464   1.240 -32.490  1.00  0.00     0.209 C 
BRANCH   9  10
HETATM   10  O   UNL     1      -5.261   0.569 -32.885  1.00  0.00    -0.349 OA
BRANCH  10  11
HETATM   11  C   UNL     1      -5.391  -0.653 -33.483  1.00  0.00     0.069 A 
HETATM   12  C   UNL     1      -6.666  -0.919 -33.991  1.00  0.00     0.038 A 
HETATM   13  C   UNL     1      -6.942  -2.131 -34.627  1.00  0.00     0.026 A 
HETATM   14  C   UNL     1      -5.936  -3.085 -34.751  1.00  0.00     0.034 A 
HETATM   15 CL   UNL     1      -6.266  -4.582 -35.533  1.00  0.00    -0.084 Cl
HETATM   16  C   UNL     1      -4.663  -2.833 -34.245  1.00  0.00     0.026 A 
HETATM   17  C   UNL     1      -4.389  -1.617 -33.608  1.00  0.00     0.038 A 
ENDBRANCH  10  11
ENDBRANCH   9  10
ENDBRANCH   6   9
ENDBRANCH   5   6
ENDBRANCH   2   5
BRANCH   1  18
HETATM   18  C   UNL     1      -2.939   4.242 -32.062  1.00  0.00     0.098 A 
HETATM   19  C   UNL     1      -2.999   5.542 -31.590  1.00  0.00     0.167 A 
HETATM   20  N   UNL     1      -2.313   6.328 -32.524  1.00  0.00    -0.226 N 
HETATM   21  N   UNL     1      -3.546   6.078 -30.450  1.00  0.00    -0.240 NA
HETATM   22  C   UNL     1      -2.138   7.690 -32.310  1.00  0.00     0.128 A 
HETATM   23  N   UNL     1      -1.869   5.596 -33.571  1.00  0.00    -0.178 NA
HETATM   24  C   UNL     1      -2.623   8.277 -31.205  1.00  0.00    -0.027 A 
HETATM   25  C   UNL     1      -2.486   9.711 -30.837  1.00  0.00     0.051 C 
HETATM   26  C   UNL     1      -3.359   7.357 -30.284  1.00  0.00     0.127 A 
HETATM   27  C   UNL     1      -2.234   4.347 -33.279  1.00  0.00     0.160 A 
ENDBRANCH   1  18
TORSDOF 7
ENDMDL
MODEL 8
REMARK VINA RESULT:      -7.4      4.253      8.938
REMARK  7 active torsions:
REMARK  status: ('A' for Active; 'I' for Inactive)
REMARK    1  A    between atoms: C_10  and  C_11 
REMARK       I    between atoms: C_11  and  N_12 
REMARK    2  A    between atoms: N_12  and  C_13 
REMARK    3  A    between atoms: C_13  and  C_14 
REMARK    4  A    between atoms: C_14  and  O_15 
REMARK    5  A    between atoms: C_14  and  C_16 
REMARK    6  A    between atoms: C_16  and  O_17 
REMARK    7  A    between atoms: O_17  and  C_18 
ROOT
HETATM    1  C   UNL     1      -4.605   0.957 -31.956  1.00  0.00     0.257 C 
HETATM    2  N   UNL     1      -4.408   2.227 -32.449  1.00  0.00    -0.354 N 
HETATM    3  O   UNL     1      -3.956   0.487 -31.029  1.00  0.00    -0.267 OA
HETATM    4  H   UNL     1      -4.934   2.442 -33.296  1.00  0.00     0.162 HD
ENDROOT
BRANCH   2   5
HETATM    5  C   UNL     1      -3.239   3.055 -32.170  1.00  0.00     0.156 C 
BRANCH   5   6
HETATM    6  C   UNL     1      -3.132   4.374 -32.961  1.00  0.00     0.160 C 
BRANCH   6   7
HETATM    7  O   UNL     1      -3.993   5.358 -32.366  1.00  0.00    -0.392 OA
HETATM    8  H   UNL     1      -3.845   5.296 -31.396  1.00  0.00     0.210 HD
ENDBRANCH   6   7
BRANCH   6   9
HETATM    9  C   UNL     1      -1.697   4.924 -32.908  1.00  0.00     0.209 C 
BRANCH   9  10
HETATM   10  O   UNL     1      -1.082   4.479 -31.692  1.00  0.00    -0.349 OA
BRANCH  10  11
HETATM   11  C   UNL     1      -0.592   5.437 -30.849  1.00  0.00     0.069 A 
HETATM   12  C   UNL     1       0.239   4.950 -29.836  1.00  0.00     0.038 A 
HETATM   13  C   UNL     1       0.809   5.818 -28.901  1.00  0.00     0.026 A 
HETATM   14  C   UNL     1       0.540   7.181 -28.980  1.00  0.00     0.034 A 
HETATM   15 CL   UNL     1       1.235   8.259 -27.833  1.00  0.00    -0.084 Cl
HETATM   16  C   UNL     1      -0.292   7.677 -29.982  1.00  0.00     0.026 A 
HETATM   17  C   UNL     1      -0.861   6.805 -30.917  1.00  0.00     0.038 A 
ENDBRANCH  10  11
ENDBRANCH   9  10
ENDBRANCH   6   9
ENDBRANCH   5   6
ENDBRANCH   2   5
BRANCH   1  18
HETATM   18  C   UNL     1      -5.642   0.190 -32.615  1.00  0.00     0.098 A 
HETATM   19  C   UNL     1      -5.526  -0.973 -33.355  1.00  0.00     0.167 A 
HETATM   20  N   UNL     1      -6.829  -1.339 -33.713  1.00  0.00    -0.226 N 
HETATM   21  N   UNL     1      -4.436  -1.732 -33.705  1.00  0.00    -0.240 NA
HETATM   22  C   UNL     1      -7.067  -2.512 -34.419  1.00  0.00     0.128 A 
HETATM   23  N   UNL     1      -7.744  -0.445 -33.273  1.00  0.00    -0.178 NA
HETATM   24  C   UNL     1      -6.051  -3.315 -34.772  1.00  0.00    -0.027 A 
HETATM   25  C   UNL     1      -6.161  -4.606 -35.502  1.00  0.00     0.051 C 
HETATM   26  C   UNL     1      -4.699  -2.825 -34.364  1.00  0.00     0.127 A 
HETATM   27  C   UNL     1      -7.026   0.458 -32.604  1.00  0.00     0.160 A 
ENDBRANCH   1  18
TORSDOF 7
ENDMDL
MODEL 9
REMARK VINA RESULT:      -7.2      3.922      6.861
REMARK  7 active torsions:
REMARK  status: ('A' for Active; 'I' for Inactive)
REMARK    1  A    between atoms: C_10  and  C_11 
REMARK       I    between atoms: C_11  and  N_12 
REMARK    2  A    between atoms: N_12  and  C_13 
REMARK    3  A    between atoms: C_13  and  C_14 
REMARK    4  A    between atoms: C_14  and  O_15 
REMARK    5  A    between atoms: C_14  and  C_16 
REMARK    6  A    between atoms: C_16  and  O_17 
REMARK    7  A    between atoms: O_17  and  C_18 
ROOT
HETATM    1  C   UNL     1      -5.320   2.779 -32.641  1.00  0.00     0.257 C 
HETATM    2  N   UNL     1      -6.162   3.214 -33.639  1.00  0.00    -0.354 N 
HETATM    3  O   UNL     1      -4.962   3.487 -31.706  1.00  0.00    -0.267 OA
HETATM    4  H   UNL     1      -6.279   2.561 -34.413  1.00  0.00     0.162 HD
ENDROOT
BRANCH   2   5
HETATM    5  C   UNL     1      -6.490   4.612 -33.901  1.00  0.00     0.156 C 
BRANCH   5   6
HETATM    6  C   UNL     1      -7.910   5.065 -33.509  1.00  0.00     0.160 C 
BRANCH   6   7
HETATM    7  O   UNL     1      -8.577   5.596 -34.665  1.00  0.00    -0.392 OA
HETATM    8  H   UNL     1      -8.055   5.295 -35.441  1.00  0.00     0.210 HD
ENDBRANCH   6   7
BRANCH   6   9
HETATM    9  C   UNL     1      -8.740   3.874 -33.004  1.00  0.00     0.209 C 
BRANCH   9  10
HETATM   10  O   UNL     1      -9.029   3.014 -34.115  1.00  0.00    -0.349 OA
BRANCH  10  11
HETATM   11  C   UNL     1     -10.260   2.424 -34.150  1.00  0.00     0.069 A 
HETATM   12  C   UNL     1     -11.233   3.150 -34.844  1.00  0.00     0.038 A 
HETATM   13  C   UNL     1     -12.539   2.666 -34.957  1.00  0.00     0.026 A 
HETATM   14  C   UNL     1     -12.873   1.451 -34.368  1.00  0.00     0.034 A 
HETATM   15 CL   UNL     1     -14.478   0.846 -34.500  1.00  0.00    -0.084 Cl
HETATM   16  C   UNL     1     -11.913   0.721 -33.669  1.00  0.00     0.026 A 
HETATM   17  C   UNL     1     -10.606   1.209 -33.557  1.00  0.00     0.038 A 
ENDBRANCH  10  11
ENDBRANCH   9  10
ENDBRANCH   6   9
ENDBRANCH   5   6
ENDBRANCH   2   5
BRANCH   1  18
HETATM   18  C   UNL     1      -4.866   1.409 -32.765  1.00  0.00     0.098 A 
HETATM   19  C   UNL     1      -5.532   0.317 -33.293  1.00  0.00     0.167 A 
HETATM   20  N   UNL     1      -4.632  -0.753 -33.235  1.00  0.00    -0.226 N 
HETATM   21  N   UNL     1      -6.789   0.181 -33.829  1.00  0.00    -0.240 NA
HETATM   22  C   UNL     1      -4.976  -1.998 -33.750  1.00  0.00     0.128 A 
HETATM   23  N   UNL     1      -3.459  -0.397 -32.661  1.00  0.00    -0.178 NA
HETATM   24  C   UNL     1      -6.179  -2.196 -34.311  1.00  0.00    -0.027 A 
HETATM   25  C   UNL     1      -6.668  -3.460 -34.922  1.00  0.00     0.051 C 
HETATM   26  C   UNL     1      -7.075  -0.998 -34.302  1.00  0.00     0.127 A 
HETATM   27  C   UNL     1      -3.603   0.902 -32.397  1.00  0.00     0.160 A 
ENDBRANCH   1  18
TORSDOF 7
ENDMDL
MODEL 10
REMARK VINA RESULT:      -7.2      3.637      7.872
REMARK  7 active torsions:
REMARK  status: ('A' for Active; 'I' for Inactive)
REMARK    1  A    between atoms: C_10  and  C_11 
REMARK       I    between atoms: C_11  and  N_12 
REMARK    2  A    between atoms: N_12  and  C_13 
REMARK    3  A    between atoms: C_13  and  C_14 
REMARK    4  A    between atoms: C_14  and  O_15 
REMARK    5  A    between atoms: C_14  and  C_16 
REMARK    6  A    between atoms: C_16  and  O_17 
REMARK    7  A    between atoms: O_17  and  C_18 
ROOT
HETATM    1  C   UNL     1      -5.736   1.555 -32.939  1.00  0.00     0.257 C 
HETATM    2  N   UNL     1      -6.851   2.357 -33.014  1.00  0.00    -0.354 N 
HETATM    3  O   UNL     1      -4.726   1.863 -32.316  1.00  0.00    -0.267 OA
HETATM    4  H   UNL     1      -7.568   2.032 -33.662  1.00  0.00     0.162 HD
ENDROOT
BRANCH   2   5
HETATM    5  C   UNL     1      -6.887   3.769 -32.646  1.00  0.00     0.156 C 
BRANCH   5   6
HETATM    6  C   UNL     1      -6.504   4.773 -33.750  1.00  0.00     0.160 C 
BRANCH   6   7
HETATM    7  O   UNL     1      -7.693   5.400 -34.259  1.00  0.00    -0.392 OA
HETATM    8  H   UNL     1      -7.412   5.909 -35.051  1.00  0.00     0.210 HD
ENDBRANCH   6   7
BRANCH   6   9
HETATM    9  C   UNL     1      -5.603   5.884 -33.186  1.00  0.00     0.209 C 
BRANCH   9  10
HETATM   10  O   UNL     1      -4.380   5.905 -33.935  1.00  0.00    -0.349 OA
BRANCH  10  11
HETATM   11  C   UNL     1      -3.216   6.040 -33.233  1.00  0.00     0.069 A 
HETATM   12  C   UNL     1      -2.303   6.940 -33.790  1.00  0.00     0.038 A 
HETATM   13  C   UNL     1      -1.069   7.175 -33.179  1.00  0.00     0.026 A 
HETATM   14  C   UNL     1      -0.747   6.502 -32.004  1.00  0.00     0.034 A 
HETATM   15 CL   UNL     1       0.770   6.783 -31.243  1.00  0.00    -0.084 Cl
HETATM   16  C   UNL     1      -1.647   5.599 -31.442  1.00  0.00     0.026 A 
HETATM   17  C   UNL     1      -2.883   5.365 -32.058  1.00  0.00     0.038 A 
ENDBRANCH  10  11
ENDBRANCH   9  10
ENDBRANCH   6   9
ENDBRANCH   5   6
ENDBRANCH   2   5
BRANCH   1  18
HETATM   18  C   UNL     1      -5.823   0.302 -33.661  1.00  0.00     0.098 A 
HETATM   19  C   UNL     1      -5.069  -0.847 -33.501  1.00  0.00     0.167 A 
HETATM   20  N   UNL     1      -5.595  -1.786 -34.397  1.00  0.00    -0.226 N 
HETATM   21  N   UNL     1      -4.029  -1.152 -32.657  1.00  0.00    -0.240 NA
HETATM   22  C   UNL     1      -5.092  -3.081 -34.443  1.00  0.00     0.128 A 
HETATM   23  N   UNL     1      -6.604  -1.269 -35.135  1.00  0.00    -0.178 NA
HETATM   24  C   UNL     1      -4.093  -3.455 -33.629  1.00  0.00    -0.027 A 
HETATM   25  C   UNL     1      -3.480  -4.807 -33.552  1.00  0.00     0.051 C 
HETATM   26  C   UNL     1      -3.586  -2.375 -32.728  1.00  0.00     0.127 A 
HETATM   27  C   UNL     1      -6.744  -0.025 -34.676  1.00  0.00     0.160 A 
ENDBRANCH   1  18
TORSDOF 7
ENDMDL
