MODEL 1
REMARK VINA RESULT:      -9.0      0.000      0.000
REMARK  10 active torsions:
REMARK  status: ('A' for Active; 'I' for Inactive)
REMARK    1  A    between atoms: C_2  and  O_3 
REMARK    2  A    between atoms: O_3  and  C_4 
REMARK    3  A    between atoms: C_7  and  C_8 
REMARK    4  A    between atoms: C_8  and  C_9 
REMARK    5  A    between atoms: C_10  and  C_11 
REMARK    6  A    between atoms: C_14  and  N_15 
REMARK    7  A    between atoms: N_20  and  C_21 
REMARK    8  A    between atoms: C_21  and  C_22 
REMARK    9  A    between atoms: C_22  and  N_23 
REMARK   10  A    between atoms: C_34  and  O_35 
ROOT
HETATM    1  C   UNL     1      -5.853   2.485 -31.488  1.00  0.00     0.059 C 
HETATM    2  C   UNL     1      -6.181   3.627 -32.396  1.00  0.00     0.161 C 
HETATM    3  N   UNL     1      -7.153   4.371 -31.591  1.00  0.00    -0.332 N 
HETATM    4  C   UNL     1      -7.557   3.605 -30.510  1.00  0.00     0.278 C 
HETATM    5  O   UNL     1      -8.524   3.844 -29.804  1.00  0.00    -0.265 OA
HETATM    6  C   UNL     1      -6.628   2.471 -30.393  1.00  0.00     0.146 C 
ENDROOT
BRANCH   1   7
HETATM    7  C   UNL     1      -4.789   1.470 -31.625  1.00  0.00     0.193 C 
HETATM    8  O   UNL     1      -3.799   1.557 -30.899  1.00  0.00    -0.287 OA
BRANCH   7   9
HETATM    9  C   UNL     1      -4.870   0.373 -32.614  1.00  0.00     0.015 A 
HETATM   10  C   UNL     1      -6.023   0.119 -33.367  1.00  0.00     0.018 A 
HETATM   11  C   UNL     1      -6.057  -0.969 -34.246  1.00  0.00     0.038 A 
HETATM   12  C   UNL     1      -4.953  -1.813 -34.355  1.00  0.00     0.069 A 
HETATM   13  C   UNL     1      -3.823  -1.594 -33.573  1.00  0.00     0.038 A 
HETATM   14  C   UNL     1      -3.777  -0.498 -32.710  1.00  0.00     0.018 A 
BRANCH  12  15
HETATM   15  O   UNL     1      -4.982  -2.950 -35.110  1.00  0.00    -0.347 OA
BRANCH  15  16
HETATM   16  C   UNL     1      -5.629  -4.062 -34.473  1.00  0.00     0.120 C 
HETATM   17  C   UNL     1      -4.588  -5.141 -34.194  1.00  0.00     0.040 C 
HETATM   18  C   UNL     1      -6.687  -4.584 -35.439  1.00  0.00     0.040 C 
ENDBRANCH  15  16
ENDBRANCH  12  15
ENDBRANCH   7   9
ENDBRANCH   1   7
BRANCH   2  19
HETATM   19  C   UNL     1      -5.034   4.505 -32.846  1.00  0.00    -0.030 A 
HETATM   20  C   UNL     1      -4.261   5.173 -31.876  1.00  0.00     0.012 A 
HETATM   21  C   UNL     1      -3.183   5.982 -32.244  1.00  0.00     0.037 A 
HETATM   22  C   UNL     1      -2.866   6.135 -33.598  1.00  0.00     0.102 A 
HETATM   23  C   UNL     1      -3.623   5.480 -34.579  1.00  0.00     0.037 A 
HETATM   24  C   UNL     1      -4.696   4.665 -34.201  1.00  0.00     0.012 A 
BRANCH  22  25
HETATM   25  N   UNL     1      -1.720   6.968 -33.987  1.00  0.00    -0.116 N 
HETATM   26  O   UNL     1      -0.832   6.433 -34.663  1.00  0.00    -0.532 OA
HETATM   27  O   UNL     1      -1.734   8.155 -33.642  1.00  0.00    -0.532 OA
ENDBRANCH  22  25
ENDBRANCH   2  19
BRANCH   6  28
HETATM   28  O   UNL     1      -6.620   1.613 -29.333  1.00  0.00    -0.355 OA
HETATM   29  H   UNL     1      -6.926   0.733 -29.658  1.00  0.00     0.218 HD
ENDBRANCH   6  28
BRANCH   3  30
HETATM   30  C   UNL     1      -7.990   5.433 -32.139  1.00  0.00     0.155 C 
BRANCH  30  31
HETATM   31  C   UNL     1      -8.729   5.047 -33.454  1.00  0.00     0.254 C 
BRANCH  31  32
HETATM   32  N   UNL     1     -10.130   4.459 -33.199  1.00  0.00    -0.066 N 
HETATM   33  H   UNL     1     -10.422   4.865 -32.295  1.00  0.00     0.280 HD
HETATM   34  C   UNL     1     -10.116   2.940 -32.974  1.00  0.00     0.262 C 
HETATM   35  C   UNL     1     -10.069   2.140 -34.298  1.00  0.00     0.260 C 
HETATM   36  N   UNL     1     -11.172   2.568 -35.232  1.00  0.00    -0.072 N 
HETATM   37  H   UNL     1     -12.099   2.268 -34.889  1.00  0.00     0.277 HD
HETATM   38  H   UNL     1     -11.062   2.065 -36.130  1.00  0.00     0.277 HD
HETATM   39  C   UNL     1     -11.157   4.050 -35.528  1.00  0.00     0.260 C 
HETATM   40  C   UNL     1     -11.210   4.872 -34.214  1.00  0.00     0.262 C 
ENDBRANCH  31  32
ENDBRANCH  30  31
ENDBRANCH   3  30
TORSDOF 10
ENDMDL
MODEL 2
REMARK VINA RESULT:      -8.8      3.092      5.545
REMARK  10 active torsions:
REMARK  status: ('A' for Active; 'I' for Inactive)
REMARK    1  A    between atoms: C_2  and  O_3 
REMARK    2  A    between atoms: O_3  and  C_4 
REMARK    3  A    between atoms: C_7  and  C_8 
REMARK    4  A    between atoms: C_8  and  C_9 
REMARK    5  A    between atoms: C_10  and  C_11 
REMARK    6  A    between atoms: C_14  and  N_15 
REMARK    7  A    between atoms: N_20  and  C_21 
REMARK    8  A    between atoms: C_21  and  C_22 
REMARK    9  A    between atoms: C_22  and  N_23 
REMARK   10  A    between atoms: C_34  and  O_35 
ROOT
HETATM    1  C   UNL     1      -8.172   2.898 -31.569  1.00  0.00     0.059 C 
HETATM    2  C   UNL     1      -6.713   3.218 -31.496  1.00  0.00     0.161 C 
HETATM    3  N   UNL     1      -6.640   3.966 -30.238  1.00  0.00    -0.332 N 
HETATM    4  C   UNL     1      -7.916   4.295 -29.809  1.00  0.00     0.278 C 
HETATM    5  O   UNL     1      -8.173   5.113 -28.940  1.00  0.00    -0.265 OA
HETATM    6  C   UNL     1      -8.871   3.500 -30.595  1.00  0.00     0.146 C 
ENDROOT
BRANCH   1   7
HETATM    7  C   UNL     1      -8.875   1.993 -32.501  1.00  0.00     0.193 C 
HETATM    8  O   UNL     1     -10.099   2.081 -32.592  1.00  0.00    -0.287 OA
BRANCH   7   9
HETATM    9  C   UNL     1      -8.157   0.982 -33.308  1.00  0.00     0.015 A 
HETATM   10  C   UNL     1      -7.730   1.225 -34.618  1.00  0.00     0.018 A 
HETATM   11  C   UNL     1      -7.105   0.209 -35.350  1.00  0.00     0.038 A 
HETATM   12  C   UNL     1      -6.930  -1.052 -34.783  1.00  0.00     0.069 A 
HETATM   13  C   UNL     1      -7.397  -1.315 -33.498  1.00  0.00     0.038 A 
HETATM   14  C   UNL     1      -8.002  -0.298 -32.757  1.00  0.00     0.018 A 
BRANCH  12  15
HETATM   15  O   UNL     1      -6.434  -2.104 -35.496  1.00  0.00    -0.347 OA
BRANCH  15  16
HETATM   16  C   UNL     1      -5.941  -3.183 -34.687  1.00  0.00     0.120 C 
HETATM   17  C   UNL     1      -4.416  -3.175 -34.735  1.00  0.00     0.040 C 
HETATM   18  C   UNL     1      -6.482  -4.479 -35.282  1.00  0.00     0.040 C 
ENDBRANCH  15  16
ENDBRANCH  12  15
ENDBRANCH   7   9
ENDBRANCH   1   7
BRANCH   2  19
HETATM   19  C   UNL     1      -5.747   2.053 -31.515  1.00  0.00    -0.030 A 
HETATM   20  C   UNL     1      -4.868   1.911 -32.606  1.00  0.00     0.012 A 
HETATM   21  C   UNL     1      -3.948   0.860 -32.659  1.00  0.00     0.037 A 
HETATM   22  C   UNL     1      -3.900  -0.067 -31.613  1.00  0.00     0.102 A 
HETATM   23  C   UNL     1      -4.767   0.056 -30.519  1.00  0.00     0.037 A 
HETATM   24  C   UNL     1      -5.679   1.116 -30.470  1.00  0.00     0.012 A 
BRANCH  22  25
HETATM   25  N   UNL     1      -2.919  -1.160 -31.656  1.00  0.00    -0.116 N 
HETATM   26  O   UNL     1      -3.358  -2.317 -31.704  1.00  0.00    -0.532 OA
HETATM   27  O   UNL     1      -1.721  -0.853 -31.674  1.00  0.00    -0.532 OA
ENDBRANCH  22  25
ENDBRANCH   2  19
BRANCH   6  28
HETATM   28  O   UNL     1     -10.204   3.438 -30.316  1.00  0.00    -0.355 OA
HETATM   29  H   UNL     1     -10.620   4.265 -30.659  1.00  0.00     0.218 HD
ENDBRANCH   6  28
BRANCH   3  30
HETATM   30  C   UNL     1      -5.470   4.743 -29.844  1.00  0.00     0.155 C 
BRANCH  30  31
HETATM   31  C   UNL     1      -4.719   5.412 -31.032  1.00  0.00     0.254 C 
BRANCH  31  32
HETATM   32  N   UNL     1      -3.192   5.450 -30.826  1.00  0.00    -0.066 N 
HETATM   33  H   UNL     1      -3.064   5.331 -29.808  1.00  0.00     0.280 HD
HETATM   34  C   UNL     1      -2.572   6.816 -31.153  1.00  0.00     0.262 C 
HETATM   35  C   UNL     1      -2.328   7.014 -32.669  1.00  0.00     0.260 C 
HETATM   36  N   UNL     1      -1.530   5.873 -33.246  1.00  0.00    -0.072 N 
HETATM   37  H   UNL     1      -0.551   5.887 -32.916  1.00  0.00     0.277 HD
HETATM   38  H   UNL     1      -1.452   6.004 -34.270  1.00  0.00     0.277 HD
HETATM   39  C   UNL     1      -2.164   4.523 -33.000  1.00  0.00     0.260 C 
HETATM   40  C   UNL     1      -2.412   4.299 -31.486  1.00  0.00     0.262 C 
ENDBRANCH  31  32
ENDBRANCH  30  31
ENDBRANCH   3  30
TORSDOF 10
ENDMDL
MODEL 3
REMARK VINA RESULT:      -8.3      2.804      6.591
REMARK  10 active torsions:
REMARK  status: ('A' for Active; 'I' for Inactive)
REMARK    1  A    between atoms: C_2  and  O_3 
REMARK    2  A    between atoms: O_3  and  C_4 
REMARK    3  A    between atoms: C_7  and  C_8 
REMARK    4  A    between atoms: C_8  and  C_9 
REMARK    5  A    between atoms: C_10  and  C_11 
REMARK    6  A    between atoms: C_14  and  N_15 
REMARK    7  A    between atoms: N_20  and  C_21 
REMARK    8  A    between atoms: C_21  and  C_22 
REMARK    9  A    between atoms: C_22  and  N_23 
REMARK   10  A    between atoms: C_34  and  O_35 
ROOT
HETATM    1  C   UNL     1      -7.282   4.026 -32.088  1.00  0.00     0.059 C 
HETATM    2  C   UNL     1      -7.900   2.700 -32.398  1.00  0.00     0.161 C 
HETATM    3  N   UNL     1      -8.544   2.972 -33.686  1.00  0.00    -0.332 N 
HETATM    4  C   UNL     1      -8.558   4.336 -33.930  1.00  0.00     0.278 C 
HETATM    5  O   UNL     1      -9.229   4.888 -34.786  1.00  0.00    -0.265 OA
HETATM    6  C   UNL     1      -7.641   4.971 -32.970  1.00  0.00     0.146 C 
ENDROOT
BRANCH   1   7
HETATM    7  C   UNL     1      -6.325   4.372 -31.018  1.00  0.00     0.193 C 
HETATM    8  O   UNL     1      -6.766   4.647 -29.903  1.00  0.00    -0.287 OA
BRANCH   7   9
HETATM    9  C   UNL     1      -4.864   4.413 -31.252  1.00  0.00     0.015 A 
HETATM   10  C   UNL     1      -4.100   3.260 -31.463  1.00  0.00     0.018 A 
HETATM   11  C   UNL     1      -2.713   3.360 -31.623  1.00  0.00     0.038 A 
HETATM   12  C   UNL     1      -2.090   4.605 -31.548  1.00  0.00     0.069 A 
HETATM   13  C   UNL     1      -2.839   5.749 -31.289  1.00  0.00     0.038 A 
HETATM   14  C   UNL     1      -4.225   5.657 -31.149  1.00  0.00     0.018 A 
BRANCH  12  15
HETATM   15  O   UNL     1      -0.733   4.739 -31.580  1.00  0.00    -0.347 OA
BRANCH  15  16
HETATM   16  C   UNL     1      -0.205   5.623 -30.580  1.00  0.00     0.120 C 
HETATM   17  C   UNL     1       0.576   6.736 -31.272  1.00  0.00     0.040 C 
HETATM   18  C   UNL     1       0.723   4.799 -29.692  1.00  0.00     0.040 C 
ENDBRANCH  15  16
ENDBRANCH  12  15
ENDBRANCH   7   9
ENDBRANCH   1   7
BRANCH   2  19
HETATM   19  C   UNL     1      -6.975   1.505 -32.474  1.00  0.00    -0.030 A 
HETATM   20  C   UNL     1      -6.263   1.265 -33.665  1.00  0.00     0.012 A 
HETATM   21  C   UNL     1      -5.387   0.183 -33.777  1.00  0.00     0.037 A 
HETATM   22  C   UNL     1      -5.213  -0.679 -32.688  1.00  0.00     0.102 A 
HETATM   23  C   UNL     1      -5.913  -0.458 -31.494  1.00  0.00     0.037 A 
HETATM   24  C   UNL     1      -6.783   0.633 -31.389  1.00  0.00     0.012 A 
BRANCH  22  25
HETATM   25  N   UNL     1      -4.276  -1.805 -32.794  1.00  0.00    -0.116 N 
HETATM   26  O   UNL     1      -3.597  -2.076 -31.794  1.00  0.00    -0.532 OA
HETATM   27  O   UNL     1      -4.250  -2.428 -33.862  1.00  0.00    -0.532 OA
ENDBRANCH  22  25
ENDBRANCH   2  19
BRANCH   6  28
HETATM   28  O   UNL     1      -7.273   6.282 -33.038  1.00  0.00    -0.355 OA
HETATM   29  H   UNL     1      -7.933   6.804 -32.524  1.00  0.00     0.218 HD
ENDBRANCH   6  28
BRANCH   3  30
HETATM   30  C   UNL     1      -9.520   2.072 -34.291  1.00  0.00     0.155 C 
BRANCH  30  31
HETATM   31  C   UNL     1     -10.883   2.011 -33.541  1.00  0.00     0.254 C 
BRANCH  31  32
HETATM   32  N   UNL     1     -12.038   2.628 -34.354  1.00  0.00    -0.066 N 
HETATM   33  H   UNL     1     -11.571   3.177 -35.093  1.00  0.00     0.280 HD
HETATM   34  C   UNL     1     -12.862   3.646 -33.554  1.00  0.00     0.262 C 
HETATM   35  C   UNL     1     -13.920   2.976 -32.643  1.00  0.00     0.260 C 
HETATM   36  N   UNL     1     -14.790   2.027 -33.427  1.00  0.00    -0.072 N 
HETATM   37  H   UNL     1     -15.421   2.531 -34.070  1.00  0.00     0.277 HD
HETATM   38  H   UNL     1     -15.432   1.546 -32.771  1.00  0.00     0.277 HD
HETATM   39  C   UNL     1     -14.000   0.967 -34.160  1.00  0.00     0.260 C 
HETATM   40  C   UNL     1     -12.938   1.616 -35.085  1.00  0.00     0.262 C 
ENDBRANCH  31  32
ENDBRANCH  30  31
ENDBRANCH   3  30
TORSDOF 10
ENDMDL
MODEL 4
REMARK VINA RESULT:      -8.2      3.308      7.214
REMARK  10 active torsions:
REMARK  status: ('A' for Active; 'I' for Inactive)
REMARK    1  A    between atoms: C_2  and  O_3 
REMARK    2  A    between atoms: O_3  and  C_4 
REMARK    3  A    between atoms: C_7  and  C_8 
REMARK    4  A    between atoms: C_8  and  C_9 
REMARK    5  A    between atoms: C_10  and  C_11 
REMARK    6  A    between atoms: C_14  and  N_15 
REMARK    7  A    between atoms: N_20  and  C_21 
REMARK    8  A    between atoms: C_21  and  C_22 
REMARK    9  A    between atoms: C_22  and  N_23 
REMARK   10  A    between atoms: C_34  and  O_35 
ROOT
HETATM    1  C   UNL     1      -2.791   6.161 -32.413  1.00  0.00     0.059 C 
HETATM    2  C   UNL     1      -3.345   6.307 -31.032  1.00  0.00     0.161 C 
HETATM    3  N   UNL     1      -3.254   7.756 -30.832  1.00  0.00    -0.332 N 
HETATM    4  C   UNL     1      -2.476   8.323 -31.829  1.00  0.00     0.278 C 
HETATM    5  O   UNL     1      -2.018   9.454 -31.801  1.00  0.00    -0.265 OA
HETATM    6  C   UNL     1      -2.302   7.316 -32.887  1.00  0.00     0.146 C 
ENDROOT
BRANCH   1   7
HETATM    7  C   UNL     1      -2.784   4.969 -33.285  1.00  0.00     0.193 C 
HETATM    8  O   UNL     1      -1.912   4.880 -34.149  1.00  0.00    -0.287 OA
BRANCH   7   9
HETATM    9  C   UNL     1      -3.798   3.898 -33.162  1.00  0.00     0.015 A 
HETATM   10  C   UNL     1      -3.551   2.698 -32.486  1.00  0.00     0.018 A 
HETATM   11  C   UNL     1      -4.531   1.700 -32.452  1.00  0.00     0.038 A 
HETATM   12  C   UNL     1      -5.744   1.891 -33.113  1.00  0.00     0.069 A 
HETATM   13  C   UNL     1      -5.976   3.061 -33.828  1.00  0.00     0.038 A 
HETATM   14  C   UNL     1      -5.009   4.068 -33.847  1.00  0.00     0.018 A 
BRANCH  12  15
HETATM   15  O   UNL     1      -6.681   0.903 -33.206  1.00  0.00    -0.347 OA
BRANCH  15  16
HETATM   16  C   UNL     1      -6.555   0.082 -34.377  1.00  0.00     0.120 C 
HETATM   17  C   UNL     1      -7.855   0.157 -35.170  1.00  0.00     0.040 C 
HETATM   18  C   UNL     1      -6.305  -1.346 -33.903  1.00  0.00     0.040 C 
ENDBRANCH  15  16
ENDBRANCH  12  15
ENDBRANCH   7   9
ENDBRANCH   1   7
BRANCH   2  19
HETATM   19  C   UNL     1      -4.747   5.793 -30.789  1.00  0.00    -0.030 A 
HETATM   20  C   UNL     1      -5.830   6.439 -31.416  1.00  0.00     0.012 A 
HETATM   21  C   UNL     1      -7.141   5.991 -31.234  1.00  0.00     0.037 A 
HETATM   22  C   UNL     1      -7.384   4.884 -30.414  1.00  0.00     0.102 A 
HETATM   23  C   UNL     1      -6.320   4.228 -29.780  1.00  0.00     0.037 A 
HETATM   24  C   UNL     1      -5.009   4.679 -29.974  1.00  0.00     0.012 A 
BRANCH  22  25
HETATM   25  N   UNL     1      -8.758   4.397 -30.238  1.00  0.00    -0.116 N 
HETATM   26  O   UNL     1      -8.927   3.171 -30.199  1.00  0.00    -0.532 OA
HETATM   27  O   UNL     1      -9.652   5.242 -30.106  1.00  0.00    -0.532 OA
ENDBRANCH  22  25
ENDBRANCH   2  19
BRANCH   6  28
HETATM   28  O   UNL     1      -1.742   7.591 -34.099  1.00  0.00    -0.355 OA
HETATM   29  H   UNL     1      -1.025   6.930 -34.254  1.00  0.00     0.218 HD
ENDBRANCH   6  28
BRANCH   3  30
HETATM   30  C   UNL     1      -3.416   8.389 -29.528  1.00  0.00     0.155 C 
BRANCH  30  31
HETATM   31  C   UNL     1      -2.402   7.902 -28.451  1.00  0.00     0.254 C 
BRANCH  31  32
HETATM   32  N   UNL     1      -3.018   6.889 -27.467  1.00  0.00    -0.066 N 
HETATM   33  H   UNL     1      -2.969   5.983 -27.962  1.00  0.00     0.280 HD
HETATM   34  C   UNL     1      -4.513   7.128 -27.210  1.00  0.00     0.262 C 
HETATM   35  C   UNL     1      -4.769   8.237 -26.160  1.00  0.00     0.260 C 
HETATM   36  N   UNL     1      -4.007   7.968 -24.888  1.00  0.00    -0.072 N 
HETATM   37  H   UNL     1      -4.396   7.160 -24.375  1.00  0.00     0.277 HD
HETATM   38  H   UNL     1      -4.145   8.766 -24.242  1.00  0.00     0.277 HD
HETATM   39  C   UNL     1      -2.521   7.805 -25.110  1.00  0.00     0.260 C 
HETATM   40  C   UNL     1      -2.240   6.694 -26.154  1.00  0.00     0.262 C 
ENDBRANCH  31  32
ENDBRANCH  30  31
ENDBRANCH   3  30
TORSDOF 10
ENDMDL
MODEL 5
REMARK VINA RESULT:      -8.1      2.709      7.968
REMARK  10 active torsions:
REMARK  status: ('A' for Active; 'I' for Inactive)
REMARK    1  A    between atoms: C_2  and  O_3 
REMARK    2  A    between atoms: O_3  and  C_4 
REMARK    3  A    between atoms: C_7  and  C_8 
REMARK    4  A    between atoms: C_8  and  C_9 
REMARK    5  A    between atoms: C_10  and  C_11 
REMARK    6  A    between atoms: C_14  and  N_15 
REMARK    7  A    between atoms: N_20  and  C_21 
REMARK    8  A    between atoms: C_21  and  C_22 
REMARK    9  A    between atoms: C_22  and  N_23 
REMARK   10  A    between atoms: C_34  and  O_35 
ROOT
HETATM    1  C   UNL     1      -7.486   1.904 -31.959  1.00  0.00     0.059 C 
HETATM    2  C   UNL     1      -6.233   1.720 -32.754  1.00  0.00     0.161 C 
HETATM    3  N   UNL     1      -5.219   2.221 -31.821  1.00  0.00    -0.332 N 
HETATM    4  C   UNL     1      -5.829   2.883 -30.768  1.00  0.00     0.278 C 
HETATM    5  O   UNL     1      -5.257   3.609 -29.972  1.00  0.00    -0.265 OA
HETATM    6  C   UNL     1      -7.264   2.559 -30.809  1.00  0.00     0.146 C 
ENDROOT
BRANCH   1   7
HETATM    7  C   UNL     1      -8.848   1.417 -32.254  1.00  0.00     0.193 C 
HETATM    8  O   UNL     1      -9.221   0.367 -31.729  1.00  0.00    -0.287 OA
BRANCH   7   9
HETATM    9  C   UNL     1      -9.761   2.137 -33.167  1.00  0.00     0.015 A 
HETATM   10  C   UNL     1      -9.456   3.392 -33.706  1.00  0.00     0.018 A 
HETATM   11  C   UNL     1     -10.385   4.049 -34.520  1.00  0.00     0.038 A 
HETATM   12  C   UNL     1     -11.625   3.465 -34.775  1.00  0.00     0.069 A 
HETATM   13  C   UNL     1     -11.954   2.240 -34.201  1.00  0.00     0.038 A 
HETATM   14  C   UNL     1     -11.022   1.572 -33.405  1.00  0.00     0.018 A 
BRANCH  12  15
HETATM   15  O   UNL     1     -12.605   4.117 -35.464  1.00  0.00    -0.347 OA
BRANCH  15  16
HETATM   16  C   UNL     1     -12.758   5.498 -35.103  1.00  0.00     0.120 C 
HETATM   17  C   UNL     1     -13.598   5.583 -33.832  1.00  0.00     0.040 C 
HETATM   18  C   UNL     1     -13.475   6.191 -36.258  1.00  0.00     0.040 C 
ENDBRANCH  15  16
ENDBRANCH  12  15
ENDBRANCH   7   9
ENDBRANCH   1   7
BRANCH   2  19
HETATM   19  C   UNL     1      -5.915   0.320 -33.232  1.00  0.00    -0.030 A 
HETATM   20  C   UNL     1      -6.526  -0.157 -34.408  1.00  0.00     0.012 A 
HETATM   21  C   UNL     1      -6.252  -1.437 -34.895  1.00  0.00     0.037 A 
HETATM   22  C   UNL     1      -5.357  -2.261 -34.204  1.00  0.00     0.102 A 
HETATM   23  C   UNL     1      -4.740  -1.806 -33.031  1.00  0.00     0.037 A 
HETATM   24  C   UNL     1      -5.014  -0.519 -32.554  1.00  0.00     0.012 A 
BRANCH  22  25
HETATM   25  N   UNL     1      -5.049  -3.599 -34.726  1.00  0.00    -0.116 N 
HETATM   26  O   UNL     1      -3.966  -4.102 -34.399  1.00  0.00    -0.532 OA
HETATM   27  O   UNL     1      -5.906  -4.149 -35.429  1.00  0.00    -0.532 OA
ENDBRANCH  22  25
ENDBRANCH   2  19
BRANCH   6  28
HETATM   28  O   UNL     1      -8.137   2.894 -29.816  1.00  0.00    -0.355 OA
HETATM   29  H   UNL     1      -8.692   2.100 -29.627  1.00  0.00     0.218 HD
ENDBRANCH   6  28
BRANCH   3  30
HETATM   30  C   UNL     1      -3.847   2.513 -32.223  1.00  0.00     0.155 C 
BRANCH  30  31
HETATM   31  C   UNL     1      -3.674   3.871 -32.964  1.00  0.00     0.254 C 
BRANCH  31  32
HETATM   32  N   UNL     1      -2.196   4.266 -33.147  1.00  0.00    -0.066 N 
HETATM   33  H   UNL     1      -1.701   3.368 -33.270  1.00  0.00     0.280 HD
HETATM   34  C   UNL     1      -1.580   4.900 -31.892  1.00  0.00     0.262 C 
HETATM   35  C   UNL     1      -1.919   6.404 -31.754  1.00  0.00     0.260 C 
HETATM   36  N   UNL     1      -1.562   7.160 -33.009  1.00  0.00    -0.072 N 
HETATM   37  H   UNL     1      -0.539   7.230 -33.134  1.00  0.00     0.277 HD
HETATM   38  H   UNL     1      -1.871   8.143 -32.905  1.00  0.00     0.277 HD
HETATM   39  C   UNL     1      -2.221   6.597 -34.248  1.00  0.00     0.260 C 
HETATM   40  C   UNL     1      -1.890   5.091 -34.410  1.00  0.00     0.262 C 
ENDBRANCH  31  32
ENDBRANCH  30  31
ENDBRANCH   3  30
TORSDOF 10
ENDMDL
MODEL 6
REMARK VINA RESULT:      -8.0      3.713      7.740
REMARK  10 active torsions:
REMARK  status: ('A' for Active; 'I' for Inactive)
REMARK    1  A    between atoms: C_2  and  O_3 
REMARK    2  A    between atoms: O_3  and  C_4 
REMARK    3  A    between atoms: C_7  and  C_8 
REMARK    4  A    between atoms: C_8  and  C_9 
REMARK    5  A    between atoms: C_10  and  C_11 
REMARK    6  A    between atoms: C_14  and  N_15 
REMARK    7  A    between atoms: N_20  and  C_21 
REMARK    8  A    between atoms: C_21  and  C_22 
REMARK    9  A    between atoms: C_22  and  N_23 
REMARK   10  A    between atoms: C_34  and  O_35 
ROOT
HETATM    1  C   UNL     1      -3.400   6.425 -33.417  1.00  0.00     0.059 C 
HETATM    2  C   UNL     1      -4.768   6.658 -32.859  1.00  0.00     0.161 C 
HETATM    3  N   UNL     1      -5.508   5.522 -33.414  1.00  0.00    -0.332 N 
HETATM    4  C   UNL     1      -4.754   4.900 -34.396  1.00  0.00     0.278 C 
HETATM    5  O   UNL     1      -5.183   4.089 -35.201  1.00  0.00    -0.265 OA
HETATM    6  C   UNL     1      -3.377   5.407 -34.290  1.00  0.00     0.146 C 
ENDROOT
BRANCH   1   7
HETATM    7  C   UNL     1      -2.136   7.110 -33.081  1.00  0.00     0.193 C 
HETATM    8  O   UNL     1      -1.619   7.835 -33.931  1.00  0.00    -0.287 OA
BRANCH   7   9
HETATM    9  C   UNL     1      -1.471   6.936 -31.771  1.00  0.00     0.015 A 
HETATM   10  C   UNL     1      -1.471   7.930 -30.786  1.00  0.00     0.018 A 
HETATM   11  C   UNL     1      -0.777   7.727 -29.588  1.00  0.00     0.038 A 
HETATM   12  C   UNL     1      -0.063   6.546 -29.386  1.00  0.00     0.069 A 
HETATM   13  C   UNL     1      -0.018   5.576 -30.382  1.00  0.00     0.038 A 
HETATM   14  C   UNL     1      -0.727   5.765 -31.571  1.00  0.00     0.018 A 
BRANCH  12  15
HETATM   15  O   UNL     1       0.722   6.354 -28.288  1.00  0.00    -0.347 OA
BRANCH  15  16
HETATM   16  C   UNL     1       0.267   7.039 -27.112  1.00  0.00     0.120 C 
HETATM   17  C   UNL     1       1.479   7.553 -26.343  1.00  0.00     0.040 C 
HETATM   18  C   UNL     1      -0.504   6.027 -26.268  1.00  0.00     0.040 C 
ENDBRANCH  15  16
ENDBRANCH  12  15
ENDBRANCH   7   9
ENDBRANCH   1   7
BRANCH   2  19
HETATM   19  C   UNL     1      -4.899   6.733 -31.354  1.00  0.00    -0.030 A 
HETATM   20  C   UNL     1      -4.639   5.582 -30.586  1.00  0.00     0.012 A 
HETATM   21  C   UNL     1      -4.732   5.607 -29.192  1.00  0.00     0.037 A 
HETATM   22  C   UNL     1      -5.093   6.795 -28.547  1.00  0.00     0.102 A 
HETATM   23  C   UNL     1      -5.357   7.952 -29.293  1.00  0.00     0.037 A 
HETATM   24  C   UNL     1      -5.253   7.919 -30.688  1.00  0.00     0.012 A 
BRANCH  22  25
HETATM   25  N   UNL     1      -5.170   6.832 -27.081  1.00  0.00    -0.116 N 
HETATM   26  O   UNL     1      -5.155   5.747 -26.483  1.00  0.00    -0.532 OA
HETATM   27  O   UNL     1      -5.212   7.943 -26.538  1.00  0.00    -0.532 OA
ENDBRANCH  22  25
ENDBRANCH   2  19
BRANCH   6  28
HETATM   28  O   UNL     1      -2.328   4.880 -34.984  1.00  0.00    -0.355 OA
HETATM   29  H   UNL     1      -2.584   4.853 -35.937  1.00  0.00     0.218 HD
ENDBRANCH   6  28
BRANCH   3  30
HETATM   30  C   UNL     1      -6.964   5.436 -33.391  1.00  0.00     0.155 C 
BRANCH  30  31
HETATM   31  C   UNL     1      -7.523   4.332 -32.445  1.00  0.00     0.254 C 
BRANCH  31  32
HETATM   32  N   UNL     1      -7.102   2.913 -32.872  1.00  0.00    -0.066 N 
HETATM   33  H   UNL     1      -6.669   3.039 -33.801  1.00  0.00     0.280 HD
HETATM   34  C   UNL     1      -8.294   1.974 -33.105  1.00  0.00     0.262 C 
HETATM   35  C   UNL     1      -8.844   1.368 -31.791  1.00  0.00     0.260 C 
HETATM   36  N   UNL     1      -7.746   0.710 -30.993  1.00  0.00    -0.072 N 
HETATM   37  H   UNL     1      -7.411  -0.155 -31.448  1.00  0.00     0.277 HD
HETATM   38  H   UNL     1      -8.139   0.385 -30.092  1.00  0.00     0.277 HD
HETATM   39  C   UNL     1      -6.596   1.642 -30.687  1.00  0.00     0.260 C 
HETATM   40  C   UNL     1      -6.024   2.256 -31.990  1.00  0.00     0.262 C 
ENDBRANCH  31  32
ENDBRANCH  30  31
ENDBRANCH   3  30
TORSDOF 10
ENDMDL
MODEL 7
REMARK VINA RESULT:      -7.9      3.759      8.638
REMARK  10 active torsions:
REMARK  status: ('A' for Active; 'I' for Inactive)
REMARK    1  A    between atoms: C_2  and  O_3 
REMARK    2  A    between atoms: O_3  and  C_4 
REMARK    3  A    between atoms: C_7  and  C_8 
REMARK    4  A    between atoms: C_8  and  C_9 
REMARK    5  A    between atoms: C_10  and  C_11 
REMARK    6  A    between atoms: C_14  and  N_15 
REMARK    7  A    between atoms: N_20  and  C_21 
REMARK    8  A    between atoms: C_21  and  C_22 
REMARK    9  A    between atoms: C_22  and  N_23 
REMARK   10  A    between atoms: C_34  and  O_35 
ROOT
HETATM    1  C   UNL     1      -7.283   1.918 -31.221  1.00  0.00     0.059 C 
HETATM    2  C   UNL     1      -7.434   1.577 -32.669  1.00  0.00     0.161 C 
HETATM    3  N   UNL     1      -6.709   0.305 -32.747  1.00  0.00    -0.332 N 
HETATM    4  C   UNL     1      -5.984   0.102 -31.584  1.00  0.00     0.278 C 
HETATM    5  O   UNL     1      -5.102  -0.730 -31.445  1.00  0.00    -0.265 OA
HETATM    6  C   UNL     1      -6.463   1.068 -30.584  1.00  0.00     0.146 C 
ENDROOT
BRANCH   1   7
HETATM    7  C   UNL     1      -7.950   2.985 -30.448  1.00  0.00     0.193 C 
HETATM    8  O   UNL     1      -7.552   3.217 -29.306  1.00  0.00    -0.287 OA
BRANCH   7   9
HETATM    9  C   UNL     1      -9.082   3.763 -30.995  1.00  0.00     0.015 A 
HETATM   10  C   UNL     1      -8.903   4.901 -31.790  1.00  0.00     0.018 A 
HETATM   11  C   UNL     1     -10.014   5.627 -32.232  1.00  0.00     0.038 A 
HETATM   12  C   UNL     1     -11.299   5.232 -31.861  1.00  0.00     0.069 A 
HETATM   13  C   UNL     1     -11.481   4.131 -31.030  1.00  0.00     0.038 A 
HETATM   14  C   UNL     1     -10.376   3.391 -30.604  1.00  0.00     0.018 A 
BRANCH  12  15
HETATM   15  O   UNL     1     -12.402   5.973 -32.170  1.00  0.00    -0.347 OA
BRANCH  15  16
HETATM   16  C   UNL     1     -13.394   5.264 -32.926  1.00  0.00     0.120 C 
HETATM   17  C   UNL     1     -12.942   5.192 -34.382  1.00  0.00     0.040 C 
HETATM   18  C   UNL     1     -14.697   6.050 -32.815  1.00  0.00     0.040 C 
ENDBRANCH  15  16
ENDBRANCH  12  15
ENDBRANCH   7   9
ENDBRANCH   1   7
BRANCH   2  19
HETATM   19  C   UNL     1      -8.842   1.455 -33.209  1.00  0.00    -0.030 A 
HETATM   20  C   UNL     1      -9.680   0.438 -32.711  1.00  0.00     0.012 A 
HETATM   21  C   UNL     1     -10.993   0.296 -33.169  1.00  0.00     0.037 A 
HETATM   22  C   UNL     1     -11.483   1.177 -34.139  1.00  0.00     0.102 A 
HETATM   23  C   UNL     1     -10.665   2.194 -34.648  1.00  0.00     0.037 A 
HETATM   24  C   UNL     1      -9.354   2.334 -34.178  1.00  0.00     0.012 A 
BRANCH  22  25
HETATM   25  N   UNL     1     -12.870   1.045 -34.606  1.00  0.00    -0.116 N 
HETATM   26  O   UNL     1     -13.267   1.861 -35.449  1.00  0.00    -0.532 OA
HETATM   27  O   UNL     1     -13.538   0.108 -34.154  1.00  0.00    -0.532 OA
ENDBRANCH  22  25
ENDBRANCH   2  19
BRANCH   6  28
HETATM   28  O   UNL     1      -6.097   1.033 -29.271  1.00  0.00    -0.355 OA
HETATM   29  H   UNL     1      -6.805   1.483 -28.751  1.00  0.00     0.218 HD
ENDBRANCH   6  28
BRANCH   3  30
HETATM   30  C   UNL     1      -6.326  -0.313 -34.012  1.00  0.00     0.155 C 
BRANCH  30  31
HETATM   31  C   UNL     1      -6.540  -1.854 -34.059  1.00  0.00     0.254 C 
BRANCH  31  32
HETATM   32  N   UNL     1      -5.593  -2.556 -35.052  1.00  0.00    -0.066 N 
HETATM   33  H   UNL     1      -5.559  -1.926 -35.869  1.00  0.00     0.280 HD
HETATM   34  C   UNL     1      -6.153  -3.882 -35.587  1.00  0.00     0.262 C 
HETATM   35  C   UNL     1      -5.933  -5.062 -34.609  1.00  0.00     0.260 C 
HETATM   36  N   UNL     1      -4.483  -5.175 -34.211  1.00  0.00    -0.072 N 
HETATM   37  H   UNL     1      -3.896  -5.497 -34.996  1.00  0.00     0.277 HD
HETATM   38  H   UNL     1      -4.390  -5.925 -33.502  1.00  0.00     0.277 HD
HETATM   39  C   UNL     1      -3.933  -3.901 -33.610  1.00  0.00     0.260 C 
HETATM   40  C   UNL     1      -4.137  -2.706 -34.575  1.00  0.00     0.262 C 
ENDBRANCH  31  32
ENDBRANCH  30  31
ENDBRANCH   3  30
TORSDOF 10
ENDMDL
MODEL 8
REMARK VINA RESULT:      -7.9      2.417      5.206
REMARK  10 active torsions:
REMARK  status: ('A' for Active; 'I' for Inactive)
REMARK    1  A    between atoms: C_2  and  O_3 
REMARK    2  A    between atoms: O_3  and  C_4 
REMARK    3  A    between atoms: C_7  and  C_8 
REMARK    4  A    between atoms: C_8  and  C_9 
REMARK    5  A    between atoms: C_10  and  C_11 
REMARK    6  A    between atoms: C_14  and  N_15 
REMARK    7  A    between atoms: N_20  and  C_21 
REMARK    8  A    between atoms: C_21  and  C_22 
REMARK    9  A    between atoms: C_22  and  N_23 
REMARK   10  A    between atoms: C_34  and  O_35 
ROOT
HETATM    1  C   UNL     1      -5.251   2.338 -30.819  1.00  0.00     0.059 C 
HETATM    2  C   UNL     1      -6.289   3.409 -30.922  1.00  0.00     0.161 C 
HETATM    3  N   UNL     1      -5.509   4.520 -31.474  1.00  0.00    -0.332 N 
HETATM    4  C   UNL     1      -4.157   4.228 -31.408  1.00  0.00     0.278 C 
HETATM    5  O   UNL     1      -3.257   5.039 -31.560  1.00  0.00    -0.265 OA
HETATM    6  C   UNL     1      -4.023   2.794 -31.111  1.00  0.00     0.146 C 
ENDROOT
BRANCH   1   7
HETATM    7  C   UNL     1      -5.428   0.904 -30.515  1.00  0.00     0.193 C 
HETATM    8  O   UNL     1      -5.632   0.574 -29.346  1.00  0.00    -0.287 OA
BRANCH   7   9
HETATM    9  C   UNL     1      -5.351  -0.139 -31.561  1.00  0.00     0.015 A 
HETATM   10  C   UNL     1      -4.176  -0.846 -31.838  1.00  0.00     0.018 A 
HETATM   11  C   UNL     1      -4.151  -1.781 -32.878  1.00  0.00     0.038 A 
HETATM   12  C   UNL     1      -5.290  -1.991 -33.656  1.00  0.00     0.069 A 
HETATM   13  C   UNL     1      -6.446  -1.254 -33.417  1.00  0.00     0.038 A 
HETATM   14  C   UNL     1      -6.482  -0.335 -32.367  1.00  0.00     0.018 A 
BRANCH  12  15
HETATM   15  O   UNL     1      -5.279  -2.804 -34.751  1.00  0.00    -0.347 OA
BRANCH  15  16
HETATM   16  C   UNL     1      -5.783  -4.126 -34.507  1.00  0.00     0.120 C 
HETATM   17  C   UNL     1      -4.602  -5.072 -34.313  1.00  0.00     0.040 C 
HETATM   18  C   UNL     1      -6.593  -4.535 -35.734  1.00  0.00     0.040 C 
ENDBRANCH  15  16
ENDBRANCH  12  15
ENDBRANCH   7   9
ENDBRANCH   1   7
BRANCH   2  19
HETATM   19  C   UNL     1      -7.513   3.109 -31.760  1.00  0.00    -0.030 A 
HETATM   20  C   UNL     1      -8.743   2.877 -31.115  1.00  0.00     0.012 A 
HETATM   21  C   UNL     1      -9.903   2.611 -31.848  1.00  0.00     0.037 A 
HETATM   22  C   UNL     1      -9.842   2.573 -33.245  1.00  0.00     0.102 A 
HETATM   23  C   UNL     1      -8.627   2.800 -33.905  1.00  0.00     0.037 A 
HETATM   24  C   UNL     1      -7.472   3.074 -33.164  1.00  0.00     0.012 A 
BRANCH  22  25
HETATM   25  N   UNL     1     -11.064   2.316 -34.019  1.00  0.00    -0.116 N 
HETATM   26  O   UNL     1     -11.226   2.968 -35.060  1.00  0.00    -0.532 OA
HETATM   27  O   UNL     1     -11.833   1.443 -33.600  1.00  0.00    -0.532 OA
ENDBRANCH  22  25
ENDBRANCH   2  19
BRANCH   6  28
HETATM   28  O   UNL     1      -2.835   2.127 -31.151  1.00  0.00    -0.355 OA
HETATM   29  H   UNL     1      -2.956   1.335 -31.728  1.00  0.00     0.218 HD
ENDBRANCH   6  28
BRANCH   3  30
HETATM   30  C   UNL     1      -6.001   5.893 -31.509  1.00  0.00     0.155 C 
BRANCH  30  31
HETATM   31  C   UNL     1      -6.275   6.509 -30.106  1.00  0.00     0.254 C 
BRANCH  31  32
HETATM   32  N   UNL     1      -7.379   7.583 -30.132  1.00  0.00    -0.066 N 
HETATM   33  H   UNL     1      -6.947   8.388 -30.615  1.00  0.00     0.280 HD
HETATM   34  C   UNL     1      -7.751   8.102 -28.736  1.00  0.00     0.262 C 
HETATM   35  C   UNL     1      -8.739   7.168 -27.995  1.00  0.00     0.260 C 
HETATM   36  N   UNL     1      -9.954   6.882 -28.839  1.00  0.00    -0.072 N 
HETATM   37  H   UNL     1     -10.555   7.716 -28.937  1.00  0.00     0.277 HD
HETATM   38  H   UNL     1     -10.552   6.198 -28.341  1.00  0.00     0.277 HD
HETATM   39  C   UNL     1      -9.613   6.297 -30.191  1.00  0.00     0.260 C 
HETATM   40  C   UNL     1      -8.628   7.220 -30.955  1.00  0.00     0.262 C 
ENDBRANCH  31  32
ENDBRANCH  30  31
ENDBRANCH   3  30
TORSDOF 10
ENDMDL
MODEL 9
REMARK VINA RESULT:      -7.8      2.775      7.222
REMARK  10 active torsions:
REMARK  status: ('A' for Active; 'I' for Inactive)
REMARK    1  A    between atoms: C_2  and  O_3 
REMARK    2  A    between atoms: O_3  and  C_4 
REMARK    3  A    between atoms: C_7  and  C_8 
REMARK    4  A    between atoms: C_8  and  C_9 
REMARK    5  A    between atoms: C_10  and  C_11 
REMARK    6  A    between atoms: C_14  and  N_15 
REMARK    7  A    between atoms: N_20  and  C_21 
REMARK    8  A    between atoms: C_21  and  C_22 
REMARK    9  A    between atoms: C_22  and  N_23 
REMARK   10  A    between atoms: C_34  and  O_35 
ROOT
HETATM    1  C   UNL     1      -7.684   2.621 -31.755  1.00  0.00     0.059 C 
HETATM    2  C   UNL     1      -6.487   2.003 -32.404  1.00  0.00     0.161 C 
HETATM    3  N   UNL     1      -7.109   1.199 -33.460  1.00  0.00    -0.332 N 
HETATM    4  C   UNL     1      -8.476   1.122 -33.253  1.00  0.00     0.278 C 
HETATM    5  O   UNL     1      -9.226   0.337 -33.811  1.00  0.00    -0.265 OA
HETATM    6  C   UNL     1      -8.834   2.133 -32.246  1.00  0.00     0.146 C 
ENDROOT
BRANCH   1   7
HETATM    7  C   UNL     1      -7.736   3.693 -30.741  1.00  0.00     0.193 C 
HETATM    8  O   UNL     1      -8.673   3.699 -29.942  1.00  0.00    -0.287 OA
BRANCH   7   9
HETATM    9  C   UNL     1      -6.713   4.759 -30.670  1.00  0.00     0.015 A 
HETATM   10  C   UNL     1      -5.686   4.759 -29.720  1.00  0.00     0.018 A 
HETATM   11  C   UNL     1      -4.781   5.825 -29.668  1.00  0.00     0.038 A 
HETATM   12  C   UNL     1      -4.918   6.900 -30.546  1.00  0.00     0.069 A 
HETATM   13  C   UNL     1      -5.967   6.929 -31.460  1.00  0.00     0.038 A 
HETATM   14  C   UNL     1      -6.860   5.858 -31.529  1.00  0.00     0.018 A 
BRANCH  12  15
HETATM   15  O   UNL     1      -4.134   8.013 -30.456  1.00  0.00    -0.347 OA
BRANCH  15  16
HETATM   16  C   UNL     1      -2.839   7.775 -29.884  1.00  0.00     0.120 C 
HETATM   17  C   UNL     1      -2.490   8.937 -28.959  1.00  0.00     0.040 C 
HETATM   18  C   UNL     1      -1.842   7.699 -31.037  1.00  0.00     0.040 C 
ENDBRANCH  15  16
ENDBRANCH  12  15
ENDBRANCH   7   9
ENDBRANCH   1   7
BRANCH   2  19
HETATM   19  C   UNL     1      -5.436   2.941 -32.956  1.00  0.00    -0.030 A 
HETATM   20  C   UNL     1      -5.762   3.766 -34.050  1.00  0.00     0.012 A 
HETATM   21  C   UNL     1      -4.829   4.658 -34.584  1.00  0.00     0.037 A 
HETATM   22  C   UNL     1      -3.549   4.734 -34.024  1.00  0.00     0.102 A 
HETATM   23  C   UNL     1      -3.204   3.921 -32.936  1.00  0.00     0.037 A 
HETATM   24  C   UNL     1      -4.147   3.035 -32.403  1.00  0.00     0.012 A 
BRANCH  22  25
HETATM   25  N   UNL     1      -2.572   5.687 -34.569  1.00  0.00    -0.116 N 
HETATM   26  O   UNL     1      -2.721   6.882 -34.280  1.00  0.00    -0.532 OA
HETATM   27  O   UNL     1      -1.648   5.230 -35.252  1.00  0.00    -0.532 OA
ENDBRANCH  22  25
ENDBRANCH   2  19
BRANCH   6  28
HETATM   28  O   UNL     1     -10.120   2.458 -31.932  1.00  0.00    -0.355 OA
HETATM   29  H   UNL     1     -10.433   1.814 -31.252  1.00  0.00     0.218 HD
ENDBRANCH   6  28
BRANCH   3  30
HETATM   30  C   UNL     1      -6.384   0.180 -34.211  1.00  0.00     0.155 C 
BRANCH  30  31
HETATM   31  C   UNL     1      -5.727  -0.919 -33.325  1.00  0.00     0.254 C 
BRANCH  31  32
HETATM   32  N   UNL     1      -4.268  -1.212 -33.725  1.00  0.00    -0.066 N 
HETATM   33  H   UNL     1      -4.240  -1.047 -34.745  1.00  0.00     0.280 HD
HETATM   34  C   UNL     1      -3.876  -2.685 -33.543  1.00  0.00     0.262 C 
HETATM   35  C   UNL     1      -3.497  -3.026 -32.081  1.00  0.00     0.260 C 
HETATM   36  N   UNL     1      -2.441  -2.085 -31.558  1.00  0.00    -0.072 N 
HETATM   37  H   UNL     1      -1.527  -2.250 -32.010  1.00  0.00     0.277 HD
HETATM   38  H   UNL     1      -2.270  -2.298 -30.559  1.00  0.00     0.277 HD
HETATM   39  C   UNL     1      -2.840  -0.631 -31.659  1.00  0.00     0.260 C 
HETATM   40  C   UNL     1      -3.218  -0.265 -33.117  1.00  0.00     0.262 C 
ENDBRANCH  31  32
ENDBRANCH  30  31
ENDBRANCH   3  30
TORSDOF 10
ENDMDL
MODEL 10
REMARK VINA RESULT:      -7.7      3.333      7.209
REMARK  10 active torsions:
REMARK  status: ('A' for Active; 'I' for Inactive)
REMARK    1  A    between atoms: C_2  and  O_3 
REMARK    2  A    between atoms: O_3  and  C_4 
REMARK    3  A    between atoms: C_7  and  C_8 
REMARK    4  A    between atoms: C_8  and  C_9 
REMARK    5  A    between atoms: C_10  and  C_11 
REMARK    6  A    between atoms: C_14  and  N_15 
REMARK    7  A    between atoms: N_20  and  C_21 
REMARK    8  A    between atoms: C_21  and  C_22 
REMARK    9  A    between atoms: C_22  and  N_23 
REMARK   10  A    between atoms: C_34  and  O_35 
ROOT
HETATM    1  C   UNL     1      -4.104   5.354 -33.270  1.00  0.00     0.059 C 
HETATM    2  C   UNL     1      -3.721   5.889 -31.927  1.00  0.00     0.161 C 
HETATM    3  N   UNL     1      -2.793   6.963 -32.294  1.00  0.00    -0.332 N 
HETATM    4  C   UNL     1      -2.453   6.857 -33.633  1.00  0.00     0.278 C 
HETATM    5  O   UNL     1      -1.527   7.444 -34.169  1.00  0.00    -0.265 OA
HETATM    6  C   UNL     1      -3.392   5.913 -34.259  1.00  0.00     0.146 C 
ENDROOT
BRANCH   1   7
HETATM    7  C   UNL     1      -5.162   4.382 -33.610  1.00  0.00     0.193 C 
HETATM    8  O   UNL     1      -6.180   4.795 -34.165  1.00  0.00    -0.287 OA
BRANCH   7   9
HETATM    9  C   UNL     1      -5.042   2.943 -33.288  1.00  0.00     0.015 A 
HETATM   10  C   UNL     1      -6.087   2.034 -33.491  1.00  0.00     0.018 A 
HETATM   11  C   UNL     1      -5.932   0.695 -33.115  1.00  0.00     0.038 A 
HETATM   12  C   UNL     1      -4.747   0.272 -32.516  1.00  0.00     0.069 A 
HETATM   13  C   UNL     1      -3.723   1.182 -32.266  1.00  0.00     0.038 A 
HETATM   14  C   UNL     1      -3.866   2.514 -32.659  1.00  0.00     0.018 A 
BRANCH  12  15
HETATM   15  O   UNL     1      -4.594  -0.993 -32.027  1.00  0.00    -0.347 OA
BRANCH  15  16
HETATM   16  C   UNL     1      -3.701  -1.815 -32.793  1.00  0.00     0.120 C 
HETATM   17  C   UNL     1      -4.497  -2.510 -33.894  1.00  0.00     0.040 C 
HETATM   18  C   UNL     1      -3.104  -2.846 -31.840  1.00  0.00     0.040 C 
ENDBRANCH  15  16
ENDBRANCH  12  15
ENDBRANCH   7   9
ENDBRANCH   1   7
BRANCH   2  19
HETATM   19  C   UNL     1      -4.837   6.391 -31.037  1.00  0.00    -0.030 A 
HETATM   20  C   UNL     1      -5.034   5.787 -29.780  1.00  0.00     0.012 A 
HETATM   21  C   UNL     1      -6.042   6.226 -28.919  1.00  0.00     0.037 A 
HETATM   22  C   UNL     1      -6.872   7.283 -29.310  1.00  0.00     0.102 A 
HETATM   23  C   UNL     1      -6.693   7.897 -30.557  1.00  0.00     0.037 A 
HETATM   24  C   UNL     1      -5.675   7.455 -31.410  1.00  0.00     0.012 A 
BRANCH  22  25
HETATM   25  N   UNL     1      -7.918   7.762 -28.398  1.00  0.00    -0.116 N 
HETATM   26  O   UNL     1      -7.609   7.920 -27.209  1.00  0.00    -0.532 OA
HETATM   27  O   UNL     1      -9.030   8.008 -28.882  1.00  0.00    -0.532 OA
ENDBRANCH  22  25
ENDBRANCH   2  19
BRANCH   6  28
HETATM   28  O   UNL     1      -3.463   5.708 -35.605  1.00  0.00    -0.355 OA
HETATM   29  H   UNL     1      -3.120   4.801 -35.788  1.00  0.00     0.218 HD
ENDBRANCH   6  28
BRANCH   3  30
HETATM   30  C   UNL     1      -1.922   7.623 -31.328  1.00  0.00     0.155 C 
BRANCH  30  31
HETATM   31  C   UNL     1      -0.840   6.693 -30.704  1.00  0.00     0.254 C 
BRANCH  31  32
HETATM   32  N   UNL     1      -1.120   6.364 -29.225  1.00  0.00    -0.066 N 
HETATM   33  H   UNL     1      -1.707   5.515 -29.254  1.00  0.00     0.280 HD
HETATM   34  C   UNL     1      -1.978   7.425 -28.521  1.00  0.00     0.262 C 
HETATM   35  C   UNL     1      -1.152   8.645 -28.047  1.00  0.00     0.260 C 
HETATM   36  N   UNL     1       0.024   8.214 -27.208  1.00  0.00    -0.072 N 
HETATM   37  H   UNL     1      -0.277   7.850 -26.289  1.00  0.00     0.277 HD
HETATM   38  H   UNL     1       0.591   9.048 -26.974  1.00  0.00     0.277 HD
HETATM   39  C   UNL     1       0.925   7.226 -27.913  1.00  0.00     0.260 C 
HETATM   40  C   UNL     1       0.119   5.991 -28.390  1.00  0.00     0.262 C 
ENDBRANCH  31  32
ENDBRANCH  30  31
ENDBRANCH   3  30
TORSDOF 10
ENDMDL
