MODEL 1
REMARK VINA RESULT:      -8.7      0.000      0.000
REMARK  5 active torsions:
REMARK  status: ('A' for Active; 'I' for Inactive)
REMARK    1  A    between atoms: C_4  and  C_5 
REMARK       I    between atoms: C_5  and  N_6 
REMARK    2  A    between atoms: N_6  and  C_7 
REMARK    3  A    between atoms: C_10  and  C_11 
REMARK    4  A    between atoms: C_11  and  N_12 
REMARK       I    between atoms: N_12  and  C_13 
REMARK       I    between atoms: C_13  and  N_14 
REMARK    5  A    between atoms: N_14  and  C_15 
ROOT
HETATM    1  C   UNL     1      -2.965   5.248 -31.416  1.00  0.00     0.035 A 
HETATM    2  C   UNL     1      -3.491   6.041 -32.436  1.00  0.00     0.030 A 
HETATM    3  C   UNL     1      -4.473   5.536 -33.293  1.00  0.00     0.011 A 
HETATM    4  C   UNL     1      -4.955   4.231 -33.139  1.00  0.00    -0.040 A 
HETATM    5  C   UNL     1      -4.380   3.414 -32.159  1.00  0.00     0.011 A 
HETATM    6  C   UNL     1      -3.393   3.920 -31.307  1.00  0.00     0.030 A 
ENDROOT
BRANCH   4   7
HETATM    7  C   UNL     1      -6.097   3.741 -33.983  1.00  0.00     0.162 C 
BRANCH   7   8
HETATM    8  N   UNL     1      -6.996   2.866 -33.270  1.00  0.00    -0.339 N 
HETATM    9  C   UNL     1      -6.984   1.498 -33.218  1.00  0.00     0.321 C 
HETATM   10  N   UNL     1      -5.995   0.901 -33.954  1.00  0.00    -0.306 N 
HETATM   11  O   UNL     1      -7.845   0.946 -32.546  1.00  0.00    -0.247 OA
HETATM   12  H   UNL     1      -5.533   1.499 -34.617  1.00  0.00     0.171 HD
HETATM   13  H   UNL     1      -7.725   3.277 -32.701  1.00  0.00     0.164 HD
BRANCH  10  14
HETATM   14  C   UNL     1      -5.628  -0.463 -34.022  1.00  0.00     0.075 A 
HETATM   15  C   UNL     1      -6.303  -1.473 -34.719  1.00  0.00     0.144 A 
HETATM   16  F   UNL     1      -7.437  -1.246 -35.391  1.00  0.00    -0.204 F 
HETATM   17  C   UNL     1      -5.841  -2.792 -34.706  1.00  0.00     0.063 A 
HETATM   18  C   UNL     1      -4.702  -3.119 -33.978  1.00  0.00     0.014 A 
HETATM   19 BR   UNL     1      -4.081  -4.903 -33.950  1.00  0.00    -0.051 Br
HETATM   20  C   UNL     1      -4.024  -2.140 -33.261  1.00  0.00     0.021 A 
HETATM   21  C   UNL     1      -4.487  -0.821 -33.284  1.00  0.00     0.034 A 
ENDBRANCH  10  14
ENDBRANCH   7   8
ENDBRANCH   4   7
BRANCH   1  22
HETATM   22  N   UNL     1      -2.054   5.713 -30.449  1.00  0.00    -0.321 N 
HETATM   23  C   UNL     1      -0.677   5.562 -30.430  1.00  0.00     0.279 C 
HETATM   24  O   UNL     1      -0.022   4.888 -31.218  1.00  0.00    -0.265 OA
HETATM   25  H   UNL     1      -2.421   6.314 -29.719  1.00  0.00     0.169 HD
BRANCH  23  26
HETATM   26  C   UNL     1      -0.046   6.332 -29.371  1.00  0.00     0.142 A 
HETATM   27  O   UNL     1      -0.123   5.890 -28.074  1.00  0.00    -0.317 OA
HETATM   28  C   UNL     1       0.520   6.804 -27.302  1.00  0.00     0.143 A 
HETATM   29  C   UNL     1       1.010   7.830 -28.074  1.00  0.00     0.027 A 
HETATM   30  C   UNL     1       0.650   7.525 -29.409  1.00  0.00     0.045 A 
ENDBRANCH  23  26
ENDBRANCH   1  22
TORSDOF 5
ENDMDL
MODEL 2
REMARK VINA RESULT:      -8.4      4.439     10.203
REMARK  5 active torsions:
REMARK  status: ('A' for Active; 'I' for Inactive)
REMARK    1  A    between atoms: C_4  and  C_5 
REMARK       I    between atoms: C_5  and  N_6 
REMARK    2  A    between atoms: N_6  and  C_7 
REMARK    3  A    between atoms: C_10  and  C_11 
REMARK    4  A    between atoms: C_11  and  N_12 
REMARK       I    between atoms: N_12  and  C_13 
REMARK       I    between atoms: C_13  and  N_14 
REMARK    5  A    between atoms: N_14  and  C_15 
ROOT
HETATM    1  C   UNL     1      -5.037   0.606 -32.300  1.00  0.00     0.035 A 
HETATM    2  C   UNL     1      -5.974   1.470 -31.734  1.00  0.00     0.030 A 
HETATM    3  C   UNL     1      -5.603   2.757 -31.333  1.00  0.00     0.011 A 
HETATM    4  C   UNL     1      -4.288   3.206 -31.500  1.00  0.00    -0.040 A 
HETATM    5  C   UNL     1      -3.333   2.318 -32.006  1.00  0.00     0.011 A 
HETATM    6  C   UNL     1      -3.707   1.029 -32.401  1.00  0.00     0.030 A 
ENDROOT
BRANCH   4   7
HETATM    7  C   UNL     1      -3.928   4.630 -31.183  1.00  0.00     0.162 C 
BRANCH   7   8
HETATM    8  N   UNL     1      -2.694   5.055 -31.798  1.00  0.00    -0.339 N 
HETATM    9  C   UNL     1      -1.667   5.764 -31.236  1.00  0.00     0.321 C 
HETATM   10  N   UNL     1      -1.859   6.119 -29.927  1.00  0.00    -0.306 N 
HETATM   11  O   UNL     1      -0.701   6.022 -31.941  1.00  0.00    -0.247 OA
HETATM   12  H   UNL     1      -2.801   6.021 -29.589  1.00  0.00     0.171 HD
HETATM   13  H   UNL     1      -2.515   4.792 -32.759  1.00  0.00     0.164 HD
BRANCH  10  14
HETATM   14  C   UNL     1      -0.962   6.736 -29.025  1.00  0.00     0.075 A 
HETATM   15  C   UNL     1       0.248   6.205 -28.561  1.00  0.00     0.144 A 
HETATM   16  F   UNL     1       0.678   4.988 -28.910  1.00  0.00    -0.204 F 
HETATM   17  C   UNL     1       1.049   6.913 -27.661  1.00  0.00     0.063 A 
HETATM   18  C   UNL     1       0.640   8.160 -27.202  1.00  0.00     0.014 A 
HETATM   19 BR   UNL     1       1.716   9.115 -25.979  1.00  0.00    -0.051 Br
HETATM   20  C   UNL     1      -0.566   8.702 -27.631  1.00  0.00     0.021 A 
HETATM   21  C   UNL     1      -1.361   7.992 -28.537  1.00  0.00     0.034 A 
ENDBRANCH  10  14
ENDBRANCH   7   8
ENDBRANCH   4   7
BRANCH   1  22
HETATM   22  N   UNL     1      -5.353  -0.662 -32.825  1.00  0.00    -0.321 N 
HETATM   23  C   UNL     1      -5.883  -0.963 -34.069  1.00  0.00     0.279 C 
HETATM   24  O   UNL     1      -6.273  -0.146 -34.895  1.00  0.00    -0.265 OA
HETATM   25  H   UNL     1      -5.079  -1.470 -32.277  1.00  0.00     0.169 HD
BRANCH  23  26
HETATM   26  C   UNL     1      -5.904  -2.392 -34.334  1.00  0.00     0.142 A 
HETATM   27  O   UNL     1      -4.737  -3.112 -34.262  1.00  0.00    -0.317 OA
HETATM   28  C   UNL     1      -5.042  -4.397 -34.579  1.00  0.00     0.143 A 
HETATM   29  C   UNL     1      -6.381  -4.523 -34.856  1.00  0.00     0.027 A 
HETATM   30  C   UNL     1      -6.940  -3.233 -34.693  1.00  0.00     0.045 A 
ENDBRANCH  23  26
ENDBRANCH   1  22
TORSDOF 5
ENDMDL
MODEL 3
REMARK VINA RESULT:      -8.4      1.785      2.508
REMARK  5 active torsions:
REMARK  status: ('A' for Active; 'I' for Inactive)
REMARK    1  A    between atoms: C_4  and  C_5 
REMARK       I    between atoms: C_5  and  N_6 
REMARK    2  A    between atoms: N_6  and  C_7 
REMARK    3  A    between atoms: C_10  and  C_11 
REMARK    4  A    between atoms: C_11  and  N_12 
REMARK       I    between atoms: N_12  and  C_13 
REMARK       I    between atoms: C_13  and  N_14 
REMARK    5  A    between atoms: N_14  and  C_15 
ROOT
HETATM    1  C   UNL     1      -4.780   4.951 -32.420  1.00  0.00     0.035 A 
HETATM    2  C   UNL     1      -5.941   5.054 -31.655  1.00  0.00     0.030 A 
HETATM    3  C   UNL     1      -7.162   4.586 -32.150  1.00  0.00     0.011 A 
HETATM    4  C   UNL     1      -7.241   3.996 -33.418  1.00  0.00    -0.040 A 
HETATM    5  C   UNL     1      -6.090   3.953 -34.211  1.00  0.00     0.011 A 
HETATM    6  C   UNL     1      -4.871   4.428 -33.715  1.00  0.00     0.030 A 
ENDROOT
BRANCH   4   7
HETATM    7  C   UNL     1      -8.529   3.384 -33.889  1.00  0.00     0.162 C 
BRANCH   7   8
HETATM    8  N   UNL     1      -8.978   2.294 -33.057  1.00  0.00    -0.339 N 
HETATM    9  C   UNL     1      -8.443   1.039 -32.942  1.00  0.00     0.321 C 
HETATM   10  N   UNL     1      -7.353   0.801 -33.736  1.00  0.00    -0.306 N 
HETATM   11  O   UNL     1      -8.983   0.259 -32.169  1.00  0.00    -0.247 OA
HETATM   12  H   UNL     1      -7.198   1.476 -34.465  1.00  0.00     0.171 HD
HETATM   13  H   UNL     1      -9.770   2.444 -32.444  1.00  0.00     0.164 HD
BRANCH  10  14
HETATM   14  C   UNL     1      -6.500  -0.325 -33.773  1.00  0.00     0.075 A 
HETATM   15  C   UNL     1      -5.190  -0.393 -33.280  1.00  0.00     0.144 A 
HETATM   16  F   UNL     1      -4.574   0.661 -32.734  1.00  0.00    -0.204 F 
HETATM   17  C   UNL     1      -4.441  -1.569 -33.380  1.00  0.00     0.063 A 
HETATM   18  C   UNL     1      -4.991  -2.690 -33.992  1.00  0.00     0.014 A 
HETATM   19 BR   UNL     1      -3.978  -4.278 -34.138  1.00  0.00    -0.051 Br
HETATM   20  C   UNL     1      -6.282  -2.644 -34.507  1.00  0.00     0.021 A 
HETATM   21  C   UNL     1      -7.029  -1.467 -34.398  1.00  0.00     0.034 A 
ENDBRANCH  10  14
ENDBRANCH   7   8
ENDBRANCH   4   7
BRANCH   1  22
HETATM   22  N   UNL     1      -3.498   5.301 -31.955  1.00  0.00    -0.321 N 
HETATM   23  C   UNL     1      -2.469   4.456 -31.571  1.00  0.00     0.279 C 
HETATM   24  O   UNL     1      -2.547   3.236 -31.470  1.00  0.00    -0.265 OA
HETATM   25  H   UNL     1      -3.246   6.282 -31.986  1.00  0.00     0.169 HD
BRANCH  23  26
HETATM   26  C   UNL     1      -1.227   5.168 -31.322  1.00  0.00     0.142 A 
HETATM   27  O   UNL     1      -0.245   4.575 -30.568  1.00  0.00    -0.317 OA
HETATM   28  C   UNL     1       0.778   5.464 -30.475  1.00  0.00     0.143 A 
HETATM   29  C   UNL     1       0.476   6.621 -31.152  1.00  0.00     0.027 A 
HETATM   30  C   UNL     1      -0.814   6.430 -31.702  1.00  0.00     0.045 A 
ENDBRANCH  23  26
ENDBRANCH   1  22
TORSDOF 5
ENDMDL
MODEL 4
REMARK VINA RESULT:      -8.0      1.361      1.918
REMARK  5 active torsions:
REMARK  status: ('A' for Active; 'I' for Inactive)
REMARK    1  A    between atoms: C_4  and  C_5 
REMARK       I    between atoms: C_5  and  N_6 
REMARK    2  A    between atoms: N_6  and  C_7 
REMARK    3  A    between atoms: C_10  and  C_11 
REMARK    4  A    between atoms: C_11  and  N_12 
REMARK       I    between atoms: N_12  and  C_13 
REMARK       I    between atoms: C_13  and  N_14 
REMARK    5  A    between atoms: N_14  and  C_15 
ROOT
HETATM    1  C   UNL     1      -4.244   5.198 -31.351  1.00  0.00     0.035 A 
HETATM    2  C   UNL     1      -4.931   4.045 -30.971  1.00  0.00     0.030 A 
HETATM    3  C   UNL     1      -5.942   3.521 -31.782  1.00  0.00     0.011 A 
HETATM    4  C   UNL     1      -6.277   4.135 -32.995  1.00  0.00    -0.040 A 
HETATM    5  C   UNL     1      -5.635   5.328 -33.344  1.00  0.00     0.011 A 
HETATM    6  C   UNL     1      -4.627   5.853 -32.527  1.00  0.00     0.030 A 
ENDROOT
BRANCH   4   7
HETATM    7  C   UNL     1      -7.275   3.495 -33.918  1.00  0.00     0.162 C 
BRANCH   7   8
HETATM    8  N   UNL     1      -8.064   2.470 -33.280  1.00  0.00    -0.339 N 
HETATM    9  C   UNL     1      -7.829   1.122 -33.239  1.00  0.00     0.321 C 
HETATM   10  N   UNL     1      -6.707   0.711 -33.908  1.00  0.00    -0.306 N 
HETATM   11  O   UNL     1      -8.632   0.423 -32.635  1.00  0.00    -0.247 OA
HETATM   12  H   UNL     1      -6.305   1.390 -34.530  1.00  0.00     0.171 HD
HETATM   13  H   UNL     1      -8.889   2.744 -32.761  1.00  0.00     0.164 HD
BRANCH  10  14
HETATM   14  C   UNL     1      -6.115  -0.572 -33.961  1.00  0.00     0.075 A 
HETATM   15  C   UNL     1      -4.853  -0.927 -33.467  1.00  0.00     0.144 A 
HETATM   16  F   UNL     1      -4.027  -0.038 -32.905  1.00  0.00    -0.204 F 
HETATM   17  C   UNL     1      -4.373  -2.234 -33.585  1.00  0.00     0.063 A 
HETATM   18  C   UNL     1      -5.148  -3.202 -34.215  1.00  0.00     0.014 A 
HETATM   19 BR   UNL     1      -4.499  -4.968 -34.385  1.00  0.00    -0.051 Br
HETATM   20  C   UNL     1      -6.396  -2.872 -34.732  1.00  0.00     0.021 A 
HETATM   21  C   UNL     1      -6.874  -1.564 -34.605  1.00  0.00     0.034 A 
ENDBRANCH  10  14
ENDBRANCH   7   8
ENDBRANCH   4   7
BRANCH   1  22
HETATM   22  N   UNL     1      -3.147   5.728 -30.646  1.00  0.00    -0.321 N 
HETATM   23  C   UNL     1      -1.799   5.492 -30.862  1.00  0.00     0.279 C 
HETATM   24  O   UNL     1      -1.334   4.680 -31.654  1.00  0.00    -0.265 OA
HETATM   25  H   UNL     1      -3.344   6.442 -29.954  1.00  0.00     0.169 HD
BRANCH  23  26
HETATM   26  C   UNL     1      -0.948   6.354 -30.059  1.00  0.00     0.142 A 
HETATM   27  O   UNL     1      -1.504   7.122 -29.066  1.00  0.00    -0.317 OA
HETATM   28  C   UNL     1      -0.496   7.838 -28.504  1.00  0.00     0.143 A 
HETATM   29  C   UNL     1       0.700   7.551 -29.115  1.00  0.00     0.027 A 
HETATM   30  C   UNL     1       0.412   6.591 -30.114  1.00  0.00     0.045 A 
ENDBRANCH  23  26
ENDBRANCH   1  22
TORSDOF 5
ENDMDL
MODEL 5
REMARK VINA RESULT:      -7.8      4.703      9.654
REMARK  5 active torsions:
REMARK  status: ('A' for Active; 'I' for Inactive)
REMARK    1  A    between atoms: C_4  and  C_5 
REMARK       I    between atoms: C_5  and  N_6 
REMARK    2  A    between atoms: N_6  and  C_7 
REMARK    3  A    between atoms: C_10  and  C_11 
REMARK    4  A    between atoms: C_11  and  N_12 
REMARK       I    between atoms: N_12  and  C_13 
REMARK       I    between atoms: C_13  and  N_14 
REMARK    5  A    between atoms: N_14  and  C_15 
ROOT
HETATM    1  C   UNL     1      -4.243   1.560 -31.938  1.00  0.00     0.035 A 
HETATM    2  C   UNL     1      -3.592   2.650 -32.512  1.00  0.00     0.030 A 
HETATM    3  C   UNL     1      -3.756   3.935 -31.986  1.00  0.00     0.011 A 
HETATM    4  C   UNL     1      -4.569   4.150 -30.866  1.00  0.00    -0.040 A 
HETATM    5  C   UNL     1      -5.276   3.068 -30.331  1.00  0.00     0.011 A 
HETATM    6  C   UNL     1      -5.113   1.784 -30.864  1.00  0.00     0.030 A 
ENDROOT
BRANCH   4   7
HETATM    7  C   UNL     1      -4.640   5.510 -30.232  1.00  0.00     0.162 C 
BRANCH   7   8
HETATM    8  N   UNL     1      -3.769   6.475 -30.857  1.00  0.00    -0.339 N 
HETATM    9  C   UNL     1      -2.669   7.093 -30.327  1.00  0.00     0.321 C 
HETATM   10  N   UNL     1      -2.383   6.751 -29.032  1.00  0.00    -0.306 N 
HETATM   11  O   UNL     1      -2.064   7.886 -31.036  1.00  0.00    -0.247 OA
HETATM   12  H   UNL     1      -3.117   6.267 -28.544  1.00  0.00     0.171 HD
HETATM   13  H   UNL     1      -3.943   6.734 -31.820  1.00  0.00     0.164 HD
BRANCH  10  14
HETATM   14  C   UNL     1      -1.268   7.102 -28.238  1.00  0.00     0.075 A 
HETATM   15  C   UNL     1       0.015   6.544 -28.311  1.00  0.00     0.144 A 
HETATM   16  F   UNL     1       0.317   5.550 -29.153  1.00  0.00    -0.204 F 
HETATM   17  C   UNL     1       1.039   6.974 -27.463  1.00  0.00     0.063 A 
HETATM   18  C   UNL     1       0.787   7.962 -26.517  1.00  0.00     0.014 A 
HETATM   19 BR   UNL     1       2.166   8.539 -25.363  1.00  0.00    -0.051 Br
HETATM   20  C   UNL     1      -0.483   8.519 -26.409  1.00  0.00     0.021 A 
HETATM   21  C   UNL     1      -1.502   8.090 -27.265  1.00  0.00     0.034 A 
ENDBRANCH  10  14
ENDBRANCH   7   8
ENDBRANCH   4   7
BRANCH   1  22
HETATM   22  N   UNL     1      -4.049   0.225 -32.341  1.00  0.00    -0.321 N 
HETATM   23  C   UNL     1      -3.092  -0.671 -31.893  1.00  0.00     0.279 C 
HETATM   24  O   UNL     1      -2.169  -0.408 -31.130  1.00  0.00    -0.265 OA
HETATM   25  H   UNL     1      -4.740  -0.175 -32.965  1.00  0.00     0.169 HD
BRANCH  23  26
HETATM   26  C   UNL     1      -3.308  -2.016 -32.399  1.00  0.00     0.142 A 
HETATM   27  O   UNL     1      -3.992  -2.195 -33.576  1.00  0.00    -0.317 OA
HETATM   28  C   UNL     1      -4.069  -3.534 -33.792  1.00  0.00     0.143 A 
HETATM   29  C   UNL     1      -3.453  -4.225 -32.777  1.00  0.00     0.027 A 
HETATM   30  C   UNL     1      -2.957  -3.248 -31.881  1.00  0.00     0.045 A 
ENDBRANCH  23  26
ENDBRANCH   1  22
TORSDOF 5
ENDMDL
MODEL 6
REMARK VINA RESULT:      -7.8      4.556     10.094
REMARK  5 active torsions:
REMARK  status: ('A' for Active; 'I' for Inactive)
REMARK    1  A    between atoms: C_4  and  C_5 
REMARK       I    between atoms: C_5  and  N_6 
REMARK    2  A    between atoms: N_6  and  C_7 
REMARK    3  A    between atoms: C_10  and  C_11 
REMARK    4  A    between atoms: C_11  and  N_12 
REMARK       I    between atoms: N_12  and  C_13 
REMARK       I    between atoms: C_13  and  N_14 
REMARK    5  A    between atoms: N_14  and  C_15 
ROOT
HETATM    1  C   UNL     1      -4.486   1.821 -32.666  1.00  0.00     0.035 A 
HETATM    2  C   UNL     1      -5.205   2.947 -33.064  1.00  0.00     0.030 A 
HETATM    3  C   UNL     1      -4.790   4.227 -32.683  1.00  0.00     0.011 A 
HETATM    4  C   UNL     1      -3.640   4.404 -31.905  1.00  0.00    -0.040 A 
HETATM    5  C   UNL     1      -2.956   3.271 -31.450  1.00  0.00     0.011 A 
HETATM    6  C   UNL     1      -3.378   1.992 -31.829  1.00  0.00     0.030 A 
ENDROOT
BRANCH   4   7
HETATM    7  C   UNL     1      -3.132   5.786 -31.607  1.00  0.00     0.162 C 
BRANCH   7   8
HETATM    8  N   UNL     1      -3.730   6.370 -30.432  1.00  0.00    -0.339 N 
HETATM    9  C   UNL     1      -3.111   6.794 -29.287  1.00  0.00     0.321 C 
HETATM   10  N   UNL     1      -1.753   6.620 -29.266  1.00  0.00    -0.306 N 
HETATM   11  O   UNL     1      -3.813   7.266 -28.402  1.00  0.00    -0.247 OA
HETATM   12  H   UNL     1      -1.387   6.012 -29.979  1.00  0.00     0.171 HD
HETATM   13  H   UNL     1      -4.730   6.529 -30.424  1.00  0.00     0.164 HD
BRANCH  10  14
HETATM   14  C   UNL     1      -0.808   7.053 -28.308  1.00  0.00     0.075 A 
HETATM   15  C   UNL     1      -0.793   6.723 -26.947  1.00  0.00     0.144 A 
HETATM   16  F   UNL     1      -1.736   5.960 -26.383  1.00  0.00    -0.204 F 
HETATM   17  C   UNL     1       0.196   7.220 -26.094  1.00  0.00     0.063 A 
HETATM   18  C   UNL     1       1.177   8.071 -26.593  1.00  0.00     0.014 A 
HETATM   19 BR   UNL     1       2.509   8.754 -25.441  1.00  0.00    -0.051 Br
HETATM   20  C   UNL     1       1.173   8.432 -27.936  1.00  0.00     0.021 A 
HETATM   21  C   UNL     1       0.185   7.925 -28.786  1.00  0.00     0.034 A 
ENDBRANCH  10  14
ENDBRANCH   7   8
ENDBRANCH   4   7
BRANCH   1  22
HETATM   22  N   UNL     1      -4.776   0.511 -33.093  1.00  0.00    -0.321 N 
HETATM   23  C   UNL     1      -5.906  -0.244 -32.823  1.00  0.00     0.279 C 
HETATM   24  O   UNL     1      -6.812   0.074 -32.062  1.00  0.00    -0.265 OA
HETATM   25  H   UNL     1      -4.135   0.088 -33.755  1.00  0.00     0.169 HD
BRANCH  23  26
HETATM   26  C   UNL     1      -5.941  -1.483 -33.582  1.00  0.00     0.142 A 
HETATM   27  O   UNL     1      -7.151  -2.035 -33.923  1.00  0.00    -0.317 OA
HETATM   28  C   UNL     1      -6.888  -3.186 -34.595  1.00  0.00     0.143 A 
HETATM   29  C   UNL     1      -5.533  -3.391 -34.693  1.00  0.00     0.027 A 
HETATM   30  C   UNL     1      -4.921  -2.292 -34.045  1.00  0.00     0.045 A 
ENDBRANCH  23  26
ENDBRANCH   1  22
TORSDOF 5
ENDMDL
MODEL 7
REMARK VINA RESULT:      -7.7      3.858      5.242
REMARK  5 active torsions:
REMARK  status: ('A' for Active; 'I' for Inactive)
REMARK    1  A    between atoms: C_4  and  C_5 
REMARK       I    between atoms: C_5  and  N_6 
REMARK    2  A    between atoms: N_6  and  C_7 
REMARK    3  A    between atoms: C_10  and  C_11 
REMARK    4  A    between atoms: C_11  and  N_12 
REMARK       I    between atoms: N_12  and  C_13 
REMARK       I    between atoms: C_13  and  N_14 
REMARK    5  A    between atoms: N_14  and  C_15 
ROOT
HETATM    1  C   UNL     1      -3.662   2.764 -31.526  1.00  0.00     0.035 A 
HETATM    2  C   UNL     1      -4.994   3.147 -31.370  1.00  0.00     0.030 A 
HETATM    3  C   UNL     1      -6.028   2.242 -31.627  1.00  0.00     0.011 A 
HETATM    4  C   UNL     1      -5.748   0.933 -32.036  1.00  0.00    -0.040 A 
HETATM    5  C   UNL     1      -4.415   0.568 -32.257  1.00  0.00     0.011 A 
HETATM    6  C   UNL     1      -3.383   1.478 -32.004  1.00  0.00     0.030 A 
ENDROOT
BRANCH   4   7
HETATM    7  C   UNL     1      -6.859  -0.068 -32.188  1.00  0.00     0.162 C 
BRANCH   7   8
HETATM    8  N   UNL     1      -7.242  -0.287 -33.561  1.00  0.00    -0.339 N 
HETATM    9  C   UNL     1      -8.230   0.336 -34.275  1.00  0.00     0.321 C 
HETATM   10  N   UNL     1      -8.945   1.273 -33.576  1.00  0.00    -0.306 N 
HETATM   11  O   UNL     1      -8.391  -0.002 -35.440  1.00  0.00    -0.247 OA
HETATM   12  H   UNL     1      -8.823   1.249 -32.578  1.00  0.00     0.171 HD
HETATM   13  H   UNL     1      -6.721  -0.959 -34.110  1.00  0.00     0.164 HD
BRANCH  10  14
HETATM   14  C   UNL     1      -9.934   2.172 -34.036  1.00  0.00     0.075 A 
HETATM   15  C   UNL     1     -11.283   1.876 -34.271  1.00  0.00     0.144 A 
HETATM   16  F   UNL     1     -11.785   0.647 -34.114  1.00  0.00    -0.204 F 
HETATM   17  C   UNL     1     -12.166   2.855 -34.733  1.00  0.00     0.063 A 
HETATM   18  C   UNL     1     -11.706   4.144 -34.980  1.00  0.00     0.014 A 
HETATM   19 BR   UNL     1     -12.895   5.467 -35.614  1.00  0.00    -0.051 Br
HETATM   20  C   UNL     1     -10.367   4.459 -34.774  1.00  0.00     0.021 A 
HETATM   21  C   UNL     1      -9.489   3.478 -34.305  1.00  0.00     0.034 A 
ENDBRANCH  10  14
ENDBRANCH   7   8
ENDBRANCH   4   7
BRANCH   1  22
HETATM   22  N   UNL     1      -2.565   3.578 -31.188  1.00  0.00    -0.321 N 
HETATM   23  C   UNL     1      -1.865   4.451 -32.005  1.00  0.00     0.279 C 
HETATM   24  O   UNL     1      -2.025   4.580 -33.214  1.00  0.00    -0.265 OA
HETATM   25  H   UNL     1      -2.299   3.613 -30.210  1.00  0.00     0.169 HD
BRANCH  23  26
HETATM   26  C   UNL     1      -0.910   5.260 -31.268  1.00  0.00     0.142 A 
HETATM   27  O   UNL     1      -0.205   4.700 -30.231  1.00  0.00    -0.317 OA
HETATM   28  C   UNL     1       0.583   5.677 -29.712  1.00  0.00     0.143 A 
HETATM   29  C   UNL     1       0.399   6.859 -30.388  1.00  0.00     0.027 A 
HETATM   30  C   UNL     1      -0.559   6.591 -31.395  1.00  0.00     0.045 A 
ENDBRANCH  23  26
ENDBRANCH   1  22
TORSDOF 5
ENDMDL
MODEL 8
REMARK VINA RESULT:      -7.7      4.899      9.867
REMARK  5 active torsions:
REMARK  status: ('A' for Active; 'I' for Inactive)
REMARK    1  A    between atoms: C_4  and  C_5 
REMARK       I    between atoms: C_5  and  N_6 
REMARK    2  A    between atoms: N_6  and  C_7 
REMARK    3  A    between atoms: C_10  and  C_11 
REMARK    4  A    between atoms: C_11  and  N_12 
REMARK       I    between atoms: N_12  and  C_13 
REMARK       I    between atoms: C_13  and  N_14 
REMARK    5  A    between atoms: N_14  and  C_15 
ROOT
HETATM    1  C   UNL     1     -10.138   1.242 -33.334  1.00  0.00     0.035 A 
HETATM    2  C   UNL     1      -9.263   1.950 -34.156  1.00  0.00     0.030 A 
HETATM    3  C   UNL     1      -7.980   1.457 -34.419  1.00  0.00     0.011 A 
HETATM    4  C   UNL     1      -7.555   0.241 -33.872  1.00  0.00    -0.040 A 
HETATM    5  C   UNL     1      -8.409  -0.436 -32.994  1.00  0.00     0.011 A 
HETATM    6  C   UNL     1      -9.689   0.063 -32.728  1.00  0.00     0.030 A 
ENDROOT
BRANCH   4   7
HETATM    7  C   UNL     1      -6.226  -0.341 -34.260  1.00  0.00     0.162 C 
BRANCH   7   8
HETATM    8  N   UNL     1      -5.353  -0.566 -33.134  1.00  0.00    -0.339 N 
HETATM    9  C   UNL     1      -4.647   0.357 -32.412  1.00  0.00     0.321 C 
HETATM   10  N   UNL     1      -4.787   1.652 -32.835  1.00  0.00    -0.306 N 
HETATM   11  O   UNL     1      -3.960  -0.050 -31.484  1.00  0.00    -0.247 OA
HETATM   12  H   UNL     1      -5.203   1.764 -33.743  1.00  0.00     0.171 HD
HETATM   13  H   UNL     1      -5.243  -1.510 -32.786  1.00  0.00     0.164 HD
BRANCH  10  14
HETATM   14  C   UNL     1      -4.305   2.844 -32.248  1.00  0.00     0.075 A 
HETATM   15  C   UNL     1      -5.005   3.682 -31.370  1.00  0.00     0.144 A 
HETATM   16  F   UNL     1      -6.272   3.447 -31.012  1.00  0.00    -0.204 F 
HETATM   17  C   UNL     1      -4.419   4.842 -30.858  1.00  0.00     0.063 A 
HETATM   18  C   UNL     1      -3.126   5.189 -31.233  1.00  0.00     0.014 A 
HETATM   19 BR   UNL     1      -2.334   6.762 -30.550  1.00  0.00    -0.051 Br
HETATM   20  C   UNL     1      -2.415   4.386 -32.119  1.00  0.00     0.021 A 
HETATM   21  C   UNL     1      -3.004   3.222 -32.622  1.00  0.00     0.034 A 
ENDBRANCH  10  14
ENDBRANCH   7   8
ENDBRANCH   4   7
BRANCH   1  22
HETATM   22  N   UNL     1     -11.477   1.615 -33.105  1.00  0.00    -0.321 N 
HETATM   23  C   UNL     1     -12.535   1.592 -33.999  1.00  0.00     0.279 C 
HETATM   24  O   UNL     1     -12.452   1.337 -35.195  1.00  0.00    -0.265 OA
HETATM   25  H   UNL     1     -11.737   1.842 -32.151  1.00  0.00     0.169 HD
BRANCH  23  26
HETATM   26  C   UNL     1     -13.809   1.872 -33.361  1.00  0.00     0.142 A 
HETATM   27  O   UNL     1     -13.888   2.858 -32.408  1.00  0.00    -0.317 OA
HETATM   28  C   UNL     1     -15.173   2.885 -31.968  1.00  0.00     0.143 A 
HETATM   29  C   UNL     1     -15.926   1.934 -32.614  1.00  0.00     0.027 A 
HETATM   30  C   UNL     1     -15.050   1.284 -33.516  1.00  0.00     0.045 A 
ENDBRANCH  23  26
ENDBRANCH   1  22
TORSDOF 5
ENDMDL
MODEL 9
REMARK VINA RESULT:      -7.7      4.843      8.663
REMARK  5 active torsions:
REMARK  status: ('A' for Active; 'I' for Inactive)
REMARK    1  A    between atoms: C_4  and  C_5 
REMARK       I    between atoms: C_5  and  N_6 
REMARK    2  A    between atoms: N_6  and  C_7 
REMARK    3  A    between atoms: C_10  and  C_11 
REMARK    4  A    between atoms: C_11  and  N_12 
REMARK       I    between atoms: N_12  and  C_13 
REMARK       I    between atoms: C_13  and  N_14 
REMARK    5  A    between atoms: N_14  and  C_15 
ROOT
HETATM    1  C   UNL     1      -7.530  -0.420 -33.658  1.00  0.00     0.035 A 
HETATM    2  C   UNL     1      -7.790   0.080 -32.382  1.00  0.00     0.030 A 
HETATM    3  C   UNL     1      -8.657   1.163 -32.206  1.00  0.00     0.011 A 
HETATM    4  C   UNL     1      -9.288   1.759 -33.305  1.00  0.00    -0.040 A 
HETATM    5  C   UNL     1      -8.976   1.302 -34.589  1.00  0.00     0.011 A 
HETATM    6  C   UNL     1      -8.104   0.221 -34.762  1.00  0.00     0.030 A 
ENDROOT
BRANCH   4   7
HETATM    7  C   UNL     1     -10.313   2.838 -33.095  1.00  0.00     0.162 C 
BRANCH   7   8
HETATM    8  N   UNL     1     -10.139   3.966 -33.978  1.00  0.00    -0.339 N 
HETATM    9  C   UNL     1      -9.054   4.791 -34.095  1.00  0.00     0.321 C 
HETATM   10  N   UNL     1      -8.016   4.505 -33.248  1.00  0.00    -0.306 N 
HETATM   11  O   UNL     1      -9.114   5.697 -34.916  1.00  0.00    -0.247 OA
HETATM   12  H   UNL     1      -8.238   3.877 -32.495  1.00  0.00     0.171 HD
HETATM   13  H   UNL     1     -10.881   4.192 -34.629  1.00  0.00     0.164 HD
BRANCH  10  14
HETATM   14  C   UNL     1      -6.722   5.071 -33.193  1.00  0.00     0.075 A 
HETATM   15  C   UNL     1      -5.608   4.673 -33.943  1.00  0.00     0.144 A 
HETATM   16  F   UNL     1      -5.648   3.645 -34.797  1.00  0.00    -0.204 F 
HETATM   17  C   UNL     1      -4.373   5.310 -33.794  1.00  0.00     0.063 A 
HETATM   18  C   UNL     1      -4.235   6.348 -32.879  1.00  0.00     0.014 A 
HETATM   19 BR   UNL     1      -2.565   7.205 -32.669  1.00  0.00    -0.051 Br
HETATM   20  C   UNL     1      -5.320   6.750 -32.107  1.00  0.00     0.021 A 
HETATM   21  C   UNL     1      -6.554   6.113 -32.265  1.00  0.00     0.034 A 
ENDBRANCH  10  14
ENDBRANCH   7   8
ENDBRANCH   4   7
BRANCH   1  22
HETATM   22  N   UNL     1      -6.756  -1.568 -33.910  1.00  0.00    -0.321 N 
HETATM   23  C   UNL     1      -5.375  -1.685 -33.906  1.00  0.00     0.279 C 
HETATM   24  O   UNL     1      -4.581  -0.759 -33.785  1.00  0.00    -0.265 OA
HETATM   25  H   UNL     1      -7.252  -2.446 -34.017  1.00  0.00     0.169 HD
BRANCH  23  26
HETATM   26  C   UNL     1      -4.933  -3.064 -34.029  1.00  0.00     0.142 A 
HETATM   27  O   UNL     1      -3.746  -3.448 -33.456  1.00  0.00    -0.317 OA
HETATM   28  C   UNL     1      -3.571  -4.764 -33.746  1.00  0.00     0.143 A 
HETATM   29  C   UNL     1      -4.620  -5.237 -34.498  1.00  0.00     0.027 A 
HETATM   30  C   UNL     1      -5.501  -4.144 -34.676  1.00  0.00     0.045 A 
ENDBRANCH  23  26
ENDBRANCH   1  22
TORSDOF 5
ENDMDL
MODEL 10
REMARK VINA RESULT:      -7.7      3.933      8.652
REMARK  5 active torsions:
REMARK  status: ('A' for Active; 'I' for Inactive)
REMARK    1  A    between atoms: C_4  and  C_5 
REMARK       I    between atoms: C_5  and  N_6 
REMARK    2  A    between atoms: N_6  and  C_7 
REMARK    3  A    between atoms: C_10  and  C_11 
REMARK    4  A    between atoms: C_11  and  N_12 
REMARK       I    between atoms: N_12  and  C_13 
REMARK       I    between atoms: C_13  and  N_14 
REMARK    5  A    between atoms: N_14  and  C_15 
ROOT
HETATM    1  C   UNL     1      -6.767   0.131 -33.389  1.00  0.00     0.035 A 
HETATM    2  C   UNL     1      -6.858   1.213 -34.263  1.00  0.00     0.030 A 
HETATM    3  C   UNL     1      -7.263   2.469 -33.800  1.00  0.00     0.011 A 
HETATM    4  C   UNL     1      -7.574   2.666 -32.449  1.00  0.00    -0.040 A 
HETATM    5  C   UNL     1      -7.547   1.566 -31.586  1.00  0.00     0.011 A 
HETATM    6  C   UNL     1      -7.147   0.310 -32.054  1.00  0.00     0.030 A 
ENDROOT
BRANCH   4   7
HETATM    7  C   UNL     1      -7.886   4.044 -31.938  1.00  0.00     0.162 C 
BRANCH   7   8
HETATM    8  N   UNL     1      -7.375   4.287 -30.611  1.00  0.00    -0.339 N 
HETATM    9  C   UNL     1      -6.095   4.595 -30.238  1.00  0.00     0.321 C 
HETATM   10  N   UNL     1      -5.194   4.664 -31.268  1.00  0.00    -0.306 N 
HETATM   11  O   UNL     1      -5.874   4.764 -29.046  1.00  0.00    -0.247 OA
HETATM   12  H   UNL     1      -5.508   4.272 -32.139  1.00  0.00     0.171 HD
HETATM   13  H   UNL     1      -8.020   4.262 -29.830  1.00  0.00     0.164 HD
BRANCH  10  14
HETATM   14  C   UNL     1      -3.841   5.073 -31.250  1.00  0.00     0.075 A 
HETATM   15  C   UNL     1      -2.726   4.271 -31.523  1.00  0.00     0.144 A 
HETATM   16  F   UNL     1      -2.831   2.967 -31.803  1.00  0.00    -0.204 F 
HETATM   17  C   UNL     1      -1.431   4.792 -31.467  1.00  0.00     0.063 A 
HETATM   18  C   UNL     1      -1.235   6.125 -31.121  1.00  0.00     0.014 A 
HETATM   19 BR   UNL     1       0.515   6.830 -31.035  1.00  0.00    -0.051 Br
HETATM   20  C   UNL     1      -2.323   6.938 -30.826  1.00  0.00     0.021 A 
HETATM   21  C   UNL     1      -3.617   6.413 -30.890  1.00  0.00     0.034 A 
ENDBRANCH  10  14
ENDBRANCH   7   8
ENDBRANCH   4   7
BRANCH   1  22
HETATM   22  N   UNL     1      -6.268  -1.135 -33.753  1.00  0.00    -0.321 N 
HETATM   23  C   UNL     1      -4.947  -1.549 -33.807  1.00  0.00     0.279 C 
HETATM   24  O   UNL     1      -3.967  -0.830 -33.647  1.00  0.00    -0.265 OA
HETATM   25  H   UNL     1      -6.947  -1.872 -33.906  1.00  0.00     0.169 HD
BRANCH  23  26
HETATM   26  C   UNL     1      -4.821  -2.976 -34.047  1.00  0.00     0.142 A 
HETATM   27  O   UNL     1      -3.739  -3.655 -33.544  1.00  0.00    -0.317 OA
HETATM   28  C   UNL     1      -3.862  -4.949 -33.937  1.00  0.00     0.143 A 
HETATM   29  C   UNL     1      -5.000  -5.121 -34.687  1.00  0.00     0.027 A 
HETATM   30  C   UNL     1      -5.622  -3.852 -34.755  1.00  0.00     0.045 A 
ENDBRANCH  23  26
ENDBRANCH   1  22
TORSDOF 5
ENDMDL
