MODEL 1
REMARK VINA RESULT:      -8.1      0.000      0.000
REMARK  3 active torsions:
REMARK  status: ('A' for Active; 'I' for Inactive)
REMARK    1  A    between atoms: C_3  and  N_4 
REMARK       I    between atoms: N_4  and  C_5 
REMARK    2  A    between atoms: C_5  and  C_6 
REMARK    3  A    between atoms: C_6  and  C_7 
ROOT
HETATM    1  C   UNL     1      -5.998   0.016 -31.226  1.00  0.00     0.286 C 
HETATM    2  N   UNL     1      -6.196   0.994 -32.381  1.00  0.00    -0.056 N 
HETATM    3  H   UNL     1      -5.279   1.479 -32.490  1.00  0.00     0.278 HD
HETATM    4  H   UNL     1      -6.354   0.493 -33.263  1.00  0.00     0.278 HD
HETATM    5  C   UNL     1      -7.246   2.045 -32.147  1.00  0.00     0.209 C 
HETATM    6  C   UNL     1      -6.949   2.776 -30.815  1.00  0.00     0.115 C 
HETATM    7  N   UNL     1      -6.715   1.854 -29.704  1.00  0.00    -0.353 N 
HETATM    8  C   UNL     1      -5.996   0.692 -29.837  1.00  0.00     0.249 C 
HETATM    9  O   UNL     1      -5.462   0.187 -28.855  1.00  0.00    -0.271 OA
HETATM   10  C   UNL     1      -8.640   1.415 -32.191  1.00  0.00     0.035 C 
HETATM   11  C   UNL     1      -9.717   2.445 -31.857  1.00  0.00     0.002 C 
HETATM   12  C   UNL     1      -9.451   3.119 -30.514  1.00  0.00     0.002 C 
HETATM   13  C   UNL     1      -8.066   3.766 -30.473  1.00  0.00     0.027 C 
HETATM   14  H   UNL     1      -6.625   2.253 -28.771  1.00  0.00     0.163 HD
ENDROOT
BRANCH   1  15
HETATM   15  C   UNL     1      -4.725  -0.813 -31.427  1.00  0.00     0.146 C 
BRANCH  15  16
HETATM   16  C   UNL     1      -4.043  -0.398 -32.709  1.00  0.00     0.224 C 
HETATM   17  N   UNL     1      -4.083  -1.155 -33.835  1.00  0.00    -0.325 N 
HETATM   18  H   UNL     1      -3.398  -0.865 -34.527  1.00  0.00     0.169 HD
HETATM   19  O   UNL     1      -3.387   0.654 -32.701  1.00  0.00    -0.273 OA
BRANCH  17  20
HETATM   20  C   UNL     1      -4.841  -2.295 -34.177  1.00  0.00     0.073 A 
HETATM   21  C   UNL     1      -4.178  -3.528 -34.118  1.00  0.00     0.033 A 
HETATM   22  C   UNL     1      -4.848  -4.718 -34.420  1.00  0.00     0.002 A 
HETATM   23  C   UNL     1      -6.183  -4.688 -34.816  1.00  0.00     0.003 A 
HETATM   24  C   UNL     1      -6.842  -3.467 -34.924  1.00  0.00     0.044 A 
HETATM   25  C   UNL     1      -6.171  -2.284 -34.615  1.00  0.00     0.143 A 
HETATM   26  F   UNL     1      -6.821  -1.132 -34.826  1.00  0.00    -0.204 F 
ENDBRANCH  17  20
ENDBRANCH  15  16
ENDBRANCH   1  15
TORSDOF 3
ENDMDL
MODEL 2
REMARK VINA RESULT:      -8.1      1.050      1.464
REMARK  3 active torsions:
REMARK  status: ('A' for Active; 'I' for Inactive)
REMARK    1  A    between atoms: C_3  and  N_4 
REMARK       I    between atoms: N_4  and  C_5 
REMARK    2  A    between atoms: C_5  and  C_6 
REMARK    3  A    between atoms: C_6  and  C_7 
ROOT
HETATM    1  C   UNL     1      -6.029  -0.020 -31.211  1.00  0.00     0.286 C 
HETATM    2  N   UNL     1      -6.201   0.946 -32.381  1.00  0.00    -0.056 N 
HETATM    3  H   UNL     1      -5.273   1.410 -32.492  1.00  0.00     0.278 HD
HETATM    4  H   UNL     1      -6.365   0.436 -33.256  1.00  0.00     0.278 HD
HETATM    5  C   UNL     1      -7.230   2.021 -32.166  1.00  0.00     0.209 C 
HETATM    6  C   UNL     1      -6.924   2.764 -30.843  1.00  0.00     0.115 C 
HETATM    7  N   UNL     1      -6.714   1.853 -29.719  1.00  0.00    -0.353 N 
HETATM    8  C   UNL     1      -6.020   0.675 -29.831  1.00  0.00     0.249 C 
HETATM    9  O   UNL     1      -5.501   0.172 -28.841  1.00  0.00    -0.271 OA
HETATM   10  C   UNL     1      -8.637   1.421 -32.209  1.00  0.00     0.035 C 
HETATM   11  C   UNL     1      -9.693   2.477 -31.894  1.00  0.00     0.002 C 
HETATM   12  C   UNL     1      -9.420   3.164 -30.559  1.00  0.00     0.002 C 
HETATM   13  C   UNL     1      -8.021   3.782 -30.520  1.00  0.00     0.027 C 
HETATM   14  H   UNL     1      -6.621   2.263 -28.790  1.00  0.00     0.163 HD
ENDROOT
BRANCH   1  15
HETATM   15  C   UNL     1      -4.773  -0.878 -31.394  1.00  0.00     0.146 C 
BRANCH  15  16
HETATM   16  C   UNL     1      -4.049  -0.460 -32.652  1.00  0.00     0.224 C 
HETATM   17  N   UNL     1      -4.021  -1.232 -33.769  1.00  0.00    -0.325 N 
HETATM   18  H   UNL     1      -3.315  -0.931 -34.435  1.00  0.00     0.169 HD
HETATM   19  O   UNL     1      -3.421   0.609 -32.630  1.00  0.00    -0.273 OA
BRANCH  17  20
HETATM   20  C   UNL     1      -4.734  -2.396 -34.127  1.00  0.00     0.073 A 
HETATM   21  C   UNL     1      -6.045  -2.210 -34.587  1.00  0.00     0.033 A 
HETATM   22  C   UNL     1      -6.826  -3.300 -34.983  1.00  0.00     0.002 A 
HETATM   23  C   UNL     1      -6.318  -4.594 -34.896  1.00  0.00     0.003 A 
HETATM   24  C   UNL     1      -5.035  -4.798 -34.399  1.00  0.00     0.044 A 
HETATM   25  C   UNL     1      -4.258  -3.707 -34.011  1.00  0.00     0.143 A 
HETATM   26  F   UNL     1      -3.067  -3.964 -33.451  1.00  0.00    -0.204 F 
ENDBRANCH  17  20
ENDBRANCH  15  16
ENDBRANCH   1  15
TORSDOF 3
ENDMDL
MODEL 3
REMARK VINA RESULT:      -7.8      7.842     10.350
REMARK  3 active torsions:
REMARK  status: ('A' for Active; 'I' for Inactive)
REMARK    1  A    between atoms: C_3  and  N_4 
REMARK       I    between atoms: N_4  and  C_5 
REMARK    2  A    between atoms: C_5  and  C_6 
REMARK    3  A    between atoms: C_6  and  C_7 
ROOT
HETATM    1  C   UNL     1      -1.228   6.246 -31.892  1.00  0.00     0.286 C 
HETATM    2  N   UNL     1      -1.114   4.850 -32.500  1.00  0.00    -0.056 N 
HETATM    3  H   UNL     1      -0.269   4.886 -33.111  1.00  0.00     0.278 HD
HETATM    4  H   UNL     1      -0.906   4.152 -31.777  1.00  0.00     0.278 HD
HETATM    5  C   UNL     1      -2.280   4.434 -33.352  1.00  0.00     0.209 C 
HETATM    6  C   UNL     1      -2.536   5.515 -34.430  1.00  0.00     0.115 C 
HETATM    7  N   UNL     1      -2.607   6.864 -33.872  1.00  0.00    -0.353 N 
HETATM    8  C   UNL     1      -1.774   7.305 -32.875  1.00  0.00     0.249 C 
HETATM    9  O   UNL     1      -1.563   8.505 -32.738  1.00  0.00    -0.271 OA
HETATM   10  C   UNL     1      -3.502   4.158 -32.474  1.00  0.00     0.035 C 
HETATM   11  C   UNL     1      -4.727   3.830 -33.325  1.00  0.00     0.002 C 
HETATM   12  C   UNL     1      -5.010   4.929 -34.347  1.00  0.00     0.002 C 
HETATM   13  C   UNL     1      -3.796   5.194 -35.239  1.00  0.00     0.027 C 
HETATM   14  H   UNL     1      -2.886   7.620 -34.497  1.00  0.00     0.163 HD
ENDROOT
BRANCH   1  15
HETATM   15  C   UNL     1       0.113   6.694 -31.301  1.00  0.00     0.146 C 
BRANCH  15  16
HETATM   16  C   UNL     1       0.490   5.791 -30.150  1.00  0.00     0.224 C 
HETATM   17  N   UNL     1       0.628   6.249 -28.879  1.00  0.00    -0.325 N 
HETATM   18  H   UNL     1       1.103   5.584 -28.274  1.00  0.00     0.169 HD
HETATM   19  O   UNL     1       0.724   4.600 -30.402  1.00  0.00    -0.273 OA
BRANCH  17  20
HETATM   20  C   UNL     1       0.302   7.485 -28.282  1.00  0.00     0.073 A 
HETATM   21  C   UNL     1       1.372   8.234 -27.773  1.00  0.00     0.033 A 
HETATM   22  C   UNL     1       1.153   9.481 -27.179  1.00  0.00     0.002 A 
HETATM   23  C   UNL     1      -0.141   9.983 -27.059  1.00  0.00     0.003 A 
HETATM   24  C   UNL     1      -1.216   9.230 -27.518  1.00  0.00     0.044 A 
HETATM   25  C   UNL     1      -0.993   7.990 -28.115  1.00  0.00     0.143 A 
HETATM   26  F   UNL     1      -2.068   7.265 -28.454  1.00  0.00    -0.204 F 
ENDBRANCH  17  20
ENDBRANCH  15  16
ENDBRANCH   1  15
TORSDOF 3
ENDMDL
MODEL 4
REMARK VINA RESULT:      -7.8      1.391      1.628
REMARK  3 active torsions:
REMARK  status: ('A' for Active; 'I' for Inactive)
REMARK    1  A    between atoms: C_3  and  N_4 
REMARK       I    between atoms: N_4  and  C_5 
REMARK    2  A    between atoms: C_5  and  C_6 
REMARK    3  A    between atoms: C_6  and  C_7 
ROOT
HETATM    1  C   UNL     1      -7.040   0.148 -31.820  1.00  0.00     0.286 C 
HETATM    2  N   UNL     1      -7.327   0.362 -33.304  1.00  0.00    -0.056 N 
HETATM    3  H   UNL     1      -6.461   0.796 -33.690  1.00  0.00     0.278 HD
HETATM    4  H   UNL     1      -7.431  -0.536 -33.790  1.00  0.00     0.278 HD
HETATM    5  C   UNL     1      -8.475   1.287 -33.599  1.00  0.00     0.209 C 
HETATM    6  C   UNL     1      -8.258   2.625 -32.853  1.00  0.00     0.115 C 
HETATM    7  N   UNL     1      -7.940   2.439 -31.438  1.00  0.00    -0.353 N 
HETATM    8  C   UNL     1      -7.111   1.444 -30.983  1.00  0.00     0.249 C 
HETATM    9  O   UNL     1      -6.535   1.570 -29.908  1.00  0.00    -0.271 OA
HETATM   10  C   UNL     1      -9.801   0.609 -33.246  1.00  0.00     0.035 C 
HETATM   11  C   UNL     1     -10.975   1.566 -33.443  1.00  0.00     0.002 C 
HETATM   12  C   UNL     1     -10.783   2.860 -32.657  1.00  0.00     0.002 C 
HETATM   13  C   UNL     1      -9.467   3.549 -33.021  1.00  0.00     0.027 C 
HETATM   14  H   UNL     1      -7.894   3.271 -30.850  1.00  0.00     0.163 HD
ENDROOT
BRANCH   1  15
HETATM   15  C   UNL     1      -5.692  -0.553 -31.622  1.00  0.00     0.146 C 
BRANCH  15  16
HETATM   16  C   UNL     1      -4.737  -0.140 -32.716  1.00  0.00     0.224 C 
HETATM   17  N   UNL     1      -4.238  -1.021 -33.621  1.00  0.00    -0.325 N 
HETATM   18  H   UNL     1      -3.445  -0.647 -34.135  1.00  0.00     0.169 HD
HETATM   19  O   UNL     1      -4.368   1.044 -32.746  1.00  0.00    -0.273 OA
BRANCH  17  20
HETATM   20  C   UNL     1      -4.571  -2.360 -33.913  1.00  0.00     0.073 A 
HETATM   21  C   UNL     1      -3.675  -3.340 -33.466  1.00  0.00     0.033 A 
HETATM   22  C   UNL     1      -3.926  -4.697 -33.691  1.00  0.00     0.002 A 
HETATM   23  C   UNL     1      -5.062  -5.092 -34.393  1.00  0.00     0.003 A 
HETATM   24  C   UNL     1      -5.938  -4.128 -34.884  1.00  0.00     0.044 A 
HETATM   25  C   UNL     1      -5.686  -2.776 -34.651  1.00  0.00     0.143 A 
HETATM   26  F   UNL     1      -6.508  -1.887 -35.225  1.00  0.00    -0.204 F 
ENDBRANCH  17  20
ENDBRANCH  15  16
ENDBRANCH   1  15
TORSDOF 3
ENDMDL
MODEL 5
REMARK VINA RESULT:      -7.6      2.816      3.830
REMARK  3 active torsions:
REMARK  status: ('A' for Active; 'I' for Inactive)
REMARK    1  A    between atoms: C_3  and  N_4 
REMARK       I    between atoms: N_4  and  C_5 
REMARK    2  A    between atoms: C_5  and  C_6 
REMARK    3  A    between atoms: C_6  and  C_7 
ROOT
HETATM    1  C   UNL     1      -9.214   1.228 -32.168  1.00  0.00     0.286 C 
HETATM    2  N   UNL     1      -9.546   1.157 -33.656  1.00  0.00    -0.056 N 
HETATM    3  H   UNL     1      -8.942   1.879 -34.106  1.00  0.00     0.278 HD
HETATM    4  H   UNL     1      -9.252   0.258 -34.054  1.00  0.00     0.278 HD
HETATM    5  C   UNL     1     -10.975   1.473 -34.000  1.00  0.00     0.209 C 
HETATM    6  C   UNL     1     -11.358   2.841 -33.387  1.00  0.00     0.115 C 
HETATM    7  N   UNL     1     -11.008   2.944 -31.971  1.00  0.00    -0.353 N 
HETATM    8  C   UNL     1      -9.840   2.445 -31.451  1.00  0.00     0.249 C 
HETATM    9  O   UNL     1      -9.386   2.906 -30.410  1.00  0.00    -0.271 OA
HETATM   10  C   UNL     1     -11.890   0.333 -33.547  1.00  0.00     0.035 C 
HETATM   11  C   UNL     1     -13.358   0.676 -33.796  1.00  0.00     0.002 C 
HETATM   12  C   UNL     1     -13.744   1.998 -33.138  1.00  0.00     0.002 C 
HETATM   13  C   UNL     1     -12.843   3.143 -33.603  1.00  0.00     0.027 C 
HETATM   14  H   UNL     1     -11.328   3.769 -31.464  1.00  0.00     0.163 HD
ENDROOT
BRANCH   1  15
HETATM   15  C   UNL     1      -7.698   1.189 -31.946  1.00  0.00     0.146 C 
BRANCH  15  16
HETATM   16  C   UNL     1      -6.996   1.861 -33.103  1.00  0.00     0.224 C 
HETATM   17  N   UNL     1      -6.145   1.197 -33.926  1.00  0.00    -0.325 N 
HETATM   18  H   UNL     1      -5.585   1.823 -34.497  1.00  0.00     0.169 HD
HETATM   19  O   UNL     1      -7.179   3.077 -33.263  1.00  0.00    -0.273 OA
BRANCH  17  20
HETATM   20  C   UNL     1      -5.856  -0.176 -34.071  1.00  0.00     0.073 A 
HETATM   21  C   UNL     1      -4.662  -0.628 -33.491  1.00  0.00     0.033 A 
HETATM   22  C   UNL     1      -4.296  -1.976 -33.565  1.00  0.00     0.002 A 
HETATM   23  C   UNL     1      -5.103  -2.885 -34.246  1.00  0.00     0.003 A 
HETATM   24  C   UNL     1      -6.266  -2.442 -34.866  1.00  0.00     0.044 A 
HETATM   25  C   UNL     1      -6.631  -1.098 -34.784  1.00  0.00     0.143 A 
HETATM   26  F   UNL     1      -7.709  -0.707 -35.476  1.00  0.00    -0.204 F 
ENDBRANCH  17  20
ENDBRANCH  15  16
ENDBRANCH   1  15
TORSDOF 3
ENDMDL
MODEL 6
REMARK VINA RESULT:      -7.6      3.751      4.906
REMARK  3 active torsions:
REMARK  status: ('A' for Active; 'I' for Inactive)
REMARK    1  A    between atoms: C_3  and  N_4 
REMARK       I    between atoms: N_4  and  C_5 
REMARK    2  A    between atoms: C_5  and  C_6 
REMARK    3  A    between atoms: C_6  and  C_7 
ROOT
HETATM    1  C   UNL     1      -5.467   3.492 -33.705  1.00  0.00     0.286 C 
HETATM    2  N   UNL     1      -4.343   3.256 -32.698  1.00  0.00    -0.056 N 
HETATM    3  H   UNL     1      -4.816   3.192 -31.771  1.00  0.00     0.278 HD
HETATM    4  H   UNL     1      -3.902   2.341 -32.850  1.00  0.00     0.278 HD
HETATM    5  C   UNL     1      -3.323   4.356 -32.621  1.00  0.00     0.209 C 
HETATM    6  C   UNL     1      -4.043   5.705 -32.377  1.00  0.00     0.115 C 
HETATM    7  N   UNL     1      -5.150   5.930 -33.306  1.00  0.00    -0.353 N 
HETATM    8  C   UNL     1      -6.014   4.936 -33.694  1.00  0.00     0.249 C 
HETATM    9  O   UNL     1      -7.136   5.222 -34.097  1.00  0.00    -0.271 OA
HETATM   10  C   UNL     1      -2.452   4.358 -33.879  1.00  0.00     0.035 C 
HETATM   11  C   UNL     1      -1.473   5.530 -33.868  1.00  0.00     0.002 C 
HETATM   12  C   UNL     1      -2.195   6.862 -33.687  1.00  0.00     0.002 C 
HETATM   13  C   UNL     1      -3.052   6.871 -32.421  1.00  0.00     0.027 C 
HETATM   14  H   UNL     1      -5.604   6.843 -33.287  1.00  0.00     0.163 HD
ENDROOT
BRANCH   1  15
HETATM   15  C   UNL     1      -6.600   2.481 -33.502  1.00  0.00     0.146 C 
BRANCH  15  16
HETATM   16  C   UNL     1      -6.493   1.862 -32.129  1.00  0.00     0.224 C 
HETATM   17  N   UNL     1      -6.357   0.525 -31.939  1.00  0.00    -0.325 N 
HETATM   18  H   UNL     1      -6.530   0.246 -30.977  1.00  0.00     0.169 HD
HETATM   19  O   UNL     1      -6.581   2.615 -31.147  1.00  0.00    -0.273 OA
BRANCH  17  20
HETATM   20  C   UNL     1      -6.097  -0.532 -32.837  1.00  0.00     0.073 A 
HETATM   21  C   UNL     1      -4.756  -0.911 -32.984  1.00  0.00     0.033 A 
HETATM   22  C   UNL     1      -4.398  -1.960 -33.837  1.00  0.00     0.002 A 
HETATM   23  C   UNL     1      -5.373  -2.624 -34.579  1.00  0.00     0.003 A 
HETATM   24  C   UNL     1      -6.703  -2.228 -34.478  1.00  0.00     0.044 A 
HETATM   25  C   UNL     1      -7.055  -1.185 -33.621  1.00  0.00     0.143 A 
HETATM   26  F   UNL     1      -8.333  -0.782 -33.632  1.00  0.00    -0.204 F 
ENDBRANCH  17  20
ENDBRANCH  15  16
ENDBRANCH   1  15
TORSDOF 3
ENDMDL
MODEL 7
REMARK VINA RESULT:      -7.5      2.413      3.207
REMARK  3 active torsions:
REMARK  status: ('A' for Active; 'I' for Inactive)
REMARK    1  A    between atoms: C_3  and  N_4 
REMARK       I    between atoms: N_4  and  C_5 
REMARK    2  A    between atoms: C_5  and  C_6 
REMARK    3  A    between atoms: C_6  and  C_7 
ROOT
HETATM    1  C   UNL     1      -6.748   1.080 -32.279  1.00  0.00     0.286 C 
HETATM    2  N   UNL     1      -6.005   1.688 -33.466  1.00  0.00    -0.056 N 
HETATM    3  H   UNL     1      -5.436   0.908 -33.861  1.00  0.00     0.278 HD
HETATM    4  H   UNL     1      -6.660   1.958 -34.209  1.00  0.00     0.278 HD
HETATM    5  C   UNL     1      -5.069   2.811 -33.118  1.00  0.00     0.209 C 
HETATM    6  C   UNL     1      -4.098   2.341 -32.007  1.00  0.00     0.115 C 
HETATM    7  N   UNL     1      -4.789   1.718 -30.879  1.00  0.00    -0.353 N 
HETATM    8  C   UNL     1      -5.859   0.872 -31.033  1.00  0.00     0.249 C 
HETATM    9  O   UNL     1      -6.126   0.057 -30.158  1.00  0.00    -0.271 OA
HETATM   10  C   UNL     1      -5.864   4.060 -32.733  1.00  0.00     0.035 C 
HETATM   11  C   UNL     1      -4.935   5.184 -32.280  1.00  0.00     0.002 C 
HETATM   12  C   UNL     1      -4.022   4.732 -31.143  1.00  0.00     0.002 C 
HETATM   13  C   UNL     1      -3.211   3.495 -31.531  1.00  0.00     0.027 C 
HETATM   14  H   UNL     1      -4.234   1.484 -30.057  1.00  0.00     0.163 HD
ENDROOT
BRANCH   1  15
HETATM   15  C   UNL     1      -7.436  -0.230 -32.679  1.00  0.00     0.146 C 
BRANCH  15  16
HETATM   16  C   UNL     1      -7.661  -0.251 -34.172  1.00  0.00     0.224 C 
HETATM   17  N   UNL     1      -7.008  -1.110 -34.997  1.00  0.00    -0.325 N 
HETATM   18  H   UNL     1      -7.090  -0.850 -35.976  1.00  0.00     0.169 HD
HETATM   19  O   UNL     1      -8.441   0.586 -34.652  1.00  0.00    -0.273 OA
BRANCH  17  20
HETATM   20  C   UNL     1      -6.194  -2.231 -34.734  1.00  0.00     0.073 A 
HETATM   21  C   UNL     1      -6.770  -3.489 -34.959  1.00  0.00     0.033 A 
HETATM   22  C   UNL     1      -6.037  -4.661 -34.745  1.00  0.00     0.002 A 
HETATM   23  C   UNL     1      -4.728  -4.592 -34.274  1.00  0.00     0.003 A 
HETATM   24  C   UNL     1      -4.158  -3.352 -34.003  1.00  0.00     0.044 A 
HETATM   25  C   UNL     1      -4.891  -2.186 -34.224  1.00  0.00     0.143 A 
HETATM   26  F   UNL     1      -4.330  -1.026 -33.858  1.00  0.00    -0.204 F 
ENDBRANCH  17  20
ENDBRANCH  15  16
ENDBRANCH   1  15
TORSDOF 3
ENDMDL
MODEL 8
REMARK VINA RESULT:      -7.4      2.391      3.754
REMARK  3 active torsions:
REMARK  status: ('A' for Active; 'I' for Inactive)
REMARK    1  A    between atoms: C_3  and  N_4 
REMARK       I    between atoms: N_4  and  C_5 
REMARK    2  A    between atoms: C_5  and  C_6 
REMARK    3  A    between atoms: C_6  and  C_7 
ROOT
HETATM    1  C   UNL     1      -7.392   2.125 -33.519  1.00  0.00     0.286 C 
HETATM    2  N   UNL     1      -8.291   2.054 -32.287  1.00  0.00    -0.056 N 
HETATM    3  H   UNL     1      -8.086   1.128 -31.852  1.00  0.00     0.278 HD
HETATM    4  H   UNL     1      -8.015   2.757 -31.591  1.00  0.00     0.278 HD
HETATM    5  C   UNL     1      -9.765   2.111 -32.576  1.00  0.00     0.209 C 
HETATM    6  C   UNL     1     -10.123   1.023 -33.617  1.00  0.00     0.115 C 
HETATM    7  N   UNL     1      -9.245   1.048 -34.787  1.00  0.00    -0.353 N 
HETATM    8  C   UNL     1      -7.893   1.267 -34.701  1.00  0.00     0.249 C 
HETATM    9  O   UNL     1      -7.150   0.865 -35.589  1.00  0.00    -0.271 OA
HETATM   10  C   UNL     1     -10.161   3.521 -33.018  1.00  0.00     0.035 C 
HETATM   11  C   UNL     1     -11.635   3.578 -33.414  1.00  0.00     0.002 C 
HETATM   12  C   UNL     1     -11.969   2.543 -34.484  1.00  0.00     0.002 C 
HETATM   13  C   UNL     1     -11.592   1.130 -34.038  1.00  0.00     0.027 C 
HETATM   14  H   UNL     1      -9.484   0.440 -35.569  1.00  0.00     0.163 HD
ENDROOT
BRANCH   1  15
HETATM   15  C   UNL     1      -5.947   1.762 -33.160  1.00  0.00     0.146 C 
BRANCH  15  16
HETATM   16  C   UNL     1      -5.929   0.917 -31.908  1.00  0.00     0.224 C 
HETATM   17  N   UNL     1      -5.909  -0.440 -31.944  1.00  0.00    -0.325 N 
HETATM   18  H   UNL     1      -6.132  -0.859 -31.046  1.00  0.00     0.169 HD
HETATM   19  O   UNL     1      -5.984   1.500 -30.815  1.00  0.00    -0.273 OA
BRANCH  17  20
HETATM   20  C   UNL     1      -5.710  -1.351 -33.004  1.00  0.00     0.073 A 
HETATM   21  C   UNL     1      -6.864  -1.860 -33.616  1.00  0.00     0.033 A 
HETATM   22  C   UNL     1      -6.771  -2.754 -34.686  1.00  0.00     0.002 A 
HETATM   23  C   UNL     1      -5.524  -3.177 -35.140  1.00  0.00     0.003 A 
HETATM   24  C   UNL     1      -4.371  -2.717 -34.512  1.00  0.00     0.044 A 
HETATM   25  C   UNL     1      -4.469  -1.820 -33.449  1.00  0.00     0.143 A 
HETATM   26  F   UNL     1      -3.335  -1.481 -32.820  1.00  0.00    -0.204 F 
ENDBRANCH  17  20
ENDBRANCH  15  16
ENDBRANCH   1  15
TORSDOF 3
ENDMDL
MODEL 9
REMARK VINA RESULT:      -7.4      2.748      6.497
REMARK  3 active torsions:
REMARK  status: ('A' for Active; 'I' for Inactive)
REMARK    1  A    between atoms: C_3  and  N_4 
REMARK       I    between atoms: N_4  and  C_5 
REMARK    2  A    between atoms: C_5  and  C_6 
REMARK    3  A    between atoms: C_6  and  C_7 
ROOT
HETATM    1  C   UNL     1      -7.230   1.786 -33.441  1.00  0.00     0.286 C 
HETATM    2  N   UNL     1      -7.800   0.496 -32.857  1.00  0.00    -0.056 N 
HETATM    3  H   UNL     1      -7.962   0.700 -31.847  1.00  0.00     0.278 HD
HETATM    4  H   UNL     1      -8.725   0.292 -33.253  1.00  0.00     0.278 HD
HETATM    5  C   UNL     1      -6.887  -0.695 -32.945  1.00  0.00     0.209 C 
HETATM    6  C   UNL     1      -5.517  -0.335 -32.322  1.00  0.00     0.115 C 
HETATM    7  N   UNL     1      -4.973   0.921 -32.838  1.00  0.00    -0.353 N 
HETATM    8  C   UNL     1      -5.749   2.028 -33.076  1.00  0.00     0.249 C 
HETATM    9  O   UNL     1      -5.239   3.143 -33.083  1.00  0.00    -0.271 OA
HETATM   10  C   UNL     1      -6.783  -1.173 -34.395  1.00  0.00     0.035 C 
HETATM   11  C   UNL     1      -5.782  -2.320 -34.524  1.00  0.00     0.002 C 
HETATM   12  C   UNL     1      -4.416  -1.938 -33.962  1.00  0.00     0.002 C 
HETATM   13  C   UNL     1      -4.514  -1.477 -32.507  1.00  0.00     0.027 C 
HETATM   14  H   UNL     1      -4.024   1.172 -32.565  1.00  0.00     0.163 HD
ENDROOT
BRANCH   1  15
HETATM   15  C   UNL     1      -8.090   2.990 -33.042  1.00  0.00     0.146 C 
BRANCH  15  16
HETATM   16  C   UNL     1      -8.946   2.633 -31.850  1.00  0.00     0.224 C 
HETATM   17  N   UNL     1     -10.295   2.505 -31.933  1.00  0.00    -0.325 N 
HETATM   18  H   UNL     1     -10.744   2.494 -31.021  1.00  0.00     0.169 HD
HETATM   19  O   UNL     1      -8.384   2.502 -30.753  1.00  0.00    -0.273 OA
BRANCH  17  20
HETATM   20  C   UNL     1     -11.171   2.460 -33.039  1.00  0.00     0.073 A 
HETATM   21  C   UNL     1     -11.734   3.679 -33.440  1.00  0.00     0.033 A 
HETATM   22  C   UNL     1     -12.599   3.742 -34.537  1.00  0.00     0.002 A 
HETATM   23  C   UNL     1     -12.939   2.581 -35.228  1.00  0.00     0.003 A 
HETATM   24  C   UNL     1     -12.425   1.357 -34.812  1.00  0.00     0.044 A 
HETATM   25  C   UNL     1     -11.557   1.301 -33.722  1.00  0.00     0.143 A 
HETATM   26  F   UNL     1     -11.166   0.089 -33.305  1.00  0.00    -0.204 F 
ENDBRANCH  17  20
ENDBRANCH  15  16
ENDBRANCH   1  15
TORSDOF 3
ENDMDL
MODEL 10
REMARK VINA RESULT:      -7.2      4.260      6.704
REMARK  3 active torsions:
REMARK  status: ('A' for Active; 'I' for Inactive)
REMARK    1  A    between atoms: C_3  and  N_4 
REMARK       I    between atoms: N_4  and  C_5 
REMARK    2  A    between atoms: C_5  and  C_6 
REMARK    3  A    between atoms: C_6  and  C_7 
ROOT
HETATM    1  C   UNL     1      -5.469   2.933 -32.350  1.00  0.00     0.286 C 
HETATM    2  N   UNL     1      -6.958   2.600 -32.389  1.00  0.00    -0.056 N 
HETATM    3  H   UNL     1      -7.242   2.499 -31.390  1.00  0.00     0.278 HD
HETATM    4  H   UNL     1      -7.501   3.390 -32.755  1.00  0.00     0.278 HD
HETATM    5  C   UNL     1      -7.300   1.318 -33.096  1.00  0.00     0.209 C 
HETATM    6  C   UNL     1      -6.464   0.163 -32.494  1.00  0.00     0.115 C 
HETATM    7  N   UNL     1      -5.039   0.481 -32.410  1.00  0.00    -0.353 N 
HETATM    8  C   UNL     1      -4.570   1.716 -32.040  1.00  0.00     0.249 C 
HETATM    9  O   UNL     1      -3.443   1.828 -31.570  1.00  0.00    -0.271 OA
HETATM   10  C   UNL     1      -7.104   1.480 -34.605  1.00  0.00     0.035 C 
HETATM   11  C   UNL     1      -7.350   0.162 -35.335  1.00  0.00     0.002 C 
HETATM   12  C   UNL     1      -6.478  -0.960 -34.776  1.00  0.00     0.002 C 
HETATM   13  C   UNL     1      -6.686  -1.137 -33.271  1.00  0.00     0.027 C 
HETATM   14  H   UNL     1      -4.405  -0.267 -32.131  1.00  0.00     0.163 HD
ENDROOT
BRANCH   1  15
HETATM   15  C   UNL     1      -5.192   4.076 -31.367  1.00  0.00     0.146 C 
BRANCH  15  16
HETATM   16  C   UNL     1      -5.763   5.365 -31.910  1.00  0.00     0.224 C 
HETATM   17  N   UNL     1      -5.041   6.213 -32.687  1.00  0.00    -0.325 N 
HETATM   18  H   UNL     1      -5.475   7.127 -32.776  1.00  0.00     0.169 HD
HETATM   19  O   UNL     1      -6.921   5.667 -31.585  1.00  0.00    -0.273 OA
BRANCH  17  20
HETATM   20  C   UNL     1      -3.786   6.075 -33.316  1.00  0.00     0.073 A 
HETATM   21  C   UNL     1      -2.723   6.798 -32.756  1.00  0.00     0.033 A 
HETATM   22  C   UNL     1      -1.436   6.713 -33.298  1.00  0.00     0.002 A 
HETATM   23  C   UNL     1      -1.200   5.929 -34.424  1.00  0.00     0.003 A 
HETATM   24  C   UNL     1      -2.255   5.243 -35.019  1.00  0.00     0.044 A 
HETATM   25  C   UNL     1      -3.535   5.326 -34.471  1.00  0.00     0.143 A 
HETATM   26  F   UNL     1      -4.531   4.723 -35.135  1.00  0.00    -0.204 F 
ENDBRANCH  17  20
ENDBRANCH  15  16
ENDBRANCH   1  15
TORSDOF 3
ENDMDL
