MODEL 1
REMARK VINA RESULT:      -8.0      0.000      0.000
REMARK  6 active torsions:
REMARK  status: ('A' for Active; 'I' for Inactive)
REMARK    1  A    between atoms: C_8  and  C_9 
REMARK    2  A    between atoms: C_9  and  C_10 
REMARK       I    between atoms: C_10  and  N_11 
REMARK    3  A    between atoms: N_11  and  C_12 
REMARK    4  A    between atoms: C_12  and  C_13 
REMARK    5  A    between atoms: C_13  and  N_14 
REMARK    6  A    between atoms: C_13  and  C_20 
ROOT
HETATM    1  C   UNL     1      -5.672   0.966 -31.657  1.00  0.00     0.160 C 
ENDROOT
BRANCH   1   2
HETATM    2  N   UNL     1      -5.306   2.366 -31.469  1.00  0.00    -0.358 N 
HETATM    3  C   UNL     1      -3.986   2.756 -31.593  1.00  0.00     0.226 C 
HETATM    4  O   UNL     1      -3.099   1.898 -31.574  1.00  0.00    -0.273 OA
HETATM    5  H   UNL     1      -6.015   3.056 -31.694  1.00  0.00     0.162 HD
BRANCH   3   6
HETATM    6  C   UNL     1      -3.694   4.259 -31.667  1.00  0.00     0.111 C 
HETATM    7  C   UNL     1      -4.675   5.121 -30.872  1.00  0.00     0.025 C 
BRANCH   6   8
HETATM    8  C   UNL     1      -3.509   4.749 -33.075  1.00  0.00     0.004 A 
HETATM    9  C   UNL     1      -2.334   5.255 -33.614  1.00  0.00     0.033 A 
HETATM   10  C   UNL     1      -0.981   5.454 -33.041  1.00  0.00     0.070 C 
HETATM   11  N   UNL     1      -2.621   5.596 -34.906  1.00  0.00    -0.282 N 
HETATM   12  H   UNL     1      -2.003   5.997 -35.604  1.00  0.00     0.189 HD
HETATM   13  N   UNL     1      -3.892   5.364 -35.246  1.00  0.00    -0.179 NA
HETATM   14  C   UNL     1      -4.452   4.862 -34.142  1.00  0.00     0.060 A 
HETATM   15  C   UNL     1      -5.895   4.520 -34.181  1.00  0.00     0.073 C 
ENDBRANCH   6   8
ENDBRANCH   3   6
ENDBRANCH   1   2
BRANCH   1  16
HETATM   16  C   UNL     1      -6.288   0.576 -33.047  1.00  0.00     0.238 C 
BRANCH  16  17
HETATM   17  N   UNL     1      -7.826   0.642 -33.031  1.00  0.00    -0.061 N 
HETATM   18  H   UNL     1      -8.147  -0.248 -33.469  1.00  0.00     0.280 HD
HETATM   19  C   UNL     1      -8.492   1.796 -33.747  1.00  0.00     0.236 C 
HETATM   20  C   UNL     1      -8.740   2.804 -32.649  1.00  0.00     0.029 C 
HETATM   21  C   UNL     1      -9.245   1.929 -31.523  1.00  0.00     0.029 C 
HETATM   22  C   UNL     1      -8.412   0.662 -31.618  1.00  0.00     0.236 C 
ENDBRANCH  16  17
BRANCH  16  23
HETATM   23  C   UNL     1      -5.697  -0.752 -33.497  1.00  0.00    -0.024 A 
HETATM   24  C   UNL     1      -6.484  -1.745 -34.110  1.00  0.00     0.033 A 
HETATM   25  C   UNL     1      -5.908  -2.951 -34.517  1.00  0.00     0.034 A 
HETATM   26 CL   UNL     1      -6.885  -4.138 -35.287  1.00  0.00    -0.084 Cl
HETATM   27  C   UNL     1      -4.554  -3.193 -34.315  1.00  0.00     0.024 A 
HETATM   28  C   UNL     1      -3.763  -2.221 -33.704  1.00  0.00     0.002 A 
HETATM   29  C   UNL     1      -4.328  -1.010 -33.299  1.00  0.00     0.009 A 
ENDBRANCH  16  23
ENDBRANCH   1  16
TORSDOF 6
ENDMDL
MODEL 2
REMARK VINA RESULT:      -7.8      1.178      2.151
REMARK  6 active torsions:
REMARK  status: ('A' for Active; 'I' for Inactive)
REMARK    1  A    between atoms: C_8  and  C_9 
REMARK    2  A    between atoms: C_9  and  C_10 
REMARK       I    between atoms: C_10  and  N_11 
REMARK    3  A    between atoms: N_11  and  C_12 
REMARK    4  A    between atoms: C_12  and  C_13 
REMARK    5  A    between atoms: C_13  and  N_14 
REMARK    6  A    between atoms: C_13  and  C_20 
ROOT
HETATM    1  C   UNL     1      -5.572   1.041 -31.455  1.00  0.00     0.160 C 
ENDROOT
BRANCH   1   2
HETATM    2  N   UNL     1      -5.235   2.447 -31.260  1.00  0.00    -0.358 N 
HETATM    3  C   UNL     1      -3.926   2.868 -31.401  1.00  0.00     0.226 C 
HETATM    4  O   UNL     1      -3.020   2.031 -31.404  1.00  0.00    -0.273 OA
HETATM    5  H   UNL     1      -5.963   3.123 -31.467  1.00  0.00     0.162 HD
BRANCH   3   6
HETATM    6  C   UNL     1      -3.669   4.378 -31.465  1.00  0.00     0.111 C 
HETATM    7  C   UNL     1      -4.815   5.226 -30.910  1.00  0.00     0.025 C 
BRANCH   6   8
HETATM    8  C   UNL     1      -3.222   4.837 -32.825  1.00  0.00     0.004 A 
HETATM    9  C   UNL     1      -3.997   4.845 -33.977  1.00  0.00     0.033 A 
HETATM   10  C   UNL     1      -5.404   4.454 -34.233  1.00  0.00     0.070 C 
HETATM   11  N   UNL     1      -3.192   5.316 -34.975  1.00  0.00    -0.282 N 
HETATM   12  H   UNL     1      -3.420   5.459 -35.955  1.00  0.00     0.189 HD
HETATM   13  N   UNL     1      -1.953   5.602 -34.568  1.00  0.00    -0.179 NA
HETATM   14  C   UNL     1      -1.947   5.304 -33.265  1.00  0.00     0.060 A 
HETATM   15  C   UNL     1      -0.684   5.486 -32.510  1.00  0.00     0.073 C 
ENDBRANCH   6   8
ENDBRANCH   3   6
ENDBRANCH   1   2
BRANCH   1  16
HETATM   16  C   UNL     1      -6.063   0.622 -32.886  1.00  0.00     0.238 C 
BRANCH  16  17
HETATM   17  N   UNL     1      -7.593   0.710 -33.016  1.00  0.00    -0.061 N 
HETATM   18  H   UNL     1      -7.880  -0.153 -33.525  1.00  0.00     0.280 HD
HETATM   19  C   UNL     1      -8.175   1.907 -33.738  1.00  0.00     0.236 C 
HETATM   20  C   UNL     1      -8.518   2.866 -32.622  1.00  0.00     0.029 C 
HETATM   21  C   UNL     1      -9.139   1.948 -31.593  1.00  0.00     0.029 C 
HETATM   22  C   UNL     1      -8.314   0.674 -31.666  1.00  0.00     0.236 C 
ENDBRANCH  16  17
BRANCH  16  23
HETATM   23  C   UNL     1      -5.454  -0.725 -33.245  1.00  0.00    -0.024 A 
HETATM   24  C   UNL     1      -4.475  -1.336 -32.438  1.00  0.00     0.033 A 
HETATM   25  C   UNL     1      -3.942  -2.577 -32.793  1.00  0.00     0.034 A 
HETATM   26 CL   UNL     1      -2.766  -3.314 -31.778  1.00  0.00    -0.084 Cl
HETATM   27  C   UNL     1      -4.361  -3.223 -33.951  1.00  0.00     0.024 A 
HETATM   28  C   UNL     1      -5.325  -2.628 -34.762  1.00  0.00     0.002 A 
HETATM   29  C   UNL     1      -5.869  -1.391 -34.414  1.00  0.00     0.009 A 
ENDBRANCH  16  23
ENDBRANCH   1  16
TORSDOF 6
ENDMDL
MODEL 3
REMARK VINA RESULT:      -7.5      2.408      3.416
REMARK  6 active torsions:
REMARK  status: ('A' for Active; 'I' for Inactive)
REMARK    1  A    between atoms: C_8  and  C_9 
REMARK    2  A    between atoms: C_9  and  C_10 
REMARK       I    between atoms: C_10  and  N_11 
REMARK    3  A    between atoms: N_11  and  C_12 
REMARK    4  A    between atoms: C_12  and  C_13 
REMARK    5  A    between atoms: C_13  and  N_14 
REMARK    6  A    between atoms: C_13  and  C_20 
ROOT
HETATM    1  C   UNL     1      -7.159   3.859 -33.130  1.00  0.00     0.160 C 
ENDROOT
BRANCH   1   2
HETATM    2  N   UNL     1      -5.945   4.325 -33.791  1.00  0.00    -0.358 N 
HETATM    3  C   UNL     1      -5.318   5.475 -33.350  1.00  0.00     0.226 C 
HETATM    4  O   UNL     1      -5.929   6.248 -32.607  1.00  0.00    -0.273 OA
HETATM    5  H   UNL     1      -5.361   3.615 -34.222  1.00  0.00     0.162 HD
BRANCH   3   6
HETATM    6  C   UNL     1      -3.910   5.765 -33.883  1.00  0.00     0.111 C 
HETATM    7  C   UNL     1      -3.639   5.177 -35.268  1.00  0.00     0.025 C 
BRANCH   6   8
HETATM    8  C   UNL     1      -2.831   5.426 -32.894  1.00  0.00     0.004 A 
HETATM    9  C   UNL     1      -1.845   6.289 -32.437  1.00  0.00     0.033 A 
HETATM   10  C   UNL     1      -1.555   7.713 -32.730  1.00  0.00     0.070 C 
HETATM   11  N   UNL     1      -1.072   5.565 -31.574  1.00  0.00    -0.282 N 
HETATM   12  H   UNL     1      -0.257   5.870 -31.049  1.00  0.00     0.189 HD
HETATM   13  N   UNL     1      -1.468   4.296 -31.444  1.00  0.00    -0.179 NA
HETATM   14  C   UNL     1      -2.529   4.188 -32.249  1.00  0.00     0.060 A 
HETATM   15  C   UNL     1      -3.196   2.868 -32.356  1.00  0.00     0.073 C 
ENDBRANCH   6   8
ENDBRANCH   3   6
ENDBRANCH   1   2
BRANCH   1  16
HETATM   16  C   UNL     1      -8.029   2.807 -33.904  1.00  0.00     0.238 C 
BRANCH  16  17
HETATM   17  N   UNL     1      -9.462   2.728 -33.348  1.00  0.00    -0.061 N 
HETATM   18  H   UNL     1      -9.635   3.649 -32.892  1.00  0.00     0.280 HD
HETATM   19  C   UNL     1      -9.775   1.634 -32.350  1.00  0.00     0.236 C 
HETATM   20  C   UNL     1     -10.368   0.534 -33.199  1.00  0.00     0.029 C 
HETATM   21  C   UNL     1     -11.284   1.305 -34.123  1.00  0.00     0.029 C 
HETATM   22  C   UNL     1     -10.524   2.582 -34.440  1.00  0.00     0.236 C 
ENDBRANCH  16  17
BRANCH  16  23
HETATM   23  C   UNL     1      -7.277   1.485 -33.959  1.00  0.00    -0.024 A 
HETATM   24  C   UNL     1      -6.427   1.071 -32.916  1.00  0.00     0.033 A 
HETATM   25  C   UNL     1      -5.756  -0.152 -32.995  1.00  0.00     0.034 A 
HETATM   26 CL   UNL     1      -4.744  -0.647 -31.697  1.00  0.00    -0.084 Cl
HETATM   27  C   UNL     1      -5.910  -0.973 -34.107  1.00  0.00     0.024 A 
HETATM   28  C   UNL     1      -6.743  -0.573 -35.150  1.00  0.00     0.002 A 
HETATM   29  C   UNL     1      -7.423   0.644 -35.078  1.00  0.00     0.009 A 
ENDBRANCH  16  23
ENDBRANCH   1  16
TORSDOF 6
ENDMDL
MODEL 4
REMARK VINA RESULT:      -7.3      2.976      4.385
REMARK  6 active torsions:
REMARK  status: ('A' for Active; 'I' for Inactive)
REMARK    1  A    between atoms: C_8  and  C_9 
REMARK    2  A    between atoms: C_9  and  C_10 
REMARK       I    between atoms: C_10  and  N_11 
REMARK    3  A    between atoms: N_11  and  C_12 
REMARK    4  A    between atoms: C_12  and  C_13 
REMARK    5  A    between atoms: C_13  and  N_14 
REMARK    6  A    between atoms: C_13  and  C_20 
ROOT
HETATM    1  C   UNL     1      -3.308   2.686 -31.773  1.00  0.00     0.160 C 
ENDROOT
BRANCH   1   2
HETATM    2  N   UNL     1      -2.628   3.892 -31.311  1.00  0.00    -0.358 N 
HETATM    3  C   UNL     1      -2.093   4.776 -32.229  1.00  0.00     0.226 C 
HETATM    4  O   UNL     1      -1.937   4.411 -33.398  1.00  0.00    -0.273 OA
HETATM    5  H   UNL     1      -2.936   4.277 -30.424  1.00  0.00     0.162 HD
BRANCH   3   6
HETATM    6  C   UNL     1      -1.646   6.150 -31.715  1.00  0.00     0.111 C 
HETATM    7  C   UNL     1      -0.815   6.947 -32.721  1.00  0.00     0.025 C 
BRANCH   6   8
HETATM    8  C   UNL     1      -1.000   6.083 -30.360  1.00  0.00     0.004 A 
HETATM    9  C   UNL     1      -1.483   6.670 -29.198  1.00  0.00     0.033 A 
HETATM   10  C   UNL     1      -2.696   7.476 -28.920  1.00  0.00     0.070 C 
HETATM   11  N   UNL     1      -0.578   6.376 -28.218  1.00  0.00    -0.282 N 
HETATM   12  H   UNL     1      -0.603   6.641 -27.237  1.00  0.00     0.189 HD
HETATM   13  N   UNL     1       0.460   5.657 -28.651  1.00  0.00    -0.179 NA
HETATM   14  C   UNL     1       0.229   5.480 -29.955  1.00  0.00     0.060 A 
HETATM   15  C   UNL     1       1.232   4.731 -30.750  1.00  0.00     0.073 C 
ENDBRANCH   6   8
ENDBRANCH   3   6
ENDBRANCH   1   2
BRANCH   1  16
HETATM   16  C   UNL     1      -4.874   2.741 -31.848  1.00  0.00     0.238 C 
BRANCH  16  17
HETATM   17  N   UNL     1      -5.516   2.716 -30.450  1.00  0.00    -0.061 N 
HETATM   18  H   UNL     1      -4.781   2.343 -29.812  1.00  0.00     0.280 HD
HETATM   19  C   UNL     1      -6.773   1.893 -30.262  1.00  0.00     0.236 C 
HETATM   20  C   UNL     1      -7.888   2.901 -30.423  1.00  0.00     0.029 C 
HETATM   21  C   UNL     1      -7.365   4.081 -29.635  1.00  0.00     0.029 C 
HETATM   22  C   UNL     1      -5.874   4.108 -29.927  1.00  0.00     0.236 C 
ENDBRANCH  16  17
BRANCH  16  23
HETATM   23  C   UNL     1      -5.362   1.667 -32.809  1.00  0.00    -0.024 A 
HETATM   24  C   UNL     1      -4.814   0.371 -32.815  1.00  0.00     0.033 A 
HETATM   25  C   UNL     1      -5.290  -0.594 -33.706  1.00  0.00     0.034 A 
HETATM   26 CL   UNL     1      -4.621  -2.177 -33.675  1.00  0.00    -0.084 Cl
HETATM   27  C   UNL     1      -6.304  -0.287 -34.606  1.00  0.00     0.024 A 
HETATM   28  C   UNL     1      -6.853   0.994 -34.617  1.00  0.00     0.002 A 
HETATM   29  C   UNL     1      -6.389   1.963 -33.726  1.00  0.00     0.009 A 
ENDBRANCH  16  23
ENDBRANCH   1  16
TORSDOF 6
ENDMDL
MODEL 5
REMARK VINA RESULT:      -7.3      1.806      2.275
REMARK  6 active torsions:
REMARK  status: ('A' for Active; 'I' for Inactive)
REMARK    1  A    between atoms: C_8  and  C_9 
REMARK    2  A    between atoms: C_9  and  C_10 
REMARK       I    between atoms: C_10  and  N_11 
REMARK    3  A    between atoms: N_11  and  C_12 
REMARK    4  A    between atoms: C_12  and  C_13 
REMARK    5  A    between atoms: C_13  and  N_14 
REMARK    6  A    between atoms: C_13  and  C_20 
ROOT
HETATM    1  C   UNL     1      -4.997   2.130 -30.953  1.00  0.00     0.160 C 
ENDROOT
BRANCH   1   2
HETATM    2  N   UNL     1      -4.455   3.446 -30.632  1.00  0.00    -0.358 N 
HETATM    3  C   UNL     1      -3.269   3.861 -31.208  1.00  0.00     0.226 C 
HETATM    4  O   UNL     1      -2.537   3.029 -31.751  1.00  0.00    -0.273 OA
HETATM    5  H   UNL     1      -5.125   4.166 -30.383  1.00  0.00     0.162 HD
BRANCH   3   6
HETATM    6  C   UNL     1      -2.890   5.340 -31.066  1.00  0.00     0.111 C 
HETATM    7  C   UNL     1      -4.016   6.218 -30.519  1.00  0.00     0.025 C 
BRANCH   6   8
HETATM    8  C   UNL     1      -2.274   5.908 -32.313  1.00  0.00     0.004 A 
HETATM    9  C   UNL     1      -1.044   6.545 -32.397  1.00  0.00     0.033 A 
HETATM   10  C   UNL     1      -0.007   6.843 -31.380  1.00  0.00     0.070 C 
HETATM   11  N   UNL     1      -0.892   6.914 -33.703  1.00  0.00    -0.282 N 
HETATM   12  H   UNL     1      -0.113   7.403 -34.134  1.00  0.00     0.189 HD
HETATM   13  N   UNL     1      -1.931   6.580 -34.473  1.00  0.00    -0.179 NA
HETATM   14  C   UNL     1      -2.788   5.979 -33.643  1.00  0.00     0.060 A 
HETATM   15  C   UNL     1      -4.082   5.506 -34.194  1.00  0.00     0.073 C 
ENDBRANCH   6   8
ENDBRANCH   3   6
ENDBRANCH   1   2
BRANCH   1  16
HETATM   16  C   UNL     1      -5.654   1.960 -32.368  1.00  0.00     0.238 C 
BRANCH  16  17
HETATM   17  N   UNL     1      -7.126   2.410 -32.374  1.00  0.00    -0.061 N 
HETATM   18  H   UNL     1      -7.646   1.657 -32.872  1.00  0.00     0.280 HD
HETATM   19  C   UNL     1      -7.458   3.734 -33.029  1.00  0.00     0.236 C 
HETATM   20  C   UNL     1      -7.480   4.709 -31.875  1.00  0.00     0.029 C 
HETATM   21  C   UNL     1      -8.224   3.929 -30.814  1.00  0.00     0.029 C 
HETATM   22  C   UNL     1      -7.733   2.500 -30.972  1.00  0.00     0.236 C 
ENDBRANCH  16  17
BRANCH  16  23
HETATM   23  C   UNL     1      -5.404   0.543 -32.864  1.00  0.00    -0.024 A 
HETATM   24  C   UNL     1      -4.451  -0.297 -32.259  1.00  0.00     0.033 A 
HETATM   25  C   UNL     1      -4.250  -1.596 -32.735  1.00  0.00     0.034 A 
HETATM   26 CL   UNL     1      -3.098  -2.611 -31.963  1.00  0.00    -0.084 Cl
HETATM   27  C   UNL     1      -4.981  -2.073 -33.818  1.00  0.00     0.024 A 
HETATM   28  C   UNL     1      -5.924  -1.250 -34.430  1.00  0.00     0.002 A 
HETATM   29  C   UNL     1      -6.136   0.046 -33.958  1.00  0.00     0.009 A 
ENDBRANCH  16  23
ENDBRANCH   1  16
TORSDOF 6
ENDMDL
MODEL 6
REMARK VINA RESULT:      -7.3     15.886     18.150
REMARK  6 active torsions:
REMARK  status: ('A' for Active; 'I' for Inactive)
REMARK    1  A    between atoms: C_8  and  C_9 
REMARK    2  A    between atoms: C_9  and  C_10 
REMARK       I    between atoms: C_10  and  N_11 
REMARK    3  A    between atoms: N_11  and  C_12 
REMARK    4  A    between atoms: C_12  and  C_13 
REMARK    5  A    between atoms: C_13  and  N_14 
REMARK    6  A    between atoms: C_13  and  C_20 
ROOT
HETATM    1  C   UNL     1      -4.901 -12.197 -39.583  1.00  0.00     0.160 C 
ENDROOT
BRANCH   1   2
HETATM    2  N   UNL     1      -6.174 -12.252 -38.871  1.00  0.00    -0.358 N 
HETATM    3  C   UNL     1      -7.349 -12.440 -39.574  1.00  0.00     0.226 C 
HETATM    4  O   UNL     1      -7.354 -12.274 -40.797  1.00  0.00    -0.273 OA
HETATM    5  H   UNL     1      -6.147 -12.593 -37.916  1.00  0.00     0.162 HD
BRANCH   3   6
HETATM    6  C   UNL     1      -8.612 -12.772 -38.770  1.00  0.00     0.111 C 
HETATM    7  C   UNL     1      -8.342 -13.576 -37.498  1.00  0.00     0.025 C 
BRANCH   6   8
HETATM    8  C   UNL     1      -9.698 -13.378 -39.613  1.00  0.00     0.004 A 
HETATM    9  C   UNL     1     -10.686 -12.679 -40.293  1.00  0.00     0.033 A 
HETATM   10  C   UNL     1     -10.973 -11.230 -40.418  1.00  0.00     0.070 C 
HETATM   11  N   UNL     1     -11.465 -13.618 -40.907  1.00  0.00    -0.282 N 
HETATM   12  H   UNL     1     -12.283 -13.475 -41.492  1.00  0.00     0.189 HD
HETATM   13  N   UNL     1     -11.071 -14.872 -40.670  1.00  0.00    -0.179 NA
HETATM   14  C   UNL     1     -10.005 -14.747 -39.874  1.00  0.00     0.060 A 
HETATM   15  C   UNL     1      -9.338 -15.983 -39.397  1.00  0.00     0.073 C 
ENDBRANCH   6   8
ENDBRANCH   3   6
ENDBRANCH   1   2
BRANCH   1  16
HETATM   16  C   UNL     1      -4.108 -13.544 -39.722  1.00  0.00     0.238 C 
BRANCH  16  17
HETATM   17  N   UNL     1      -2.586 -13.319 -39.680  1.00  0.00    -0.061 N 
HETATM   18  H   UNL     1      -2.376 -12.685 -40.481  1.00  0.00     0.280 HD
HETATM   19  C   UNL     1      -1.689 -14.534 -39.784  1.00  0.00     0.236 C 
HETATM   20  C   UNL     1      -1.373 -14.869 -38.345  1.00  0.00     0.029 C 
HETATM   21  C   UNL     1      -1.106 -13.503 -37.752  1.00  0.00     0.029 C 
HETATM   22  C   UNL     1      -2.120 -12.590 -38.419  1.00  0.00     0.236 C 
ENDBRANCH  16  17
BRANCH  16  23
HETATM   23  C   UNL     1      -4.623 -14.299 -40.938  1.00  0.00    -0.024 A 
HETATM   24  C   UNL     1      -5.430 -15.446 -40.813  1.00  0.00     0.033 A 
HETATM   25  C   UNL     1      -5.892 -16.113 -41.950  1.00  0.00     0.034 A 
HETATM   26 CL   UNL     1      -6.896 -17.496 -41.771  1.00  0.00    -0.084 Cl
HETATM   27  C   UNL     1      -5.555 -15.660 -43.221  1.00  0.00     0.024 A 
HETATM   28  C   UNL     1      -4.752 -14.530 -43.361  1.00  0.00     0.002 A 
HETATM   29  C   UNL     1      -4.291 -13.853 -42.231  1.00  0.00     0.009 A 
ENDBRANCH  16  23
ENDBRANCH   1  16
TORSDOF 6
ENDMDL
MODEL 7
REMARK VINA RESULT:      -7.3      1.662      2.164
REMARK  6 active torsions:
REMARK  status: ('A' for Active; 'I' for Inactive)
REMARK    1  A    between atoms: C_8  and  C_9 
REMARK    2  A    between atoms: C_9  and  C_10 
REMARK       I    between atoms: C_10  and  N_11 
REMARK    3  A    between atoms: N_11  and  C_12 
REMARK    4  A    between atoms: C_12  and  C_13 
REMARK    5  A    between atoms: C_13  and  N_14 
REMARK    6  A    between atoms: C_13  and  C_20 
ROOT
HETATM    1  C   UNL     1      -5.170   0.906 -32.362  1.00  0.00     0.160 C 
ENDROOT
BRANCH   1   2
HETATM    2  N   UNL     1      -4.913   2.332 -32.533  1.00  0.00    -0.358 N 
HETATM    3  C   UNL     1      -3.694   2.862 -32.154  1.00  0.00     0.226 C 
HETATM    4  O   UNL     1      -2.951   2.204 -31.421  1.00  0.00    -0.273 OA
HETATM    5  H   UNL     1      -5.404   2.795 -33.291  1.00  0.00     0.162 HD
BRANCH   3   6
HETATM    6  C   UNL     1      -3.370   4.291 -32.609  1.00  0.00     0.111 C 
HETATM    7  C   UNL     1      -2.245   4.371 -33.642  1.00  0.00     0.025 C 
BRANCH   6   8
HETATM    8  C   UNL     1      -3.163   5.236 -31.460  1.00  0.00     0.004 A 
HETATM    9  C   UNL     1      -1.944   5.563 -30.883  1.00  0.00     0.033 A 
HETATM   10  C   UNL     1      -0.555   5.140 -31.185  1.00  0.00     0.070 C 
HETATM   11  N   UNL     1      -2.222   6.432 -29.867  1.00  0.00    -0.282 N 
HETATM   12  H   UNL     1      -1.574   6.881 -29.226  1.00  0.00     0.189 HD
HETATM   13  N   UNL     1      -3.525   6.687 -29.728  1.00  0.00    -0.179 NA
HETATM   14  C   UNL     1      -4.116   5.958 -30.679  1.00  0.00     0.060 A 
HETATM   15  C   UNL     1      -5.596   5.997 -30.774  1.00  0.00     0.073 C 
ENDBRANCH   6   8
ENDBRANCH   3   6
ENDBRANCH   1   2
BRANCH   1  16
HETATM   16  C   UNL     1      -6.089   0.218 -33.432  1.00  0.00     0.238 C 
BRANCH  16  17
HETATM   17  N   UNL     1      -7.576   0.291 -33.042  1.00  0.00    -0.061 N 
HETATM   18  H   UNL     1      -7.951  -0.670 -33.191  1.00  0.00     0.280 HD
HETATM   19  C   UNL     1      -8.457   1.269 -33.791  1.00  0.00     0.236 C 
HETATM   20  C   UNL     1      -8.476   2.488 -32.899  1.00  0.00     0.029 C 
HETATM   21  C   UNL     1      -8.642   1.875 -31.527  1.00  0.00     0.029 C 
HETATM   22  C   UNL     1      -7.795   0.615 -31.563  1.00  0.00     0.236 C 
ENDBRANCH  16  17
BRANCH  16  23
HETATM   23  C   UNL     1      -5.558  -1.179 -33.718  1.00  0.00    -0.024 A 
HETATM   24  C   UNL     1      -6.307  -2.124 -34.444  1.00  0.00     0.033 A 
HETATM   25  C   UNL     1      -5.787  -3.396 -34.696  1.00  0.00     0.034 A 
HETATM   26 CL   UNL     1      -6.712  -4.523 -35.605  1.00  0.00    -0.084 Cl
HETATM   27  C   UNL     1      -4.527  -3.750 -34.226  1.00  0.00     0.024 A 
HETATM   28  C   UNL     1      -3.776  -2.827 -33.501  1.00  0.00     0.002 A 
HETATM   29  C   UNL     1      -4.284  -1.551 -33.250  1.00  0.00     0.009 A 
ENDBRANCH  16  23
ENDBRANCH   1  16
TORSDOF 6
ENDMDL
MODEL 8
REMARK VINA RESULT:      -7.1     15.673     17.631
REMARK  6 active torsions:
REMARK  status: ('A' for Active; 'I' for Inactive)
REMARK    1  A    between atoms: C_8  and  C_9 
REMARK    2  A    between atoms: C_9  and  C_10 
REMARK       I    between atoms: C_10  and  N_11 
REMARK    3  A    between atoms: N_11  and  C_12 
REMARK    4  A    between atoms: C_12  and  C_13 
REMARK    5  A    between atoms: C_13  and  N_14 
REMARK    6  A    between atoms: C_13  and  C_20 
ROOT
HETATM    1  C   UNL     1      -4.362 -12.522 -38.825  1.00  0.00     0.160 C 
ENDROOT
BRANCH   1   2
HETATM    2  N   UNL     1      -5.737 -12.316 -38.381  1.00  0.00    -0.358 N 
HETATM    3  C   UNL     1      -6.783 -12.847 -39.111  1.00  0.00     0.226 C 
HETATM    4  O   UNL     1      -6.579 -13.235 -40.265  1.00  0.00    -0.273 OA
HETATM    5  H   UNL     1      -5.880 -12.201 -37.383  1.00  0.00     0.162 HD
BRANCH   3   6
HETATM    6  C   UNL     1      -8.173 -12.848 -38.462  1.00  0.00     0.111 C 
HETATM    7  C   UNL     1      -8.174 -13.303 -37.002  1.00  0.00     0.025 C 
BRANCH   6   8
HETATM    8  C   UNL     1      -9.202 -13.566 -39.288  1.00  0.00     0.004 A 
HETATM    9  C   UNL     1     -10.157 -12.968 -40.098  1.00  0.00     0.033 A 
HETATM   10  C   UNL     1     -10.453 -11.548 -40.407  1.00  0.00     0.070 C 
HETATM   11  N   UNL     1     -10.889 -13.985 -40.642  1.00  0.00    -0.282 N 
HETATM   12  H   UNL     1     -11.674 -13.925 -41.284  1.00  0.00     0.189 HD
HETATM   13  N   UNL     1     -10.495 -15.196 -40.240  1.00  0.00    -0.179 NA
HETATM   14  C   UNL     1      -9.478 -14.962 -39.405  1.00  0.00     0.060 A 
HETATM   15  C   UNL     1      -8.826 -16.123 -38.752  1.00  0.00     0.073 C 
ENDBRANCH   6   8
ENDBRANCH   3   6
ENDBRANCH   1   2
BRANCH   1  16
HETATM   16  C   UNL     1      -3.440 -13.391 -37.898  1.00  0.00     0.238 C 
BRANCH  16  17
HETATM   17  N   UNL     1      -2.606 -14.401 -38.706  1.00  0.00    -0.061 N 
HETATM   18  H   UNL     1      -3.201 -15.252 -38.787  1.00  0.00     0.280 HD
HETATM   19  C   UNL     1      -1.259 -14.810 -38.150  1.00  0.00     0.236 C 
HETATM   20  C   UNL     1      -0.286 -13.898 -38.861  1.00  0.00     0.029 C 
HETATM   21  C   UNL     1      -0.807 -13.924 -40.280  1.00  0.00     0.029 C 
HETATM   22  C   UNL     1      -2.319 -13.937 -40.135  1.00  0.00     0.236 C 
ENDBRANCH  16  17
BRANCH  16  23
HETATM   23  C   UNL     1      -4.282 -13.986 -36.780  1.00  0.00    -0.024 A 
HETATM   24  C   UNL     1      -4.481 -13.312 -35.560  1.00  0.00     0.033 A 
HETATM   25  C   UNL     1      -5.265 -13.884 -34.556  1.00  0.00     0.034 A 
HETATM   26 CL   UNL     1      -5.514 -13.028 -33.086  1.00  0.00    -0.084 Cl
HETATM   27  C   UNL     1      -5.853 -15.131 -34.741  1.00  0.00     0.024 A 
HETATM   28  C   UNL     1      -5.660 -15.813 -35.940  1.00  0.00     0.002 A 
HETATM   29  C   UNL     1      -4.883 -15.247 -36.952  1.00  0.00     0.009 A 
ENDBRANCH  16  23
ENDBRANCH   1  16
TORSDOF 6
ENDMDL
MODEL 9
REMARK VINA RESULT:      -7.1      2.763      3.890
REMARK  6 active torsions:
REMARK  status: ('A' for Active; 'I' for Inactive)
REMARK    1  A    between atoms: C_8  and  C_9 
REMARK    2  A    between atoms: C_9  and  C_10 
REMARK       I    between atoms: C_10  and  N_11 
REMARK    3  A    between atoms: N_11  and  C_12 
REMARK    4  A    between atoms: C_12  and  C_13 
REMARK    5  A    between atoms: C_13  and  N_14 
REMARK    6  A    between atoms: C_13  and  C_20 
ROOT
HETATM    1  C   UNL     1      -3.249   2.348 -31.489  1.00  0.00     0.160 C 
ENDROOT
BRANCH   1   2
HETATM    2  N   UNL     1      -3.335   3.747 -31.083  1.00  0.00    -0.358 N 
HETATM    3  C   UNL     1      -2.500   4.685 -31.661  1.00  0.00     0.226 C 
HETATM    4  O   UNL     1      -1.509   4.304 -32.290  1.00  0.00    -0.273 OA
HETATM    5  H   UNL     1      -4.240   4.072 -30.757  1.00  0.00     0.162 HD
BRANCH   3   6
HETATM    6  C   UNL     1      -2.817   6.165 -31.414  1.00  0.00     0.111 C 
HETATM    7  C   UNL     1      -2.712   7.038 -32.666  1.00  0.00     0.025 C 
BRANCH   6   8
HETATM    8  C   UNL     1      -2.059   6.737 -30.250  1.00  0.00     0.004 A 
HETATM    9  C   UNL     1      -2.612   7.174 -29.054  1.00  0.00     0.033 A 
HETATM   10  C   UNL     1      -4.009   7.209 -28.558  1.00  0.00     0.070 C 
HETATM   11  N   UNL     1      -1.572   7.631 -28.296  1.00  0.00    -0.282 N 
HETATM   12  H   UNL     1      -1.599   8.026 -27.360  1.00  0.00     0.189 HD
HETATM   13  N   UNL     1      -0.388   7.539 -28.908  1.00  0.00    -0.179 NA
HETATM   14  C   UNL     1      -0.665   7.010 -30.103  1.00  0.00     0.060 A 
HETATM   15  C   UNL     1       0.454   6.803 -31.054  1.00  0.00     0.073 C 
ENDBRANCH   6   8
ENDBRANCH   3   6
ENDBRANCH   1   2
BRANCH   1  16
HETATM   16  C   UNL     1      -4.519   1.730 -32.175  1.00  0.00     0.238 C 
BRANCH  16  17
HETATM   17  N   UNL     1      -5.804   2.045 -31.389  1.00  0.00    -0.061 N 
HETATM   18  H   UNL     1      -5.748   3.060 -31.158  1.00  0.00     0.280 HD
HETATM   19  C   UNL     1      -6.058   1.276 -30.110  1.00  0.00     0.236 C 
HETATM   20  C   UNL     1      -6.962   0.146 -30.545  1.00  0.00     0.029 C 
HETATM   21  C   UNL     1      -7.929   0.851 -31.470  1.00  0.00     0.029 C 
HETATM   22  C   UNL     1      -7.076   1.862 -32.219  1.00  0.00     0.236 C 
ENDBRANCH  16  17
BRANCH  16  23
HETATM   23  C   UNL     1      -4.266   0.255 -32.449  1.00  0.00    -0.024 A 
HETATM   24  C   UNL     1      -4.942  -0.437 -33.471  1.00  0.00     0.033 A 
HETATM   25  C   UNL     1      -4.681  -1.789 -33.701  1.00  0.00     0.034 A 
HETATM   26 CL   UNL     1      -5.502  -2.605 -34.972  1.00  0.00    -0.084 Cl
HETATM   27  C   UNL     1      -3.759  -2.475 -32.919  1.00  0.00     0.024 A 
HETATM   28  C   UNL     1      -3.086  -1.805 -31.899  1.00  0.00     0.002 A 
HETATM   29  C   UNL     1      -3.335  -0.452 -31.665  1.00  0.00     0.009 A 
ENDBRANCH  16  23
ENDBRANCH   1  16
TORSDOF 6
ENDMDL
MODEL 10
REMARK VINA RESULT:      -7.1      1.450      1.982
REMARK  6 active torsions:
REMARK  status: ('A' for Active; 'I' for Inactive)
REMARK    1  A    between atoms: C_8  and  C_9 
REMARK    2  A    between atoms: C_9  and  C_10 
REMARK       I    between atoms: C_10  and  N_11 
REMARK    3  A    between atoms: N_11  and  C_12 
REMARK    4  A    between atoms: C_12  and  C_13 
REMARK    5  A    between atoms: C_13  and  N_14 
REMARK    6  A    between atoms: C_13  and  C_20 
ROOT
HETATM    1  C   UNL     1      -3.664   1.847 -31.908  1.00  0.00     0.160 C 
ENDROOT
BRANCH   1   2
HETATM    2  N   UNL     1      -3.529   3.226 -32.365  1.00  0.00    -0.358 N 
HETATM    3  C   UNL     1      -3.917   4.266 -31.541  1.00  0.00     0.226 C 
HETATM    4  O   UNL     1      -4.629   4.027 -30.562  1.00  0.00    -0.273 OA
HETATM    5  H   UNL     1      -2.786   3.415 -33.030  1.00  0.00     0.162 HD
BRANCH   3   6
HETATM    6  C   UNL     1      -3.498   5.685 -31.945  1.00  0.00     0.111 C 
HETATM    7  C   UNL     1      -4.673   6.635 -32.176  1.00  0.00     0.025 C 
BRANCH   6   8
HETATM    8  C   UNL     1      -2.514   5.702 -33.080  1.00  0.00     0.004 A 
HETATM    9  C   UNL     1      -1.165   6.015 -32.983  1.00  0.00     0.033 A 
HETATM   10  C   UNL     1      -0.311   6.392 -31.831  1.00  0.00     0.070 C 
HETATM   11  N   UNL     1      -0.660   5.926 -34.249  1.00  0.00    -0.282 N 
HETATM   12  H   UNL     1       0.294   6.088 -34.561  1.00  0.00     0.189 HD
HETATM   13  N   UNL     1      -1.575   5.593 -35.164  1.00  0.00    -0.179 NA
HETATM   14  C   UNL     1      -2.712   5.466 -34.474  1.00  0.00     0.060 A 
HETATM   15  C   UNL     1      -3.948   5.123 -35.218  1.00  0.00     0.073 C 
ENDBRANCH   6   8
ENDBRANCH   3   6
ENDBRANCH   1   2
BRANCH   1  16
HETATM   16  C   UNL     1      -4.935   1.062 -32.390  1.00  0.00     0.238 C 
BRANCH  16  17
HETATM   17  N   UNL     1      -6.128   1.265 -31.439  1.00  0.00    -0.061 N 
HETATM   18  H   UNL     1      -5.717   1.612 -30.546  1.00  0.00     0.280 HD
HETATM   19  C   UNL     1      -7.000   0.067 -31.131  1.00  0.00     0.236 C 
HETATM   20  C   UNL     1      -8.145   0.197 -32.108  1.00  0.00     0.029 C 
HETATM   21  C   UNL     1      -8.455   1.676 -32.038  1.00  0.00     0.029 C 
HETATM   22  C   UNL     1      -7.098   2.348 -31.916  1.00  0.00     0.236 C 
ENDBRANCH  16  17
BRANCH  16  23
HETATM   23  C   UNL     1      -4.552  -0.387 -32.655  1.00  0.00    -0.024 A 
HETATM   24  C   UNL     1      -5.104  -1.117 -33.724  1.00  0.00     0.033 A 
HETATM   25  C   UNL     1      -4.725  -2.443 -33.945  1.00  0.00     0.034 A 
HETATM   26 CL   UNL     1      -5.395  -3.305 -35.272  1.00  0.00    -0.084 Cl
HETATM   27  C   UNL     1      -3.807  -3.065 -33.106  1.00  0.00     0.024 A 
HETATM   28  C   UNL     1      -3.256  -2.357 -32.039  1.00  0.00     0.002 A 
HETATM   29  C   UNL     1      -3.623  -1.029 -31.815  1.00  0.00     0.009 A 
ENDBRANCH  16  23
ENDBRANCH   1  16
TORSDOF 6
ENDMDL
