MODEL 1
REMARK VINA RESULT:      -9.1      0.000      0.000
REMARK  9 active torsions:
REMARK  status: ('A' for Active; 'I' for Inactive)
REMARK    1  A    between atoms: C_3  and  C_4 
REMARK    2  A    between atoms: C_4  and  O_5 
REMARK    3  A    between atoms: C_8  and  C_9 
REMARK    4  A    between atoms: C_9  and  O_10 
REMARK    5  A    between atoms: O_10  and  C_11 
REMARK    6  A    between atoms: C_11  and  C_12 
REMARK    7  A    between atoms: C_15  and  C_16 
REMARK    8  A    between atoms: C_16  and  N_17 
REMARK       I    between atoms: N_17  and  C_18 
REMARK       I    between atoms: C_18  and  N_19 
REMARK    9  A    between atoms: N_19  and  C_20 
ROOT
HETATM    1  C   UNL     1      -6.224   4.510 -34.132  1.00  0.00     0.293 C 
HETATM    2  O   UNL     1      -7.317   5.051 -34.150  1.00  0.00    -0.259 OA
ENDROOT
BRANCH   1   3
HETATM    3  O   UNL     1      -5.971   3.213 -34.433  1.00  0.00    -0.311 OA
BRANCH   3   4
HETATM    4  C   UNL     1      -6.525   2.255 -33.515  1.00  0.00     0.239 C 
BRANCH   4   5
HETATM    5  C   UNL     1      -5.810   0.927 -33.421  1.00  0.00     0.076 A 
HETATM    6  C   UNL     1      -4.667   0.726 -32.652  1.00  0.00     0.073 A 
HETATM    7  C   UNL     1      -4.017  -0.528 -32.692  1.00  0.00    -0.031 A 
HETATM    8  C   UNL     1      -2.732  -0.760 -31.936  1.00  0.00     0.050 C 
HETATM    9  C   UNL     1      -4.605  -1.576 -33.455  1.00  0.00    -0.000 A 
HETATM   10  C   UNL     1      -5.770  -1.275 -34.193  1.00  0.00     0.068 A 
HETATM   11  C   UNL     1      -4.096  -2.897 -33.525  1.00  0.00     0.014 A 
HETATM   12  N   UNL     1      -6.333  -0.060 -34.198  1.00  0.00    -0.249 NA
HETATM   13  C   UNL     1      -6.368  -2.264 -34.961  1.00  0.00     0.032 A 
HETATM   14  C   UNL     1      -5.853  -3.559 -35.025  1.00  0.00     0.002 A 
HETATM   15  C   UNL     1      -4.714  -3.877 -34.304  1.00  0.00     0.001 A 
BRANCH   6  16
HETATM   16  C   UNL     1      -4.135   1.853 -31.866  1.00  0.00     0.295 C 
HETATM   17  O   UNL     1      -3.304   2.642 -32.281  1.00  0.00    -0.259 OA
BRANCH  16  18
HETATM   18  O   UNL     1      -4.730   1.855 -30.649  1.00  0.00    -0.322 OA
HETATM   19  C   UNL     1      -5.182   3.144 -30.232  1.00  0.00     0.213 C 
ENDBRANCH  16  18
ENDBRANCH   6  16
ENDBRANCH   4   5
ENDBRANCH   3   4
ENDBRANCH   1   3
BRANCH   1  20
HETATM   20  C   UNL     1      -4.955   5.256 -33.904  1.00  0.00     0.039 A 
HETATM   21  C   UNL     1      -3.944   5.142 -34.867  1.00  0.00     0.018 A 
HETATM   22  C   UNL     1      -2.669   5.665 -34.622  1.00  0.00     0.010 A 
HETATM   23  C   UNL     1      -2.384   6.295 -33.404  1.00  0.00    -0.040 A 
HETATM   24  C   UNL     1      -3.417   6.470 -32.471  1.00  0.00     0.010 A 
HETATM   25  C   UNL     1      -4.694   5.952 -32.717  1.00  0.00     0.018 A 
BRANCH  23  26
HETATM   26  C   UNL     1      -0.979   6.732 -33.083  1.00  0.00     0.162 C 
BRANCH  26  27
HETATM   27  N   UNL     1      -0.885   7.379 -31.798  1.00  0.00    -0.339 N 
HETATM   28  C   UNL     1      -0.017   6.847 -30.876  1.00  0.00     0.316 C 
HETATM   29  N   UNL     1      -0.131   7.480 -29.666  1.00  0.00    -0.339 N 
HETATM   30  O   UNL     1       0.746   5.923 -31.116  1.00  0.00    -0.247 OA
HETATM   31  H   UNL     1      -0.452   8.434 -29.726  1.00  0.00     0.164 HD
HETATM   32  H   UNL     1      -1.743   7.740 -31.411  1.00  0.00     0.164 HD
BRANCH  29  33
HETATM   33  C   UNL     1       0.693   7.147 -28.507  1.00  0.00     0.078 C 
HETATM   34  C   UNL     1       1.364   8.374 -27.891  1.00  0.00     0.032 C 
HETATM   35  C   UNL     1      -0.079   6.347 -27.459  1.00  0.00     0.032 C 
ENDBRANCH  29  33
ENDBRANCH  26  27
ENDBRANCH  23  26
ENDBRANCH   1  20
TORSDOF 9
ENDMDL
MODEL 2
REMARK VINA RESULT:      -8.4      1.529      2.138
REMARK  9 active torsions:
REMARK  status: ('A' for Active; 'I' for Inactive)
REMARK    1  A    between atoms: C_3  and  C_4 
REMARK    2  A    between atoms: C_4  and  O_5 
REMARK    3  A    between atoms: C_8  and  C_9 
REMARK    4  A    between atoms: C_9  and  O_10 
REMARK    5  A    between atoms: O_10  and  C_11 
REMARK    6  A    between atoms: C_11  and  C_12 
REMARK    7  A    between atoms: C_15  and  C_16 
REMARK    8  A    between atoms: C_16  and  N_17 
REMARK       I    between atoms: N_17  and  C_18 
REMARK       I    between atoms: C_18  and  N_19 
REMARK    9  A    between atoms: N_19  and  C_20 
ROOT
HETATM    1  C   UNL     1      -7.864   3.217 -33.771  1.00  0.00     0.293 C 
HETATM    2  O   UNL     1      -8.983   3.675 -33.933  1.00  0.00    -0.259 OA
ENDROOT
BRANCH   1   3
HETATM    3  O   UNL     1      -7.453   1.975 -34.123  1.00  0.00    -0.311 OA
BRANCH   3   4
HETATM    4  C   UNL     1      -7.559   0.981 -33.090  1.00  0.00     0.239 C 
BRANCH   4   5
HETATM    5  C   UNL     1      -6.593  -0.178 -33.173  1.00  0.00     0.076 A 
HETATM    6  C   UNL     1      -5.349  -0.183 -32.550  1.00  0.00     0.073 A 
HETATM    7  C   UNL     1      -4.477  -1.276 -32.754  1.00  0.00    -0.031 A 
HETATM    8  C   UNL     1      -3.090  -1.283 -32.161  1.00  0.00     0.050 C 
HETATM    9  C   UNL     1      -4.938  -2.381 -33.524  1.00  0.00    -0.000 A 
HETATM   10  C   UNL     1      -6.220  -2.283 -34.107  1.00  0.00     0.068 A 
HETATM   11  C   UNL     1      -4.194  -3.566 -33.747  1.00  0.00     0.014 A 
HETATM   12  N   UNL     1      -7.005  -1.209 -33.960  1.00  0.00    -0.249 NA
HETATM   13  C   UNL     1      -6.702  -3.332 -34.877  1.00  0.00     0.032 A 
HETATM   14  C   UNL     1      -5.958  -4.492 -35.094  1.00  0.00     0.002 A 
HETATM   15  C   UNL     1      -4.700  -4.610 -34.526  1.00  0.00     0.001 A 
BRANCH   6  16
HETATM   16  C   UNL     1      -4.955   0.986 -31.745  1.00  0.00     0.295 C 
HETATM   17  O   UNL     1      -5.260   1.142 -30.576  1.00  0.00    -0.259 OA
BRANCH  16  18
HETATM   18  O   UNL     1      -4.210   1.815 -32.514  1.00  0.00    -0.322 OA
HETATM   19  C   UNL     1      -3.262   2.587 -31.776  1.00  0.00     0.213 C 
ENDBRANCH  16  18
ENDBRANCH   6  16
ENDBRANCH   4   5
ENDBRANCH   3   4
ENDBRANCH   1   3
BRANCH   1  20
HETATM   20  C   UNL     1      -6.719   4.031 -33.275  1.00  0.00     0.039 A 
HETATM   21  C   UNL     1      -6.694   4.369 -31.915  1.00  0.00     0.018 A 
HETATM   22  C   UNL     1      -5.751   5.280 -31.429  1.00  0.00     0.010 A 
HETATM   23  C   UNL     1      -4.828   5.877 -32.298  1.00  0.00    -0.040 A 
HETATM   24  C   UNL     1      -4.810   5.483 -33.644  1.00  0.00     0.010 A 
HETATM   25  C   UNL     1      -5.750   4.569 -34.131  1.00  0.00     0.018 A 
BRANCH  23  26
HETATM   26  C   UNL     1      -3.906   6.960 -31.803  1.00  0.00     0.162 C 
BRANCH  26  27
HETATM   27  N   UNL     1      -3.163   6.556 -30.635  1.00  0.00    -0.339 N 
HETATM   28  C   UNL     1      -1.792   6.632 -30.690  1.00  0.00     0.316 C 
HETATM   29  N   UNL     1      -1.221   6.095 -29.566  1.00  0.00    -0.339 N 
HETATM   30  O   UNL     1      -1.177   7.111 -31.631  1.00  0.00    -0.247 OA
HETATM   31  H   UNL     1      -1.805   6.136 -28.745  1.00  0.00     0.164 HD
HETATM   32  H   UNL     1      -3.521   5.764 -30.123  1.00  0.00     0.164 HD
BRANCH  29  33
HETATM   33  C   UNL     1       0.221   6.069 -29.335  1.00  0.00     0.078 C 
HETATM   34  C   UNL     1       0.590   6.408 -27.891  1.00  0.00     0.032 C 
HETATM   35  C   UNL     1       0.854   4.752 -29.779  1.00  0.00     0.032 C 
ENDBRANCH  29  33
ENDBRANCH  26  27
ENDBRANCH  23  26
ENDBRANCH   1  20
TORSDOF 9
ENDMDL
MODEL 3
REMARK VINA RESULT:      -8.3      3.020      4.609
REMARK  9 active torsions:
REMARK  status: ('A' for Active; 'I' for Inactive)
REMARK    1  A    between atoms: C_3  and  C_4 
REMARK    2  A    between atoms: C_4  and  O_5 
REMARK    3  A    between atoms: C_8  and  C_9 
REMARK    4  A    between atoms: C_9  and  O_10 
REMARK    5  A    between atoms: O_10  and  C_11 
REMARK    6  A    between atoms: C_11  and  C_12 
REMARK    7  A    between atoms: C_15  and  C_16 
REMARK    8  A    between atoms: C_16  and  N_17 
REMARK       I    between atoms: N_17  and  C_18 
REMARK       I    between atoms: C_18  and  N_19 
REMARK    9  A    between atoms: N_19  and  C_20 
ROOT
HETATM    1  C   UNL     1     -10.375   0.921 -33.189  1.00  0.00     0.293 C 
HETATM    2  O   UNL     1     -11.533   0.700 -33.502  1.00  0.00    -0.259 OA
ENDROOT
BRANCH   1   3
HETATM    3  O   UNL     1      -9.382   0.002 -33.110  1.00  0.00    -0.311 OA
BRANCH   3   4
HETATM    4  C   UNL     1      -8.383   0.092 -34.140  1.00  0.00     0.239 C 
BRANCH   4   5
HETATM    5  C   UNL     1      -7.125  -0.717 -33.926  1.00  0.00     0.076 A 
HETATM    6  C   UNL     1      -5.984  -0.209 -33.312  1.00  0.00     0.073 A 
HETATM    7  C   UNL     1      -4.825  -1.013 -33.232  1.00  0.00    -0.031 A 
HETATM    8  C   UNL     1      -3.544  -0.471 -32.645  1.00  0.00     0.050 C 
HETATM    9  C   UNL     1      -4.891  -2.353 -33.707  1.00  0.00    -0.000 A 
HETATM   10  C   UNL     1      -6.097  -2.777 -34.305  1.00  0.00     0.068 A 
HETATM   11  C   UNL     1      -3.826  -3.284 -33.624  1.00  0.00     0.014 A 
HETATM   12  N   UNL     1      -7.163  -1.978 -34.436  1.00  0.00    -0.249 NA
HETATM   13  C   UNL     1      -6.199  -4.071 -34.795  1.00  0.00     0.032 A 
HETATM   14  C   UNL     1      -5.141  -4.977 -34.712  1.00  0.00     0.002 A 
HETATM   15  C   UNL     1      -3.951  -4.583 -34.123  1.00  0.00     0.001 A 
BRANCH   6  16
HETATM   16  C   UNL     1      -6.004   1.179 -32.819  1.00  0.00     0.295 C 
HETATM   17  O   UNL     1      -5.757   2.152 -33.509  1.00  0.00    -0.259 OA
BRANCH  16  18
HETATM   18  O   UNL     1      -6.348   1.172 -31.508  1.00  0.00    -0.322 OA
HETATM   19  C   UNL     1      -5.531   2.014 -30.694  1.00  0.00     0.213 C 
ENDBRANCH  16  18
ENDBRANCH   6  16
ENDBRANCH   4   5
ENDBRANCH   3   4
ENDBRANCH   1   3
BRANCH   1  20
HETATM   20  C   UNL     1      -9.840   2.295 -32.978  1.00  0.00     0.039 A 
HETATM   21  C   UNL     1      -9.715   3.131 -34.095  1.00  0.00     0.018 A 
HETATM   22  C   UNL     1      -9.051   4.358 -33.992  1.00  0.00     0.010 A 
HETATM   23  C   UNL     1      -8.490   4.759 -32.772  1.00  0.00    -0.040 A 
HETATM   24  C   UNL     1      -8.679   3.954 -31.640  1.00  0.00     0.010 A 
HETATM   25  C   UNL     1      -9.347   2.729 -31.740  1.00  0.00     0.018 A 
BRANCH  23  26
HETATM   26  C   UNL     1      -7.656   6.011 -32.693  1.00  0.00     0.162 C 
BRANCH  26  27
HETATM   27  N   UNL     1      -6.456   5.921 -33.487  1.00  0.00    -0.339 N 
HETATM   28  C   UNL     1      -5.278   5.642 -32.837  1.00  0.00     0.316 C 
HETATM   29  N   UNL     1      -4.210   5.719 -33.693  1.00  0.00    -0.339 N 
HETATM   30  O   UNL     1      -5.207   5.371 -31.648  1.00  0.00    -0.247 OA
HETATM   31  H   UNL     1      -4.438   5.531 -34.657  1.00  0.00     0.164 HD
HETATM   32  H   UNL     1      -6.372   6.572 -34.253  1.00  0.00     0.164 HD
BRANCH  29  33
HETATM   33  C   UNL     1      -2.836   5.439 -33.286  1.00  0.00     0.078 C 
HETATM   34  C   UNL     1      -2.577   3.946 -33.081  1.00  0.00     0.032 C 
HETATM   35  C   UNL     1      -1.813   6.059 -34.236  1.00  0.00     0.032 C 
ENDBRANCH  29  33
ENDBRANCH  26  27
ENDBRANCH  23  26
ENDBRANCH   1  20
TORSDOF 9
ENDMDL
MODEL 4
REMARK VINA RESULT:      -8.2      2.173      9.788
REMARK  9 active torsions:
REMARK  status: ('A' for Active; 'I' for Inactive)
REMARK    1  A    between atoms: C_3  and  C_4 
REMARK    2  A    between atoms: C_4  and  O_5 
REMARK    3  A    between atoms: C_8  and  C_9 
REMARK    4  A    between atoms: C_9  and  O_10 
REMARK    5  A    between atoms: O_10  and  C_11 
REMARK    6  A    between atoms: C_11  and  C_12 
REMARK    7  A    between atoms: C_15  and  C_16 
REMARK    8  A    between atoms: C_16  and  N_17 
REMARK       I    between atoms: N_17  and  C_18 
REMARK       I    between atoms: C_18  and  N_19 
REMARK    9  A    between atoms: N_19  and  C_20 
ROOT
HETATM    1  C   UNL     1      -1.619   4.760 -32.829  1.00  0.00     0.293 C 
HETATM    2  O   UNL     1      -1.193   5.177 -33.892  1.00  0.00    -0.259 OA
ENDROOT
BRANCH   1   3
HETATM    3  O   UNL     1      -1.016   4.891 -31.622  1.00  0.00    -0.311 OA
BRANCH   3   4
HETATM    4  C   UNL     1      -0.114   6.005 -31.508  1.00  0.00     0.239 C 
BRANCH   4   5
HETATM    5  C   UNL     1      -0.313   6.909 -30.314  1.00  0.00     0.076 A 
HETATM    6  C   UNL     1      -1.279   7.910 -30.265  1.00  0.00     0.073 A 
HETATM    7  C   UNL     1      -1.336   8.762 -29.140  1.00  0.00    -0.031 A 
HETATM    8  C   UNL     1      -2.316   9.908 -29.083  1.00  0.00     0.050 C 
HETATM    9  C   UNL     1      -0.455   8.513 -28.050  1.00  0.00    -0.000 A 
HETATM   10  C   UNL     1       0.483   7.468 -28.193  1.00  0.00     0.068 A 
HETATM   11  C   UNL     1      -0.454   9.247 -26.838  1.00  0.00     0.014 A 
HETATM   12  N   UNL     1       0.569   6.714 -29.296  1.00  0.00    -0.249 NA
HETATM   13  C   UNL     1       1.371   7.200 -27.161  1.00  0.00     0.032 A 
HETATM   14  C   UNL     1       1.365   7.933 -25.974  1.00  0.00     0.002 A 
HETATM   15  C   UNL     1       0.448   8.959 -25.811  1.00  0.00     0.001 A 
BRANCH   6  16
HETATM   16  C   UNL     1      -2.175   8.087 -31.421  1.00  0.00     0.295 C 
HETATM   17  O   UNL     1      -1.914   8.783 -32.386  1.00  0.00    -0.259 OA
BRANCH  16  18
HETATM   18  O   UNL     1      -3.294   7.349 -31.223  1.00  0.00    -0.322 OA
HETATM   19  C   UNL     1      -4.505   8.095 -31.352  1.00  0.00     0.213 C 
ENDBRANCH  16  18
ENDBRANCH   6  16
ENDBRANCH   4   5
ENDBRANCH   3   4
ENDBRANCH   1   3
BRANCH   1  20
HETATM   20  C   UNL     1      -2.970   4.149 -32.679  1.00  0.00     0.039 A 
HETATM   21  C   UNL     1      -3.104   3.055 -31.814  1.00  0.00     0.018 A 
HETATM   22  C   UNL     1      -4.298   2.327 -31.773  1.00  0.00     0.010 A 
HETATM   23  C   UNL     1      -5.369   2.674 -32.607  1.00  0.00    -0.040 A 
HETATM   24  C   UNL     1      -5.256   3.812 -33.420  1.00  0.00     0.010 A 
HETATM   25  C   UNL     1      -4.065   4.544 -33.459  1.00  0.00     0.018 A 
BRANCH  23  26
HETATM   26  C   UNL     1      -6.600   1.808 -32.665  1.00  0.00     0.162 C 
BRANCH  26  27
HETATM   27  N   UNL     1      -6.504   0.784 -33.675  1.00  0.00    -0.339 N 
HETATM   28  C   UNL     1      -6.211  -0.494 -33.265  1.00  0.00     0.316 C 
HETATM   29  N   UNL     1      -6.022  -1.327 -34.337  1.00  0.00    -0.339 N 
HETATM   30  O   UNL     1      -6.125  -0.827 -32.092  1.00  0.00    -0.247 OA
HETATM   31  H   UNL     1      -6.518  -1.048 -35.170  1.00  0.00     0.164 HD
HETATM   32  H   UNL     1      -6.084   1.053 -34.551  1.00  0.00     0.164 HD
BRANCH  29  33
HETATM   33  C   UNL     1      -5.731  -2.752 -34.203  1.00  0.00     0.078 C 
HETATM   34  C   UNL     1      -6.761  -3.631 -34.911  1.00  0.00     0.032 C 
HETATM   35  C   UNL     1      -4.308  -3.095 -34.639  1.00  0.00     0.032 C 
ENDBRANCH  29  33
ENDBRANCH  26  27
ENDBRANCH  23  26
ENDBRANCH   1  20
TORSDOF 9
ENDMDL
MODEL 5
REMARK VINA RESULT:      -8.2      2.305      3.901
REMARK  9 active torsions:
REMARK  status: ('A' for Active; 'I' for Inactive)
REMARK    1  A    between atoms: C_3  and  C_4 
REMARK    2  A    between atoms: C_4  and  O_5 
REMARK    3  A    between atoms: C_8  and  C_9 
REMARK    4  A    between atoms: C_9  and  O_10 
REMARK    5  A    between atoms: O_10  and  C_11 
REMARK    6  A    between atoms: C_11  and  C_12 
REMARK    7  A    between atoms: C_15  and  C_16 
REMARK    8  A    between atoms: C_16  and  N_17 
REMARK       I    between atoms: N_17  and  C_18 
REMARK       I    between atoms: C_18  and  N_19 
REMARK    9  A    between atoms: N_19  and  C_20 
ROOT
HETATM    1  C   UNL     1      -2.306   4.114 -32.421  1.00  0.00     0.293 C 
HETATM    2  O   UNL     1      -2.413   4.143 -33.635  1.00  0.00    -0.259 OA
ENDROOT
BRANCH   1   3
HETATM    3  O   UNL     1      -2.664   3.087 -31.613  1.00  0.00    -0.311 OA
BRANCH   3   4
HETATM    4  C   UNL     1      -4.080   2.915 -31.434  1.00  0.00     0.239 C 
BRANCH   4   5
HETATM    5  C   UNL     1      -4.750   1.901 -32.330  1.00  0.00     0.076 A 
HETATM    6  C   UNL     1      -5.937   2.150 -33.014  1.00  0.00     0.073 A 
HETATM    7  C   UNL     1      -6.536   1.112 -33.762  1.00  0.00    -0.031 A 
HETATM    8  C   UNL     1      -7.862   1.319 -34.451  1.00  0.00     0.050 C 
HETATM    9  C   UNL     1      -5.857  -0.135 -33.863  1.00  0.00    -0.000 A 
HETATM   10  C   UNL     1      -4.654  -0.286 -33.139  1.00  0.00     0.068 A 
HETATM   11  C   UNL     1      -6.312  -1.233 -34.635  1.00  0.00     0.014 A 
HETATM   12  N   UNL     1      -4.137   0.687 -32.379  1.00  0.00    -0.249 NA
HETATM   13  C   UNL     1      -3.968  -1.490 -33.198  1.00  0.00     0.032 A 
HETATM   14  C   UNL     1      -4.428  -2.565 -33.958  1.00  0.00     0.002 A 
HETATM   15  C   UNL     1      -5.604  -2.436 -34.681  1.00  0.00     0.001 A 
BRANCH   6  16
HETATM   16  C   UNL     1      -6.564   3.476 -32.883  1.00  0.00     0.295 C 
HETATM   17  O   UNL     1      -7.330   3.783 -31.986  1.00  0.00    -0.259 OA
BRANCH  16  18
HETATM   18  O   UNL     1      -6.137   4.264 -33.899  1.00  0.00    -0.322 OA
HETATM   19  C   UNL     1      -5.669   5.545 -33.476  1.00  0.00     0.213 C 
ENDBRANCH  16  18
ENDBRANCH   6  16
ENDBRANCH   4   5
ENDBRANCH   3   4
ENDBRANCH   1   3
BRANCH   1  20
HETATM   20  C   UNL     1      -1.619   5.183 -31.642  1.00  0.00     0.039 A 
HETATM   21  C   UNL     1      -0.218   5.211 -31.658  1.00  0.00     0.018 A 
HETATM   22  C   UNL     1       0.484   6.069 -30.805  1.00  0.00     0.010 A 
HETATM   23  C   UNL     1      -0.206   6.900 -29.912  1.00  0.00    -0.040 A 
HETATM   24  C   UNL     1      -1.608   6.921 -29.948  1.00  0.00     0.010 A 
HETATM   25  C   UNL     1      -2.311   6.067 -30.804  1.00  0.00     0.018 A 
BRANCH  23  26
HETATM   26  C   UNL     1       0.549   7.719 -28.898  1.00  0.00     0.162 C 
BRANCH  26  27
HETATM   27  N   UNL     1      -0.325   8.537 -28.094  1.00  0.00    -0.339 N 
HETATM   28  C   UNL     1      -0.497   8.188 -26.777  1.00  0.00     0.316 C 
HETATM   29  N   UNL     1      -1.449   8.970 -26.177  1.00  0.00    -0.339 N 
HETATM   30  O   UNL     1       0.120   7.287 -26.228  1.00  0.00    -0.247 OA
HETATM   31  H   UNL     1      -1.550   9.886 -26.587  1.00  0.00     0.164 HD
HETATM   32  H   UNL     1      -1.151   8.895 -28.547  1.00  0.00     0.164 HD
BRANCH  29  33
HETATM   33  C   UNL     1      -1.817   8.845 -24.769  1.00  0.00     0.078 C 
HETATM   34  C   UNL     1      -1.531  10.119 -23.973  1.00  0.00     0.032 C 
HETATM   35  C   UNL     1      -3.262   8.385 -24.588  1.00  0.00     0.032 C 
ENDBRANCH  29  33
ENDBRANCH  26  27
ENDBRANCH  23  26
ENDBRANCH   1  20
TORSDOF 9
ENDMDL
MODEL 6
REMARK VINA RESULT:      -8.2      1.992      2.840
REMARK  9 active torsions:
REMARK  status: ('A' for Active; 'I' for Inactive)
REMARK    1  A    between atoms: C_3  and  C_4 
REMARK    2  A    between atoms: C_4  and  O_5 
REMARK    3  A    between atoms: C_8  and  C_9 
REMARK    4  A    between atoms: C_9  and  O_10 
REMARK    5  A    between atoms: O_10  and  C_11 
REMARK    6  A    between atoms: C_11  and  C_12 
REMARK    7  A    between atoms: C_15  and  C_16 
REMARK    8  A    between atoms: C_16  and  N_17 
REMARK       I    between atoms: N_17  and  C_18 
REMARK       I    between atoms: C_18  and  N_19 
REMARK    9  A    between atoms: N_19  and  C_20 
ROOT
HETATM    1  C   UNL     1      -4.250   5.509 -34.290  1.00  0.00     0.293 C 
HETATM    2  O   UNL     1      -4.403   5.118 -35.435  1.00  0.00    -0.259 OA
ENDROOT
BRANCH   1   3
HETATM    3  O   UNL     1      -5.237   5.766 -33.397  1.00  0.00    -0.311 OA
BRANCH   3   4
HETATM    4  C   UNL     1      -6.462   5.047 -33.617  1.00  0.00     0.239 C 
BRANCH   4   5
HETATM    5  C   UNL     1      -6.464   3.589 -33.217  1.00  0.00     0.076 A 
HETATM    6  C   UNL     1      -6.278   3.155 -31.907  1.00  0.00     0.073 A 
HETATM    7  C   UNL     1      -6.211   1.770 -31.640  1.00  0.00    -0.031 A 
HETATM    8  C   UNL     1      -5.932   1.261 -30.248  1.00  0.00     0.050 C 
HETATM    9  C   UNL     1      -6.423   0.858 -32.713  1.00  0.00    -0.000 A 
HETATM   10  C   UNL     1      -6.612   1.398 -34.003  1.00  0.00     0.068 A 
HETATM   11  C   UNL     1      -6.450  -0.552 -32.570  1.00  0.00     0.014 A 
HETATM   12  N   UNL     1      -6.603   2.714 -34.249  1.00  0.00    -0.249 NA
HETATM   13  C   UNL     1      -6.807   0.544 -35.079  1.00  0.00     0.032 A 
HETATM   14  C   UNL     1      -6.826  -0.842 -34.927  1.00  0.00     0.002 A 
HETATM   15  C   UNL     1      -6.649  -1.392 -33.668  1.00  0.00     0.001 A 
BRANCH   6  16
HETATM   16  C   UNL     1      -6.096   4.162 -30.847  1.00  0.00     0.295 C 
HETATM   17  O   UNL     1      -5.010   4.539 -30.444  1.00  0.00    -0.259 OA
BRANCH  16  18
HETATM   18  O   UNL     1      -7.315   4.582 -30.429  1.00  0.00    -0.322 OA
HETATM   19  C   UNL     1      -7.374   4.880 -29.034  1.00  0.00     0.213 C 
ENDBRANCH  16  18
ENDBRANCH   6  16
ENDBRANCH   4   5
ENDBRANCH   3   4
ENDBRANCH   1   3
BRANCH   1  20
HETATM   20  C   UNL     1      -2.911   5.632 -33.648  1.00  0.00     0.039 A 
HETATM   21  C   UNL     1      -2.532   4.648 -32.726  1.00  0.00     0.018 A 
HETATM   22  C   UNL     1      -1.375   4.805 -31.956  1.00  0.00     0.010 A 
HETATM   23  C   UNL     1      -0.588   5.957 -32.087  1.00  0.00    -0.040 A 
HETATM   24  C   UNL     1      -0.932   6.907 -33.061  1.00  0.00     0.010 A 
HETATM   25  C   UNL     1      -2.086   6.748 -33.835  1.00  0.00     0.018 A 
BRANCH  23  26
HETATM   26  C   UNL     1       0.577   6.193 -31.163  1.00  0.00     0.162 C 
BRANCH  26  27
HETATM   27  N   UNL     1       0.266   7.136 -30.117  1.00  0.00    -0.339 N 
HETATM   28  C   UNL     1       0.426   6.725 -28.816  1.00  0.00     0.316 C 
HETATM   29  N   UNL     1      -0.030   7.674 -27.938  1.00  0.00    -0.339 N 
HETATM   30  O   UNL     1       0.905   5.647 -28.499  1.00  0.00    -0.247 OA
HETATM   31  H   UNL     1       0.007   8.617 -28.292  1.00  0.00     0.164 HD
HETATM   32  H   UNL     1      -0.525   7.740 -30.276  1.00  0.00     0.164 HD
BRANCH  29  33
HETATM   33  C   UNL     1       0.043   7.523 -26.487  1.00  0.00     0.078 C 
HETATM   34  C   UNL     1       1.411   7.909 -25.925  1.00  0.00     0.032 C 
HETATM   35  C   UNL     1      -1.085   8.263 -25.771  1.00  0.00     0.032 C 
ENDBRANCH  29  33
ENDBRANCH  26  27
ENDBRANCH  23  26
ENDBRANCH   1  20
TORSDOF 9
ENDMDL
MODEL 7
REMARK VINA RESULT:      -8.1      3.740      9.286
REMARK  9 active torsions:
REMARK  status: ('A' for Active; 'I' for Inactive)
REMARK    1  A    between atoms: C_3  and  C_4 
REMARK    2  A    between atoms: C_4  and  O_5 
REMARK    3  A    between atoms: C_8  and  C_9 
REMARK    4  A    between atoms: C_9  and  O_10 
REMARK    5  A    between atoms: O_10  and  C_11 
REMARK    6  A    between atoms: C_11  and  C_12 
REMARK    7  A    between atoms: C_15  and  C_16 
REMARK    8  A    between atoms: C_16  and  N_17 
REMARK       I    between atoms: N_17  and  C_18 
REMARK       I    between atoms: C_18  and  N_19 
REMARK    9  A    between atoms: N_19  and  C_20 
ROOT
HETATM    1  C   UNL     1      -4.689  -0.206 -32.606  1.00  0.00     0.293 C 
HETATM    2  O   UNL     1      -4.173  -1.279 -32.342  1.00  0.00    -0.259 OA
ENDROOT
BRANCH   1   3
HETATM    3  O   UNL     1      -4.047   0.983 -32.715  1.00  0.00    -0.311 OA
BRANCH   3   4
HETATM    4  C   UNL     1      -3.932   1.728 -31.491  1.00  0.00     0.239 C 
BRANCH   4   5
HETATM    5  C   UNL     1      -3.670   3.210 -31.631  1.00  0.00     0.076 A 
HETATM    6  C   UNL     1      -4.673   4.145 -31.871  1.00  0.00     0.073 A 
HETATM    7  C   UNL     1      -4.324   5.498 -32.073  1.00  0.00    -0.031 A 
HETATM    8  C   UNL     1      -5.374   6.528 -32.413  1.00  0.00     0.050 C 
HETATM    9  C   UNL     1      -2.959   5.877 -31.937  1.00  0.00    -0.000 A 
HETATM   10  C   UNL     1      -2.018   4.856 -31.684  1.00  0.00     0.068 A 
HETATM   11  C   UNL     1      -2.484   7.209 -32.045  1.00  0.00     0.014 A 
HETATM   12  N   UNL     1      -2.359   3.567 -31.565  1.00  0.00    -0.249 NA
HETATM   13  C   UNL     1      -0.675   5.180 -31.559  1.00  0.00     0.032 A 
HETATM   14  C   UNL     1      -0.219   6.494 -31.673  1.00  0.00     0.002 A 
HETATM   15  C   UNL     1      -1.127   7.512 -31.915  1.00  0.00     0.001 A 
BRANCH   6  16
HETATM   16  C   UNL     1      -6.067   3.678 -31.969  1.00  0.00     0.295 C 
HETATM   17  O   UNL     1      -6.819   3.571 -31.016  1.00  0.00    -0.259 OA
BRANCH  16  18
HETATM   18  O   UNL     1      -6.349   3.412 -33.267  1.00  0.00    -0.322 OA
HETATM   19  C   UNL     1      -7.594   3.954 -33.708  1.00  0.00     0.213 C 
ENDBRANCH  16  18
ENDBRANCH   6  16
ENDBRANCH   4   5
ENDBRANCH   3   4
ENDBRANCH   1   3
BRANCH   1  20
HETATM   20  C   UNL     1      -6.121  -0.070 -32.993  1.00  0.00     0.039 A 
HETATM   21  C   UNL     1      -6.429  -0.000 -34.358  1.00  0.00     0.018 A 
HETATM   22  C   UNL     1      -7.726   0.312 -34.777  1.00  0.00     0.010 A 
HETATM   23  C   UNL     1      -8.731   0.574 -33.837  1.00  0.00    -0.040 A 
HETATM   24  C   UNL     1      -8.437   0.435 -32.472  1.00  0.00     0.010 A 
HETATM   25  C   UNL     1      -7.141   0.118 -32.052  1.00  0.00     0.018 A 
BRANCH  23  26
HETATM   26  C   UNL     1     -10.089   1.047 -34.285  1.00  0.00     0.162 C 
BRANCH  26  27
HETATM   27  N   UNL     1     -10.910   1.483 -33.183  1.00  0.00    -0.339 N 
HETATM   28  C   UNL     1     -12.127   2.049 -33.475  1.00  0.00     0.316 C 
HETATM   29  N   UNL     1     -12.733   2.532 -32.345  1.00  0.00    -0.339 N 
HETATM   30  O   UNL     1     -12.591   2.115 -34.604  1.00  0.00    -0.247 OA
HETATM   31  H   UNL     1     -12.466   2.056 -31.497  1.00  0.00     0.164 HD
HETATM   32  H   UNL     1     -10.430   1.896 -32.398  1.00  0.00     0.164 HD
BRANCH  29  33
HETATM   33  C   UNL     1     -14.052   3.158 -32.349  1.00  0.00     0.078 C 
HETATM   34  C   UNL     1     -15.183   2.145 -32.172  1.00  0.00     0.032 C 
HETATM   35  C   UNL     1     -14.156   4.295 -31.334  1.00  0.00     0.032 C 
ENDBRANCH  29  33
ENDBRANCH  26  27
ENDBRANCH  23  26
ENDBRANCH   1  20
TORSDOF 9
ENDMDL
MODEL 8
REMARK VINA RESULT:      -8.1      2.821      8.928
REMARK  9 active torsions:
REMARK  status: ('A' for Active; 'I' for Inactive)
REMARK    1  A    between atoms: C_3  and  C_4 
REMARK    2  A    between atoms: C_4  and  O_5 
REMARK    3  A    between atoms: C_8  and  C_9 
REMARK    4  A    between atoms: C_9  and  O_10 
REMARK    5  A    between atoms: O_10  and  C_11 
REMARK    6  A    between atoms: C_11  and  C_12 
REMARK    7  A    between atoms: C_15  and  C_16 
REMARK    8  A    between atoms: C_16  and  N_17 
REMARK       I    between atoms: N_17  and  C_18 
REMARK       I    between atoms: C_18  and  N_19 
REMARK    9  A    between atoms: N_19  and  C_20 
ROOT
HETATM    1  C   UNL     1      -3.386  -0.045 -31.835  1.00  0.00     0.293 C 
HETATM    2  O   UNL     1      -2.548  -0.858 -32.184  1.00  0.00    -0.259 OA
ENDROOT
BRANCH   1   3
HETATM    3  O   UNL     1      -3.138   1.174 -31.297  1.00  0.00    -0.311 OA
BRANCH   3   4
HETATM    4  C   UNL     1      -3.323   2.285 -32.190  1.00  0.00     0.239 C 
BRANCH   4   5
HETATM    5  C   UNL     1      -3.059   3.658 -31.617  1.00  0.00     0.076 A 
HETATM    6  C   UNL     1      -4.067   4.509 -31.173  1.00  0.00     0.073 A 
HETATM    7  C   UNL     1      -3.732   5.808 -30.731  1.00  0.00    -0.031 A 
HETATM    8  C   UNL     1      -4.804   6.787 -30.317  1.00  0.00     0.050 C 
HETATM    9  C   UNL     1      -2.358   6.174 -30.672  1.00  0.00    -0.000 A 
HETATM   10  C   UNL     1      -1.410   5.237 -31.136  1.00  0.00     0.068 A 
HETATM   11  C   UNL     1      -1.883   7.417 -30.184  1.00  0.00     0.014 A 
HETATM   12  N   UNL     1      -1.752   4.036 -31.617  1.00  0.00    -0.249 NA
HETATM   13  C   UNL     1      -0.061   5.560 -31.110  1.00  0.00     0.032 A 
HETATM   14  C   UNL     1       0.394   6.789 -30.632  1.00  0.00     0.002 A 
HETATM   15  C   UNL     1      -0.519   7.721 -30.166  1.00  0.00     0.001 A 
BRANCH   6  16
HETATM   16  C   UNL     1      -5.464   4.045 -31.239  1.00  0.00     0.295 C 
HETATM   17  O   UNL     1      -6.169   4.140 -32.228  1.00  0.00    -0.259 OA
BRANCH  16  18
HETATM   18  O   UNL     1      -5.801   3.503 -30.043  1.00  0.00    -0.322 OA
HETATM   19  C   UNL     1      -7.193   3.598 -29.740  1.00  0.00     0.213 C 
ENDBRANCH  16  18
ENDBRANCH   6  16
ENDBRANCH   4   5
ENDBRANCH   3   4
ENDBRANCH   1   3
BRANCH   1  20
HETATM   20  C   UNL     1      -4.844  -0.224 -32.085  1.00  0.00     0.039 A 
HETATM   21  C   UNL     1      -5.243  -0.681 -33.348  1.00  0.00     0.018 A 
HETATM   22  C   UNL     1      -6.596  -0.693 -33.703  1.00  0.00     0.010 A 
HETATM   23  C   UNL     1      -7.568  -0.233 -32.804  1.00  0.00    -0.040 A 
HETATM   24  C   UNL     1      -7.173   0.157 -31.516  1.00  0.00     0.010 A 
HETATM   25  C   UNL     1      -5.820   0.164 -31.158  1.00  0.00     0.018 A 
BRANCH  23  26
HETATM   26  C   UNL     1      -9.007  -0.114 -33.234  1.00  0.00     0.162 C 
BRANCH  26  27
HETATM   27  N   UNL     1      -9.199   0.915 -34.226  1.00  0.00    -0.339 N 
HETATM   28  C   UNL     1     -10.063   1.940 -33.925  1.00  0.00     0.316 C 
HETATM   29  N   UNL     1     -10.246   2.766 -35.003  1.00  0.00    -0.339 N 
HETATM   30  O   UNL     1     -10.597   2.079 -32.835  1.00  0.00    -0.247 OA
HETATM   31  H   UNL     1      -9.469   2.787 -35.645  1.00  0.00     0.164 HD
HETATM   32  H   UNL     1      -9.218   0.616 -35.188  1.00  0.00     0.164 HD
BRANCH  29  33
HETATM   33  C   UNL     1     -11.088   3.959 -34.965  1.00  0.00     0.078 C 
HETATM   34  C   UNL     1     -10.315   5.232 -35.310  1.00  0.00     0.032 C 
HETATM   35  C   UNL     1     -12.339   3.813 -35.828  1.00  0.00     0.032 C 
ENDBRANCH  29  33
ENDBRANCH  26  27
ENDBRANCH  23  26
ENDBRANCH   1  20
TORSDOF 9
ENDMDL
MODEL 9
REMARK VINA RESULT:      -7.9      2.848      9.913
REMARK  9 active torsions:
REMARK  status: ('A' for Active; 'I' for Inactive)
REMARK    1  A    between atoms: C_3  and  C_4 
REMARK    2  A    between atoms: C_4  and  O_5 
REMARK    3  A    between atoms: C_8  and  C_9 
REMARK    4  A    between atoms: C_9  and  O_10 
REMARK    5  A    between atoms: O_10  and  C_11 
REMARK    6  A    between atoms: C_11  and  C_12 
REMARK    7  A    between atoms: C_15  and  C_16 
REMARK    8  A    between atoms: C_16  and  N_17 
REMARK       I    between atoms: N_17  and  C_18 
REMARK       I    between atoms: C_18  and  N_19 
REMARK    9  A    between atoms: N_19  and  C_20 
ROOT
HETATM    1  C   UNL     1      -2.498   3.738 -32.209  1.00  0.00     0.293 C 
HETATM    2  O   UNL     1      -2.422   4.153 -33.353  1.00  0.00    -0.259 OA
ENDROOT
BRANCH   1   3
HETATM    3  O   UNL     1      -1.736   4.141 -31.163  1.00  0.00    -0.311 OA
BRANCH   3   4
HETATM    4  C   UNL     1      -0.820   5.211 -31.451  1.00  0.00     0.239 C 
BRANCH   4   5
HETATM    5  C   UNL     1      -0.796   6.357 -30.467  1.00  0.00     0.076 A 
HETATM    6  C   UNL     1      -1.584   7.497 -30.600  1.00  0.00     0.073 A 
HETATM    7  C   UNL     1      -1.433   8.555 -29.677  1.00  0.00    -0.031 A 
HETATM    8  C   UNL     1      -2.211   9.838 -29.833  1.00  0.00     0.050 C 
HETATM    9  C   UNL     1      -0.536   8.383 -28.584  1.00  0.00    -0.000 A 
HETATM   10  C   UNL     1       0.211   7.187 -28.533  1.00  0.00     0.068 A 
HETATM   11  C   UNL     1      -0.342   9.335 -27.552  1.00  0.00     0.014 A 
HETATM   12  N   UNL     1       0.106   6.224 -29.456  1.00  0.00    -0.249 NA
HETATM   13  C   UNL     1       1.107   6.985 -27.493  1.00  0.00     0.032 A 
HETATM   14  C   UNL     1       1.293   7.932 -26.485  1.00  0.00     0.002 A 
HETATM   15  C   UNL     1       0.565   9.111 -26.514  1.00  0.00     0.001 A 
BRANCH   6  16
HETATM   16  C   UNL     1      -2.510   7.587 -31.742  1.00  0.00     0.295 C 
HETATM   17  O   UNL     1      -3.649   7.154 -31.732  1.00  0.00    -0.259 OA
BRANCH  16  18
HETATM   18  O   UNL     1      -1.887   8.228 -32.761  1.00  0.00    -0.322 OA
HETATM   19  C   UNL     1      -1.776   7.445 -33.950  1.00  0.00     0.213 C 
ENDBRANCH  16  18
ENDBRANCH   6  16
ENDBRANCH   4   5
ENDBRANCH   3   4
ENDBRANCH   1   3
BRANCH   1  20
HETATM   20  C   UNL     1      -3.563   2.800 -31.755  1.00  0.00     0.039 A 
HETATM   21  C   UNL     1      -3.620   1.533 -32.350  1.00  0.00     0.018 A 
HETATM   22  C   UNL     1      -4.702   0.682 -32.102  1.00  0.00     0.010 A 
HETATM   23  C   UNL     1      -5.749   1.092 -31.267  1.00  0.00    -0.040 A 
HETATM   24  C   UNL     1      -5.655   2.332 -30.617  1.00  0.00     0.010 A 
HETATM   25  C   UNL     1      -4.571   3.182 -30.861  1.00  0.00     0.018 A 
BRANCH  23  26
HETATM   26  C   UNL     1      -6.978   0.235 -31.111  1.00  0.00     0.162 C 
BRANCH  26  27
HETATM   27  N   UNL     1      -7.850   0.312 -32.257  1.00  0.00    -0.339 N 
HETATM   28  C   UNL     1      -8.974   1.094 -32.154  1.00  0.00     0.316 C 
HETATM   29  N   UNL     1      -9.769   0.966 -33.263  1.00  0.00    -0.339 N 
HETATM   30  O   UNL     1      -9.225   1.800 -31.188  1.00  0.00    -0.247 OA
HETATM   31  H   UNL     1      -9.270   0.717 -34.104  1.00  0.00     0.164 HD
HETATM   32  H   UNL     1      -7.972  -0.536 -32.788  1.00  0.00     0.164 HD
BRANCH  29  33
HETATM   33  C   UNL     1     -11.015   1.706 -33.445  1.00  0.00     0.078 C 
HETATM   34  C   UNL     1     -10.894   2.811 -34.495  1.00  0.00     0.032 C 
HETATM   35  C   UNL     1     -12.198   0.785 -33.738  1.00  0.00     0.032 C 
ENDBRANCH  29  33
ENDBRANCH  26  27
ENDBRANCH  23  26
ENDBRANCH   1  20
TORSDOF 9
ENDMDL
MODEL 10
REMARK VINA RESULT:      -7.9     17.289     19.048
REMARK  9 active torsions:
REMARK  status: ('A' for Active; 'I' for Inactive)
REMARK    1  A    between atoms: C_3  and  C_4 
REMARK    2  A    between atoms: C_4  and  O_5 
REMARK    3  A    between atoms: C_8  and  C_9 
REMARK    4  A    between atoms: C_9  and  O_10 
REMARK    5  A    between atoms: O_10  and  C_11 
REMARK    6  A    between atoms: C_11  and  C_12 
REMARK    7  A    between atoms: C_15  and  C_16 
REMARK    8  A    between atoms: C_16  and  N_17 
REMARK       I    between atoms: N_17  and  C_18 
REMARK       I    between atoms: C_18  and  N_19 
REMARK    9  A    between atoms: N_19  and  C_20 
ROOT
HETATM    1  C   UNL     1      -6.563 -13.513 -34.101  1.00  0.00     0.293 C 
HETATM    2  O   UNL     1      -7.572 -12.830 -34.102  1.00  0.00    -0.259 OA
ENDROOT
BRANCH   1   3
HETATM    3  O   UNL     1      -5.502 -13.371 -34.933  1.00  0.00    -0.311 OA
BRANCH   3   4
HETATM    4  C   UNL     1      -5.518 -14.219 -36.094  1.00  0.00     0.239 C 
BRANCH   4   5
HETATM    5  C   UNL     1      -6.195 -13.660 -37.324  1.00  0.00     0.076 A 
HETATM    6  C   UNL     1      -5.512 -12.991 -38.336  1.00  0.00     0.073 A 
HETATM    7  C   UNL     1      -6.240 -12.428 -39.407  1.00  0.00    -0.031 A 
HETATM    8  C   UNL     1      -5.546 -11.629 -40.482  1.00  0.00     0.050 C 
HETATM    9  C   UNL     1      -7.647 -12.638 -39.460  1.00  0.00    -0.000 A 
HETATM   10  C   UNL     1      -8.245 -13.336 -38.389  1.00  0.00     0.068 A 
HETATM   11  C   UNL     1      -8.484 -12.188 -40.511  1.00  0.00     0.014 A 
HETATM   12  N   UNL     1      -7.548 -13.804 -37.346  1.00  0.00    -0.249 NA
HETATM   13  C   UNL     1      -9.616 -13.551 -38.394  1.00  0.00     0.032 A 
HETATM   14  C   UNL     1     -10.430 -13.098 -39.432  1.00  0.00     0.002 A 
HETATM   15  C   UNL     1      -9.862 -12.415 -40.496  1.00  0.00     0.001 A 
BRANCH   6  16
HETATM   16  C   UNL     1      -4.051 -12.841 -38.224  1.00  0.00     0.295 C 
HETATM   17  O   UNL     1      -3.503 -11.912 -37.657  1.00  0.00    -0.259 OA
BRANCH  16  18
HETATM   18  O   UNL     1      -3.455 -13.894 -38.834  1.00  0.00    -0.322 OA
HETATM   19  C   UNL     1      -2.135 -13.615 -39.303  1.00  0.00     0.213 C 
ENDBRANCH  16  18
ENDBRANCH   6  16
ENDBRANCH   4   5
ENDBRANCH   3   4
ENDBRANCH   1   3
BRANCH   1  20
HETATM   20  C   UNL     1      -6.284 -14.546 -33.064  1.00  0.00     0.039 A 
HETATM   21  C   UNL     1      -7.175 -15.621 -32.951  1.00  0.00     0.018 A 
HETATM   22  C   UNL     1      -7.072 -16.518 -31.883  1.00  0.00     0.010 A 
HETATM   23  C   UNL     1      -6.084 -16.344 -30.904  1.00  0.00    -0.040 A 
HETATM   24  C   UNL     1      -5.150 -15.308 -31.058  1.00  0.00     0.010 A 
HETATM   25  C   UNL     1      -5.250 -14.414 -32.129  1.00  0.00     0.018 A 
BRANCH  23  26
HETATM   26  C   UNL     1      -6.060 -17.224 -29.682  1.00  0.00     0.162 C 
BRANCH  26  27
HETATM   27  N   UNL     1      -4.747 -17.758 -29.417  1.00  0.00    -0.339 N 
HETATM   28  C   UNL     1      -3.973 -17.119 -28.480  1.00  0.00     0.316 C 
HETATM   29  N   UNL     1      -2.712 -17.655 -28.430  1.00  0.00    -0.339 N 
HETATM   30  O   UNL     1      -4.368 -16.188 -27.793  1.00  0.00    -0.247 OA
HETATM   31  H   UNL     1      -2.663 -18.623 -28.709  1.00  0.00     0.164 HD
HETATM   32  H   UNL     1      -4.239 -18.120 -30.209  1.00  0.00     0.164 HD
BRANCH  29  33
HETATM   33  C   UNL     1      -1.683 -17.195 -27.501  1.00  0.00     0.078 C 
HETATM   34  C   UNL     1      -0.869 -18.346 -26.910  1.00  0.00     0.032 C 
HETATM   35  C   UNL     1      -0.778 -16.132 -28.121  1.00  0.00     0.032 C 
ENDBRANCH  29  33
ENDBRANCH  26  27
ENDBRANCH  23  26
ENDBRANCH   1  20
TORSDOF 9
ENDMDL
