MODEL 1
REMARK VINA RESULT:      -9.3      0.000      0.000
REMARK  5 active torsions:
REMARK  status: ('A' for Active; 'I' for Inactive)
REMARK    1  A    between atoms: C_3  and  O_4 
REMARK    2  A    between atoms: C_6  and  N_7 
REMARK       I    between atoms: N_7  and  C_8 
REMARK    3  A    between atoms: C_8  and  C_9 
REMARK    4  A    between atoms: C_14  and  C_15 
REMARK    5  A    between atoms: C_23  and  C_24 
ROOT
HETATM    1  C   UNL     1      -6.669   1.023 -33.368  1.00  0.00     0.148 A 
HETATM    2  N   UNL     1      -6.677   1.605 -32.145  1.00  0.00    -0.165 NA
HETATM    3  N   UNL     1      -6.403   2.896 -32.412  1.00  0.00    -0.240 N 
HETATM    4  C   UNL     1      -6.270   3.173 -33.743  1.00  0.00     0.123 A 
HETATM    5  N   UNL     1      -6.046   4.425 -34.192  1.00  0.00    -0.366 N 
HETATM    6  C   UNL     1      -5.894   5.568 -33.300  1.00  0.00     0.118 C 
HETATM    7  C   UNL     1      -6.567   5.301 -31.941  1.00  0.00     0.066 C 
HETATM    8  C   UNL     1      -6.326   3.893 -31.363  1.00  0.00     0.221 C 
HETATM    9  C   UNL     1      -6.420   1.977 -34.393  1.00  0.00     0.089 A 
HETATM   10  H   UNL     1      -5.859   4.607 -35.177  1.00  0.00     0.161 HD
ENDROOT
BRANCH   1  11
HETATM   11  C   UNL     1      -6.898  -0.423 -33.550  1.00  0.00     0.276 C 
HETATM   12  N   UNL     1      -5.752  -1.075 -33.959  1.00  0.00    -0.322 N 
HETATM   13  H   UNL     1      -4.955  -0.454 -34.073  1.00  0.00     0.169 HD
HETATM   14  O   UNL     1      -8.001  -0.921 -33.357  1.00  0.00    -0.266 OA
BRANCH  12  15
HETATM   15  C   UNL     1      -5.576  -2.440 -34.244  1.00  0.00     0.037 A 
HETATM   16  C   UNL     1      -4.415  -3.156 -33.951  1.00  0.00     0.066 A 
HETATM   17  C   UNL     1      -4.333  -4.511 -34.272  1.00  0.00     0.067 A 
HETATM   18  C   UNL     1      -5.395  -5.172 -34.880  1.00  0.00     0.036 A 
HETATM   19  C   UNL     1      -6.558  -4.463 -35.176  1.00  0.00     0.005 A 
HETATM   20  C   UNL     1      -6.646  -3.103 -34.860  1.00  0.00     0.029 A 
BRANCH  17  21
HETATM   21  O   UNL     1      -3.176  -5.167 -33.969  1.00  0.00    -0.361 OA
HETATM   22  H   UNL     1      -3.383  -6.094 -33.774  1.00  0.00     0.217 HD
ENDBRANCH  17  21
ENDBRANCH  12  15
ENDBRANCH   1  11
BRANCH   8  23
HETATM   23  C   UNL     1      -5.028   3.751 -30.602  1.00  0.00     0.409 C 
HETATM   24  F   UNL     1      -3.973   3.435 -31.373  1.00  0.00    -0.169 F 
HETATM   25  F   UNL     1      -4.728   4.916 -29.970  1.00  0.00    -0.169 F 
HETATM   26  F   UNL     1      -5.116   2.810 -29.632  1.00  0.00    -0.169 F 
ENDBRANCH   8  23
BRANCH   6  27
HETATM   27  C   UNL     1      -4.460   6.065 -33.218  1.00  0.00    -0.035 A 
HETATM   28  C   UNL     1      -3.522   5.598 -34.160  1.00  0.00     0.012 A 
HETATM   29  C   UNL     1      -2.188   6.010 -34.111  1.00  0.00     0.043 A 
HETATM   30  C   UNL     1      -1.780   6.894 -33.122  1.00  0.00     0.116 A 
HETATM   31  F   UNL     1      -0.501   7.290 -33.076  1.00  0.00    -0.206 F 
HETATM   32  C   UNL     1      -2.680   7.369 -32.178  1.00  0.00     0.043 A 
HETATM   33  C   UNL     1      -4.013   6.951 -32.223  1.00  0.00     0.012 A 
ENDBRANCH   6  27
TORSDOF 5
ENDMDL
MODEL 2
REMARK VINA RESULT:      -9.2      3.355      5.502
REMARK  5 active torsions:
REMARK  status: ('A' for Active; 'I' for Inactive)
REMARK    1  A    between atoms: C_3  and  O_4 
REMARK    2  A    between atoms: C_6  and  N_7 
REMARK       I    between atoms: N_7  and  C_8 
REMARK    3  A    between atoms: C_8  and  C_9 
REMARK    4  A    between atoms: C_14  and  C_15 
REMARK    5  A    between atoms: C_23  and  C_24 
ROOT
HETATM    1  C   UNL     1      -4.233   4.596 -33.159  1.00  0.00     0.148 A 
HETATM    2  N   UNL     1      -4.149   5.946 -33.100  1.00  0.00    -0.165 NA
HETATM    3  N   UNL     1      -2.874   6.164 -32.727  1.00  0.00    -0.240 N 
HETATM    4  C   UNL     1      -2.130   5.025 -32.594  1.00  0.00     0.123 A 
HETATM    5  N   UNL     1      -0.820   5.063 -32.277  1.00  0.00    -0.366 N 
HETATM    6  C   UNL     1      -0.105   6.306 -32.019  1.00  0.00     0.118 C 
HETATM    7  C   UNL     1      -0.813   7.500 -32.688  1.00  0.00     0.066 C 
HETATM    8  C   UNL     1      -2.347   7.503 -32.552  1.00  0.00     0.221 C 
HETATM    9  C   UNL     1      -2.985   3.987 -32.851  1.00  0.00     0.089 A 
HETATM   10  H   UNL     1      -0.297   4.208 -32.093  1.00  0.00     0.161 HD
ENDROOT
BRANCH   1  11
HETATM   11  C   UNL     1      -5.487   3.903 -33.507  1.00  0.00     0.276 C 
HETATM   12  N   UNL     1      -5.571   2.663 -32.904  1.00  0.00    -0.322 N 
HETATM   13  H   UNL     1      -4.759   2.437 -32.335  1.00  0.00     0.169 HD
HETATM   14  O   UNL     1      -6.309   4.414 -34.258  1.00  0.00    -0.266 OA
BRANCH  12  15
HETATM   15  C   UNL     1      -6.599   1.711 -33.001  1.00  0.00     0.037 A 
HETATM   16  C   UNL     1      -7.572   1.509 -32.022  1.00  0.00     0.066 A 
HETATM   17  C   UNL     1      -8.557   0.538 -32.207  1.00  0.00     0.067 A 
HETATM   18  C   UNL     1      -8.593  -0.239 -33.360  1.00  0.00     0.036 A 
HETATM   19  C   UNL     1      -7.623  -0.044 -34.342  1.00  0.00     0.005 A 
HETATM   20  C   UNL     1      -6.631   0.925 -34.161  1.00  0.00     0.029 A 
BRANCH  17  21
HETATM   21  O   UNL     1      -9.484   0.376 -31.220  1.00  0.00    -0.361 OA
HETATM   22  H   UNL     1      -9.358   1.071 -30.555  1.00  0.00     0.217 HD
ENDBRANCH  17  21
ENDBRANCH  12  15
ENDBRANCH   1  11
BRANCH   8  23
HETATM   23  C   UNL     1      -2.851   8.098 -31.257  1.00  0.00     0.409 C 
HETATM   24  F   UNL     1      -2.845   7.239 -30.221  1.00  0.00    -0.169 F 
HETATM   25  F   UNL     1      -2.083   9.160 -30.901  1.00  0.00    -0.169 F 
HETATM   26  F   UNL     1      -4.114   8.572 -31.381  1.00  0.00    -0.169 F 
ENDBRANCH   8  23
BRANCH   6  27
HETATM   27  C   UNL     1       0.226   6.501 -30.548  1.00  0.00    -0.035 A 
HETATM   28  C   UNL     1       0.179   5.388 -29.685  1.00  0.00     0.012 A 
HETATM   29  C   UNL     1       0.455   5.522 -28.322  1.00  0.00     0.043 A 
HETATM   30  C   UNL     1       0.780   6.770 -27.810  1.00  0.00     0.116 A 
HETATM   31  F   UNL     1       1.045   6.898 -26.503  1.00  0.00    -0.206 F 
HETATM   32  C   UNL     1       0.832   7.886 -28.633  1.00  0.00     0.043 A 
HETATM   33  C   UNL     1       0.549   7.752 -29.995  1.00  0.00     0.012 A 
ENDBRANCH   6  27
TORSDOF 5
ENDMDL
MODEL 3
REMARK VINA RESULT:      -9.1      6.060      7.923
REMARK  5 active torsions:
REMARK  status: ('A' for Active; 'I' for Inactive)
REMARK    1  A    between atoms: C_3  and  O_4 
REMARK    2  A    between atoms: C_6  and  N_7 
REMARK       I    between atoms: N_7  and  C_8 
REMARK    3  A    between atoms: C_8  and  C_9 
REMARK    4  A    between atoms: C_14  and  C_15 
REMARK    5  A    between atoms: C_23  and  C_24 
ROOT
HETATM    1  C   UNL     1      -8.836   1.434 -34.122  1.00  0.00     0.148 A 
HETATM    2  N   UNL     1      -9.351   2.461 -34.838  1.00  0.00    -0.165 NA
HETATM    3  N   UNL     1     -10.268   2.993 -34.007  1.00  0.00    -0.240 N 
HETATM    4  C   UNL     1     -10.327   2.388 -32.783  1.00  0.00     0.123 A 
HETATM    5  N   UNL     1     -11.153   2.826 -31.811  1.00  0.00    -0.366 N 
HETATM    6  C   UNL     1     -12.066   3.947 -31.996  1.00  0.00     0.118 C 
HETATM    7  C   UNL     1     -11.581   4.873 -33.128  1.00  0.00     0.066 C 
HETATM    8  C   UNL     1     -11.062   4.146 -34.382  1.00  0.00     0.221 C 
HETATM    9  C   UNL     1      -9.423   1.360 -32.828  1.00  0.00     0.089 A 
HETATM   10  H   UNL     1     -11.255   2.315 -30.936  1.00  0.00     0.161 HD
ENDROOT
BRANCH   1  11
HETATM   11  C   UNL     1      -7.798   0.540 -34.668  1.00  0.00     0.276 C 
HETATM   12  N   UNL     1      -7.631  -0.587 -33.887  1.00  0.00    -0.322 N 
HETATM   13  H   UNL     1      -8.238  -0.605 -33.071  1.00  0.00     0.169 HD
HETATM   14  O   UNL     1      -7.185   0.826 -35.689  1.00  0.00    -0.266 OA
BRANCH  12  15
HETATM   15  C   UNL     1      -6.737  -1.655 -34.073  1.00  0.00     0.037 A 
HETATM   16  C   UNL     1      -7.099  -2.892 -34.609  1.00  0.00     0.066 A 
HETATM   17  C   UNL     1      -6.140  -3.894 -34.756  1.00  0.00     0.067 A 
HETATM   18  C   UNL     1      -4.817  -3.686 -34.380  1.00  0.00     0.036 A 
HETATM   19  C   UNL     1      -4.450  -2.454 -33.843  1.00  0.00     0.005 A 
HETATM   20  C   UNL     1      -5.406  -1.445 -33.689  1.00  0.00     0.029 A 
BRANCH  17  21
HETATM   21  O   UNL     1      -6.544  -5.087 -35.282  1.00  0.00    -0.361 OA
HETATM   22  H   UNL     1      -6.548  -5.754 -34.578  1.00  0.00     0.217 HD
ENDBRANCH  17  21
ENDBRANCH  12  15
ENDBRANCH   1  11
BRANCH   8  23
HETATM   23  C   UNL     1     -12.145   3.740 -35.355  1.00  0.00     0.409 C 
HETATM   24  F   UNL     1     -11.769   3.789 -36.645  1.00  0.00    -0.169 F 
HETATM   25  F   UNL     1     -12.545   2.466 -35.103  1.00  0.00    -0.169 F 
HETATM   26  F   UNL     1     -13.250   4.513 -35.226  1.00  0.00    -0.169 F 
ENDBRANCH   8  23
BRANCH   6  27
HETATM   27  C   UNL     1     -13.518   3.513 -32.101  1.00  0.00    -0.035 A 
HETATM   28  C   UNL     1     -14.532   4.447 -31.810  1.00  0.00     0.012 A 
HETATM   29  C   UNL     1     -15.881   4.088 -31.872  1.00  0.00     0.043 A 
HETATM   30  C   UNL     1     -16.228   2.792 -32.228  1.00  0.00     0.116 A 
HETATM   31  F   UNL     1     -17.522   2.448 -32.289  1.00  0.00    -0.206 F 
HETATM   32  C   UNL     1     -15.253   1.849 -32.518  1.00  0.00     0.043 A 
HETATM   33  C   UNL     1     -13.904   2.206 -32.448  1.00  0.00     0.012 A 
ENDBRANCH   6  27
TORSDOF 5
ENDMDL
MODEL 4
REMARK VINA RESULT:      -9.0      2.428      3.554
REMARK  5 active torsions:
REMARK  status: ('A' for Active; 'I' for Inactive)
REMARK    1  A    between atoms: C_3  and  O_4 
REMARK    2  A    between atoms: C_6  and  N_7 
REMARK       I    between atoms: N_7  and  C_8 
REMARK    3  A    between atoms: C_8  and  C_9 
REMARK    4  A    between atoms: C_14  and  C_15 
REMARK    5  A    between atoms: C_23  and  C_24 
ROOT
HETATM    1  C   UNL     1      -4.112   1.690 -32.353  1.00  0.00     0.148 A 
HETATM    2  N   UNL     1      -3.711   2.402 -33.433  1.00  0.00    -0.165 NA
HETATM    3  N   UNL     1      -3.031   3.431 -32.895  1.00  0.00    -0.240 N 
HETATM    4  C   UNL     1      -2.938   3.385 -31.533  1.00  0.00     0.123 A 
HETATM    5  N   UNL     1      -2.248   4.310 -30.834  1.00  0.00    -0.366 N 
HETATM    6  C   UNL     1      -1.581   5.441 -31.465  1.00  0.00     0.118 C 
HETATM    7  C   UNL     1      -1.273   5.145 -32.945  1.00  0.00     0.066 C 
HETATM    8  C   UNL     1      -2.410   4.450 -33.718  1.00  0.00     0.221 C 
HETATM    9  C   UNL     1      -3.642   2.277 -31.146  1.00  0.00     0.089 A 
HETATM   10  H   UNL     1      -2.259   4.317 -29.815  1.00  0.00     0.161 HD
ENDROOT
BRANCH   1  11
HETATM   11  C   UNL     1      -4.929   0.469 -32.477  1.00  0.00     0.276 C 
HETATM   12  N   UNL     1      -4.433  -0.382 -33.445  1.00  0.00    -0.322 N 
HETATM   13  H   UNL     1      -3.603  -0.023 -33.910  1.00  0.00     0.169 HD
HETATM   14  O   UNL     1      -5.925   0.297 -31.784  1.00  0.00    -0.266 OA
BRANCH  12  15
HETATM   15  C   UNL     1      -4.939  -1.627 -33.857  1.00  0.00     0.037 A 
HETATM   16  C   UNL     1      -4.200  -2.810 -33.853  1.00  0.00     0.066 A 
HETATM   17  C   UNL     1      -4.789  -4.000 -34.280  1.00  0.00     0.067 A 
HETATM   18  C   UNL     1      -6.110  -4.035 -34.713  1.00  0.00     0.036 A 
HETATM   19  C   UNL     1      -6.853  -2.856 -34.722  1.00  0.00     0.005 A 
HETATM   20  C   UNL     1      -6.269  -1.659 -34.297  1.00  0.00     0.029 A 
BRANCH  17  21
HETATM   21  O   UNL     1      -4.024  -5.131 -34.260  1.00  0.00    -0.361 OA
HETATM   22  H   UNL     1      -4.593  -5.889 -34.056  1.00  0.00     0.217 HD
ENDBRANCH  17  21
ENDBRANCH  12  15
ENDBRANCH   1  11
BRANCH   8  23
HETATM   23  C   UNL     1      -3.457   5.395 -34.260  1.00  0.00     0.409 C 
HETATM   24  F   UNL     1      -4.529   5.542 -33.460  1.00  0.00    -0.169 F 
HETATM   25  F   UNL     1      -2.922   6.630 -34.443  1.00  0.00    -0.169 F 
HETATM   26  F   UNL     1      -3.910   4.998 -35.473  1.00  0.00    -0.169 F 
ENDBRANCH   8  23
BRANCH   6  27
HETATM   27  C   UNL     1      -2.292   6.760 -31.210  1.00  0.00    -0.035 A 
HETATM   28  C   UNL     1      -1.666   7.960 -31.606  1.00  0.00     0.012 A 
HETATM   29  C   UNL     1      -2.271   9.198 -31.373  1.00  0.00     0.043 A 
HETATM   30  C   UNL     1      -3.507   9.248 -30.744  1.00  0.00     0.116 A 
HETATM   31  F   UNL     1      -4.087  10.434 -30.522  1.00  0.00    -0.206 F 
HETATM   32  C   UNL     1      -4.147   8.084 -30.340  1.00  0.00     0.043 A 
HETATM   33  C   UNL     1      -3.538   6.847 -30.566  1.00  0.00     0.012 A 
ENDBRANCH   6  27
TORSDOF 5
ENDMDL
MODEL 5
REMARK VINA RESULT:      -8.9      4.143      8.762
REMARK  5 active torsions:
REMARK  status: ('A' for Active; 'I' for Inactive)
REMARK    1  A    between atoms: C_3  and  O_4 
REMARK    2  A    between atoms: C_6  and  N_7 
REMARK       I    between atoms: N_7  and  C_8 
REMARK    3  A    between atoms: C_8  and  C_9 
REMARK    4  A    between atoms: C_14  and  C_15 
REMARK    5  A    between atoms: C_23  and  C_24 
ROOT
HETATM    1  C   UNL     1      -4.326   3.868 -31.517  1.00  0.00     0.148 A 
HETATM    2  N   UNL     1      -5.577   3.828 -32.033  1.00  0.00    -0.165 NA
HETATM    3  N   UNL     1      -5.904   2.524 -31.962  1.00  0.00    -0.240 N 
HETATM    4  C   UNL     1      -4.945   1.741 -31.382  1.00  0.00     0.123 A 
HETATM    5  N   UNL     1      -5.128   0.419 -31.184  1.00  0.00    -0.366 N 
HETATM    6  C   UNL     1      -6.336  -0.281 -31.598  1.00  0.00     0.118 C 
HETATM    7  C   UNL     1      -7.523   0.692 -31.727  1.00  0.00     0.066 C 
HETATM    8  C   UNL     1      -7.191   2.032 -32.410  1.00  0.00     0.221 C 
HETATM    9  C   UNL     1      -3.900   2.578 -31.096  1.00  0.00     0.089 A 
HETATM   10  H   UNL     1      -4.375  -0.170 -30.834  1.00  0.00     0.161 HD
ENDROOT
BRANCH   1  11
HETATM   11  C   UNL     1      -3.555   5.121 -31.426  1.00  0.00     0.276 C 
HETATM   12  N   UNL     1      -2.411   4.965 -30.668  1.00  0.00    -0.322 N 
HETATM   13  H   UNL     1      -2.301   4.025 -30.296  1.00  0.00     0.169 HD
HETATM   14  O   UNL     1      -3.943   6.148 -31.972  1.00  0.00    -0.266 OA
BRANCH  12  15
HETATM   15  C   UNL     1      -1.437   5.925 -30.347  1.00  0.00     0.037 A 
HETATM   16  C   UNL     1      -1.593   6.897 -29.359  1.00  0.00     0.066 A 
HETATM   17  C   UNL     1      -0.568   7.809 -29.111  1.00  0.00     0.067 A 
HETATM   18  C   UNL     1       0.622   7.769 -29.831  1.00  0.00     0.036 A 
HETATM   19  C   UNL     1       0.785   6.801 -30.820  1.00  0.00     0.005 A 
HETATM   20  C   UNL     1      -0.241   5.885 -31.077  1.00  0.00     0.029 A 
BRANCH  17  21
HETATM   21  O   UNL     1      -0.770   8.744 -28.137  1.00  0.00    -0.361 OA
HETATM   22  H   UNL     1      -1.722   8.823 -27.972  1.00  0.00     0.217 HD
ENDBRANCH  17  21
ENDBRANCH  12  15
ENDBRANCH   1  11
BRANCH   8  23
HETATM   23  C   UNL     1      -7.236   1.984 -33.920  1.00  0.00     0.409 C 
HETATM   24  F   UNL     1      -6.134   1.457 -34.483  1.00  0.00    -0.169 F 
HETATM   25  F   UNL     1      -8.293   1.238 -34.332  1.00  0.00    -0.169 F 
HETATM   26  F   UNL     1      -7.414   3.215 -34.455  1.00  0.00    -0.169 F 
ENDBRANCH   8  23
BRANCH   6  27
HETATM   27  C   UNL     1      -6.112  -1.180 -32.803  1.00  0.00    -0.035 A 
HETATM   28  C   UNL     1      -4.796  -1.557 -33.137  1.00  0.00     0.012 A 
HETATM   29  C   UNL     1      -4.539  -2.365 -34.248  1.00  0.00     0.043 A 
HETATM   30  C   UNL     1      -5.595  -2.802 -35.035  1.00  0.00     0.116 A 
HETATM   31  F   UNL     1      -5.348  -3.577 -36.100  1.00  0.00    -0.206 F 
HETATM   32  C   UNL     1      -6.902  -2.445 -34.734  1.00  0.00     0.043 A 
HETATM   33  C   UNL     1      -7.158  -1.632 -33.627  1.00  0.00     0.012 A 
ENDBRANCH   6  27
TORSDOF 5
ENDMDL
MODEL 6
REMARK VINA RESULT:      -8.8      2.130      2.611
REMARK  5 active torsions:
REMARK  status: ('A' for Active; 'I' for Inactive)
REMARK    1  A    between atoms: C_3  and  O_4 
REMARK    2  A    between atoms: C_6  and  N_7 
REMARK       I    between atoms: N_7  and  C_8 
REMARK    3  A    between atoms: C_8  and  C_9 
REMARK    4  A    between atoms: C_14  and  C_15 
REMARK    5  A    between atoms: C_23  and  C_24 
ROOT
HETATM    1  C   UNL     1      -4.672   1.397 -32.582  1.00  0.00     0.148 A 
HETATM    2  N   UNL     1      -5.477   2.456 -32.329  1.00  0.00    -0.165 NA
HETATM    3  N   UNL     1      -4.651   3.512 -32.451  1.00  0.00    -0.240 N 
HETATM    4  C   UNL     1      -3.376   3.182 -32.816  1.00  0.00     0.123 A 
HETATM    5  N   UNL     1      -2.431   4.121 -33.033  1.00  0.00    -0.366 N 
HETATM    6  C   UNL     1      -2.681   5.546 -32.864  1.00  0.00     0.118 C 
HETATM    7  C   UNL     1      -4.184   5.862 -32.990  1.00  0.00     0.066 C 
HETATM    8  C   UNL     1      -5.117   4.872 -32.268  1.00  0.00     0.221 C 
HETATM    9  C   UNL     1      -3.349   1.816 -32.893  1.00  0.00     0.089 A 
HETATM   10  H   UNL     1      -1.464   3.862 -33.216  1.00  0.00     0.161 HD
ENDROOT
BRANCH   1  11
HETATM   11  C   UNL     1      -5.164   0.008 -32.527  1.00  0.00     0.276 C 
HETATM   12  N   UNL     1      -4.855  -0.690 -33.678  1.00  0.00    -0.322 N 
HETATM   13  H   UNL     1      -4.355  -0.132 -34.365  1.00  0.00     0.169 HD
HETATM   14  O   UNL     1      -5.778  -0.412 -31.553  1.00  0.00    -0.266 OA
BRANCH  12  15
HETATM   15  C   UNL     1      -5.162  -2.023 -34.002  1.00  0.00     0.037 A 
HETATM   16  C   UNL     1      -4.256  -3.079 -33.904  1.00  0.00     0.066 A 
HETATM   17  C   UNL     1      -4.652  -4.371 -34.248  1.00  0.00     0.067 A 
HETATM   18  C   UNL     1      -5.945  -4.634 -34.688  1.00  0.00     0.036 A 
HETATM   19  C   UNL     1      -6.855  -3.584 -34.790  1.00  0.00     0.005 A 
HETATM   20  C   UNL     1      -6.464  -2.285 -34.450  1.00  0.00     0.029 A 
BRANCH  17  21
HETATM   21  O   UNL     1      -3.729  -5.370 -34.138  1.00  0.00    -0.361 OA
HETATM   22  H   UNL     1      -3.067  -5.263 -34.839  1.00  0.00     0.217 HD
ENDBRANCH  17  21
ENDBRANCH  12  15
ENDBRANCH   1  11
BRANCH   8  23
HETATM   23  C   UNL     1      -5.311   5.165 -30.798  1.00  0.00     0.409 C 
HETATM   24  F   UNL     1      -4.428   4.545 -29.995  1.00  0.00    -0.169 F 
HETATM   25  F   UNL     1      -5.195   6.498 -30.568  1.00  0.00    -0.169 F 
HETATM   26  F   UNL     1      -6.551   4.819 -30.378  1.00  0.00    -0.169 F 
ENDBRANCH   8  23
BRANCH   6  27
HETATM   27  C   UNL     1      -2.007   6.121 -31.629  1.00  0.00    -0.035 A 
HETATM   28  C   UNL     1      -2.232   7.471 -31.295  1.00  0.00     0.012 A 
HETATM   29  C   UNL     1      -1.617   8.049 -30.181  1.00  0.00     0.043 A 
HETATM   30  C   UNL     1      -0.773   7.281 -29.391  1.00  0.00     0.116 A 
HETATM   31  F   UNL     1      -0.184   7.835 -28.323  1.00  0.00    -0.206 F 
HETATM   32  C   UNL     1      -0.529   5.949 -29.695  1.00  0.00     0.043 A 
HETATM   33  C   UNL     1      -1.139   5.374 -30.814  1.00  0.00     0.012 A 
ENDBRANCH   6  27
TORSDOF 5
ENDMDL
MODEL 7
REMARK VINA RESULT:      -8.7      4.507      6.255
REMARK  5 active torsions:
REMARK  status: ('A' for Active; 'I' for Inactive)
REMARK    1  A    between atoms: C_3  and  O_4 
REMARK    2  A    between atoms: C_6  and  N_7 
REMARK       I    between atoms: N_7  and  C_8 
REMARK    3  A    between atoms: C_8  and  C_9 
REMARK    4  A    between atoms: C_14  and  C_15 
REMARK    5  A    between atoms: C_23  and  C_24 
ROOT
HETATM    1  C   UNL     1      -9.427   2.526 -33.097  1.00  0.00     0.148 A 
HETATM    2  N   UNL     1      -8.506   1.660 -32.612  1.00  0.00    -0.165 NA
HETATM    3  N   UNL     1      -7.466   2.454 -32.297  1.00  0.00    -0.240 N 
HETATM    4  C   UNL     1      -7.697   3.784 -32.510  1.00  0.00     0.123 A 
HETATM    5  N   UNL     1      -6.780   4.724 -32.201  1.00  0.00    -0.366 N 
HETATM    6  C   UNL     1      -5.470   4.400 -31.651  1.00  0.00     0.118 C 
HETATM    7  C   UNL     1      -5.487   3.024 -30.959  1.00  0.00     0.066 C 
HETATM    8  C   UNL     1      -6.246   1.923 -31.723  1.00  0.00     0.221 C 
HETATM    9  C   UNL     1      -8.954   3.866 -33.045  1.00  0.00     0.089 A 
HETATM   10  H   UNL     1      -6.925   5.702 -32.446  1.00  0.00     0.161 HD
ENDROOT
BRANCH   1  11
HETATM   11  C   UNL     1     -10.739   2.076 -33.599  1.00  0.00     0.276 C 
HETATM   12  N   UNL     1     -11.769   2.480 -32.773  1.00  0.00    -0.322 N 
HETATM   13  H   UNL     1     -11.452   3.005 -31.962  1.00  0.00     0.169 HD
HETATM   14  O   UNL     1     -10.834   1.415 -34.627  1.00  0.00    -0.266 OA
BRANCH  12  15
HETATM   15  C   UNL     1     -13.147   2.237 -32.910  1.00  0.00     0.037 A 
HETATM   16  C   UNL     1     -13.696   1.357 -33.842  1.00  0.00     0.066 A 
HETATM   17  C   UNL     1     -15.078   1.180 -33.904  1.00  0.00     0.067 A 
HETATM   18  C   UNL     1     -15.930   1.866 -33.045  1.00  0.00     0.036 A 
HETATM   19  C   UNL     1     -15.388   2.748 -32.112  1.00  0.00     0.005 A 
HETATM   20  C   UNL     1     -14.004   2.933 -32.046  1.00  0.00     0.029 A 
BRANCH  17  21
HETATM   21  O   UNL     1     -15.567   0.311 -34.835  1.00  0.00    -0.361 OA
HETATM   22  H   UNL     1     -15.608  -0.576 -34.445  1.00  0.00     0.217 HD
ENDBRANCH  17  21
ENDBRANCH  12  15
ENDBRANCH   1  11
BRANCH   8  23
HETATM   23  C   UNL     1      -5.425   1.232 -32.788  1.00  0.00     0.409 C 
HETATM   24  F   UNL     1      -4.097   1.295 -32.583  1.00  0.00    -0.169 F 
HETATM   25  F   UNL     1      -5.758  -0.083 -32.854  1.00  0.00    -0.169 F 
HETATM   26  F   UNL     1      -5.669   1.743 -34.018  1.00  0.00    -0.169 F 
ENDBRANCH   8  23
BRANCH   6  27
HETATM   27  C   UNL     1      -4.345   4.599 -32.653  1.00  0.00    -0.035 A 
HETATM   28  C   UNL     1      -4.664   5.000 -33.966  1.00  0.00     0.012 A 
HETATM   29  C   UNL     1      -3.666   5.175 -34.927  1.00  0.00     0.043 A 
HETATM   30  C   UNL     1      -2.339   4.952 -34.585  1.00  0.00     0.116 A 
HETATM   31  F   UNL     1      -1.382   5.120 -35.506  1.00  0.00    -0.206 F 
HETATM   32  C   UNL     1      -1.994   4.553 -33.301  1.00  0.00     0.043 A 
HETATM   33  C   UNL     1      -2.993   4.372 -32.342  1.00  0.00     0.012 A 
ENDBRANCH   6  27
TORSDOF 5
ENDMDL
MODEL 8
REMARK VINA RESULT:      -8.7      2.367      3.232
REMARK  5 active torsions:
REMARK  status: ('A' for Active; 'I' for Inactive)
REMARK    1  A    between atoms: C_3  and  O_4 
REMARK    2  A    between atoms: C_6  and  N_7 
REMARK       I    between atoms: N_7  and  C_8 
REMARK    3  A    between atoms: C_8  and  C_9 
REMARK    4  A    between atoms: C_14  and  C_15 
REMARK    5  A    between atoms: C_23  and  C_24 
ROOT
HETATM    1  C   UNL     1      -4.834   1.083 -32.633  1.00  0.00     0.148 A 
HETATM    2  N   UNL     1      -5.517   1.971 -33.394  1.00  0.00    -0.165 NA
HETATM    3  N   UNL     1      -4.894   3.139 -33.145  1.00  0.00    -0.240 N 
HETATM    4  C   UNL     1      -3.822   3.030 -32.305  1.00  0.00     0.123 A 
HETATM    5  N   UNL     1      -3.054   4.094 -31.990  1.00  0.00    -0.366 N 
HETATM    6  C   UNL     1      -3.322   5.437 -32.487  1.00  0.00     0.118 C 
HETATM    7  C   UNL     1      -4.151   5.390 -33.785  1.00  0.00     0.066 C 
HETATM    8  C   UNL     1      -5.309   4.375 -33.778  1.00  0.00     0.221 C 
HETATM    9  C   UNL     1      -3.764   1.712 -31.939  1.00  0.00     0.089 A 
HETATM   10  H   UNL     1      -2.314   4.021 -31.294  1.00  0.00     0.161 HD
ENDROOT
BRANCH   1  11
HETATM   11  C   UNL     1      -5.201  -0.344 -32.573  1.00  0.00     0.276 C 
HETATM   12  N   UNL     1      -4.624  -1.064 -33.602  1.00  0.00    -0.322 N 
HETATM   13  H   UNL     1      -4.058  -0.493 -34.224  1.00  0.00     0.169 HD
HETATM   14  O   UNL     1      -5.943  -0.774 -31.698  1.00  0.00    -0.266 OA
BRANCH  12  15
HETATM   15  C   UNL     1      -4.745  -2.435 -33.885  1.00  0.00     0.037 A 
HETATM   16  C   UNL     1      -5.805  -2.994 -34.599  1.00  0.00     0.066 A 
HETATM   17  C   UNL     1      -5.839  -4.369 -34.832  1.00  0.00     0.067 A 
HETATM   18  C   UNL     1      -4.828  -5.204 -34.367  1.00  0.00     0.036 A 
HETATM   19  C   UNL     1      -3.766  -4.651 -33.652  1.00  0.00     0.005 A 
HETATM   20  C   UNL     1      -3.727  -3.274 -33.411  1.00  0.00     0.029 A 
BRANCH  17  21
HETATM   21  O   UNL     1      -6.898  -4.869 -35.532  1.00  0.00    -0.361 OA
HETATM   22  H   UNL     1      -7.445  -4.132 -35.841  1.00  0.00     0.217 HD
ENDBRANCH  17  21
ENDBRANCH  12  15
ENDBRANCH   1  11
BRANCH   8  23
HETATM   23  C   UNL     1      -6.579   4.889 -33.140  1.00  0.00     0.409 C 
HETATM   24  F   UNL     1      -6.751   4.490 -31.867  1.00  0.00    -0.169 F 
HETATM   25  F   UNL     1      -6.583   6.248 -33.138  1.00  0.00    -0.169 F 
HETATM   26  F   UNL     1      -7.677   4.511 -33.835  1.00  0.00    -0.169 F 
ENDBRANCH   8  23
BRANCH   6  27
HETATM   27  C   UNL     1      -3.865   6.365 -31.413  1.00  0.00    -0.035 A 
HETATM   28  C   UNL     1      -3.841   7.756 -31.638  1.00  0.00     0.012 A 
HETATM   29  C   UNL     1      -4.310   8.649 -30.672  1.00  0.00     0.043 A 
HETATM   30  C   UNL     1      -4.807   8.160 -29.472  1.00  0.00     0.116 A 
HETATM   31  F   UNL     1      -5.257   9.017 -28.545  1.00  0.00    -0.206 F 
HETATM   32  C   UNL     1      -4.841   6.796 -29.219  1.00  0.00     0.043 A 
HETATM   33  C   UNL     1      -4.365   5.903 -30.183  1.00  0.00     0.012 A 
ENDBRANCH   6  27
TORSDOF 5
ENDMDL
MODEL 9
REMARK VINA RESULT:      -8.6      4.981      8.468
REMARK  5 active torsions:
REMARK  status: ('A' for Active; 'I' for Inactive)
REMARK    1  A    between atoms: C_3  and  O_4 
REMARK    2  A    between atoms: C_6  and  N_7 
REMARK       I    between atoms: N_7  and  C_8 
REMARK    3  A    between atoms: C_8  and  C_9 
REMARK    4  A    between atoms: C_14  and  C_15 
REMARK    5  A    between atoms: C_23  and  C_24 
ROOT
HETATM    1  C   UNL     1      -9.563   2.750 -31.981  1.00  0.00     0.148 A 
HETATM    2  N   UNL     1      -8.487   2.527 -31.189  1.00  0.00    -0.165 NA
HETATM    3  N   UNL     1      -7.589   1.981 -32.031  1.00  0.00    -0.240 N 
HETATM    4  C   UNL     1      -8.020   1.892 -33.324  1.00  0.00     0.123 A 
HETATM    5  N   UNL     1      -7.228   1.417 -34.308  1.00  0.00    -0.366 N 
HETATM    6  C   UNL     1      -5.874   0.934 -34.068  1.00  0.00     0.118 C 
HETATM    7  C   UNL     1      -5.291   1.543 -32.779  1.00  0.00     0.066 C 
HETATM    8  C   UNL     1      -6.265   1.592 -31.587  1.00  0.00     0.221 C 
HETATM    9  C   UNL     1      -9.304   2.366 -33.325  1.00  0.00     0.089 A 
HETATM   10  H   UNL     1      -7.588   1.271 -35.249  1.00  0.00     0.161 HD
ENDROOT
BRANCH   1  11
HETATM   11  C   UNL     1     -10.817   3.323 -31.456  1.00  0.00     0.276 C 
HETATM   12  N   UNL     1     -11.866   3.151 -32.338  1.00  0.00    -0.322 N 
HETATM   13  H   UNL     1     -11.598   2.672 -33.193  1.00  0.00     0.169 HD
HETATM   14  O   UNL     1     -10.853   3.883 -30.367  1.00  0.00    -0.266 OA
BRANCH  12  15
HETATM   15  C   UNL     1     -13.202   3.566 -32.200  1.00  0.00     0.037 A 
HETATM   16  C   UNL     1     -14.290   2.694 -32.157  1.00  0.00     0.066 A 
HETATM   17  C   UNL     1     -15.582   3.200 -32.017  1.00  0.00     0.067 A 
HETATM   18  C   UNL     1     -15.813   4.568 -31.914  1.00  0.00     0.036 A 
HETATM   19  C   UNL     1     -14.730   5.444 -31.957  1.00  0.00     0.005 A 
HETATM   20  C   UNL     1     -13.432   4.945 -32.101  1.00  0.00     0.029 A 
BRANCH  17  21
HETATM   21  O   UNL     1     -16.614   2.307 -31.984  1.00  0.00    -0.361 OA
HETATM   22  H   UNL     1     -16.270   1.423 -32.181  1.00  0.00     0.217 HD
ENDBRANCH  17  21
ENDBRANCH  12  15
ENDBRANCH   1  11
BRANCH   8  23
HETATM   23  C   UNL     1      -6.337   0.307 -30.793  1.00  0.00     0.409 C 
HETATM   24  F   UNL     1      -6.503   0.489 -29.471  1.00  0.00    -0.169 F 
HETATM   25  F   UNL     1      -7.376  -0.452 -31.227  1.00  0.00    -0.169 F 
HETATM   26  F   UNL     1      -5.225  -0.448 -30.961  1.00  0.00    -0.169 F 
ENDBRANCH   8  23
BRANCH   6  27
HETATM   27  C   UNL     1      -5.761  -0.578 -34.171  1.00  0.00    -0.035 A 
HETATM   28  C   UNL     1      -6.908  -1.326 -34.504  1.00  0.00     0.012 A 
HETATM   29  C   UNL     1      -6.858  -2.720 -34.590  1.00  0.00     0.043 A 
HETATM   30  C   UNL     1      -5.661  -3.378 -34.343  1.00  0.00     0.116 A 
HETATM   31  F   UNL     1      -5.613  -4.714 -34.426  1.00  0.00    -0.206 F 
HETATM   32  C   UNL     1      -4.515  -2.669 -34.009  1.00  0.00     0.043 A 
HETATM   33  C   UNL     1      -4.568  -1.276 -33.917  1.00  0.00     0.012 A 
ENDBRANCH   6  27
TORSDOF 5
ENDMDL
MODEL 10
REMARK VINA RESULT:      -8.6      5.445      7.134
REMARK  5 active torsions:
REMARK  status: ('A' for Active; 'I' for Inactive)
REMARK    1  A    between atoms: C_3  and  O_4 
REMARK    2  A    between atoms: C_6  and  N_7 
REMARK       I    between atoms: N_7  and  C_8 
REMARK    3  A    between atoms: C_8  and  C_9 
REMARK    4  A    between atoms: C_14  and  C_15 
REMARK    5  A    between atoms: C_23  and  C_24 
ROOT
HETATM    1  C   UNL     1      -8.442   1.378 -33.092  1.00  0.00     0.148 A 
HETATM    2  N   UNL     1      -9.222   1.488 -34.194  1.00  0.00    -0.165 NA
HETATM    3  N   UNL     1      -9.871   2.652 -34.003  1.00  0.00    -0.240 N 
HETATM    4  C   UNL     1      -9.508   3.311 -32.862  1.00  0.00     0.123 A 
HETATM    5  N   UNL     1     -10.022   4.516 -32.541  1.00  0.00    -0.366 N 
HETATM    6  C   UNL     1     -11.021   5.192 -33.359  1.00  0.00     0.118 C 
HETATM    7  C   UNL     1     -10.974   4.691 -34.815  1.00  0.00     0.066 C 
HETATM    8  C   UNL     1     -10.819   3.166 -34.971  1.00  0.00     0.221 C 
HETATM    9  C   UNL     1      -8.594   2.505 -32.237  1.00  0.00     0.089 A 
HETATM   10  H   UNL     1      -9.813   4.957 -31.647  1.00  0.00     0.161 HD
ENDROOT
BRANCH   1  11
HETATM   11  C   UNL     1      -7.565   0.215 -32.865  1.00  0.00     0.276 C 
HETATM   12  N   UNL     1      -7.293  -0.458 -34.040  1.00  0.00    -0.322 N 
HETATM   13  H   UNL     1      -7.745  -0.048 -34.852  1.00  0.00     0.169 HD
HETATM   14  O   UNL     1      -7.170  -0.074 -31.741  1.00  0.00    -0.266 OA
BRANCH  12  15
HETATM   15  C   UNL     1      -6.511  -1.611 -34.226  1.00  0.00     0.037 A 
HETATM   16  C   UNL     1      -7.013  -2.829 -34.686  1.00  0.00     0.066 A 
HETATM   17  C   UNL     1      -6.159  -3.920 -34.841  1.00  0.00     0.067 A 
HETATM   18  C   UNL     1      -4.803  -3.820 -34.548  1.00  0.00     0.036 A 
HETATM   19  C   UNL     1      -4.295  -2.607 -34.088  1.00  0.00     0.005 A 
HETATM   20  C   UNL     1      -5.146  -1.509 -33.927  1.00  0.00     0.029 A 
BRANCH  17  21
HETATM   21  O   UNL     1      -6.698  -5.091 -35.290  1.00  0.00    -0.361 OA
HETATM   22  H   UNL     1      -6.009  -5.773 -35.290  1.00  0.00     0.217 HD
ENDBRANCH  17  21
ENDBRANCH  12  15
ENDBRANCH   1  11
BRANCH   8  23
HETATM   23  C   UNL     1     -12.120   2.401 -34.886  1.00  0.00     0.409 C 
HETATM   24  F   UNL     1     -12.422   1.970 -33.649  1.00  0.00    -0.169 F 
HETATM   25  F   UNL     1     -13.149   3.184 -35.301  1.00  0.00    -0.169 F 
HETATM   26  F   UNL     1     -12.118   1.320 -35.701  1.00  0.00    -0.169 F 
ENDBRANCH   8  23
BRANCH   6  27
HETATM   27  C   UNL     1     -12.402   5.188 -32.724  1.00  0.00    -0.035 A 
HETATM   28  C   UNL     1     -12.590   4.507 -31.505  1.00  0.00     0.012 A 
HETATM   29  C   UNL     1     -13.846   4.458 -30.895  1.00  0.00     0.043 A 
HETATM   30  C   UNL     1     -14.925   5.089 -31.498  1.00  0.00     0.116 A 
HETATM   31  F   UNL     1     -16.129   5.043 -30.912  1.00  0.00    -0.206 F 
HETATM   32  C   UNL     1     -14.772   5.765 -32.700  1.00  0.00     0.043 A 
HETATM   33  C   UNL     1     -13.517   5.808 -33.314  1.00  0.00     0.012 A 
ENDBRANCH   6  27
TORSDOF 5
ENDMDL
