MODEL 1
REMARK VINA RESULT:      -7.9      0.000      0.000
REMARK  8 active torsions:
REMARK  status: ('A' for Active; 'I' for Inactive)
REMARK    1  A    between atoms: C_2  and  C_3 
REMARK    2  A    between atoms: C_3  and  O_4 
REMARK    3  A    between atoms: O_4  and  C_5 
REMARK    4  A    between atoms: C_6  and  O_7 
REMARK    5  A    between atoms: O_7  and  C_8 
REMARK    6  A    between atoms: C_8  and  C_9 
REMARK    7  A    between atoms: C_12  and  N_13 
REMARK       I    between atoms: N_13  and  C_14 
REMARK    8  A    between atoms: C_14  and  C_15 
ROOT
HETATM    1  N   UNL     1      -3.054   2.955 -32.202  1.00  0.00    -0.322 N 
HETATM    2  C   UNL     1      -3.871   2.177 -31.407  1.00  0.00     0.277 C 
HETATM    3  O   UNL     1      -4.590   2.524 -30.485  1.00  0.00    -0.266 OA
HETATM    4  H   UNL     1      -2.454   2.425 -32.830  1.00  0.00     0.169 HD
ENDROOT
BRANCH   1   5
HETATM    5  C   UNL     1      -2.874   4.348 -32.161  1.00  0.00     0.037 A 
HETATM    6  C   UNL     1      -1.652   4.969 -31.890  1.00  0.00     0.069 A 
HETATM    7  C   UNL     1      -1.549   6.368 -31.876  1.00  0.00     0.104 A 
HETATM    8  C   UNL     1      -2.685   7.157 -32.138  1.00  0.00     0.102 A 
HETATM    9  C   UNL     1      -3.909   6.533 -32.393  1.00  0.00     0.042 A 
HETATM   10  C   UNL     1      -4.000   5.140 -32.405  1.00  0.00     0.032 A 
BRANCH   7  11
HETATM   11  O   UNL     1      -0.385   7.058 -31.633  1.00  0.00    -0.348 OA
BRANCH  11  12
HETATM   12  C   UNL     1       0.571   6.471 -30.755  1.00  0.00     0.175 C 
BRANCH  12  13
HETATM   13  C   UNL     1       0.129   6.710 -29.313  1.00  0.00     0.022 C 
HETATM   14  C   UNL     1       0.890   7.849 -28.650  1.00  0.00     0.007 C 
ENDBRANCH  12  13
ENDBRANCH  11  12
ENDBRANCH   7  11
BRANCH   8  15
HETATM   15  O   UNL     1      -2.501   8.517 -32.108  1.00  0.00    -0.348 OA
BRANCH  15  16
HETATM   16  C   UNL     1      -3.216   9.261 -31.125  1.00  0.00     0.175 C 
BRANCH  16  17
HETATM   17  C   UNL     1      -2.274   9.520 -29.954  1.00  0.00     0.022 C 
HETATM   18  C   UNL     1      -2.775   8.876 -28.673  1.00  0.00     0.007 C 
ENDBRANCH  16  17
ENDBRANCH  15  16
ENDBRANCH   8  15
ENDBRANCH   1   5
BRANCH   2  19
HETATM   19  C   UNL     1      -3.776   0.698 -31.784  1.00  0.00     0.156 A 
HETATM   20  N   UNL     1      -2.807   0.036 -31.212  1.00  0.00    -0.166 NA
HETATM   21  N   UNL     1      -2.673  -1.287 -31.506  1.00  0.00    -0.242 N 
HETATM   22  C   UNL     1      -3.475  -2.012 -32.355  1.00  0.00     0.272 A 
HETATM   23  H   UNL     1      -1.936  -1.794 -31.024  1.00  0.00     0.192 HD
HETATM   24  O   UNL     1      -3.303  -3.209 -32.553  1.00  0.00    -0.266 OA
HETATM   25  C   UNL     1      -4.548  -1.264 -33.030  1.00  0.00     0.046 A 
HETATM   26  C   UNL     1      -4.708   0.096 -32.761  1.00  0.00     0.016 A 
HETATM   27  C   UNL     1      -5.384  -1.915 -33.946  1.00  0.00     0.018 A 
HETATM   28  C   UNL     1      -5.707   0.812 -33.432  1.00  0.00     0.015 A 
HETATM   29  C   UNL     1      -6.543   0.163 -34.346  1.00  0.00     0.001 A 
HETATM   30  C   UNL     1      -6.384  -1.198 -34.601  1.00  0.00     0.001 A 
ENDBRANCH   2  19
TORSDOF 8
ENDMDL
MODEL 2
REMARK VINA RESULT:      -7.7      1.998      8.853
REMARK  8 active torsions:
REMARK  status: ('A' for Active; 'I' for Inactive)
REMARK    1  A    between atoms: C_2  and  C_3 
REMARK    2  A    between atoms: C_3  and  O_4 
REMARK    3  A    between atoms: O_4  and  C_5 
REMARK    4  A    between atoms: C_6  and  O_7 
REMARK    5  A    between atoms: O_7  and  C_8 
REMARK    6  A    between atoms: C_8  and  C_9 
REMARK    7  A    between atoms: C_12  and  N_13 
REMARK       I    between atoms: N_13  and  C_14 
REMARK    8  A    between atoms: C_14  and  C_15 
ROOT
HETATM    1  N   UNL     1      -2.998   3.277 -31.139  1.00  0.00    -0.322 N 
HETATM    2  C   UNL     1      -2.276   4.103 -31.977  1.00  0.00     0.277 C 
HETATM    3  O   UNL     1      -2.191   4.067 -33.193  1.00  0.00    -0.266 OA
HETATM    4  H   UNL     1      -2.819   3.425 -30.149  1.00  0.00     0.169 HD
ENDROOT
BRANCH   1   5
HETATM    5  C   UNL     1      -3.837   2.206 -31.489  1.00  0.00     0.037 A 
HETATM    6  C   UNL     1      -3.495   0.860 -31.326  1.00  0.00     0.069 A 
HETATM    7  C   UNL     1      -4.392  -0.155 -31.690  1.00  0.00     0.104 A 
HETATM    8  C   UNL     1      -5.650   0.180 -32.225  1.00  0.00     0.102 A 
HETATM    9  C   UNL     1      -5.983   1.525 -32.401  1.00  0.00     0.042 A 
HETATM   10  C   UNL     1      -5.083   2.528 -32.034  1.00  0.00     0.032 A 
BRANCH   7  11
HETATM   11  O   UNL     1      -4.140  -1.499 -31.551  1.00  0.00    -0.348 OA
BRANCH  11  12
HETATM   12  C   UNL     1      -3.495  -2.176 -32.627  1.00  0.00     0.175 C 
BRANCH  12  13
HETATM   13  C   UNL     1      -3.285  -3.637 -32.236  1.00  0.00     0.022 C 
HETATM   14  C   UNL     1      -3.441  -4.585 -33.416  1.00  0.00     0.007 C 
ENDBRANCH  12  13
ENDBRANCH  11  12
ENDBRANCH   7  11
BRANCH   8  15
HETATM   15  O   UNL     1      -6.470  -0.870 -32.554  1.00  0.00    -0.348 OA
BRANCH  15  16
HETATM   16  C   UNL     1      -7.443  -0.657 -33.574  1.00  0.00     0.175 C 
BRANCH  16  17
HETATM   17  C   UNL     1      -6.958  -1.359 -34.839  1.00  0.00     0.022 C 
HETATM   18  C   UNL     1      -6.675  -2.831 -34.594  1.00  0.00     0.007 C 
ENDBRANCH  16  17
ENDBRANCH  15  16
ENDBRANCH   8  15
ENDBRANCH   1   5
BRANCH   2  19
HETATM   19  C   UNL     1      -1.490   5.151 -31.188  1.00  0.00     0.156 A 
HETATM   20  N   UNL     1      -0.371   4.733 -30.663  1.00  0.00    -0.166 NA
HETATM   21  N   UNL     1       0.375   5.623 -29.952  1.00  0.00    -0.242 N 
HETATM   22  C   UNL     1       0.067   6.944 -29.732  1.00  0.00     0.272 A 
HETATM   23  H   UNL     1       1.260   5.289 -29.581  1.00  0.00     0.192 HD
HETATM   24  O   UNL     1       0.802   7.690 -29.097  1.00  0.00    -0.266 OA
HETATM   25  C   UNL     1      -1.212   7.413 -30.292  1.00  0.00     0.046 A 
HETATM   26  C   UNL     1      -2.007   6.526 -31.017  1.00  0.00     0.016 A 
HETATM   27  C   UNL     1      -1.625   8.734 -30.077  1.00  0.00     0.018 A 
HETATM   28  C   UNL     1      -3.239   6.965 -31.518  1.00  0.00     0.015 A 
HETATM   29  C   UNL     1      -3.653   8.284 -31.305  1.00  0.00     0.001 A 
HETATM   30  C   UNL     1      -2.847   9.168 -30.588  1.00  0.00     0.001 A 
ENDBRANCH   2  19
TORSDOF 8
ENDMDL
MODEL 3
REMARK VINA RESULT:      -7.6      2.242      9.004
REMARK  8 active torsions:
REMARK  status: ('A' for Active; 'I' for Inactive)
REMARK    1  A    between atoms: C_2  and  C_3 
REMARK    2  A    between atoms: C_3  and  O_4 
REMARK    3  A    between atoms: O_4  and  C_5 
REMARK    4  A    between atoms: C_6  and  O_7 
REMARK    5  A    between atoms: O_7  and  C_8 
REMARK    6  A    between atoms: C_8  and  C_9 
REMARK    7  A    between atoms: C_12  and  N_13 
REMARK       I    between atoms: N_13  and  C_14 
REMARK    8  A    between atoms: C_14  and  C_15 
ROOT
HETATM    1  N   UNL     1      -2.961   3.245 -31.243  1.00  0.00    -0.322 N 
HETATM    2  C   UNL     1      -2.273   4.142 -32.036  1.00  0.00     0.277 C 
HETATM    3  O   UNL     1      -2.199   4.180 -33.252  1.00  0.00    -0.266 OA
HETATM    4  H   UNL     1      -2.776   3.340 -30.247  1.00  0.00     0.169 HD
ENDROOT
BRANCH   1   5
HETATM    5  C   UNL     1      -3.770   2.171 -31.649  1.00  0.00     0.037 A 
HETATM    6  C   UNL     1      -4.985   2.321 -32.322  1.00  0.00     0.069 A 
HETATM    7  C   UNL     1      -5.734   1.198 -32.706  1.00  0.00     0.104 A 
HETATM    8  C   UNL     1      -5.259  -0.095 -32.412  1.00  0.00     0.102 A 
HETATM    9  C   UNL     1      -4.051  -0.241 -31.726  1.00  0.00     0.042 A 
HETATM   10  C   UNL     1      -3.313   0.884 -31.350  1.00  0.00     0.032 A 
BRANCH   7  11
HETATM   11  O   UNL     1      -6.930   1.256 -33.380  1.00  0.00    -0.348 OA
BRANCH  11  12
HETATM   12  C   UNL     1      -8.013   1.949 -32.767  1.00  0.00     0.175 C 
BRANCH  12  13
HETATM   13  C   UNL     1      -8.796   0.969 -31.896  1.00  0.00     0.022 C 
HETATM   14  C   UNL     1      -9.633  -0.001 -32.717  1.00  0.00     0.007 C 
ENDBRANCH  12  13
ENDBRANCH  11  12
ENDBRANCH   7  11
BRANCH   8  15
HETATM   15  O   UNL     1      -6.047  -1.140 -32.822  1.00  0.00    -0.348 OA
BRANCH  15  16
HETATM   16  C   UNL     1      -5.574  -1.943 -33.902  1.00  0.00     0.175 C 
BRANCH  16  17
HETATM   17  C   UNL     1      -6.788  -2.502 -34.637  1.00  0.00     0.022 C 
HETATM   18  C   UNL     1      -6.630  -3.981 -34.943  1.00  0.00     0.007 C 
ENDBRANCH  16  17
ENDBRANCH  15  16
ENDBRANCH   8  15
ENDBRANCH   1   5
BRANCH   2  19
HETATM   19  C   UNL     1      -1.512   5.166 -31.192  1.00  0.00     0.156 A 
HETATM   20  N   UNL     1      -0.411   4.731 -30.643  1.00  0.00    -0.166 NA
HETATM   21  N   UNL     1       0.313   5.598 -29.883  1.00  0.00    -0.242 N 
HETATM   22  C   UNL     1      -0.001   6.913 -29.636  1.00  0.00     0.272 A 
HETATM   23  H   UNL     1       1.185   5.252 -29.493  1.00  0.00     0.192 HD
HETATM   24  O   UNL     1       0.714   7.640 -28.956  1.00  0.00    -0.266 OA
HETATM   25  C   UNL     1      -1.260   7.401 -30.223  1.00  0.00     0.046 A 
HETATM   26  C   UNL     1      -2.033   6.537 -30.999  1.00  0.00     0.016 A 
HETATM   27  C   UNL     1      -1.679   8.716 -29.985  1.00  0.00     0.018 A 
HETATM   28  C   UNL     1      -3.247   6.992 -31.527  1.00  0.00     0.015 A 
HETATM   29  C   UNL     1      -3.666   8.306 -31.290  1.00  0.00     0.001 A 
HETATM   30  C   UNL     1      -2.883   9.166 -30.523  1.00  0.00     0.001 A 
ENDBRANCH   2  19
TORSDOF 8
ENDMDL
MODEL 4
REMARK VINA RESULT:      -7.6      6.153      8.465
REMARK  8 active torsions:
REMARK  status: ('A' for Active; 'I' for Inactive)
REMARK    1  A    between atoms: C_2  and  C_3 
REMARK    2  A    between atoms: C_3  and  O_4 
REMARK    3  A    between atoms: O_4  and  C_5 
REMARK    4  A    between atoms: C_6  and  O_7 
REMARK    5  A    between atoms: O_7  and  C_8 
REMARK    6  A    between atoms: C_8  and  C_9 
REMARK    7  A    between atoms: C_12  and  N_13 
REMARK       I    between atoms: N_13  and  C_14 
REMARK    8  A    between atoms: C_14  and  C_15 
ROOT
HETATM    1  N   UNL     1      -7.207   0.045 -32.555  1.00  0.00    -0.322 N 
HETATM    2  C   UNL     1      -6.092   0.062 -33.368  1.00  0.00     0.277 C 
HETATM    3  O   UNL     1      -5.873   0.756 -34.346  1.00  0.00    -0.266 OA
HETATM    4  H   UNL     1      -7.213  -0.707 -31.869  1.00  0.00     0.169 HD
ENDROOT
BRANCH   1   5
HETATM    5  C   UNL     1      -8.355   0.850 -32.641  1.00  0.00     0.037 A 
HETATM    6  C   UNL     1      -9.547   0.447 -33.249  1.00  0.00     0.069 A 
HETATM    7  C   UNL     1     -10.656   1.304 -33.287  1.00  0.00     0.104 A 
HETATM    8  C   UNL     1     -10.573   2.584 -32.707  1.00  0.00     0.102 A 
HETATM    9  C   UNL     1      -9.376   2.990 -32.112  1.00  0.00     0.042 A 
HETATM   10  C   UNL     1      -8.277   2.127 -32.080  1.00  0.00     0.032 A 
BRANCH   7  11
HETATM   11  O   UNL     1     -11.867   0.982 -33.853  1.00  0.00    -0.348 OA
BRANCH  11  12
HETATM   12  C   UNL     1     -12.461  -0.265 -33.503  1.00  0.00     0.175 C 
BRANCH  12  13
HETATM   13  C   UNL     1     -13.979  -0.133 -33.604  1.00  0.00     0.022 C 
HETATM   14  C   UNL     1     -14.408   1.120 -34.353  1.00  0.00     0.007 C 
ENDBRANCH  12  13
ENDBRANCH  11  12
ENDBRANCH   7  11
BRANCH   8  15
HETATM   15  O   UNL     1     -11.701   3.361 -32.783  1.00  0.00    -0.348 OA
BRANCH  15  16
HETATM   16  C   UNL     1     -11.574   4.659 -33.358  1.00  0.00     0.175 C 
BRANCH  16  17
HETATM   17  C   UNL     1     -11.264   4.487 -34.842  1.00  0.00     0.022 C 
HETATM   18  C   UNL     1     -12.507   4.140 -35.642  1.00  0.00     0.007 C 
ENDBRANCH  16  17
ENDBRANCH  15  16
ENDBRANCH   8  15
ENDBRANCH   1   5
BRANCH   2  19
HETATM   19  C   UNL     1      -5.061  -0.979 -32.926  1.00  0.00     0.156 A 
HETATM   20  N   UNL     1      -4.215  -0.577 -32.017  1.00  0.00    -0.166 NA
HETATM   21  N   UNL     1      -3.275  -1.461 -31.581  1.00  0.00    -0.242 N 
HETATM   22  C   UNL     1      -3.129  -2.761 -32.003  1.00  0.00     0.272 A 
HETATM   23  H   UNL     1      -2.648  -1.142 -30.848  1.00  0.00     0.192 HD
HETATM   24  O   UNL     1      -2.269  -3.504 -31.545  1.00  0.00    -0.266 OA
HETATM   25  C   UNL     1      -4.059  -3.210 -33.052  1.00  0.00     0.046 A 
HETATM   26  C   UNL     1      -5.028  -2.328 -33.532  1.00  0.00     0.016 A 
HETATM   27  C   UNL     1      -3.952  -4.506 -33.572  1.00  0.00     0.018 A 
HETATM   28  C   UNL     1      -5.887  -2.746 -34.555  1.00  0.00     0.015 A 
HETATM   29  C   UNL     1      -5.781  -4.040 -35.074  1.00  0.00     0.001 A 
HETATM   30  C   UNL     1      -4.818  -4.920 -34.583  1.00  0.00     0.001 A 
ENDBRANCH   2  19
TORSDOF 8
ENDMDL
MODEL 5
REMARK VINA RESULT:      -7.5      6.086      8.960
REMARK  8 active torsions:
REMARK  status: ('A' for Active; 'I' for Inactive)
REMARK    1  A    between atoms: C_2  and  C_3 
REMARK    2  A    between atoms: C_3  and  O_4 
REMARK    3  A    between atoms: O_4  and  C_5 
REMARK    4  A    between atoms: C_6  and  O_7 
REMARK    5  A    between atoms: O_7  and  C_8 
REMARK    6  A    between atoms: C_8  and  C_9 
REMARK    7  A    between atoms: C_12  and  N_13 
REMARK       I    between atoms: N_13  and  C_14 
REMARK    8  A    between atoms: C_14  and  C_15 
ROOT
HETATM    1  N   UNL     1      -8.254   1.475 -33.662  1.00  0.00    -0.322 N 
HETATM    2  C   UNL     1      -8.080   0.680 -32.548  1.00  0.00     0.277 C 
HETATM    3  O   UNL     1      -8.886   0.406 -31.675  1.00  0.00    -0.266 OA
HETATM    4  H   UNL     1      -7.401   1.655 -34.185  1.00  0.00     0.169 HD
ENDROOT
BRANCH   1   5
HETATM    5  C   UNL     1      -9.418   2.143 -34.078  1.00  0.00     0.037 A 
HETATM    6  C   UNL     1     -10.608   1.496 -34.422  1.00  0.00     0.069 A 
HETATM    7  C   UNL     1     -11.734   2.232 -34.819  1.00  0.00     0.104 A 
HETATM    8  C   UNL     1     -11.669   3.638 -34.871  1.00  0.00     0.102 A 
HETATM    9  C   UNL     1     -10.474   4.281 -34.541  1.00  0.00     0.042 A 
HETATM   10  C   UNL     1      -9.360   3.538 -34.146  1.00  0.00     0.032 A 
BRANCH   7  11
HETATM   11  O   UNL     1     -12.944   1.676 -35.161  1.00  0.00    -0.348 OA
BRANCH  11  12
HETATM   12  C   UNL     1     -13.422   0.579 -34.387  1.00  0.00     0.175 C 
BRANCH  12  13
HETATM   13  C   UNL     1     -14.928   0.734 -34.188  1.00  0.00     0.022 C 
HETATM   14  C   UNL     1     -15.271   1.673 -33.041  1.00  0.00     0.007 C 
ENDBRANCH  12  13
ENDBRANCH  11  12
ENDBRANCH   7  11
BRANCH   8  15
HETATM   15  O   UNL     1     -12.813   4.285 -35.266  1.00  0.00    -0.348 OA
BRANCH  15  16
HETATM   16  C   UNL     1     -13.228   5.419 -34.508  1.00  0.00     0.175 C 
BRANCH  16  17
HETATM   17  C   UNL     1     -13.633   4.934 -33.120  1.00  0.00     0.022 C 
HETATM   18  C   UNL     1     -14.905   5.607 -32.636  1.00  0.00     0.007 C 
ENDBRANCH  16  17
ENDBRANCH  15  16
ENDBRANCH   8  15
ENDBRANCH   1   5
BRANCH   2  19
HETATM   19  C   UNL     1      -6.652   0.138 -32.465  1.00  0.00     0.156 A 
HETATM   20  N   UNL     1      -5.839   0.818 -31.703  1.00  0.00    -0.166 NA
HETATM   21  N   UNL     1      -4.554   0.382 -31.586  1.00  0.00    -0.242 N 
HETATM   22  C   UNL     1      -4.018  -0.728 -32.196  1.00  0.00     0.272 A 
HETATM   23  H   UNL     1      -3.946   0.903 -30.961  1.00  0.00     0.192 HD
HETATM   24  O   UNL     1      -2.854  -1.069 -32.024  1.00  0.00    -0.266 OA
HETATM   25  C   UNL     1      -4.920  -1.479 -33.084  1.00  0.00     0.046 A 
HETATM   26  C   UNL     1      -6.241  -1.055 -33.236  1.00  0.00     0.016 A 
HETATM   27  C   UNL     1      -4.444  -2.598 -33.780  1.00  0.00     0.018 A 
HETATM   28  C   UNL     1      -7.086  -1.751 -34.109  1.00  0.00     0.015 A 
HETATM   29  C   UNL     1      -6.611  -2.868 -34.804  1.00  0.00     0.001 A 
HETATM   30  C   UNL     1      -5.294  -3.292 -34.638  1.00  0.00     0.001 A 
ENDBRANCH   2  19
TORSDOF 8
ENDMDL
MODEL 6
REMARK VINA RESULT:      -7.5      6.273      8.287
REMARK  8 active torsions:
REMARK  status: ('A' for Active; 'I' for Inactive)
REMARK    1  A    between atoms: C_2  and  C_3 
REMARK    2  A    between atoms: C_3  and  O_4 
REMARK    3  A    between atoms: O_4  and  C_5 
REMARK    4  A    between atoms: C_6  and  O_7 
REMARK    5  A    between atoms: O_7  and  C_8 
REMARK    6  A    between atoms: C_8  and  C_9 
REMARK    7  A    between atoms: C_12  and  N_13 
REMARK       I    between atoms: N_13  and  C_14 
REMARK    8  A    between atoms: C_14  and  C_15 
ROOT
HETATM    1  N   UNL     1      -7.665   0.047 -32.930  1.00  0.00    -0.322 N 
HETATM    2  C   UNL     1      -6.563   0.081 -33.760  1.00  0.00     0.277 C 
HETATM    3  O   UNL     1      -6.410   0.707 -34.795  1.00  0.00    -0.266 OA
HETATM    4  H   UNL     1      -7.607  -0.643 -32.185  1.00  0.00     0.169 HD
ENDROOT
BRANCH   1   5
HETATM    5  C   UNL     1      -8.874   0.752 -33.063  1.00  0.00     0.037 A 
HETATM    6  C   UNL     1      -8.960   2.144 -33.144  1.00  0.00     0.069 A 
HETATM    7  C   UNL     1     -10.204   2.777 -33.286  1.00  0.00     0.104 A 
HETATM    8  C   UNL     1     -11.379   2.004 -33.349  1.00  0.00     0.102 A 
HETATM    9  C   UNL     1     -11.291   0.614 -33.253  1.00  0.00     0.042 A 
HETATM   10  C   UNL     1     -10.047  -0.006 -33.112  1.00  0.00     0.032 A 
BRANCH   7  11
HETATM   11  O   UNL     1     -10.376   4.137 -33.386  1.00  0.00    -0.348 OA
BRANCH  11  12
HETATM   12  C   UNL     1      -9.437   4.877 -34.161  1.00  0.00     0.175 C 
BRANCH  12  13
HETATM   13  C   UNL     1     -10.184   5.614 -35.270  1.00  0.00     0.022 C 
HETATM   14  C   UNL     1     -11.667   5.773 -34.968  1.00  0.00     0.007 C 
ENDBRANCH  12  13
ENDBRANCH  11  12
ENDBRANCH   7  11
BRANCH   8  15
HETATM   15  O   UNL     1     -12.555   2.697 -33.492  1.00  0.00    -0.348 OA
BRANCH  15  16
HETATM   16  C   UNL     1     -13.773   1.988 -33.278  1.00  0.00     0.175 C 
BRANCH  16  17
HETATM   17  C   UNL     1     -14.535   2.691 -32.159  1.00  0.00     0.022 C 
HETATM   18  C   UNL     1     -16.002   2.294 -32.140  1.00  0.00     0.007 C 
ENDBRANCH  16  17
ENDBRANCH  15  16
ENDBRANCH   8  15
ENDBRANCH   1   5
BRANCH   2  19
HETATM   19  C   UNL     1      -5.451  -0.837 -33.251  1.00  0.00     0.156 A 
HETATM   20  N   UNL     1      -4.640  -0.303 -32.379  1.00  0.00    -0.166 NA
HETATM   21  N   UNL     1      -3.631  -1.073 -31.886  1.00  0.00    -0.242 N 
HETATM   22  C   UNL     1      -3.379  -2.384 -32.215  1.00  0.00     0.272 A 
HETATM   23  H   UNL     1      -3.031  -0.652 -31.182  1.00  0.00     0.192 HD
HETATM   24  O   UNL     1      -2.460  -3.019 -31.711  1.00  0.00    -0.266 OA
HETATM   25  C   UNL     1      -4.268  -2.982 -33.224  1.00  0.00     0.046 A 
HETATM   26  C   UNL     1      -5.307  -2.219 -33.759  1.00  0.00     0.016 A 
HETATM   27  C   UNL     1      -4.056  -4.299 -33.650  1.00  0.00     0.018 A 
HETATM   28  C   UNL     1      -6.129  -2.778 -34.744  1.00  0.00     0.015 A 
HETATM   29  C   UNL     1      -5.918  -4.093 -35.171  1.00  0.00     0.001 A 
HETATM   30  C   UNL     1      -4.885  -4.853 -34.623  1.00  0.00     0.001 A 
ENDBRANCH   2  19
TORSDOF 8
ENDMDL
MODEL 7
REMARK VINA RESULT:      -7.4      2.374      9.269
REMARK  8 active torsions:
REMARK  status: ('A' for Active; 'I' for Inactive)
REMARK    1  A    between atoms: C_2  and  C_3 
REMARK    2  A    between atoms: C_3  and  O_4 
REMARK    3  A    between atoms: O_4  and  C_5 
REMARK    4  A    between atoms: C_6  and  O_7 
REMARK    5  A    between atoms: O_7  and  C_8 
REMARK    6  A    between atoms: C_8  and  C_9 
REMARK    7  A    between atoms: C_12  and  N_13 
REMARK       I    between atoms: N_13  and  C_14 
REMARK    8  A    between atoms: C_14  and  C_15 
ROOT
HETATM    1  N   UNL     1      -4.236   2.818 -31.788  1.00  0.00    -0.322 N 
HETATM    2  C   UNL     1      -4.018   4.032 -32.407  1.00  0.00     0.277 C 
HETATM    3  O   UNL     1      -4.075   4.302 -33.595  1.00  0.00    -0.266 OA
HETATM    4  H   UNL     1      -4.012   2.808 -30.796  1.00  0.00     0.169 HD
ENDROOT
BRANCH   1   5
HETATM    5  C   UNL     1      -4.605   1.598 -32.378  1.00  0.00     0.037 A 
HETATM    6  C   UNL     1      -5.901   1.300 -32.810  1.00  0.00     0.069 A 
HETATM    7  C   UNL     1      -6.191   0.062 -33.401  1.00  0.00     0.104 A 
HETATM    8  C   UNL     1      -5.170  -0.894 -33.563  1.00  0.00     0.102 A 
HETATM    9  C   UNL     1      -3.879  -0.600 -33.117  1.00  0.00     0.042 A 
HETATM   10  C   UNL     1      -3.601   0.637 -32.531  1.00  0.00     0.032 A 
BRANCH   7  11
HETATM   11  O   UNL     1      -7.433  -0.306 -33.863  1.00  0.00    -0.348 OA
BRANCH  11  12
HETATM   12  C   UNL     1      -8.176   0.647 -34.618  1.00  0.00     0.175 C 
BRANCH  12  13
HETATM   13  C   UNL     1      -9.390   1.085 -33.802  1.00  0.00     0.022 C 
HETATM   14  C   UNL     1      -9.912  -0.020 -32.895  1.00  0.00     0.007 C 
ENDBRANCH  12  13
ENDBRANCH  11  12
ENDBRANCH   7  11
BRANCH   8  15
HETATM   15  O   UNL     1      -5.534  -2.079 -34.151  1.00  0.00    -0.348 OA
BRANCH  15  16
HETATM   16  C   UNL     1      -4.524  -3.069 -34.328  1.00  0.00     0.175 C 
BRANCH  16  17
HETATM   17  C   UNL     1      -5.214  -4.391 -34.649  1.00  0.00     0.022 C 
HETATM   18  C   UNL     1      -6.684  -4.196 -34.978  1.00  0.00     0.007 C 
ENDBRANCH  16  17
ENDBRANCH  15  16
ENDBRANCH   8  15
ENDBRANCH   1   5
BRANCH   2  19
HETATM   19  C   UNL     1      -3.634   5.115 -31.396  1.00  0.00     0.156 A 
HETATM   20  N   UNL     1      -4.631   5.657 -30.751  1.00  0.00    -0.166 NA
HETATM   21  N   UNL     1      -4.352   6.625 -29.835  1.00  0.00    -0.242 N 
HETATM   22  C   UNL     1      -3.101   7.092 -29.508  1.00  0.00     0.272 A 
HETATM   23  H   UNL     1      -5.137   7.010 -29.318  1.00  0.00     0.192 HD
HETATM   24  O   UNL     1      -2.928   7.953 -28.654  1.00  0.00    -0.266 OA
HETATM   25  C   UNL     1      -1.975   6.509 -30.256  1.00  0.00     0.046 A 
HETATM   26  C   UNL     1      -2.225   5.523 -31.211  1.00  0.00     0.016 A 
HETATM   27  C   UNL     1      -0.670   6.960 -30.018  1.00  0.00     0.018 A 
HETATM   28  C   UNL     1      -1.156   4.996 -31.945  1.00  0.00     0.015 A 
HETATM   29  C   UNL     1       0.147   5.445 -31.708  1.00  0.00     0.001 A 
HETATM   30  C   UNL     1       0.390   6.423 -30.745  1.00  0.00     0.001 A 
ENDBRANCH   2  19
TORSDOF 8
ENDMDL
MODEL 8
REMARK VINA RESULT:      -7.3      6.162      8.237
REMARK  8 active torsions:
REMARK  status: ('A' for Active; 'I' for Inactive)
REMARK    1  A    between atoms: C_2  and  C_3 
REMARK    2  A    between atoms: C_3  and  O_4 
REMARK    3  A    between atoms: O_4  and  C_5 
REMARK    4  A    between atoms: C_6  and  O_7 
REMARK    5  A    between atoms: O_7  and  C_8 
REMARK    6  A    between atoms: C_8  and  C_9 
REMARK    7  A    between atoms: C_12  and  N_13 
REMARK       I    between atoms: N_13  and  C_14 
REMARK    8  A    between atoms: C_14  and  C_15 
ROOT
HETATM    1  N   UNL     1      -7.866  -0.482 -33.479  1.00  0.00    -0.322 N 
HETATM    2  C   UNL     1      -7.020  -0.669 -34.553  1.00  0.00     0.277 C 
HETATM    3  O   UNL     1      -6.796   0.083 -35.486  1.00  0.00    -0.266 OA
HETATM    4  H   UNL     1      -7.979  -1.302 -32.888  1.00  0.00     0.169 HD
ENDROOT
BRANCH   1   5
HETATM    5  C   UNL     1      -8.659   0.640 -33.185  1.00  0.00     0.037 A 
HETATM    6  C   UNL     1     -10.018   0.738 -33.495  1.00  0.00     0.069 A 
HETATM    7  C   UNL     1     -10.747   1.888 -33.160  1.00  0.00     0.104 A 
HETATM    8  C   UNL     1     -10.107   2.957 -32.503  1.00  0.00     0.102 A 
HETATM    9  C   UNL     1      -8.745   2.862 -32.208  1.00  0.00     0.042 A 
HETATM   10  C   UNL     1      -8.030   1.711 -32.545  1.00  0.00     0.032 A 
BRANCH   7  11
HETATM   11  O   UNL     1     -12.087   2.061 -33.417  1.00  0.00    -0.348 OA
BRANCH  11  12
HETATM   12  C   UNL     1     -12.591   1.619 -34.674  1.00  0.00     0.175 C 
BRANCH  12  13
HETATM   13  C   UNL     1     -13.840   0.774 -34.435  1.00  0.00     0.022 C 
HETATM   14  C   UNL     1     -13.555  -0.466 -33.600  1.00  0.00     0.007 C 
ENDBRANCH  12  13
ENDBRANCH  11  12
ENDBRANCH   7  11
BRANCH   8  15
HETATM   15  O   UNL     1     -10.890   4.045 -32.207  1.00  0.00    -0.348 OA
BRANCH  15  16
HETATM   16  C   UNL     1     -10.237   5.298 -32.017  1.00  0.00     0.175 C 
BRANCH  16  17
HETATM   17  C   UNL     1     -10.432   5.712 -30.562  1.00  0.00     0.022 C 
HETATM   18  C   UNL     1      -9.119   5.725 -29.799  1.00  0.00     0.007 C 
ENDBRANCH  16  17
ENDBRANCH  15  16
ENDBRANCH   8  15
ENDBRANCH   1   5
BRANCH   2  19
HETATM   19  C   UNL     1      -6.337  -2.037 -34.495  1.00  0.00     0.156 A 
HETATM   20  N   UNL     1      -6.885  -2.967 -35.230  1.00  0.00    -0.166 NA
HETATM   21  N   UNL     1      -6.320  -4.205 -35.223  1.00  0.00    -0.242 N 
HETATM   22  C   UNL     1      -5.204  -4.582 -34.513  1.00  0.00     0.272 A 
HETATM   23  H   UNL     1      -6.738  -4.906 -35.828  1.00  0.00     0.192 HD
HETATM   24  O   UNL     1      -4.741  -5.714 -34.575  1.00  0.00    -0.266 OA
HETATM   25  C   UNL     1      -4.602  -3.547 -33.656  1.00  0.00     0.046 A 
HETATM   26  C   UNL     1      -5.161  -2.270 -33.629  1.00  0.00     0.016 A 
HETATM   27  C   UNL     1      -3.489  -3.858 -32.864  1.00  0.00     0.018 A 
HETATM   28  C   UNL     1      -4.608  -1.298 -32.786  1.00  0.00     0.015 A 
HETATM   29  C   UNL     1      -3.496  -1.607 -31.995  1.00  0.00     0.001 A 
HETATM   30  C   UNL     1      -2.936  -2.883 -32.036  1.00  0.00     0.001 A 
ENDBRANCH   2  19
TORSDOF 8
ENDMDL
MODEL 9
REMARK VINA RESULT:      -7.3      5.253      7.670
REMARK  8 active torsions:
REMARK  status: ('A' for Active; 'I' for Inactive)
REMARK    1  A    between atoms: C_2  and  C_3 
REMARK    2  A    between atoms: C_3  and  O_4 
REMARK    3  A    between atoms: O_4  and  C_5 
REMARK    4  A    between atoms: C_6  and  O_7 
REMARK    5  A    between atoms: O_7  and  C_8 
REMARK    6  A    between atoms: C_8  and  C_9 
REMARK    7  A    between atoms: C_12  and  N_13 
REMARK       I    between atoms: N_13  and  C_14 
REMARK    8  A    between atoms: C_14  and  C_15 
ROOT
HETATM    1  N   UNL     1      -7.269   0.004 -32.675  1.00  0.00    -0.322 N 
HETATM    2  C   UNL     1      -6.105   0.092 -33.413  1.00  0.00     0.277 C 
HETATM    3  O   UNL     1      -5.849   0.834 -34.345  1.00  0.00    -0.266 OA
HETATM    4  H   UNL     1      -7.293  -0.775 -32.023  1.00  0.00     0.169 HD
ENDROOT
BRANCH   1   5
HETATM    5  C   UNL     1      -8.437   0.775 -32.804  1.00  0.00     0.037 A 
HETATM    6  C   UNL     1      -8.791   1.806 -31.930  1.00  0.00     0.069 A 
HETATM    7  C   UNL     1      -9.970   2.539 -32.130  1.00  0.00     0.104 A 
HETATM    8  C   UNL     1     -10.807   2.236 -33.221  1.00  0.00     0.102 A 
HETATM    9  C   UNL     1     -10.458   1.195 -34.084  1.00  0.00     0.042 A 
HETATM   10  C   UNL     1      -9.281   0.473 -33.876  1.00  0.00     0.032 A 
BRANCH   7  11
HETATM   11  O   UNL     1     -10.386   3.575 -31.327  1.00  0.00    -0.348 OA
BRANCH  11  12
HETATM   12  C   UNL     1      -9.670   3.817 -30.119  1.00  0.00     0.175 C 
BRANCH  12  13
HETATM   13  C   UNL     1      -8.953   5.160 -30.231  1.00  0.00     0.022 C 
HETATM   14  C   UNL     1      -7.783   5.279 -29.265  1.00  0.00     0.007 C 
ENDBRANCH  12  13
ENDBRANCH  11  12
ENDBRANCH   7  11
BRANCH   8  15
HETATM   15  O   UNL     1     -11.940   3.000 -33.348  1.00  0.00    -0.348 OA
BRANCH  15  16
HETATM   16  C   UNL     1     -12.936   2.561 -34.269  1.00  0.00     0.175 C 
BRANCH  16  17
HETATM   17  C   UNL     1     -14.021   1.838 -33.478  1.00  0.00     0.022 C 
HETATM   18  C   UNL     1     -14.103   0.367 -33.846  1.00  0.00     0.007 C 
ENDBRANCH  16  17
ENDBRANCH  15  16
ENDBRANCH   8  15
ENDBRANCH   1   5
BRANCH   2  19
HETATM   19  C   UNL     1      -5.069  -0.933 -32.946  1.00  0.00     0.156 A 
HETATM   20  N   UNL     1      -4.241  -0.514 -32.028  1.00  0.00    -0.166 NA
HETATM   21  N   UNL     1      -3.298  -1.382 -31.570  1.00  0.00    -0.242 N 
HETATM   22  C   UNL     1      -3.131  -2.684 -31.979  1.00  0.00     0.272 A 
HETATM   23  H   UNL     1      -2.686  -1.050 -30.831  1.00  0.00     0.192 HD
HETATM   24  O   UNL     1      -2.269  -3.413 -31.502  1.00  0.00    -0.266 OA
HETATM   25  C   UNL     1      -4.039  -3.153 -33.039  1.00  0.00     0.046 A 
HETATM   26  C   UNL     1      -5.011  -2.286 -33.540  1.00  0.00     0.016 A 
HETATM   27  C   UNL     1      -3.909  -4.452 -33.546  1.00  0.00     0.018 A 
HETATM   28  C   UNL     1      -5.849  -2.723 -34.573  1.00  0.00     0.015 A 
HETATM   29  C   UNL     1      -5.721  -4.020 -35.080  1.00  0.00     0.001 A 
HETATM   30  C   UNL     1      -4.755  -4.884 -34.566  1.00  0.00     0.001 A 
ENDBRANCH   2  19
TORSDOF 8
ENDMDL
MODEL 10
REMARK VINA RESULT:      -7.2      1.779      2.812
REMARK  8 active torsions:
REMARK  status: ('A' for Active; 'I' for Inactive)
REMARK    1  A    between atoms: C_2  and  C_3 
REMARK    2  A    between atoms: C_3  and  O_4 
REMARK    3  A    between atoms: O_4  and  C_5 
REMARK    4  A    between atoms: C_6  and  O_7 
REMARK    5  A    between atoms: O_7  and  C_8 
REMARK    6  A    between atoms: C_8  and  C_9 
REMARK    7  A    between atoms: C_12  and  N_13 
REMARK       I    between atoms: N_13  and  C_14 
REMARK    8  A    between atoms: C_14  and  C_15 
ROOT
HETATM    1  N   UNL     1      -3.462   1.937 -32.264  1.00  0.00    -0.322 N 
HETATM    2  C   UNL     1      -4.210   1.052 -31.514  1.00  0.00     0.277 C 
HETATM    3  O   UNL     1      -4.940   1.286 -30.566  1.00  0.00    -0.266 OA
HETATM    4  H   UNL     1      -2.835   1.494 -32.931  1.00  0.00     0.169 HD
ENDROOT
BRANCH   1   5
HETATM    5  C   UNL     1      -3.384   3.334 -32.134  1.00  0.00     0.037 A 
HETATM    6  C   UNL     1      -4.133   4.075 -31.216  1.00  0.00     0.069 A 
HETATM    7  C   UNL     1      -3.992   5.468 -31.137  1.00  0.00     0.104 A 
HETATM    8  C   UNL     1      -3.086   6.131 -31.988  1.00  0.00     0.102 A 
HETATM    9  C   UNL     1      -2.350   5.389 -32.915  1.00  0.00     0.042 A 
HETATM   10  C   UNL     1      -2.498   4.002 -32.984  1.00  0.00     0.032 A 
BRANCH   7  11
HETATM   11  O   UNL     1      -4.680   6.269 -30.257  1.00  0.00    -0.348 OA
BRANCH  11  12
HETATM   12  C   UNL     1      -6.086   6.076 -30.132  1.00  0.00     0.175 C 
BRANCH  12  13
HETATM   13  C   UNL     1      -6.464   6.140 -28.654  1.00  0.00     0.022 C 
HETATM   14  C   UNL     1      -5.251   6.067 -27.739  1.00  0.00     0.007 C 
ENDBRANCH  12  13
ENDBRANCH  11  12
ENDBRANCH   7  11
BRANCH   8  15
HETATM   15  O   UNL     1      -3.005   7.493 -31.847  1.00  0.00    -0.348 OA
BRANCH  15  16
HETATM   16  C   UNL     1      -1.706   8.074 -31.763  1.00  0.00     0.175 C 
BRANCH  16  17
HETATM   17  C   UNL     1      -1.104   7.684 -30.416  1.00  0.00     0.022 C 
HETATM   18  C   UNL     1       0.208   6.937 -30.578  1.00  0.00     0.007 C 
ENDBRANCH  16  17
ENDBRANCH  15  16
ENDBRANCH   8  15
ENDBRANCH   1   5
BRANCH   2  19
HETATM   19  C   UNL     1      -4.013  -0.389 -31.989  1.00  0.00     0.156 A 
HETATM   20  N   UNL     1      -3.042  -1.041 -31.410  1.00  0.00    -0.166 NA
HETATM   21  N   UNL     1      -2.819  -2.329 -31.788  1.00  0.00    -0.242 N 
HETATM   22  C   UNL     1      -3.533  -3.030 -32.731  1.00  0.00     0.272 A 
HETATM   23  H   UNL     1      -2.082  -2.832 -31.301  1.00  0.00     0.192 HD
HETATM   24  O   UNL     1      -3.285  -4.200 -33.002  1.00  0.00    -0.266 OA
HETATM   25  C   UNL     1      -4.608  -2.291 -33.412  1.00  0.00     0.046 A 
HETATM   26  C   UNL     1      -4.857  -0.964 -33.058  1.00  0.00     0.016 A 
HETATM   27  C   UNL     1      -5.356  -2.915 -34.418  1.00  0.00     0.018 A 
HETATM   28  C   UNL     1      -5.856  -0.253 -33.733  1.00  0.00     0.015 A 
HETATM   29  C   UNL     1      -6.604  -0.875 -34.738  1.00  0.00     0.001 A 
HETATM   30  C   UNL     1      -6.357  -2.204 -35.078  1.00  0.00     0.001 A 
ENDBRANCH   2  19
TORSDOF 8
ENDMDL
