MODEL 1
REMARK VINA RESULT:     -10.0      0.000      0.000
REMARK  7 active torsions:
REMARK  status: ('A' for Active; 'I' for Inactive)
REMARK    1  A    between atoms: C_5  and  C_6 
REMARK       I    between atoms: C_6  and  N_7 
REMARK    2  A    between atoms: N_7  and  C_8 
REMARK    3  A    between atoms: C_8  and  C_9 
REMARK    4  A    between atoms: C_9  and  C_10 
REMARK    5  A    between atoms: N_15  and  C_17 
REMARK    6  A    between atoms: C_17  and  C_18 
REMARK    7  A    between atoms: C_21  and  C_22 
ROOT
HETATM    1  C   UNL     1      -2.825   8.209 -31.684  1.00  0.00     0.131 A 
HETATM    2  N   UNL     1      -3.154   6.999 -32.257  1.00  0.00    -0.319 N 
HETATM    3  C   UNL     1      -2.318   6.851 -33.337  1.00  0.00     0.131 A 
HETATM    4  C   UNL     1      -2.231   5.676 -34.247  1.00  0.00     0.108 C 
HETATM    5  C   UNL     1      -2.268   4.357 -33.486  1.00  0.00     0.243 C 
HETATM    6  N   UNL     1      -3.689   3.939 -33.108  1.00  0.00    -0.065 N 
HETATM    7  H   UNL     1      -4.060   3.478 -33.952  1.00  0.00     0.280 HD
HETATM    8  C   UNL     1      -4.662   5.063 -32.797  1.00  0.00     0.255 C 
HETATM    9  C   UNL     1      -4.142   6.065 -31.766  1.00  0.00     0.159 C 
HETATM   10  N   UNL     1      -1.564   7.921 -33.434  1.00  0.00    -0.135 NA
HETATM   11  N   UNL     1      -1.874   8.761 -32.406  1.00  0.00    -0.135 NA
ENDROOT
BRANCH   1  12
HETATM   12  C   UNL     1      -3.407   8.785 -30.434  1.00  0.00     0.100 C 
BRANCH  12  13
HETATM   13  C   UNL     1      -2.813   8.120 -29.186  1.00  0.00     0.130 C 
BRANCH  13  14
HETATM   14  N   UNL     1      -1.422   8.474 -28.928  1.00  0.00    -0.360 N 
HETATM   15  C   UNL     1      -1.017   9.060 -27.756  1.00  0.00     0.223 C 
HETATM   16  O   UNL     1      -1.706   9.119 -26.740  1.00  0.00    -0.273 OA
HETATM   17  H   UNL     1      -0.832   8.557 -29.750  1.00  0.00     0.162 HD
BRANCH  15  18
HETATM   18  C   UNL     1       0.420   9.566 -27.761  1.00  0.00     0.103 C 
HETATM   19  C   UNL     1       0.706  10.316 -26.459  1.00  0.00     0.248 C 
HETATM   20  N   UNL     1       0.747   9.358 -25.288  1.00  0.00    -0.074 N 
HETATM   21  C   UNL     1       0.888  10.075 -23.976  1.00  0.00     0.269 C 
HETATM   22  H   UNL     1      -0.189   8.909 -25.273  1.00  0.00     0.279 HD
HETATM   23  C   UNL     1       1.784   8.280 -25.461  1.00  0.00     0.234 C 
HETATM   24  C   UNL     1       1.501   7.502 -26.738  1.00  0.00     0.029 C 
HETATM   25  C   UNL     1       1.403   8.408 -27.967  1.00  0.00     0.017 C 
ENDBRANCH  15  18
ENDBRANCH  13  14
ENDBRANCH  12  13
ENDBRANCH   1  12
BRANCH   6  26
HETATM   26  C   UNL     1      -3.700   2.842 -32.051  1.00  0.00     0.273 C 
BRANCH  26  27
HETATM   27  C   UNL     1      -4.207   1.526 -32.568  1.00  0.00    -0.033 A 
HETATM   28  C   UNL     1      -3.369   0.405 -32.604  1.00  0.00     0.010 A 
HETATM   29  C   UNL     1      -3.834  -0.811 -33.113  1.00  0.00     0.015 A 
HETATM   30  C   UNL     1      -5.144  -0.944 -33.592  1.00  0.00    -0.002 A 
HETATM   31  C   UNL     1      -5.980   0.180 -33.548  1.00  0.00     0.015 A 
HETATM   32  C   UNL     1      -5.519   1.403 -33.046  1.00  0.00     0.010 A 
BRANCH  30  33
HETATM   33  C   UNL     1      -5.631  -2.217 -34.117  1.00  0.00     0.085 A 
HETATM   34  O   UNL     1      -4.695  -3.203 -34.266  1.00  0.00    -0.322 OA
HETATM   35  C   UNL     1      -5.328  -4.297 -34.760  1.00  0.00     0.142 A 
HETATM   36  C   UNL     1      -6.664  -4.036 -34.937  1.00  0.00     0.027 A 
HETATM   37  C   UNL     1      -6.862  -2.695 -34.524  1.00  0.00     0.040 A 
ENDBRANCH  30  33
ENDBRANCH  26  27
ENDBRANCH   6  26
TORSDOF 7
ENDMDL
MODEL 2
REMARK VINA RESULT:      -9.9      1.224      1.754
REMARK  7 active torsions:
REMARK  status: ('A' for Active; 'I' for Inactive)
REMARK    1  A    between atoms: C_5  and  C_6 
REMARK       I    between atoms: C_6  and  N_7 
REMARK    2  A    between atoms: N_7  and  C_8 
REMARK    3  A    between atoms: C_8  and  C_9 
REMARK    4  A    between atoms: C_9  and  C_10 
REMARK    5  A    between atoms: N_15  and  C_17 
REMARK    6  A    between atoms: C_17  and  C_18 
REMARK    7  A    between atoms: C_21  and  C_22 
ROOT
HETATM    1  C   UNL     1      -3.003   8.281 -31.779  1.00  0.00     0.131 A 
HETATM    2  N   UNL     1      -3.268   7.055 -32.351  1.00  0.00    -0.319 N 
HETATM    3  C   UNL     1      -2.238   6.815 -33.228  1.00  0.00     0.131 A 
HETATM    4  C   UNL     1      -2.026   5.590 -34.046  1.00  0.00     0.108 C 
HETATM    5  C   UNL     1      -2.283   4.317 -33.250  1.00  0.00     0.243 C 
HETATM    6  N   UNL     1      -3.771   3.976 -33.154  1.00  0.00    -0.065 N 
HETATM    7  H   UNL     1      -3.984   3.485 -34.035  1.00  0.00     0.280 HD
HETATM    8  C   UNL     1      -4.729   5.153 -33.102  1.00  0.00     0.255 C 
HETATM    9  C   UNL     1      -4.382   6.189 -32.033  1.00  0.00     0.159 C 
HETATM   10  N   UNL     1      -1.428   7.848 -33.216  1.00  0.00    -0.135 NA
HETATM   11  N   UNL     1      -1.899   8.754 -32.313  1.00  0.00    -0.135 NA
ENDROOT
BRANCH   1  12
HETATM   12  C   UNL     1      -3.798   8.947 -30.703  1.00  0.00     0.100 C 
BRANCH  12  13
HETATM   13  C   UNL     1      -2.973  10.023 -29.986  1.00  0.00     0.130 C 
BRANCH  13  14
HETATM   14  N   UNL     1      -1.746   9.525 -29.377  1.00  0.00    -0.360 N 
HETATM   15  C   UNL     1      -1.715   8.987 -28.116  1.00  0.00     0.223 C 
HETATM   16  O   UNL     1      -2.716   8.650 -27.485  1.00  0.00    -0.273 OA
HETATM   17  H   UNL     1      -0.882   9.869 -29.787  1.00  0.00     0.162 HD
BRANCH  15  18
HETATM   18  C   UNL     1      -0.318   8.737 -27.563  1.00  0.00     0.103 C 
HETATM   19  C   UNL     1      -0.401   7.801 -26.356  1.00  0.00     0.248 C 
HETATM   20  N   UNL     1      -0.788   6.403 -26.790  1.00  0.00    -0.074 N 
HETATM   21  C   UNL     1      -1.014   5.491 -25.619  1.00  0.00     0.269 C 
HETATM   22  H   UNL     1      -1.710   6.510 -27.255  1.00  0.00     0.279 HD
HETATM   23  C   UNL     1       0.177   5.820 -27.786  1.00  0.00     0.234 C 
HETATM   24  C   UNL     1       0.254   6.723 -29.010  1.00  0.00     0.029 C 
HETATM   25  C   UNL     1       0.601   8.169 -28.649  1.00  0.00     0.017 C 
ENDBRANCH  15  18
ENDBRANCH  13  14
ENDBRANCH  12  13
ENDBRANCH   1  12
BRANCH   6  26
HETATM   26  C   UNL     1      -4.052   2.940 -32.073  1.00  0.00     0.273 C 
BRANCH  26  27
HETATM   27  C   UNL     1      -4.451   1.601 -32.625  1.00  0.00    -0.033 A 
HETATM   28  C   UNL     1      -5.724   1.409 -33.174  1.00  0.00     0.010 A 
HETATM   29  C   UNL     1      -6.102   0.154 -33.662  1.00  0.00     0.015 A 
HETATM   30  C   UNL     1      -5.223  -0.936 -33.621  1.00  0.00    -0.002 A 
HETATM   31  C   UNL     1      -3.948  -0.735 -33.076  1.00  0.00     0.015 A 
HETATM   32  C   UNL     1      -3.564   0.516 -32.580  1.00  0.00     0.010 A 
BRANCH  30  33
HETATM   33  C   UNL     1      -5.618  -2.244 -34.138  1.00  0.00     0.085 A 
HETATM   34  O   UNL     1      -4.626  -3.182 -34.222  1.00  0.00    -0.322 OA
HETATM   35  C   UNL     1      -5.177  -4.317 -34.719  1.00  0.00     0.142 A 
HETATM   36  C   UNL     1      -6.516  -4.132 -34.962  1.00  0.00     0.027 A 
HETATM   37  C   UNL     1      -6.802  -2.795 -34.589  1.00  0.00     0.040 A 
ENDBRANCH  30  33
ENDBRANCH  26  27
ENDBRANCH   6  26
TORSDOF 7
ENDMDL
MODEL 3
REMARK VINA RESULT:      -9.2      3.621      5.751
REMARK  7 active torsions:
REMARK  status: ('A' for Active; 'I' for Inactive)
REMARK    1  A    between atoms: C_5  and  C_6 
REMARK       I    between atoms: C_6  and  N_7 
REMARK    2  A    between atoms: N_7  and  C_8 
REMARK    3  A    between atoms: C_8  and  C_9 
REMARK    4  A    between atoms: C_9  and  C_10 
REMARK    5  A    between atoms: N_15  and  C_17 
REMARK    6  A    between atoms: C_17  and  C_18 
REMARK    7  A    between atoms: C_21  and  C_22 
ROOT
HETATM    1  C   UNL     1      -6.666   5.837 -28.479  1.00  0.00     0.131 A 
HETATM    2  N   UNL     1      -7.156   4.911 -29.374  1.00  0.00    -0.319 N 
HETATM    3  C   UNL     1      -8.440   5.305 -29.663  1.00  0.00     0.131 A 
HETATM    4  C   UNL     1      -9.374   4.671 -30.633  1.00  0.00     0.108 C 
HETATM    5  C   UNL     1      -8.682   4.300 -31.938  1.00  0.00     0.243 C 
HETATM    6  N   UNL     1      -7.915   2.981 -31.840  1.00  0.00    -0.065 N 
HETATM    7  H   UNL     1      -8.626   2.251 -31.994  1.00  0.00     0.280 HD
HETATM    8  C   UNL     1      -7.291   2.664 -30.492  1.00  0.00     0.255 C 
HETATM    9  C   UNL     1      -6.427   3.791 -29.928  1.00  0.00     0.159 C 
HETATM   10  N   UNL     1      -8.719   6.375 -28.957  1.00  0.00    -0.135 NA
HETATM   11  N   UNL     1      -7.617   6.709 -28.227  1.00  0.00    -0.135 NA
ENDROOT
BRANCH   1  12
HETATM   12  C   UNL     1      -5.280   5.882 -27.921  1.00  0.00     0.100 C 
BRANCH  12  13
HETATM   13  C   UNL     1      -4.356   6.741 -28.795  1.00  0.00     0.130 C 
BRANCH  13  14
HETATM   14  N   UNL     1      -3.428   5.970 -29.613  1.00  0.00    -0.360 N 
HETATM   15  C   UNL     1      -3.609   5.790 -30.961  1.00  0.00     0.223 C 
HETATM   16  O   UNL     1      -4.401   6.438 -31.643  1.00  0.00    -0.273 OA
HETATM   17  H   UNL     1      -2.828   5.326 -29.107  1.00  0.00     0.162 HD
BRANCH  15  18
HETATM   18  C   UNL     1      -2.673   4.772 -31.599  1.00  0.00     0.103 C 
HETATM   19  C   UNL     1      -3.201   4.384 -32.983  1.00  0.00     0.248 C 
HETATM   20  N   UNL     1      -3.063   5.541 -33.950  1.00  0.00    -0.074 N 
HETATM   21  C   UNL     1      -3.696   5.243 -35.279  1.00  0.00     0.269 C 
HETATM   22  H   UNL     1      -3.619   6.311 -33.531  1.00  0.00     0.279 HD
HETATM   23  C   UNL     1      -1.640   6.009 -34.091  1.00  0.00     0.234 C 
HETATM   24  C   UNL     1      -1.104   6.427 -32.728  1.00  0.00     0.029 C 
HETATM   25  C   UNL     1      -1.245   5.322 -31.679  1.00  0.00     0.017 C 
ENDBRANCH  15  18
ENDBRANCH  13  14
ENDBRANCH  12  13
ENDBRANCH   1  12
BRANCH   6  26
HETATM   26  C   UNL     1      -6.940   2.799 -32.997  1.00  0.00     0.273 C 
BRANCH  26  27
HETATM   27  C   UNL     1      -6.710   1.359 -33.355  1.00  0.00    -0.033 A 
HETATM   28  C   UNL     1      -5.671   0.635 -32.759  1.00  0.00     0.010 A 
HETATM   29  C   UNL     1      -5.441  -0.698 -33.116  1.00  0.00     0.015 A 
HETATM   30  C   UNL     1      -6.241  -1.342 -34.069  1.00  0.00    -0.002 A 
HETATM   31  C   UNL     1      -7.283  -0.614 -34.657  1.00  0.00     0.015 A 
HETATM   32  C   UNL     1      -7.515   0.722 -34.310  1.00  0.00     0.010 A 
BRANCH  30  33
HETATM   33  C   UNL     1      -6.003  -2.737 -34.435  1.00  0.00     0.085 A 
HETATM   34  O   UNL     1      -4.752  -3.222 -34.173  1.00  0.00    -0.322 OA
HETATM   35  C   UNL     1      -4.723  -4.517 -34.578  1.00  0.00     0.142 A 
HETATM   36  C   UNL     1      -5.938  -4.881 -35.103  1.00  0.00     0.027 A 
HETATM   37  C   UNL     1      -6.766  -3.734 -35.013  1.00  0.00     0.040 A 
ENDBRANCH  30  33
ENDBRANCH  26  27
ENDBRANCH   6  26
TORSDOF 7
ENDMDL
MODEL 4
REMARK VINA RESULT:      -9.1      3.216      5.243
REMARK  7 active torsions:
REMARK  status: ('A' for Active; 'I' for Inactive)
REMARK    1  A    between atoms: C_5  and  C_6 
REMARK       I    between atoms: C_6  and  N_7 
REMARK    2  A    between atoms: N_7  and  C_8 
REMARK    3  A    between atoms: C_8  and  C_9 
REMARK    4  A    between atoms: C_9  and  C_10 
REMARK    5  A    between atoms: N_15  and  C_17 
REMARK    6  A    between atoms: C_17  and  C_18 
REMARK    7  A    between atoms: C_21  and  C_22 
ROOT
HETATM    1  C   UNL     1      -2.755   8.075 -31.571  1.00  0.00     0.131 A 
HETATM    2  N   UNL     1      -3.152   6.892 -32.157  1.00  0.00    -0.319 N 
HETATM    3  C   UNL     1      -2.472   6.813 -33.349  1.00  0.00     0.131 A 
HETATM    4  C   UNL     1      -2.504   5.689 -34.324  1.00  0.00     0.108 C 
HETATM    5  C   UNL     1      -2.427   4.331 -33.637  1.00  0.00     0.243 C 
HETATM    6  N   UNL     1      -3.780   3.873 -33.091  1.00  0.00    -0.065 N 
HETATM    7  H   UNL     1      -4.261   3.452 -33.899  1.00  0.00     0.280 HD
HETATM    8  C   UNL     1      -4.708   4.966 -32.589  1.00  0.00     0.255 C 
HETATM    9  C   UNL     1      -4.058   5.920 -31.586  1.00  0.00     0.159 C 
HETATM   10  N   UNL     1      -1.746   7.896 -33.490  1.00  0.00    -0.135 NA
HETATM   11  N   UNL     1      -1.917   8.677 -32.386  1.00  0.00    -0.135 NA
ENDROOT
BRANCH   1  12
HETATM   12  C   UNL     1      -3.163   8.576 -30.224  1.00  0.00     0.100 C 
BRANCH  12  13
HETATM   13  C   UNL     1      -4.513   9.302 -30.284  1.00  0.00     0.130 C 
BRANCH  13  14
HETATM   14  N   UNL     1      -5.613   8.563 -29.678  1.00  0.00    -0.360 N 
HETATM   15  C   UNL     1      -6.710   8.156 -30.394  1.00  0.00     0.223 C 
HETATM   16  O   UNL     1      -6.768   8.148 -31.622  1.00  0.00    -0.273 OA
HETATM   17  H   UNL     1      -5.684   8.633 -28.667  1.00  0.00     0.162 HD
BRANCH  15  18
HETATM   18  C   UNL     1      -7.854   7.606 -29.551  1.00  0.00     0.103 C 
HETATM   19  C   UNL     1      -8.852   6.876 -30.451  1.00  0.00     0.248 C 
HETATM   20  N   UNL     1      -8.251   5.592 -30.983  1.00  0.00    -0.074 N 
HETATM   21  C   UNL     1      -9.151   4.919 -31.979  1.00  0.00     0.269 C 
HETATM   22  H   UNL     1      -7.407   5.888 -31.510  1.00  0.00     0.279 HD
HETATM   23  C   UNL     1      -7.819   4.658 -29.885  1.00  0.00     0.234 C 
HETATM   24  C   UNL     1      -6.802   5.357 -28.993  1.00  0.00     0.029 C 
HETATM   25  C   UNL     1      -7.321   6.688 -28.446  1.00  0.00     0.017 C 
ENDBRANCH  15  18
ENDBRANCH  13  14
ENDBRANCH  12  13
ENDBRANCH   1  12
BRANCH   6  26
HETATM   26  C   UNL     1      -3.638   2.722 -32.102  1.00  0.00     0.273 C 
BRANCH  26  27
HETATM   27  C   UNL     1      -4.143   1.414 -32.641  1.00  0.00    -0.033 A 
HETATM   28  C   UNL     1      -5.459   1.295 -33.102  1.00  0.00     0.010 A 
HETATM   29  C   UNL     1      -5.935   0.068 -33.577  1.00  0.00     0.015 A 
HETATM   30  C   UNL     1      -5.112  -1.066 -33.610  1.00  0.00    -0.002 A 
HETATM   31  C   UNL     1      -3.794  -0.938 -33.153  1.00  0.00     0.015 A 
HETATM   32  C   UNL     1      -3.312   0.285 -32.671  1.00  0.00     0.010 A 
BRANCH  30  33
HETATM   33  C   UNL     1      -5.609  -2.344 -34.113  1.00  0.00     0.085 A 
HETATM   34  O   UNL     1      -4.702  -3.367 -34.154  1.00  0.00    -0.322 OA
HETATM   35  C   UNL     1      -5.340  -4.459 -34.645  1.00  0.00     0.142 A 
HETATM   36  C   UNL     1      -6.650  -4.161 -34.926  1.00  0.00     0.027 A 
HETATM   37  C   UNL     1      -6.826  -2.797 -34.585  1.00  0.00     0.040 A 
ENDBRANCH  30  33
ENDBRANCH  26  27
ENDBRANCH   6  26
TORSDOF 7
ENDMDL
MODEL 5
REMARK VINA RESULT:      -9.1      2.138     11.627
REMARK  7 active torsions:
REMARK  status: ('A' for Active; 'I' for Inactive)
REMARK    1  A    between atoms: C_5  and  C_6 
REMARK       I    between atoms: C_6  and  N_7 
REMARK    2  A    between atoms: N_7  and  C_8 
REMARK    3  A    between atoms: C_8  and  C_9 
REMARK    4  A    between atoms: C_9  and  C_10 
REMARK    5  A    between atoms: N_15  and  C_17 
REMARK    6  A    between atoms: C_17  and  C_18 
REMARK    7  A    between atoms: C_21  and  C_22 
ROOT
HETATM    1  C   UNL     1      -4.409   5.177 -33.608  1.00  0.00     0.131 A 
HETATM    2  N   UNL     1      -3.392   5.729 -32.860  1.00  0.00    -0.319 N 
HETATM    3  C   UNL     1      -2.515   6.284 -33.761  1.00  0.00     0.131 A 
HETATM    4  C   UNL     1      -1.284   7.060 -33.450  1.00  0.00     0.108 C 
HETATM    5  C   UNL     1      -1.505   8.058 -32.321  1.00  0.00     0.243 C 
HETATM    6  N   UNL     1      -1.423   7.407 -30.940  1.00  0.00    -0.065 N 
HETATM    7  H   UNL     1      -0.415   7.369 -30.727  1.00  0.00     0.280 HD
HETATM    8  C   UNL     1      -1.915   5.974 -30.841  1.00  0.00     0.255 C 
HETATM    9  C   UNL     1      -3.315   5.758 -31.416  1.00  0.00     0.159 C 
HETATM   10  N   UNL     1      -2.954   6.044 -34.975  1.00  0.00    -0.135 NA
HETATM   11  N   UNL     1      -4.131   5.363 -34.880  1.00  0.00    -0.135 NA
ENDROOT
BRANCH   1  12
HETATM   12  C   UNL     1      -5.642   4.519 -33.079  1.00  0.00     0.100 C 
BRANCH  12  13
HETATM   13  C   UNL     1      -6.079   3.352 -33.974  1.00  0.00     0.130 C 
BRANCH  13  14
HETATM   14  N   UNL     1      -6.143   2.068 -33.287  1.00  0.00    -0.360 N 
HETATM   15  C   UNL     1      -6.539   0.915 -33.916  1.00  0.00     0.223 C 
HETATM   16  O   UNL     1      -6.637   0.794 -35.135  1.00  0.00    -0.273 OA
HETATM   17  H   UNL     1      -6.185   2.115 -32.273  1.00  0.00     0.162 HD
BRANCH  15  18
HETATM   18  C   UNL     1      -6.766  -0.272 -32.988  1.00  0.00     0.103 C 
HETATM   19  C   UNL     1      -6.806  -1.564 -33.806  1.00  0.00     0.248 C 
HETATM   20  N   UNL     1      -5.435  -1.892 -34.355  1.00  0.00    -0.074 N 
HETATM   21  C   UNL     1      -5.464  -3.078 -35.276  1.00  0.00     0.269 C 
HETATM   22  H   UNL     1      -5.177  -1.076 -34.942  1.00  0.00     0.279 HD
HETATM   23  C   UNL     1      -4.400  -2.040 -33.273  1.00  0.00     0.234 C 
HETATM   24  C   UNL     1      -4.322  -0.752 -32.463  1.00  0.00     0.029 C 
HETATM   25  C   UNL     1      -5.682  -0.329 -31.905  1.00  0.00     0.017 C 
ENDBRANCH  15  18
ENDBRANCH  13  14
ENDBRANCH  12  13
ENDBRANCH   1  12
BRANCH   6  26
HETATM   26  C   UNL     1      -1.998   8.304 -29.850  1.00  0.00     0.273 C 
BRANCH  26  27
HETATM   27  C   UNL     1      -1.004   8.645 -28.778  1.00  0.00    -0.033 A 
HETATM   28  C   UNL     1       0.226   7.979 -28.711  1.00  0.00     0.010 A 
HETATM   29  C   UNL     1       1.139   8.279 -27.694  1.00  0.00     0.015 A 
HETATM   30  C   UNL     1       0.853   9.250 -26.725  1.00  0.00    -0.002 A 
HETATM   31  C   UNL     1      -0.377   9.916 -26.802  1.00  0.00     0.015 A 
HETATM   32  C   UNL     1      -1.298   9.618 -27.812  1.00  0.00     0.010 A 
BRANCH  30  33
HETATM   33  C   UNL     1       1.811   9.566 -25.668  1.00  0.00     0.085 A 
HETATM   34  O   UNL     1       1.703  10.811 -25.112  1.00  0.00    -0.322 OA
HETATM   35  C   UNL     1       2.666  10.919 -24.162  1.00  0.00     0.142 A 
HETATM   36  C   UNL     1       3.402   9.762 -24.094  1.00  0.00     0.027 A 
HETATM   37  C   UNL     1       2.853   8.888 -25.065  1.00  0.00     0.040 A 
ENDBRANCH  30  33
ENDBRANCH  26  27
ENDBRANCH   6  26
TORSDOF 7
ENDMDL
MODEL 6
REMARK VINA RESULT:      -9.0      2.426      3.540
REMARK  7 active torsions:
REMARK  status: ('A' for Active; 'I' for Inactive)
REMARK    1  A    between atoms: C_5  and  C_6 
REMARK       I    between atoms: C_6  and  N_7 
REMARK    2  A    between atoms: N_7  and  C_8 
REMARK    3  A    between atoms: C_8  and  C_9 
REMARK    4  A    between atoms: C_9  and  C_10 
REMARK    5  A    between atoms: N_15  and  C_17 
REMARK    6  A    between atoms: C_17  and  C_18 
REMARK    7  A    between atoms: C_21  and  C_22 
ROOT
HETATM    1  C   UNL     1      -3.160   4.868 -32.759  1.00  0.00     0.131 A 
HETATM    2  N   UNL     1      -4.490   4.778 -32.405  1.00  0.00    -0.319 N 
HETATM    3  C   UNL     1      -5.205   5.073 -33.541  1.00  0.00     0.131 A 
HETATM    4  C   UNL     1      -6.685   5.046 -33.698  1.00  0.00     0.108 C 
HETATM    5  C   UNL     1      -7.310   3.821 -33.043  1.00  0.00     0.243 C 
HETATM    6  N   UNL     1      -7.490   3.992 -31.534  1.00  0.00    -0.065 N 
HETATM    7  H   UNL     1      -8.373   4.513 -31.433  1.00  0.00     0.280 HD
HETATM    8  C   UNL     1      -6.440   4.825 -30.821  1.00  0.00     0.255 C 
HETATM    9  C   UNL     1      -5.002   4.392 -31.109  1.00  0.00     0.159 C 
HETATM   10  N   UNL     1      -4.362   5.362 -34.504  1.00  0.00    -0.135 NA
HETATM   11  N   UNL     1      -3.094   5.230 -34.021  1.00  0.00    -0.135 NA
ENDROOT
BRANCH   1  12
HETATM   12  C   UNL     1      -1.989   4.564 -31.883  1.00  0.00     0.100 C 
BRANCH  12  13
HETATM   13  C   UNL     1      -0.767   5.406 -32.275  1.00  0.00     0.130 C 
BRANCH  13  14
HETATM   14  N   UNL     1      -0.461   6.481 -31.339  1.00  0.00    -0.360 N 
HETATM   15  C   UNL     1       0.193   6.262 -30.154  1.00  0.00     0.223 C 
HETATM   16  O   UNL     1       0.790   5.223 -29.878  1.00  0.00    -0.273 OA
HETATM   17  H   UNL     1      -1.014   7.327 -31.447  1.00  0.00     0.162 HD
BRANCH  15  18
HETATM   18  C   UNL     1       0.217   7.456 -29.209  1.00  0.00     0.103 C 
HETATM   19  C   UNL     1      -1.203   7.996 -29.026  1.00  0.00     0.248 C 
HETATM   20  N   UNL     1      -2.046   7.022 -28.231  1.00  0.00    -0.074 N 
HETATM   21  C   UNL     1      -3.482   7.454 -28.149  1.00  0.00     0.269 C 
HETATM   22  H   UNL     1      -2.039   6.144 -28.784  1.00  0.00     0.279 HD
HETATM   23  C   UNL     1      -1.464   6.728 -26.874  1.00  0.00     0.234 C 
HETATM   24  C   UNL     1      -0.059   6.162 -27.035  1.00  0.00     0.029 C 
HETATM   25  C   UNL     1       0.847   7.073 -27.865  1.00  0.00     0.017 C 
ENDBRANCH  15  18
ENDBRANCH  13  14
ENDBRANCH  12  13
ENDBRANCH   1  12
BRANCH   6  26
HETATM   26  C   UNL     1      -7.761   2.664 -30.837  1.00  0.00     0.273 C 
BRANCH  26  27
HETATM   27  C   UNL     1      -7.348   1.472 -31.652  1.00  0.00    -0.033 A 
HETATM   28  C   UNL     1      -8.280   0.801 -32.452  1.00  0.00     0.010 A 
HETATM   29  C   UNL     1      -7.900  -0.326 -33.189  1.00  0.00     0.015 A 
HETATM   30  C   UNL     1      -6.584  -0.808 -33.151  1.00  0.00    -0.002 A 
HETATM   31  C   UNL     1      -5.655  -0.128 -32.353  1.00  0.00     0.015 A 
HETATM   32  C   UNL     1      -6.030   0.997 -31.608  1.00  0.00     0.010 A 
BRANCH  30  33
HETATM   33  C   UNL     1      -6.188  -1.980 -33.926  1.00  0.00     0.085 A 
HETATM   34  O   UNL     1      -4.842  -2.193 -34.048  1.00  0.00    -0.322 OA
HETATM   35  C   UNL     1      -4.672  -3.314 -34.794  1.00  0.00     0.142 A 
HETATM   36  C   UNL     1      -5.888  -3.833 -35.162  1.00  0.00     0.027 A 
HETATM   37  C   UNL     1      -6.868  -2.974 -34.604  1.00  0.00     0.040 A 
ENDBRANCH  30  33
ENDBRANCH  26  27
ENDBRANCH   6  26
TORSDOF 7
ENDMDL
MODEL 7
REMARK VINA RESULT:      -8.8      2.851     10.512
REMARK  7 active torsions:
REMARK  status: ('A' for Active; 'I' for Inactive)
REMARK    1  A    between atoms: C_5  and  C_6 
REMARK       I    between atoms: C_6  and  N_7 
REMARK    2  A    between atoms: N_7  and  C_8 
REMARK    3  A    between atoms: C_8  and  C_9 
REMARK    4  A    between atoms: C_9  and  C_10 
REMARK    5  A    between atoms: N_15  and  C_17 
REMARK    6  A    between atoms: C_17  and  C_18 
REMARK    7  A    between atoms: C_21  and  C_22 
ROOT
HETATM    1  C   UNL     1      -4.054   2.492 -31.231  1.00  0.00     0.131 A 
HETATM    2  N   UNL     1      -3.978   3.616 -32.026  1.00  0.00    -0.319 N 
HETATM    3  C   UNL     1      -4.960   4.465 -31.576  1.00  0.00     0.131 A 
HETATM    4  C   UNL     1      -5.244   5.842 -32.065  1.00  0.00     0.108 C 
HETATM    5  C   UNL     1      -3.971   6.651 -32.275  1.00  0.00     0.243 C 
HETATM    6  N   UNL     1      -3.291   6.336 -33.608  1.00  0.00    -0.065 N 
HETATM    7  H   UNL     1      -3.789   6.915 -34.300  1.00  0.00     0.280 HD
HETATM    8  C   UNL     1      -3.416   4.907 -34.107  1.00  0.00     0.255 C 
HETATM    9  C   UNL     1      -3.013   3.853 -33.076  1.00  0.00     0.159 C 
HETATM   10  N   UNL     1      -5.612   3.875 -30.602  1.00  0.00    -0.135 NA
HETATM   11  N   UNL     1      -5.047   2.654 -30.384  1.00  0.00    -0.135 NA
ENDROOT
BRANCH   1  12
HETATM   12  C   UNL     1      -3.144   1.309 -31.281  1.00  0.00     0.100 C 
BRANCH  12  13
HETATM   13  C   UNL     1      -3.934  -0.005 -31.221  1.00  0.00     0.130 C 
BRANCH  13  14
HETATM   14  N   UNL     1      -4.886  -0.176 -32.312  1.00  0.00    -0.360 N 
HETATM   15  C   UNL     1      -6.227  -0.367 -32.094  1.00  0.00     0.223 C 
HETATM   16  O   UNL     1      -6.786  -0.171 -31.017  1.00  0.00    -0.273 OA
HETATM   17  H   UNL     1      -4.487  -0.457 -33.202  1.00  0.00     0.162 HD
BRANCH  15  18
HETATM   18  C   UNL     1      -7.024  -0.756 -33.333  1.00  0.00     0.103 C 
HETATM   19  C   UNL     1      -8.497  -0.391 -33.134  1.00  0.00     0.248 C 
HETATM   20  N   UNL     1      -8.680   1.112 -33.140  1.00  0.00    -0.074 N 
HETATM   21  C   UNL     1     -10.090   1.510 -32.809  1.00  0.00     0.269 C 
HETATM   22  H   UNL     1      -8.091   1.459 -32.359  1.00  0.00     0.279 HD
HETATM   23  C   UNL     1      -8.194   1.747 -34.415  1.00  0.00     0.234 C 
HETATM   24  C   UNL     1      -6.721   1.419 -34.618  1.00  0.00     0.029 C 
HETATM   25  C   UNL     1      -6.446  -0.085 -34.583  1.00  0.00     0.017 C 
ENDBRANCH  15  18
ENDBRANCH  13  14
ENDBRANCH  12  13
ENDBRANCH   1  12
BRANCH   6  26
HETATM   26  C   UNL     1      -1.858   6.852 -33.655  1.00  0.00     0.273 C 
BRANCH  26  27
HETATM   27  C   UNL     1      -1.252   7.041 -32.294  1.00  0.00    -0.033 A 
HETATM   28  C   UNL     1      -1.689   8.075 -31.458  1.00  0.00     0.010 A 
HETATM   29  C   UNL     1      -1.103   8.266 -30.203  1.00  0.00     0.015 A 
HETATM   30  C   UNL     1      -0.074   7.431 -29.747  1.00  0.00    -0.002 A 
HETATM   31  C   UNL     1       0.354   6.394 -30.586  1.00  0.00     0.015 A 
HETATM   32  C   UNL     1      -0.223   6.200 -31.846  1.00  0.00     0.010 A 
BRANCH  30  33
HETATM   33  C   UNL     1       0.531   7.627 -28.432  1.00  0.00     0.085 A 
HETATM   34  O   UNL     1       0.042   6.845 -27.422  1.00  0.00    -0.322 OA
HETATM   35  C   UNL     1       0.718   7.169 -26.291  1.00  0.00     0.142 A 
HETATM   36  C   UNL     1       1.640   8.153 -26.550  1.00  0.00     0.027 A 
HETATM   37  C   UNL     1       1.521   8.452 -27.930  1.00  0.00     0.040 A 
ENDBRANCH  30  33
ENDBRANCH  26  27
ENDBRANCH   6  26
TORSDOF 7
ENDMDL
MODEL 8
REMARK VINA RESULT:      -8.7      1.728      2.073
REMARK  7 active torsions:
REMARK  status: ('A' for Active; 'I' for Inactive)
REMARK    1  A    between atoms: C_5  and  C_6 
REMARK       I    between atoms: C_6  and  N_7 
REMARK    2  A    between atoms: N_7  and  C_8 
REMARK    3  A    between atoms: C_8  and  C_9 
REMARK    4  A    between atoms: C_9  and  C_10 
REMARK    5  A    between atoms: N_15  and  C_17 
REMARK    6  A    between atoms: C_17  and  C_18 
REMARK    7  A    between atoms: C_21  and  C_22 
ROOT
HETATM    1  C   UNL     1      -2.961   7.051 -29.856  1.00  0.00     0.131 A 
HETATM    2  N   UNL     1      -3.352   6.134 -30.808  1.00  0.00    -0.319 N 
HETATM    3  C   UNL     1      -2.213   5.459 -31.174  1.00  0.00     0.131 A 
HETATM    4  C   UNL     1      -2.115   4.321 -32.128  1.00  0.00     0.108 C 
HETATM    5  C   UNL     1      -3.230   3.303 -31.923  1.00  0.00     0.243 C 
HETATM    6  N   UNL     1      -4.539   3.727 -32.589  1.00  0.00    -0.065 N 
HETATM    7  H   UNL     1      -4.439   3.438 -33.573  1.00  0.00     0.280 HD
HETATM    8  C   UNL     1      -4.823   5.218 -32.629  1.00  0.00     0.255 C 
HETATM    9  C   UNL     1      -4.704   5.909 -31.270  1.00  0.00     0.159 C 
HETATM   10  N   UNL     1      -1.196   5.964 -30.516  1.00  0.00    -0.135 NA
HETATM   11  N   UNL     1      -1.660   6.947 -29.694  1.00  0.00    -0.135 NA
ENDROOT
BRANCH   1  12
HETATM   12  C   UNL     1      -3.857   7.975 -29.096  1.00  0.00     0.100 C 
BRANCH  12  13
HETATM   13  C   UNL     1      -3.149   9.298 -28.776  1.00  0.00     0.130 C 
BRANCH  13  14
HETATM   14  N   UNL     1      -2.241   9.227 -27.638  1.00  0.00    -0.360 N 
HETATM   15  C   UNL     1      -1.248  10.150 -27.429  1.00  0.00     0.223 C 
HETATM   16  O   UNL     1      -1.176  11.230 -28.013  1.00  0.00    -0.273 OA
HETATM   17  H   UNL     1      -2.171   8.318 -27.190  1.00  0.00     0.162 HD
BRANCH  15  18
HETATM   18  C   UNL     1      -0.260   9.785 -26.329  1.00  0.00     0.103 C 
HETATM   19  C   UNL     1      -0.612   8.410 -25.756  1.00  0.00     0.248 C 
HETATM   20  N   UNL     1      -0.326   7.321 -26.767  1.00  0.00    -0.074 N 
HETATM   21  C   UNL     1      -0.788   5.973 -26.291  1.00  0.00     0.269 C 
HETATM   22  H   UNL     1      -0.914   7.554 -27.590  1.00  0.00     0.279 HD
HETATM   23  C   UNL     1       1.114   7.305 -27.206  1.00  0.00     0.234 C 
HETATM   24  C   UNL     1       1.478   8.656 -27.806  1.00  0.00     0.029 C 
HETATM   25  C   UNL     1       1.178   9.818 -26.857  1.00  0.00     0.017 C 
ENDBRANCH  15  18
ENDBRANCH  13  14
ENDBRANCH  12  13
ENDBRANCH   1  12
BRANCH   6  26
HETATM   26  C   UNL     1      -5.727   2.916 -32.084  1.00  0.00     0.273 C 
BRANCH  26  27
HETATM   27  C   UNL     1      -5.757   1.514 -32.622  1.00  0.00    -0.033 A 
HETATM   28  C   UNL     1      -5.278   0.446 -31.854  1.00  0.00     0.010 A 
HETATM   29  C   UNL     1      -5.282  -0.854 -32.368  1.00  0.00     0.015 A 
HETATM   30  C   UNL     1      -5.767  -1.124 -33.655  1.00  0.00    -0.002 A 
HETATM   31  C   UNL     1      -6.251  -0.053 -34.416  1.00  0.00     0.015 A 
HETATM   32  C   UNL     1      -6.245   1.253 -33.910  1.00  0.00     0.010 A 
BRANCH  30  33
HETATM   33  C   UNL     1      -5.776  -2.485 -34.187  1.00  0.00     0.085 A 
HETATM   34  O   UNL     1      -7.001  -2.985 -34.536  1.00  0.00    -0.322 OA
HETATM   35  C   UNL     1      -6.809  -4.245 -35.002  1.00  0.00     0.142 A 
HETATM   36  C   UNL     1      -5.477  -4.573 -34.961  1.00  0.00     0.027 A 
HETATM   37  C   UNL     1      -4.808  -3.440 -34.434  1.00  0.00     0.040 A 
ENDBRANCH  30  33
ENDBRANCH  26  27
ENDBRANCH   6  26
TORSDOF 7
ENDMDL
MODEL 9
REMARK VINA RESULT:      -8.6      2.586     11.797
REMARK  7 active torsions:
REMARK  status: ('A' for Active; 'I' for Inactive)
REMARK    1  A    between atoms: C_5  and  C_6 
REMARK       I    between atoms: C_6  and  N_7 
REMARK    2  A    between atoms: N_7  and  C_8 
REMARK    3  A    between atoms: C_8  and  C_9 
REMARK    4  A    between atoms: C_9  and  C_10 
REMARK    5  A    between atoms: N_15  and  C_17 
REMARK    6  A    between atoms: C_17  and  C_18 
REMARK    7  A    between atoms: C_21  and  C_22 
ROOT
HETATM    1  C   UNL     1      -2.641   4.609 -33.289  1.00  0.00     0.131 A 
HETATM    2  N   UNL     1      -1.968   5.488 -32.469  1.00  0.00    -0.319 N 
HETATM    3  C   UNL     1      -2.101   6.726 -33.050  1.00  0.00     0.131 A 
HETATM    4  C   UNL     1      -1.606   8.024 -32.515  1.00  0.00     0.108 C 
HETATM    5  C   UNL     1      -1.868   8.165 -31.021  1.00  0.00     0.243 C 
HETATM    6  N   UNL     1      -0.826   7.437 -30.172  1.00  0.00    -0.065 N 
HETATM    7  H   UNL     1      -0.033   8.092 -30.109  1.00  0.00     0.280 HD
HETATM    8  C   UNL     1      -0.251   6.159 -30.760  1.00  0.00     0.255 C 
HETATM    9  C   UNL     1      -1.311   5.159 -31.224  1.00  0.00     0.159 C 
HETATM   10  N   UNL     1      -2.775   6.595 -34.169  1.00  0.00    -0.135 NA
HETATM   11  N   UNL     1      -3.115   5.283 -34.314  1.00  0.00    -0.135 NA
ENDROOT
BRANCH   1  12
HETATM   12  C   UNL     1      -2.846   3.149 -33.044  1.00  0.00     0.100 C 
BRANCH  12  13
HETATM   13  C   UNL     1      -4.038   2.903 -32.109  1.00  0.00     0.130 C 
BRANCH  13  14
HETATM   14  N   UNL     1      -4.777   1.680 -32.397  1.00  0.00    -0.360 N 
HETATM   15  C   UNL     1      -6.147   1.627 -32.383  1.00  0.00     0.223 C 
HETATM   16  O   UNL     1      -6.876   2.617 -32.376  1.00  0.00    -0.273 OA
HETATM   17  H   UNL     1      -4.250   0.817 -32.301  1.00  0.00     0.162 HD
BRANCH  15  18
HETATM   18  C   UNL     1      -6.731   0.223 -32.477  1.00  0.00     0.103 C 
HETATM   19  C   UNL     1      -8.259   0.303 -32.529  1.00  0.00     0.248 C 
HETATM   20  N   UNL     1      -8.718   0.890 -33.846  1.00  0.00    -0.074 N 
HETATM   21  C   UNL     1     -10.203   1.111 -33.878  1.00  0.00     0.269 C 
HETATM   22  H   UNL     1      -8.284   1.832 -33.889  1.00  0.00     0.279 HD
HETATM   23  C   UNL     1      -8.237   0.096 -35.031  1.00  0.00     0.234 C 
HETATM   24  C   UNL     1      -6.716   0.027 -35.014  1.00  0.00     0.029 C 
HETATM   25  C   UNL     1      -6.169  -0.519 -33.694  1.00  0.00     0.017 C 
ENDBRANCH  15  18
ENDBRANCH  13  14
ENDBRANCH  12  13
ENDBRANCH   1  12
BRANCH   6  26
HETATM   26  C   UNL     1      -1.282   7.266 -28.728  1.00  0.00     0.273 C 
BRANCH  26  27
HETATM   27  C   UNL     1      -0.368   7.927 -27.736  1.00  0.00    -0.033 A 
HETATM   28  C   UNL     1       0.979   8.146 -28.047  1.00  0.00     0.010 A 
HETATM   29  C   UNL     1       1.834   8.737 -27.111  1.00  0.00     0.015 A 
HETATM   30  C   UNL     1       1.370   9.127 -25.848  1.00  0.00    -0.002 A 
HETATM   31  C   UNL     1       0.019   8.911 -25.546  1.00  0.00     0.015 A 
HETATM   32  C   UNL     1      -0.842   8.315 -26.475  1.00  0.00     0.010 A 
BRANCH  30  33
HETATM   33  C   UNL     1       2.263   9.750 -24.874  1.00  0.00     0.085 A 
HETATM   34  O   UNL     1       3.425   9.079 -24.609  1.00  0.00    -0.322 OA
HETATM   35  C   UNL     1       4.114   9.803 -23.692  1.00  0.00     0.142 A 
HETATM   36  C   UNL     1       3.417  10.936 -23.354  1.00  0.00     0.027 A 
HETATM   37  C   UNL     1       2.221  10.904 -24.114  1.00  0.00     0.040 A 
ENDBRANCH  30  33
ENDBRANCH  26  27
ENDBRANCH   6  26
TORSDOF 7
ENDMDL
MODEL 10
REMARK VINA RESULT:      -8.6      3.928      5.233
REMARK  7 active torsions:
REMARK  status: ('A' for Active; 'I' for Inactive)
REMARK    1  A    between atoms: C_5  and  C_6 
REMARK       I    between atoms: C_6  and  N_7 
REMARK    2  A    between atoms: N_7  and  C_8 
REMARK    3  A    between atoms: C_8  and  C_9 
REMARK    4  A    between atoms: C_9  and  C_10 
REMARK    5  A    between atoms: N_15  and  C_17 
REMARK    6  A    between atoms: C_17  and  C_18 
REMARK    7  A    between atoms: C_21  and  C_22 
ROOT
HETATM    1  C   UNL     1      -3.317   5.114 -31.503  1.00  0.00     0.131 A 
HETATM    2  N   UNL     1      -4.085   3.970 -31.448  1.00  0.00    -0.319 N 
HETATM    3  C   UNL     1      -5.062   4.213 -30.513  1.00  0.00     0.131 A 
HETATM    4  C   UNL     1      -6.183   3.311 -30.135  1.00  0.00     0.108 C 
HETATM    5  C   UNL     1      -6.834   2.665 -31.350  1.00  0.00     0.243 C 
HETATM    6  N   UNL     1      -6.053   1.453 -31.859  1.00  0.00    -0.065 N 
HETATM    7  H   UNL     1      -6.361   0.672 -31.262  1.00  0.00     0.280 HD
HETATM    8  C   UNL     1      -4.543   1.512 -31.704  1.00  0.00     0.255 C 
HETATM    9  C   UNL     1      -3.912   2.788 -32.263  1.00  0.00     0.159 C 
HETATM   10  N   UNL     1      -4.870   5.409 -30.007  1.00  0.00    -0.135 NA
HETATM   11  N   UNL     1      -3.791   5.970 -30.625  1.00  0.00    -0.135 NA
ENDROOT
BRANCH   1  12
HETATM   12  C   UNL     1      -2.171   5.367 -32.427  1.00  0.00     0.100 C 
BRANCH  12  13
HETATM   13  C   UNL     1      -0.827   5.114 -31.732  1.00  0.00     0.130 C 
BRANCH  13  14
HETATM   14  N   UNL     1      -0.361   6.229 -30.916  1.00  0.00    -0.360 N 
HETATM   15  C   UNL     1       0.310   6.046 -29.734  1.00  0.00     0.223 C 
HETATM   16  O   UNL     1       0.792   4.974 -29.373  1.00  0.00    -0.273 OA
HETATM   17  H   UNL     1      -0.814   7.120 -31.091  1.00  0.00     0.162 HD
BRANCH  15  18
HETATM   18  C   UNL     1       0.511   7.313 -28.912  1.00  0.00     0.103 C 
HETATM   19  C   UNL     1      -0.765   8.157 -28.948  1.00  0.00     0.248 C 
HETATM   20  N   UNL     1      -1.873   7.485 -28.166  1.00  0.00    -0.074 N 
HETATM   21  C   UNL     1      -3.179   8.215 -28.295  1.00  0.00     0.269 C 
HETATM   22  H   UNL     1      -2.010   6.565 -28.628  1.00  0.00     0.279 HD
HETATM   23  C   UNL     1      -1.499   7.239 -26.730  1.00  0.00     0.234 C 
HETATM   24  C   UNL     1      -0.246   6.376 -26.670  1.00  0.00     0.029 C 
HETATM   25  C   UNL     1       0.913   6.969 -27.474  1.00  0.00     0.017 C 
ENDBRANCH  15  18
ENDBRANCH  13  14
ENDBRANCH  12  13
ENDBRANCH   1  12
BRANCH   6  26
HETATM   26  C   UNL     1      -6.484   1.041 -33.261  1.00  0.00     0.273 C 
BRANCH  26  27
HETATM   27  C   UNL     1      -7.976   1.001 -33.433  1.00  0.00    -0.033 A 
HETATM   28  C   UNL     1      -8.630   1.975 -34.196  1.00  0.00     0.010 A 
HETATM   29  C   UNL     1     -10.022   1.952 -34.332  1.00  0.00     0.015 A 
HETATM   30  C   UNL     1     -10.794   0.957 -33.717  1.00  0.00    -0.002 A 
HETATM   31  C   UNL     1     -10.133  -0.018 -32.960  1.00  0.00     0.015 A 
HETATM   32  C   UNL     1      -8.741   0.002 -32.815  1.00  0.00     0.010 A 
BRANCH  30  33
HETATM   33  C   UNL     1     -12.247   0.931 -33.866  1.00  0.00     0.085 A 
HETATM   34  O   UNL     1     -12.880  -0.183 -33.387  1.00  0.00    -0.322 OA
HETATM   35  C   UNL     1     -14.209  -0.027 -33.613  1.00  0.00     0.142 A 
HETATM   36  C   UNL     1     -14.450   1.173 -34.236  1.00  0.00     0.027 A 
HETATM   37  C   UNL     1     -13.187   1.792 -34.401  1.00  0.00     0.040 A 
ENDBRANCH  30  33
ENDBRANCH  26  27
ENDBRANCH   6  26
TORSDOF 7
ENDMDL
