MODEL 1
REMARK VINA RESULT:      -8.5      0.000      0.000
REMARK  2 active torsions:
REMARK  status: ('A' for Active; 'I' for Inactive)
REMARK    1  A    between atoms: C_11  and  N_12 
REMARK    2  A    between atoms: N_12  and  C_13 
ROOT
HETATM    1  C   UNL     1      -6.214  -4.541 -34.371  1.00  0.00     0.010 C 
HETATM    2  C   UNL     1      -5.658  -3.379 -35.201  1.00  0.00    -0.014 C 
HETATM    3  C   UNL     1      -4.396  -2.769 -34.556  1.00  0.00     0.051 C 
HETATM    4  C   UNL     1      -4.759  -1.820 -33.452  1.00  0.00    -0.008 A 
HETATM    5  C   UNL     1      -6.005  -1.251 -33.243  1.00  0.00    -0.028 A 
HETATM    6  C   UNL     1      -6.020  -0.412 -32.051  1.00  0.00     0.053 A 
HETATM    7  C   UNL     1      -4.747  -0.359 -31.491  1.00  0.00     0.114 A 
HETATM    8  N   UNL     1      -4.369   0.330 -30.404  1.00  0.00    -0.234 NA
HETATM    9  C   UNL     1      -5.378   1.001 -29.856  1.00  0.00     0.236 A 
HETATM   10  N   UNL     1      -6.652   1.026 -30.265  1.00  0.00    -0.223 NA
HETATM   11  C   UNL     1      -7.026   0.320 -31.361  1.00  0.00     0.143 A 
HETATM   12  S   UNL     1      -3.602  -1.306 -32.323  1.00  0.00    -0.073 SA
HETATM   13  C   UNL     1      -7.156  -1.564 -34.158  1.00  0.00     0.041 C 
HETATM   14  C   UNL     1      -6.719  -2.288 -35.442  1.00  0.00     0.009 C 
ENDROOT
BRANCH  11  15
HETATM   15  N   UNL     1      -8.363   0.340 -31.786  1.00  0.00    -0.340 N 
HETATM   16  H   UNL     1      -8.963  -0.278 -31.265  1.00  0.00     0.167 HD
BRANCH  15  17
HETATM   17  C   UNL     1      -9.069   1.171 -32.678  1.00  0.00     0.036 A 
HETATM   18  C   UNL     1     -10.294   0.702 -33.189  1.00  0.00     0.069 A 
HETATM   19  C   UNL     1     -10.994   1.492 -34.077  1.00  0.00     0.107 A 
HETATM   20  C   UNL     1     -10.523   2.715 -34.484  1.00  0.00     0.105 A 
HETATM   21  O   UNL     1     -12.192   1.181 -34.644  1.00  0.00    -0.323 OA
HETATM   22  O   UNL     1     -11.363   3.333 -35.355  1.00  0.00    -0.323 OA
HETATM   23  C   UNL     1      -9.325   3.208 -34.027  1.00  0.00     0.042 A 
HETATM   24  C   UNL     1     -12.419   2.356 -35.451  1.00  0.00     0.352 A 
HETATM   25  C   UNL     1      -8.595   2.423 -33.124  1.00  0.00     0.032 A 
ENDBRANCH  15  17
ENDBRANCH  11  15
TORSDOF 2
ENDMDL
MODEL 2
REMARK VINA RESULT:      -8.3      4.372      6.092
REMARK  2 active torsions:
REMARK  status: ('A' for Active; 'I' for Inactive)
REMARK    1  A    between atoms: C_11  and  N_12 
REMARK    2  A    between atoms: N_12  and  C_13 
ROOT
HETATM    1  C   UNL     1      -9.372   0.385 -33.155  1.00  0.00     0.010 C 
HETATM    2  C   UNL     1      -8.564   0.728 -34.411  1.00  0.00    -0.014 C 
HETATM    3  C   UNL     1      -7.637  -0.433 -34.829  1.00  0.00     0.051 C 
HETATM    4  C   UNL     1      -6.380  -0.442 -34.010  1.00  0.00    -0.008 A 
HETATM    5  C   UNL     1      -5.897   0.608 -33.247  1.00  0.00    -0.028 A 
HETATM    6  C   UNL     1      -4.675   0.243 -32.542  1.00  0.00     0.053 A 
HETATM    7  C   UNL     1      -4.293  -1.048 -32.892  1.00  0.00     0.114 A 
HETATM    8  N   UNL     1      -3.210  -1.715 -32.464  1.00  0.00    -0.234 NA
HETATM    9  C   UNL     1      -2.482  -1.001 -31.611  1.00  0.00     0.236 A 
HETATM   10  N   UNL     1      -2.735   0.234 -31.165  1.00  0.00    -0.223 NA
HETATM   11  C   UNL     1      -3.836   0.898 -31.598  1.00  0.00     0.143 A 
HETATM   12  S   UNL     1      -5.370  -1.803 -33.973  1.00  0.00    -0.073 SA
HETATM   13  C   UNL     1      -6.642   1.912 -33.175  1.00  0.00     0.041 C 
HETATM   14  C   UNL     1      -7.752   2.025 -34.232  1.00  0.00     0.009 C 
ENDROOT
BRANCH  11  15
HETATM   15  N   UNL     1      -4.107   2.191 -31.125  1.00  0.00    -0.340 N 
HETATM   16  H   UNL     1      -4.515   2.209 -30.206  1.00  0.00     0.167 HD
BRANCH  15  17
HETATM   17  C   UNL     1      -3.767   3.472 -31.602  1.00  0.00     0.036 A 
HETATM   18  C   UNL     1      -2.834   3.560 -32.653  1.00  0.00     0.069 A 
HETATM   19  C   UNL     1      -2.475   4.807 -33.125  1.00  0.00     0.107 A 
HETATM   20  C   UNL     1      -2.992   5.959 -32.591  1.00  0.00     0.105 A 
HETATM   21  O   UNL     1      -1.600   5.049 -34.138  1.00  0.00    -0.323 OA
HETATM   22  O   UNL     1      -2.513   7.076 -33.200  1.00  0.00    -0.323 OA
HETATM   23  C   UNL     1      -3.892   5.926 -31.553  1.00  0.00     0.042 A 
HETATM   24  C   UNL     1      -1.632   6.492 -34.180  1.00  0.00     0.352 A 
HETATM   25  C   UNL     1      -4.272   4.672 -31.056  1.00  0.00     0.032 A 
ENDBRANCH  15  17
ENDBRANCH  11  15
TORSDOF 2
ENDMDL
MODEL 3
REMARK VINA RESULT:      -8.3      3.509      6.547
REMARK  2 active torsions:
REMARK  status: ('A' for Active; 'I' for Inactive)
REMARK    1  A    between atoms: C_11  and  N_12 
REMARK    2  A    between atoms: N_12  and  C_13 
ROOT
HETATM    1  C   UNL     1     -10.589   3.430 -34.603  1.00  0.00     0.010 C 
HETATM    2  C   UNL     1     -10.926   2.407 -33.512  1.00  0.00    -0.014 C 
HETATM    3  C   UNL     1     -10.405   2.853 -32.130  1.00  0.00     0.051 C 
HETATM    4  C   UNL     1      -8.944   2.548 -31.979  1.00  0.00    -0.008 A 
HETATM    5  C   UNL     1      -8.209   1.674 -32.762  1.00  0.00    -0.028 A 
HETATM    6  C   UNL     1      -6.805   1.652 -32.371  1.00  0.00     0.053 A 
HETATM    7  C   UNL     1      -6.608   2.470 -31.262  1.00  0.00     0.114 A 
HETATM    8  N   UNL     1      -5.457   2.682 -30.608  1.00  0.00    -0.234 NA
HETATM    9  C   UNL     1      -4.441   2.010 -31.142  1.00  0.00     0.236 A 
HETATM   10  N   UNL     1      -4.473   1.211 -32.214  1.00  0.00    -0.223 NA
HETATM   11  C   UNL     1      -5.641   1.008 -32.874  1.00  0.00     0.143 A 
HETATM   12  S   UNL     1      -8.024   3.262 -30.747  1.00  0.00    -0.073 SA
HETATM   13  C   UNL     1      -8.857   0.923 -33.892  1.00  0.00     0.041 C 
HETATM   14  C   UNL     1     -10.392   1.004 -33.860  1.00  0.00     0.009 C 
ENDROOT
BRANCH  11  15
HETATM   15  N   UNL     1      -5.673   0.176 -34.004  1.00  0.00    -0.340 N 
HETATM   16  H   UNL     1      -5.559   0.668 -34.873  1.00  0.00     0.167 HD
BRANCH  15  17
HETATM   17  C   UNL     1      -5.663  -1.224 -34.158  1.00  0.00     0.036 A 
HETATM   18  C   UNL     1      -4.490  -1.919 -33.806  1.00  0.00     0.069 A 
HETATM   19  C   UNL     1      -4.452  -3.290 -33.965  1.00  0.00     0.107 A 
HETATM   20  C   UNL     1      -5.520  -3.990 -34.466  1.00  0.00     0.105 A 
HETATM   21  O   UNL     1      -3.399  -4.095 -33.659  1.00  0.00    -0.323 OA
HETATM   22  O   UNL     1      -5.280  -5.326 -34.537  1.00  0.00    -0.323 OA
HETATM   23  C   UNL     1      -6.680  -3.355 -34.840  1.00  0.00     0.042 A 
HETATM   24  C   UNL     1      -3.934  -5.386 -34.024  1.00  0.00     0.352 A 
HETATM   25  C   UNL     1      -6.742  -1.962 -34.688  1.00  0.00     0.032 A 
ENDBRANCH  15  17
ENDBRANCH  11  15
TORSDOF 2
ENDMDL
MODEL 4
REMARK VINA RESULT:      -8.2      5.772      7.583
REMARK  2 active torsions:
REMARK  status: ('A' for Active; 'I' for Inactive)
REMARK    1  A    between atoms: C_11  and  N_12 
REMARK    2  A    between atoms: N_12  and  C_13 
ROOT
HETATM    1  C   UNL     1      -4.505  -1.539 -33.406  1.00  0.00     0.010 C 
HETATM    2  C   UNL     1      -4.471  -0.984 -31.978  1.00  0.00    -0.014 C 
HETATM    3  C   UNL     1      -5.852  -0.455 -31.539  1.00  0.00     0.051 C 
HETATM    4  C   UNL     1      -6.100   0.922 -32.080  1.00  0.00    -0.008 A 
HETATM    5  C   UNL     1      -5.142   1.786 -32.583  1.00  0.00    -0.028 A 
HETATM    6  C   UNL     1      -5.735   3.025 -33.068  1.00  0.00     0.053 A 
HETATM    7  C   UNL     1      -7.105   3.024 -32.822  1.00  0.00     0.114 A 
HETATM    8  N   UNL     1      -7.978   4.002 -33.105  1.00  0.00    -0.234 NA
HETATM    9  C   UNL     1      -7.397   5.044 -33.691  1.00  0.00     0.236 A 
HETATM   10  N   UNL     1      -6.105   5.177 -34.012  1.00  0.00    -0.223 NA
HETATM   11  C   UNL     1      -5.230   4.180 -33.727  1.00  0.00     0.143 A 
HETATM   12  S   UNL     1      -7.659   1.590 -32.091  1.00  0.00    -0.073 SA
HETATM   13  C   UNL     1      -3.694   1.382 -32.632  1.00  0.00     0.041 C 
HETATM   14  C   UNL     1      -3.400   0.113 -31.816  1.00  0.00     0.009 C 
ENDROOT
BRANCH  11  15
HETATM   15  N   UNL     1      -3.876   4.316 -34.071  1.00  0.00    -0.340 N 
HETATM   16  H   UNL     1      -3.641   3.911 -34.962  1.00  0.00     0.167 HD
BRANCH  15  17
HETATM   17  C   UNL     1      -2.817   5.049 -33.502  1.00  0.00     0.036 A 
HETATM   18  C   UNL     1      -2.108   4.466 -32.434  1.00  0.00     0.069 A 
HETATM   19  C   UNL     1      -1.076   5.173 -31.851  1.00  0.00     0.107 A 
HETATM   20  C   UNL     1      -0.732   6.432 -32.275  1.00  0.00     0.105 A 
HETATM   21  O   UNL     1      -0.297   4.739 -30.824  1.00  0.00    -0.323 OA
HETATM   22  O   UNL     1       0.310   6.951 -31.574  1.00  0.00    -0.323 OA
HETATM   23  C   UNL     1      -1.405   7.050 -33.301  1.00  0.00     0.042 A 
HETATM   24  C   UNL     1       0.582   5.872 -30.656  1.00  0.00     0.352 A 
HETATM   25  C   UNL     1      -2.457   6.351 -33.909  1.00  0.00     0.032 A 
ENDBRANCH  15  17
ENDBRANCH  11  15
TORSDOF 2
ENDMDL
MODEL 5
REMARK VINA RESULT:      -8.1      2.534      3.504
REMARK  2 active torsions:
REMARK  status: ('A' for Active; 'I' for Inactive)
REMARK    1  A    between atoms: C_11  and  N_12 
REMARK    2  A    between atoms: N_12  and  C_13 
ROOT
HETATM    1  C   UNL     1      -7.199  -2.155 -34.148  1.00  0.00     0.010 C 
HETATM    2  C   UNL     1      -6.263  -1.053 -34.654  1.00  0.00    -0.014 C 
HETATM    3  C   UNL     1      -5.454  -0.417 -33.504  1.00  0.00     0.051 C 
HETATM    4  C   UNL     1      -6.272   0.602 -32.767  1.00  0.00    -0.008 A 
HETATM    5  C   UNL     1      -7.438   1.195 -33.223  1.00  0.00    -0.028 A 
HETATM    6  C   UNL     1      -8.000   2.106 -32.234  1.00  0.00     0.053 A 
HETATM    7  C   UNL     1      -7.161   2.180 -31.125  1.00  0.00     0.114 A 
HETATM    8  N   UNL     1      -7.336   2.931 -30.028  1.00  0.00    -0.234 NA
HETATM    9  C   UNL     1      -8.456   3.645 -30.077  1.00  0.00     0.236 A 
HETATM   10  N   UNL     1      -9.366   3.658 -31.057  1.00  0.00    -0.223 NA
HETATM   11  C   UNL     1      -9.185   2.890 -32.161  1.00  0.00     0.143 A 
HETATM   12  S   UNL     1      -5.795   1.171 -31.243  1.00  0.00    -0.073 SA
HETATM   13  C   UNL     1      -8.007   0.839 -34.568  1.00  0.00     0.041 C 
HETATM   14  C   UNL     1      -7.028   0.033 -35.437  1.00  0.00     0.009 C 
ENDROOT
BRANCH  11  15
HETATM   15  N   UNL     1     -10.143   2.897 -33.186  1.00  0.00    -0.340 N 
HETATM   16  H   UNL     1      -9.793   3.237 -34.066  1.00  0.00     0.167 HD
BRANCH  15  17
HETATM   17  C   UNL     1     -11.445   2.368 -33.278  1.00  0.00     0.036 A 
HETATM   18  C   UNL     1     -12.497   3.095 -32.689  1.00  0.00     0.069 A 
HETATM   19  C   UNL     1     -13.779   2.588 -32.753  1.00  0.00     0.107 A 
HETATM   20  C   UNL     1     -14.053   1.391 -33.364  1.00  0.00     0.105 A 
HETATM   21  O   UNL     1     -14.893   3.179 -32.243  1.00  0.00    -0.323 OA
HETATM   22  O   UNL     1     -15.374   1.074 -33.321  1.00  0.00    -0.323 OA
HETATM   23  C   UNL     1     -13.058   0.636 -33.938  1.00  0.00     0.042 A 
HETATM   24  C   UNL     1     -15.901   2.212 -32.610  1.00  0.00     0.352 A 
HETATM   25  C   UNL     1     -11.748   1.131 -33.885  1.00  0.00     0.032 A 
ENDBRANCH  15  17
ENDBRANCH  11  15
TORSDOF 2
ENDMDL
MODEL 6
REMARK VINA RESULT:      -8.1      4.556      7.069
REMARK  2 active torsions:
REMARK  status: ('A' for Active; 'I' for Inactive)
REMARK    1  A    between atoms: C_11  and  N_12 
REMARK    2  A    between atoms: N_12  and  C_13 
ROOT
HETATM    1  C   UNL     1      -0.393   5.036 -31.253  1.00  0.00     0.010 C 
HETATM    2  C   UNL     1      -1.322   5.819 -32.188  1.00  0.00    -0.014 C 
HETATM    3  C   UNL     1      -2.546   6.381 -31.436  1.00  0.00     0.051 C 
HETATM    4  C   UNL     1      -3.599   5.328 -31.254  1.00  0.00    -0.008 A 
HETATM    5  C   UNL     1      -3.685   4.133 -31.949  1.00  0.00    -0.028 A 
HETATM    6  C   UNL     1      -4.805   3.322 -31.488  1.00  0.00     0.053 A 
HETATM    7  C   UNL     1      -5.525   4.014 -30.519  1.00  0.00     0.114 A 
HETATM    8  N   UNL     1      -6.631   3.600 -29.883  1.00  0.00    -0.234 NA
HETATM    9  C   UNL     1      -7.010   2.385 -30.269  1.00  0.00     0.236 A 
HETATM   10  N   UNL     1      -6.409   1.595 -31.165  1.00  0.00    -0.223 NA
HETATM   11  C   UNL     1      -5.287   2.020 -31.798  1.00  0.00     0.143 A 
HETATM   12  S   UNL     1      -4.864   5.538 -30.144  1.00  0.00    -0.073 SA
HETATM   13  C   UNL     1      -2.667   3.778 -32.996  1.00  0.00     0.041 C 
HETATM   14  C   UNL     1      -1.775   4.967 -33.389  1.00  0.00     0.009 C 
ENDROOT
BRANCH  11  15
HETATM   15  N   UNL     1      -4.650   1.188 -32.732  1.00  0.00    -0.340 N 
HETATM   16  H   UNL     1      -3.702   1.457 -32.935  1.00  0.00     0.167 HD
BRANCH  15  17
HETATM   17  C   UNL     1      -5.011  -0.042 -33.315  1.00  0.00     0.036 A 
HETATM   18  C   UNL     1      -4.182  -1.155 -33.076  1.00  0.00     0.069 A 
HETATM   19  C   UNL     1      -4.507  -2.367 -33.650  1.00  0.00     0.107 A 
HETATM   20  C   UNL     1      -5.607  -2.513 -34.457  1.00  0.00     0.105 A 
HETATM   21  O   UNL     1      -3.813  -3.528 -33.501  1.00  0.00    -0.323 OA
HETATM   22  O   UNL     1      -5.751  -3.784 -34.917  1.00  0.00    -0.323 OA
HETATM   23  C   UNL     1      -6.436  -1.453 -34.735  1.00  0.00     0.042 A 
HETATM   24  C   UNL     1      -4.610  -4.422 -34.307  1.00  0.00     0.352 A 
HETATM   25  C   UNL     1      -6.126  -0.212 -34.163  1.00  0.00     0.032 A 
ENDBRANCH  15  17
ENDBRANCH  11  15
TORSDOF 2
ENDMDL
MODEL 7
REMARK VINA RESULT:      -7.9      2.339      4.169
REMARK  2 active torsions:
REMARK  status: ('A' for Active; 'I' for Inactive)
REMARK    1  A    between atoms: C_11  and  N_12 
REMARK    2  A    between atoms: N_12  and  C_13 
ROOT
HETATM    1  C   UNL     1      -2.992   3.340 -32.691  1.00  0.00     0.010 C 
HETATM    2  C   UNL     1      -3.719   2.764 -31.471  1.00  0.00    -0.014 C 
HETATM    3  C   UNL     1      -3.150   1.389 -31.064  1.00  0.00     0.051 C 
HETATM    4  C   UNL     1      -3.709   0.296 -31.926  1.00  0.00    -0.008 A 
HETATM    5  C   UNL     1      -4.837   0.385 -32.726  1.00  0.00    -0.028 A 
HETATM    6  C   UNL     1      -5.070  -0.848 -33.466  1.00  0.00     0.053 A 
HETATM    7  C   UNL     1      -4.126  -1.805 -33.105  1.00  0.00     0.114 A 
HETATM    8  N   UNL     1      -4.037  -3.064 -33.558  1.00  0.00    -0.234 NA
HETATM    9  C   UNL     1      -4.981  -3.348 -34.450  1.00  0.00     0.236 A 
HETATM   10  N   UNL     1      -5.933  -2.530 -34.910  1.00  0.00    -0.223 NA
HETATM   11  C   UNL     1      -6.011  -1.256 -34.452  1.00  0.00     0.143 A 
HETATM   12  S   UNL     1      -2.988  -1.238 -31.972  1.00  0.00    -0.073 SA
HETATM   13  C   UNL     1      -5.630   1.660 -32.797  1.00  0.00     0.041 C 
HETATM   14  C   UNL     1      -5.239   2.669 -31.703  1.00  0.00     0.009 C 
ENDROOT
BRANCH  11  15
HETATM   15  N   UNL     1      -7.005  -0.394 -34.940  1.00  0.00    -0.340 N 
HETATM   16  H   UNL     1      -6.967  -0.254 -35.936  1.00  0.00     0.167 HD
BRANCH  15  17
HETATM   17  C   UNL     1      -8.147   0.179 -34.347  1.00  0.00     0.036 A 
HETATM   18  C   UNL     1      -8.563   1.445 -34.800  1.00  0.00     0.069 A 
HETATM   19  C   UNL     1      -9.669   2.034 -34.221  1.00  0.00     0.107 A 
HETATM   20  C   UNL     1     -10.366   1.423 -33.210  1.00  0.00     0.105 A 
HETATM   21  O   UNL     1     -10.195   3.241 -34.560  1.00  0.00    -0.323 OA
HETATM   22  O   UNL     1     -11.422   2.165 -32.783  1.00  0.00    -0.323 OA
HETATM   23  C   UNL     1      -9.989   0.195 -32.720  1.00  0.00     0.042 A 
HETATM   24  C   UNL     1     -11.308   3.316 -33.644  1.00  0.00     0.352 A 
HETATM   25  C   UNL     1      -8.868  -0.422 -33.293  1.00  0.00     0.032 A 
ENDBRANCH  15  17
ENDBRANCH  11  15
TORSDOF 2
ENDMDL
MODEL 8
REMARK VINA RESULT:      -7.8      5.169      6.947
REMARK  2 active torsions:
REMARK  status: ('A' for Active; 'I' for Inactive)
REMARK    1  A    between atoms: C_11  and  N_12 
REMARK    2  A    between atoms: N_12  and  C_13 
ROOT
HETATM    1  C   UNL     1      -4.524  -0.410 -33.217  1.00  0.00     0.010 C 
HETATM    2  C   UNL     1      -5.484  -0.393 -32.022  1.00  0.00    -0.014 C 
HETATM    3  C   UNL     1      -6.955  -0.528 -32.468  1.00  0.00     0.051 C 
HETATM    4  C   UNL     1      -7.500   0.788 -32.939  1.00  0.00    -0.008 A 
HETATM    5  C   UNL     1      -6.950   2.034 -32.688  1.00  0.00    -0.028 A 
HETATM    6  C   UNL     1      -7.710   3.097 -33.334  1.00  0.00     0.053 A 
HETATM    7  C   UNL     1      -8.828   2.563 -33.969  1.00  0.00     0.114 A 
HETATM    8  N   UNL     1      -9.771   3.235 -34.645  1.00  0.00    -0.234 NA
HETATM    9  C   UNL     1      -9.536   4.544 -34.675  1.00  0.00     0.236 A 
HETATM   10  N   UNL     1      -8.498   5.193 -34.136  1.00  0.00    -0.223 NA
HETATM   11  C   UNL     1      -7.545   4.504 -33.459  1.00  0.00     0.143 A 
HETATM   12  S   UNL     1      -8.935   0.869 -33.839  1.00  0.00    -0.073 SA
HETATM   13  C   UNL     1      -5.688   2.170 -31.882  1.00  0.00     0.041 C 
HETATM   14  C   UNL     1      -5.299   0.870 -31.158  1.00  0.00     0.009 C 
ENDROOT
BRANCH  11  15
HETATM   15  N   UNL     1      -6.452   5.184 -32.901  1.00  0.00    -0.340 N 
HETATM   16  H   UNL     1      -6.573   5.417 -31.930  1.00  0.00     0.167 HD
BRANCH  15  17
HETATM   17  C   UNL     1      -5.154   5.456 -33.375  1.00  0.00     0.036 A 
HETATM   18  C   UNL     1      -4.329   6.294 -32.601  1.00  0.00     0.069 A 
HETATM   19  C   UNL     1      -3.059   6.587 -33.056  1.00  0.00     0.107 A 
HETATM   20  C   UNL     1      -2.585   6.094 -34.244  1.00  0.00     0.105 A 
HETATM   21  O   UNL     1      -2.148   7.368 -32.415  1.00  0.00    -0.323 OA
HETATM   22  O   UNL     1      -1.313   6.497 -34.505  1.00  0.00    -0.323 OA
HETATM   23  C   UNL     1      -3.358   5.287 -35.044  1.00  0.00     0.042 A 
HETATM   24  C   UNL     1      -1.042   7.304 -33.341  1.00  0.00     0.352 A 
HETATM   25  C   UNL     1      -4.652   4.975 -34.604  1.00  0.00     0.032 A 
ENDBRANCH  15  17
ENDBRANCH  11  15
TORSDOF 2
ENDMDL
MODEL 9
REMARK VINA RESULT:      -7.8      3.324      6.645
REMARK  2 active torsions:
REMARK  status: ('A' for Active; 'I' for Inactive)
REMARK    1  A    between atoms: C_11  and  N_12 
REMARK    2  A    between atoms: N_12  and  C_13 
ROOT
HETATM    1  C   UNL     1     -12.030   4.197 -35.505  1.00  0.00     0.010 C 
HETATM    2  C   UNL     1     -12.640   3.081 -34.651  1.00  0.00    -0.014 C 
HETATM    3  C   UNL     1     -12.597   3.424 -33.147  1.00  0.00     0.051 C 
HETATM    4  C   UNL     1     -11.242   3.141 -32.567  1.00  0.00    -0.008 A 
HETATM    5  C   UNL     1     -10.259   2.351 -33.139  1.00  0.00    -0.028 A 
HETATM    6  C   UNL     1      -9.048   2.329 -32.330  1.00  0.00     0.053 A 
HETATM    7  C   UNL     1      -9.245   3.058 -31.161  1.00  0.00     0.114 A 
HETATM    8  N   UNL     1      -8.365   3.242 -30.165  1.00  0.00    -0.234 NA
HETATM    9  C   UNL     1      -7.203   2.640 -30.400  1.00  0.00     0.236 A 
HETATM   10  N   UNL     1      -6.861   1.931 -31.481  1.00  0.00    -0.223 NA
HETATM   11  C   UNL     1      -7.755   1.756 -32.487  1.00  0.00     0.143 A 
HETATM   12  S   UNL     1     -10.786   3.773 -31.061  1.00  0.00    -0.073 SA
HETATM   13  C   UNL     1     -10.488   1.681 -34.466  1.00  0.00     0.041 C 
HETATM   14  C   UNL     1     -11.959   1.723 -34.911  1.00  0.00     0.009 C 
ENDROOT
BRANCH  11  15
HETATM   15  N   UNL     1      -7.395   1.019 -33.625  1.00  0.00    -0.340 N 
HETATM   16  H   UNL     1      -7.644   1.464 -34.492  1.00  0.00     0.167 HD
BRANCH  15  17
HETATM   17  C   UNL     1      -6.607  -0.134 -33.805  1.00  0.00     0.036 A 
HETATM   18  C   UNL     1      -7.244  -1.308 -34.249  1.00  0.00     0.069 A 
HETATM   19  C   UNL     1      -6.494  -2.455 -34.416  1.00  0.00     0.107 A 
HETATM   20  C   UNL     1      -5.149  -2.484 -34.150  1.00  0.00     0.105 A 
HETATM   21  O   UNL     1      -6.965  -3.656 -34.848  1.00  0.00    -0.323 OA
HETATM   22  O   UNL     1      -4.598  -3.704 -34.382  1.00  0.00    -0.323 OA
HETATM   23  C   UNL     1      -4.485  -1.369 -33.697  1.00  0.00     0.042 A 
HETATM   24  C   UNL     1      -5.754  -4.442 -34.826  1.00  0.00     0.352 A 
HETATM   25  C   UNL     1      -5.226  -0.192 -33.519  1.00  0.00     0.032 A 
ENDBRANCH  15  17
ENDBRANCH  11  15
TORSDOF 2
ENDMDL
MODEL 10
REMARK VINA RESULT:      -7.7      4.969      6.661
REMARK  2 active torsions:
REMARK  status: ('A' for Active; 'I' for Inactive)
REMARK    1  A    between atoms: C_11  and  N_12 
REMARK    2  A    between atoms: N_12  and  C_13 
ROOT
HETATM    1  C   UNL     1      -6.863   0.306 -35.335  1.00  0.00     0.010 C 
HETATM    2  C   UNL     1      -6.954  -0.667 -34.154  1.00  0.00    -0.014 C 
HETATM    3  C   UNL     1      -8.180  -0.372 -33.264  1.00  0.00     0.051 C 
HETATM    4  C   UNL     1      -7.903   0.763 -32.322  1.00  0.00    -0.008 A 
HETATM    5  C   UNL     1      -6.654   1.261 -31.990  1.00  0.00    -0.028 A 
HETATM    6  C   UNL     1      -6.752   2.396 -31.082  1.00  0.00     0.053 A 
HETATM    7  C   UNL     1      -8.083   2.620 -30.742  1.00  0.00     0.114 A 
HETATM    8  N   UNL     1      -8.558   3.560 -29.913  1.00  0.00    -0.234 NA
HETATM    9  C   UNL     1      -7.594   4.325 -29.410  1.00  0.00     0.236 A 
HETATM   10  N   UNL     1      -6.283   4.246 -29.662  1.00  0.00    -0.223 NA
HETATM   11  C   UNL     1      -5.811   3.296 -30.508  1.00  0.00     0.143 A 
HETATM   12  S   UNL     1      -9.165   1.554 -31.511  1.00  0.00    -0.073 SA
HETATM   13  C   UNL     1      -5.408   0.670 -32.588  1.00  0.00     0.041 C 
HETATM   14  C   UNL     1      -5.665  -0.664 -33.309  1.00  0.00     0.009 C 
ENDROOT
BRANCH  11  15
HETATM   15  N   UNL     1      -4.437   3.218 -30.779  1.00  0.00    -0.340 N 
HETATM   16  H   UNL     1      -4.004   2.376 -30.440  1.00  0.00     0.167 HD
BRANCH  15  17
HETATM   17  C   UNL     1      -3.576   3.998 -31.576  1.00  0.00     0.036 A 
HETATM   18  C   UNL     1      -3.372   5.341 -31.209  1.00  0.00     0.069 A 
HETATM   19  C   UNL     1      -2.546   6.129 -31.985  1.00  0.00     0.107 A 
HETATM   20  C   UNL     1      -1.928   5.641 -33.109  1.00  0.00     0.105 A 
HETATM   21  O   UNL     1      -2.244   7.435 -31.751  1.00  0.00    -0.323 OA
HETATM   22  O   UNL     1      -1.157   6.574 -33.726  1.00  0.00    -0.323 OA
HETATM   23  C   UNL     1      -2.110   4.342 -33.518  1.00  0.00     0.042 A 
HETATM   24  C   UNL     1      -1.361   7.708 -32.860  1.00  0.00     0.352 A 
HETATM   25  C   UNL     1      -2.946   3.523 -32.746  1.00  0.00     0.032 A 
ENDBRANCH  15  17
ENDBRANCH  11  15
TORSDOF 2
ENDMDL
