MODEL 1
REMARK VINA RESULT:      -8.8      0.000      0.000
REMARK  6 active torsions:
REMARK  status: ('A' for Active; 'I' for Inactive)
REMARK    1  A    between atoms: C_8  and  N_9 
REMARK       I    between atoms: N_9  and  C_10 
REMARK    2  A    between atoms: C_10  and  C_11 
REMARK    3  A    between atoms: C_11  and  N_12 
REMARK    4  A    between atoms: N_12  and  C_15 
REMARK    5  A    between atoms: C_15  and  C_16 
REMARK    6  A    between atoms: C_15  and  C_22 
ROOT
HETATM    1  N   UNL     1      -7.735  -0.576 -34.444  1.00  0.00    -0.055 N 
HETATM    2  H   UNL     1      -8.275  -1.008 -33.693  1.00  0.00     0.278 HD
HETATM    3  H   UNL     1      -7.915  -1.100 -35.315  1.00  0.00     0.278 HD
ENDROOT
BRANCH   1   4
HETATM    4  C   UNL     1      -8.211   0.837 -34.678  1.00  0.00     0.336 C 
BRANCH   4   5
HETATM    5  C   UNL     1      -9.558   1.097 -34.004  1.00  0.00     0.248 C 
HETATM    6  N   UNL     1     -10.549   1.487 -34.874  1.00  0.00    -0.322 N 
HETATM    7  H   UNL     1     -10.341   1.576 -35.862  1.00  0.00     0.169 HD
HETATM    8  O   UNL     1      -9.634   0.935 -32.790  1.00  0.00    -0.271 OA
BRANCH   6   9
HETATM    9  C   UNL     1     -11.866   1.787 -34.551  1.00  0.00     0.085 A 
HETATM   10  C   UNL     1     -12.371   3.065 -34.720  1.00  0.00     0.052 A 
HETATM   11  C   UNL     1     -11.777   4.331 -35.217  1.00  0.00     0.072 C 
HETATM   12  N   UNL     1     -13.673   3.012 -34.309  1.00  0.00    -0.280 N 
HETATM   13  H   UNL     1     -14.360   3.761 -34.285  1.00  0.00     0.189 HD
HETATM   14  N   UNL     1     -14.053   1.803 -33.894  1.00  0.00    -0.177 NA
HETATM   15  C   UNL     1     -12.960   1.038 -34.024  1.00  0.00     0.079 A 
HETATM   16  C   UNL     1     -13.069  -0.384 -33.612  1.00  0.00     0.075 C 
ENDBRANCH   6   9
ENDBRANCH   4   5
ENDBRANCH   1   4
BRANCH   1  17
HETATM   17  C   UNL     1      -6.264  -0.753 -34.169  1.00  0.00     0.252 C 
BRANCH  17  18
HETATM   18  C   UNL     1      -5.863  -0.108 -32.854  1.00  0.00    -0.023 A 
HETATM   19  C   UNL     1      -6.510  -0.422 -31.647  1.00  0.00     0.009 A 
HETATM   20  C   UNL     1      -6.147   0.218 -30.460  1.00  0.00     0.001 A 
HETATM   21  C   UNL     1      -5.139   1.179 -30.462  1.00  0.00     0.000 A 
HETATM   22  C   UNL     1      -4.485   1.499 -31.649  1.00  0.00     0.001 A 
HETATM   23  C   UNL     1      -4.842   0.860 -32.838  1.00  0.00     0.009 A 
ENDBRANCH  17  18
BRANCH  17  24
HETATM   24  C   UNL     1      -5.821  -2.208 -34.286  1.00  0.00    -0.023 A 
HETATM   25  C   UNL     1      -6.752  -3.163 -34.736  1.00  0.00     0.009 A 
HETATM   26  C   UNL     1      -6.394  -4.506 -34.871  1.00  0.00     0.001 A 
HETATM   27  C   UNL     1      -5.102  -4.918 -34.563  1.00  0.00     0.000 A 
HETATM   28  C   UNL     1      -4.163  -3.987 -34.127  1.00  0.00     0.001 A 
HETATM   29  C   UNL     1      -4.515  -2.641 -33.992  1.00  0.00     0.009 A 
ENDBRANCH  17  24
ENDBRANCH   1  17
TORSDOF 6
ENDMDL
MODEL 2
REMARK VINA RESULT:      -8.6      0.759      1.723
REMARK  6 active torsions:
REMARK  status: ('A' for Active; 'I' for Inactive)
REMARK    1  A    between atoms: C_8  and  N_9 
REMARK       I    between atoms: N_9  and  C_10 
REMARK    2  A    between atoms: C_10  and  C_11 
REMARK    3  A    between atoms: C_11  and  N_12 
REMARK    4  A    between atoms: N_12  and  C_15 
REMARK    5  A    between atoms: C_15  and  C_16 
REMARK    6  A    between atoms: C_15  and  C_22 
ROOT
HETATM    1  N   UNL     1      -7.923  -0.584 -34.323  1.00  0.00    -0.055 N 
HETATM    2  H   UNL     1      -8.388  -0.982 -33.506  1.00  0.00     0.278 HD
HETATM    3  H   UNL     1      -8.147  -1.171 -35.141  1.00  0.00     0.278 HD
ENDROOT
BRANCH   1   4
HETATM    4  C   UNL     1      -8.473   0.793 -34.610  1.00  0.00     0.336 C 
BRANCH   4   5
HETATM    5  C   UNL     1      -9.592   1.168 -33.640  1.00  0.00     0.248 C 
HETATM    6  N   UNL     1     -10.785   1.466 -34.255  1.00  0.00    -0.322 N 
HETATM    7  H   UNL     1     -10.851   1.424 -35.266  1.00  0.00     0.169 HD
HETATM    8  O   UNL     1      -9.337   1.163 -32.439  1.00  0.00    -0.271 OA
BRANCH   6   9
HETATM    9  C   UNL     1     -11.970   1.835 -33.632  1.00  0.00     0.085 A 
HETATM   10  C   UNL     1     -12.976   0.911 -33.405  1.00  0.00     0.052 A 
HETATM   11  C   UNL     1     -13.108  -0.536 -33.703  1.00  0.00     0.072 C 
HETATM   12  N   UNL     1     -13.984   1.598 -32.787  1.00  0.00    -0.280 N 
HETATM   13  H   UNL     1     -14.885   1.250 -32.472  1.00  0.00     0.189 HD
HETATM   14  N   UNL     1     -13.708   2.887 -32.591  1.00  0.00    -0.177 NA
HETATM   15  C   UNL     1     -12.484   3.059 -33.108  1.00  0.00     0.079 A 
HETATM   16  C   UNL     1     -11.905   4.424 -33.055  1.00  0.00     0.075 C 
ENDBRANCH   6   9
ENDBRANCH   4   5
ENDBRANCH   1   4
BRANCH   1  17
HETATM   17  C   UNL     1      -6.431  -0.689 -34.153  1.00  0.00     0.252 C 
BRANCH  17  18
HETATM   18  C   UNL     1      -5.966  -0.001 -32.880  1.00  0.00    -0.023 A 
HETATM   19  C   UNL     1      -6.382  -0.434 -31.609  1.00  0.00     0.009 A 
HETATM   20  C   UNL     1      -5.971   0.243 -30.460  1.00  0.00     0.001 A 
HETATM   21  C   UNL     1      -5.146   1.361 -30.563  1.00  0.00     0.000 A 
HETATM   22  C   UNL     1      -4.722   1.801 -31.814  1.00  0.00     0.001 A 
HETATM   23  C   UNL     1      -5.127   1.125 -32.966  1.00  0.00     0.009 A 
ENDBRANCH  17  18
BRANCH  17  24
HETATM   24  C   UNL     1      -5.931  -2.125 -34.277  1.00  0.00    -0.023 A 
HETATM   25  C   UNL     1      -6.837  -3.123 -34.681  1.00  0.00     0.009 A 
HETATM   26  C   UNL     1      -6.429  -4.451 -34.821  1.00  0.00     0.001 A 
HETATM   27  C   UNL     1      -5.109  -4.804 -34.563  1.00  0.00     0.000 A 
HETATM   28  C   UNL     1      -4.193  -3.831 -34.174  1.00  0.00     0.001 A 
HETATM   29  C   UNL     1      -4.597  -2.500 -34.035  1.00  0.00     0.009 A 
ENDBRANCH  17  24
ENDBRANCH   1  17
TORSDOF 6
ENDMDL
MODEL 3
REMARK VINA RESULT:      -8.4      4.052      6.804
REMARK  6 active torsions:
REMARK  status: ('A' for Active; 'I' for Inactive)
REMARK    1  A    between atoms: C_8  and  N_9 
REMARK       I    between atoms: N_9  and  C_10 
REMARK    2  A    between atoms: C_10  and  C_11 
REMARK    3  A    between atoms: C_11  and  N_12 
REMARK    4  A    between atoms: N_12  and  C_15 
REMARK    5  A    between atoms: C_15  and  C_16 
REMARK    6  A    between atoms: C_15  and  C_22 
ROOT
HETATM    1  N   UNL     1      -4.447  -0.496 -31.571  1.00  0.00    -0.055 N 
HETATM    2  H   UNL     1      -4.227  -1.372 -31.094  1.00  0.00     0.278 HD
HETATM    3  H   UNL     1      -5.313  -0.114 -31.162  1.00  0.00     0.278 HD
ENDROOT
BRANCH   1   4
HETATM    4  C   UNL     1      -3.359   0.519 -31.317  1.00  0.00     0.336 C 
BRANCH   4   5
HETATM    5  C   UNL     1      -3.873   1.949 -31.477  1.00  0.00     0.248 C 
HETATM    6  N   UNL     1      -3.384   2.595 -32.588  1.00  0.00    -0.322 N 
HETATM    7  H   UNL     1      -2.743   2.112 -33.206  1.00  0.00     0.169 HD
HETATM    8  O   UNL     1      -4.653   2.376 -30.631  1.00  0.00    -0.271 OA
BRANCH   6   9
HETATM    9  C   UNL     1      -3.677   3.892 -32.988  1.00  0.00     0.085 A 
HETATM   10  C   UNL     1      -2.758   4.916 -32.825  1.00  0.00     0.052 A 
HETATM   11  C   UNL     1      -1.387   4.965 -32.261  1.00  0.00     0.072 C 
HETATM   12  N   UNL     1      -3.359   6.042 -33.315  1.00  0.00    -0.280 N 
HETATM   13  H   UNL     1      -2.990   6.987 -33.359  1.00  0.00     0.189 HD
HETATM   14  N   UNL     1      -4.588   5.828 -33.786  1.00  0.00    -0.177 NA
HETATM   15  C   UNL     1      -4.808   4.521 -33.588  1.00  0.00     0.079 A 
HETATM   16  C   UNL     1      -6.127   3.981 -34.002  1.00  0.00     0.075 C 
ENDBRANCH   6   9
ENDBRANCH   4   5
ENDBRANCH   1   4
BRANCH   1  17
HETATM   17  C   UNL     1      -4.778  -0.781 -33.012  1.00  0.00     0.252 C 
BRANCH  17  18
HETATM   18  C   UNL     1      -4.577  -2.248 -33.350  1.00  0.00    -0.023 A 
HETATM   19  C   UNL     1      -3.582  -3.022 -32.729  1.00  0.00     0.009 A 
HETATM   20  C   UNL     1      -3.395  -4.358 -33.089  1.00  0.00     0.001 A 
HETATM   21  C   UNL     1      -4.192  -4.936 -34.073  1.00  0.00     0.000 A 
HETATM   22  C   UNL     1      -5.185  -4.184 -34.696  1.00  0.00     0.001 A 
HETATM   23  C   UNL     1      -5.379  -2.850 -34.337  1.00  0.00     0.009 A 
ENDBRANCH  17  18
BRANCH  17  24
HETATM   24  C   UNL     1      -6.154  -0.255 -33.408  1.00  0.00    -0.023 A 
HETATM   25  C   UNL     1      -7.148  -0.151 -32.417  1.00  0.00     0.009 A 
HETATM   26  C   UNL     1      -8.421   0.334 -32.724  1.00  0.00     0.001 A 
HETATM   27  C   UNL     1      -8.722   0.728 -34.023  1.00  0.00     0.000 A 
HETATM   28  C   UNL     1      -7.750   0.645 -35.016  1.00  0.00     0.001 A 
HETATM   29  C   UNL     1      -6.473   0.161 -34.713  1.00  0.00     0.009 A 
ENDBRANCH  17  24
ENDBRANCH   1  17
TORSDOF 6
ENDMDL
MODEL 4
REMARK VINA RESULT:      -8.3      3.989      6.831
REMARK  6 active torsions:
REMARK  status: ('A' for Active; 'I' for Inactive)
REMARK    1  A    between atoms: C_8  and  N_9 
REMARK       I    between atoms: N_9  and  C_10 
REMARK    2  A    between atoms: C_10  and  C_11 
REMARK    3  A    between atoms: C_11  and  N_12 
REMARK    4  A    between atoms: N_12  and  C_15 
REMARK    5  A    between atoms: C_15  and  C_16 
REMARK    6  A    between atoms: C_15  and  C_22 
ROOT
HETATM    1  N   UNL     1      -4.423  -0.845 -31.933  1.00  0.00    -0.055 N 
HETATM    2  H   UNL     1      -4.179  -1.740 -31.506  1.00  0.00     0.278 HD
HETATM    3  H   UNL     1      -5.243  -0.463 -31.438  1.00  0.00     0.278 HD
ENDROOT
BRANCH   1   4
HETATM    4  C   UNL     1      -3.298   0.143 -31.742  1.00  0.00     0.336 C 
BRANCH   4   5
HETATM    5  C   UNL     1      -3.819   1.574 -31.615  1.00  0.00     0.248 C 
HETATM    6  N   UNL     1      -3.353   2.426 -32.589  1.00  0.00    -0.322 N 
HETATM    7  H   UNL     1      -2.721   2.074 -33.299  1.00  0.00     0.169 HD
HETATM    8  O   UNL     1      -4.587   1.825 -30.690  1.00  0.00    -0.271 OA
BRANCH   6   9
HETATM    9  C   UNL     1      -3.657   3.773 -32.727  1.00  0.00     0.085 A 
HETATM   10  C   UNL     1      -4.829   4.183 -33.340  1.00  0.00     0.052 A 
HETATM   11  C   UNL     1      -5.961   3.447 -33.953  1.00  0.00     0.072 C 
HETATM   12  N   UNL     1      -4.811   5.549 -33.310  1.00  0.00    -0.280 N 
HETATM   13  H   UNL     1      -5.504   6.199 -33.671  1.00  0.00     0.189 HD
HETATM   14  N   UNL     1      -3.726   6.055 -32.723  1.00  0.00    -0.177 NA
HETATM   15  C   UNL     1      -3.000   4.987 -32.366  1.00  0.00     0.079 A 
HETATM   16  C   UNL     1      -1.699   5.238 -31.696  1.00  0.00     0.075 C 
ENDBRANCH   6   9
ENDBRANCH   4   5
ENDBRANCH   1   4
BRANCH   1  17
HETATM   17  C   UNL     1      -4.882  -1.075 -33.349  1.00  0.00     0.252 C 
BRANCH  17  18
HETATM   18  C   UNL     1      -4.779  -2.541 -33.736  1.00  0.00    -0.023 A 
HETATM   19  C   UNL     1      -5.756  -3.170 -34.525  1.00  0.00     0.009 A 
HETATM   20  C   UNL     1      -5.655  -4.528 -34.831  1.00  0.00     0.001 A 
HETATM   21  C   UNL     1      -4.583  -5.276 -34.351  1.00  0.00     0.000 A 
HETATM   22  C   UNL     1      -3.603  -4.667 -33.571  1.00  0.00     0.001 A 
HETATM   23  C   UNL     1      -3.697  -3.309 -33.265  1.00  0.00     0.009 A 
ENDBRANCH  17  18
BRANCH  17  24
HETATM   24  C   UNL     1      -6.259  -0.477 -33.618  1.00  0.00    -0.023 A 
HETATM   25  C   UNL     1      -6.616  -0.172 -34.945  1.00  0.00     0.009 A 
HETATM   26  C   UNL     1      -7.868   0.366 -35.247  1.00  0.00     0.001 A 
HETATM   27  C   UNL     1      -8.787   0.605 -34.231  1.00  0.00     0.000 A 
HETATM   28  C   UNL     1      -8.459   0.299 -32.914  1.00  0.00     0.001 A 
HETATM   29  C   UNL     1      -7.207  -0.242 -32.606  1.00  0.00     0.009 A 
ENDBRANCH  17  24
ENDBRANCH   1  17
TORSDOF 6
ENDMDL
MODEL 5
REMARK VINA RESULT:      -8.3      4.056      6.838
REMARK  6 active torsions:
REMARK  status: ('A' for Active; 'I' for Inactive)
REMARK    1  A    between atoms: C_8  and  N_9 
REMARK       I    between atoms: N_9  and  C_10 
REMARK    2  A    between atoms: C_10  and  C_11 
REMARK    3  A    between atoms: C_11  and  N_12 
REMARK    4  A    between atoms: N_12  and  C_15 
REMARK    5  A    between atoms: C_15  and  C_16 
REMARK    6  A    between atoms: C_15  and  C_22 
ROOT
HETATM    1  N   UNL     1      -4.420  -0.881 -32.768  1.00  0.00    -0.055 N 
HETATM    2  H   UNL     1      -4.051  -1.785 -32.468  1.00  0.00     0.278 HD
HETATM    3  H   UNL     1      -5.036  -0.520 -32.023  1.00  0.00     0.278 HD
ENDROOT
BRANCH   1   4
HETATM    4  C   UNL     1      -3.293   0.112 -32.923  1.00  0.00     0.336 C 
BRANCH   4   5
HETATM    5  C   UNL     1      -3.341   1.192 -31.843  1.00  0.00     0.248 C 
HETATM    6  N   UNL     1      -4.167   2.248 -32.148  1.00  0.00    -0.322 N 
HETATM    7  H   UNL     1      -4.672   2.250 -33.027  1.00  0.00     0.169 HD
HETATM    8  O   UNL     1      -2.664   1.024 -30.833  1.00  0.00    -0.271 OA
BRANCH   6   9
HETATM    9  C   UNL     1      -4.409   3.366 -31.361  1.00  0.00     0.085 A 
HETATM   10  C   UNL     1      -3.524   4.431 -31.339  1.00  0.00     0.052 A 
HETATM   11  C   UNL     1      -2.237   4.691 -32.029  1.00  0.00     0.072 C 
HETATM   12  N   UNL     1      -4.057   5.345 -30.474  1.00  0.00    -0.280 N 
HETATM   13  H   UNL     1      -3.684   6.250 -30.201  1.00  0.00     0.189 HD
HETATM   14  N   UNL     1      -5.216   4.960 -29.940  1.00  0.00    -0.177 NA
HETATM   15  C   UNL     1      -5.448   3.748 -30.460  1.00  0.00     0.079 A 
HETATM   16  C   UNL     1      -6.681   3.043 -30.029  1.00  0.00     0.075 C 
ENDBRANCH   6   9
ENDBRANCH   4   5
ENDBRANCH   1   4
BRANCH   1  17
HETATM   17  C   UNL     1      -5.312  -1.077 -33.965  1.00  0.00     0.252 C 
BRANCH  17  18
HETATM   18  C   UNL     1      -5.422  -2.544 -34.343  1.00  0.00    -0.023 A 
HETATM   19  C   UNL     1      -6.608  -3.089 -34.864  1.00  0.00     0.009 A 
HETATM   20  C   UNL     1      -6.691  -4.450 -35.164  1.00  0.00     0.001 A 
HETATM   21  C   UNL     1      -5.597  -5.284 -34.945  1.00  0.00     0.000 A 
HETATM   22  C   UNL     1      -4.413  -4.759 -34.433  1.00  0.00     0.001 A 
HETATM   23  C   UNL     1      -4.323  -3.399 -34.135  1.00  0.00     0.009 A 
ENDBRANCH  17  18
BRANCH  17  24
HETATM   24  C   UNL     1      -6.667  -0.396 -33.797  1.00  0.00    -0.023 A 
HETATM   25  C   UNL     1      -7.184  -0.229 -32.499  1.00  0.00     0.009 A 
HETATM   26  C   UNL     1      -8.414   0.397 -32.290  1.00  0.00     0.001 A 
HETATM   27  C   UNL     1      -9.147   0.871 -33.372  1.00  0.00     0.000 A 
HETATM   28  C   UNL     1      -8.649   0.726 -34.664  1.00  0.00     0.001 A 
HETATM   29  C   UNL     1      -7.417   0.102 -34.879  1.00  0.00     0.009 A 
ENDBRANCH  17  24
ENDBRANCH   1  17
TORSDOF 6
ENDMDL
MODEL 6
REMARK VINA RESULT:      -8.3      1.432      2.198
REMARK  6 active torsions:
REMARK  status: ('A' for Active; 'I' for Inactive)
REMARK    1  A    between atoms: C_8  and  N_9 
REMARK       I    between atoms: N_9  and  C_10 
REMARK    2  A    between atoms: C_10  and  C_11 
REMARK    3  A    between atoms: C_11  and  N_12 
REMARK    4  A    between atoms: N_12  and  C_15 
REMARK    5  A    between atoms: C_15  and  C_16 
REMARK    6  A    between atoms: C_15  and  C_22 
ROOT
HETATM    1  N   UNL     1      -7.012  -0.699 -34.690  1.00  0.00    -0.055 N 
HETATM    2  H   UNL     1      -7.682  -0.750 -33.922  1.00  0.00     0.278 HD
HETATM    3  H   UNL     1      -7.220  -1.462 -35.352  1.00  0.00     0.278 HD
ENDROOT
BRANCH   1   4
HETATM    4  C   UNL     1      -7.188   0.596 -35.446  1.00  0.00     0.336 C 
BRANCH   4   5
HETATM    5  C   UNL     1      -7.996   1.613 -34.642  1.00  0.00     0.248 C 
HETATM    6  N   UNL     1      -9.336   1.316 -34.553  1.00  0.00    -0.322 N 
HETATM    7  H   UNL     1      -9.694   0.482 -35.005  1.00  0.00     0.169 HD
HETATM    8  O   UNL     1      -7.397   2.569 -34.158  1.00  0.00    -0.271 OA
BRANCH   6   9
HETATM    9  C   UNL     1     -10.307   2.053 -33.889  1.00  0.00     0.085 A 
HETATM   10  C   UNL     1     -10.262   2.221 -32.515  1.00  0.00     0.052 A 
HETATM   11  C   UNL     1      -9.323   1.748 -31.467  1.00  0.00     0.072 C 
HETATM   12  N   UNL     1     -11.350   2.983 -32.193  1.00  0.00    -0.280 N 
HETATM   13  H   UNL     1     -11.648   3.306 -31.277  1.00  0.00     0.189 HD
HETATM   14  N   UNL     1     -12.090   3.327 -33.247  1.00  0.00    -0.177 NA
HETATM   15  C   UNL     1     -11.477   2.761 -34.296  1.00  0.00     0.079 A 
HETATM   16  C   UNL     1     -12.092   2.953 -35.633  1.00  0.00     0.075 C 
ENDBRANCH   6   9
ENDBRANCH   4   5
ENDBRANCH   1   4
BRANCH   1  17
HETATM   17  C   UNL     1      -5.629  -0.990 -34.168  1.00  0.00     0.252 C 
BRANCH  17  18
HETATM   18  C   UNL     1      -5.409  -0.366 -32.800  1.00  0.00    -0.023 A 
HETATM   19  C   UNL     1      -4.228   0.325 -32.483  1.00  0.00     0.009 A 
HETATM   20  C   UNL     1      -4.036   0.853 -31.205  1.00  0.00     0.001 A 
HETATM   21  C   UNL     1      -5.016   0.694 -30.228  1.00  0.00     0.000 A 
HETATM   22  C   UNL     1      -6.194   0.015 -30.527  1.00  0.00     0.001 A 
HETATM   23  C   UNL     1      -6.392  -0.511 -31.804  1.00  0.00     0.009 A 
ENDBRANCH  17  18
BRANCH  17  24
HETATM   24  C   UNL     1      -5.291  -2.477 -34.213  1.00  0.00    -0.023 A 
HETATM   25  C   UNL     1      -6.221  -3.364 -34.786  1.00  0.00     0.009 A 
HETATM   26  C   UNL     1      -5.956  -4.733 -34.862  1.00  0.00     0.001 A 
HETATM   27  C   UNL     1      -4.757  -5.238 -34.372  1.00  0.00     0.000 A 
HETATM   28  C   UNL     1      -3.818  -4.376 -33.812  1.00  0.00     0.001 A 
HETATM   29  C   UNL     1      -4.078  -3.005 -33.735  1.00  0.00     0.009 A 
ENDBRANCH  17  24
ENDBRANCH   1  17
TORSDOF 6
ENDMDL
MODEL 7
REMARK VINA RESULT:      -8.2      4.599      7.432
REMARK  6 active torsions:
REMARK  status: ('A' for Active; 'I' for Inactive)
REMARK    1  A    between atoms: C_8  and  N_9 
REMARK       I    between atoms: N_9  and  C_10 
REMARK    2  A    between atoms: C_10  and  C_11 
REMARK    3  A    between atoms: C_11  and  N_12 
REMARK    4  A    between atoms: N_12  and  C_15 
REMARK    5  A    between atoms: C_15  and  C_16 
REMARK    6  A    between atoms: C_15  and  C_22 
ROOT
HETATM    1  N   UNL     1      -3.952   1.400 -32.618  1.00  0.00    -0.055 N 
HETATM    2  H   UNL     1      -4.072   1.990 -33.442  1.00  0.00     0.278 HD
HETATM    3  H   UNL     1      -3.269   0.662 -32.845  1.00  0.00     0.278 HD
ENDROOT
BRANCH   1   4
HETATM    4  C   UNL     1      -3.363   2.207 -31.486  1.00  0.00     0.336 C 
BRANCH   4   5
HETATM    5  C   UNL     1      -3.318   3.698 -31.818  1.00  0.00     0.248 C 
HETATM    6  N   UNL     1      -2.296   4.048 -32.668  1.00  0.00    -0.322 N 
HETATM    7  H   UNL     1      -1.661   3.335 -33.007  1.00  0.00     0.169 HD
HETATM    8  O   UNL     1      -4.174   4.423 -31.319  1.00  0.00    -0.271 OA
BRANCH   6   9
HETATM    9  C   UNL     1      -2.012   5.321 -33.143  1.00  0.00     0.085 A 
HETATM   10  C   UNL     1      -2.651   5.827 -34.263  1.00  0.00     0.052 A 
HETATM   11  C   UNL     1      -3.677   5.271 -35.179  1.00  0.00     0.072 C 
HETATM   12  N   UNL     1      -2.143   7.081 -34.452  1.00  0.00    -0.280 N 
HETATM   13  H   UNL     1      -2.372   7.753 -35.179  1.00  0.00     0.189 HD
HETATM   14  N   UNL     1      -1.233   7.430 -33.543  1.00  0.00    -0.177 NA
HETATM   15  C   UNL     1      -1.128   6.366 -32.736  1.00  0.00     0.079 A 
HETATM   16  C   UNL     1      -0.156   6.449 -31.617  1.00  0.00     0.075 C 
ENDBRANCH   6   9
ENDBRANCH   4   5
ENDBRANCH   1   4
BRANCH   1  17
HETATM   17  C   UNL     1      -5.241   0.676 -32.328  1.00  0.00     0.252 C 
BRANCH  17  18
HETATM   18  C   UNL     1      -6.432   1.618 -32.384  1.00  0.00    -0.023 A 
HETATM   19  C   UNL     1      -6.538   2.622 -33.361  1.00  0.00     0.009 A 
HETATM   20  C   UNL     1      -7.624   3.498 -33.363  1.00  0.00     0.001 A 
HETATM   21  C   UNL     1      -8.615   3.387 -32.391  1.00  0.00     0.000 A 
HETATM   22  C   UNL     1      -8.528   2.395 -31.418  1.00  0.00     0.001 A 
HETATM   23  C   UNL     1      -7.445   1.514 -31.413  1.00  0.00     0.009 A 
ENDBRANCH  17  18
BRANCH  17  24
HETATM   24  C   UNL     1      -5.416  -0.568 -33.192  1.00  0.00    -0.023 A 
HETATM   25  C   UNL     1      -4.296  -1.386 -33.433  1.00  0.00     0.009 A 
HETATM   26  C   UNL     1      -4.405  -2.543 -34.208  1.00  0.00     0.001 A 
HETATM   27  C   UNL     1      -5.633  -2.905 -34.751  1.00  0.00     0.000 A 
HETATM   28  C   UNL     1      -6.755  -2.116 -34.515  1.00  0.00     0.001 A 
HETATM   29  C   UNL     1      -6.652  -0.958 -33.738  1.00  0.00     0.009 A 
ENDBRANCH  17  24
ENDBRANCH   1  17
TORSDOF 6
ENDMDL
MODEL 8
REMARK VINA RESULT:      -8.2      1.835      2.588
REMARK  6 active torsions:
REMARK  status: ('A' for Active; 'I' for Inactive)
REMARK    1  A    between atoms: C_8  and  N_9 
REMARK       I    between atoms: N_9  and  C_10 
REMARK    2  A    between atoms: C_10  and  C_11 
REMARK    3  A    between atoms: C_11  and  N_12 
REMARK    4  A    between atoms: N_12  and  C_15 
REMARK    5  A    between atoms: C_15  and  C_16 
REMARK    6  A    between atoms: C_15  and  C_22 
ROOT
HETATM    1  N   UNL     1      -7.381  -0.537 -34.484  1.00  0.00    -0.055 N 
HETATM    2  H   UNL     1      -7.947  -0.625 -33.638  1.00  0.00     0.278 HD
HETATM    3  H   UNL     1      -7.675  -1.269 -35.148  1.00  0.00     0.278 HD
ENDROOT
BRANCH   1   4
HETATM    4  C   UNL     1      -7.651   0.791 -35.151  1.00  0.00     0.336 C 
BRANCH   4   5
HETATM    5  C   UNL     1      -8.062   1.858 -34.138  1.00  0.00     0.248 C 
HETATM    6  N   UNL     1      -9.254   1.596 -33.505  1.00  0.00    -0.322 N 
HETATM    7  H   UNL     1      -9.767   0.752 -33.735  1.00  0.00     0.169 HD
HETATM    8  O   UNL     1      -7.315   2.819 -33.981  1.00  0.00    -0.271 OA
BRANCH   6   9
HETATM    9  C   UNL     1      -9.872   2.381 -32.541  1.00  0.00     0.085 A 
HETATM   10  C   UNL     1     -11.182   2.803 -32.694  1.00  0.00     0.052 A 
HETATM   11  C   UNL     1     -12.194   2.598 -33.760  1.00  0.00     0.072 C 
HETATM   12  N   UNL     1     -11.470   3.546 -31.584  1.00  0.00    -0.280 N 
HETATM   13  H   UNL     1     -12.336   4.022 -31.348  1.00  0.00     0.189 HD
HETATM   14  N   UNL     1     -10.456   3.632 -30.723  1.00  0.00    -0.177 NA
HETATM   15  C   UNL     1      -9.463   2.935 -31.291  1.00  0.00     0.079 A 
HETATM   16  C   UNL     1      -8.172   2.866 -30.563  1.00  0.00     0.075 C 
ENDBRANCH   6   9
ENDBRANCH   4   5
ENDBRANCH   1   4
BRANCH   1  17
HETATM   17  C   UNL     1      -5.943  -0.845 -34.159  1.00  0.00     0.252 C 
BRANCH  17  18
HETATM   18  C   UNL     1      -5.537  -0.256 -32.819  1.00  0.00    -0.023 A 
HETATM   19  C   UNL     1      -4.339   0.460 -32.657  1.00  0.00     0.009 A 
HETATM   20  C   UNL     1      -3.972   0.956 -31.405  1.00  0.00     0.001 A 
HETATM   21  C   UNL     1      -4.791   0.741 -30.299  1.00  0.00     0.000 A 
HETATM   22  C   UNL     1      -5.984   0.037 -30.443  1.00  0.00     0.001 A 
HETATM   23  C   UNL     1      -6.357  -0.458 -31.694  1.00  0.00     0.009 A 
ENDBRANCH  17  18
BRANCH  17  24
HETATM   24  C   UNL     1      -5.625  -2.332 -34.283  1.00  0.00    -0.023 A 
HETATM   25  C   UNL     1      -6.624  -3.199 -34.766  1.00  0.00     0.009 A 
HETATM   26  C   UNL     1      -6.381  -4.566 -34.910  1.00  0.00     0.001 A 
HETATM   27  C   UNL     1      -5.137  -5.091 -34.578  1.00  0.00     0.000 A 
HETATM   28  C   UNL     1      -4.132  -4.250 -34.109  1.00  0.00     0.001 A 
HETATM   29  C   UNL     1      -4.369  -2.880 -33.966  1.00  0.00     0.009 A 
ENDBRANCH  17  24
ENDBRANCH   1  17
TORSDOF 6
ENDMDL
MODEL 9
REMARK VINA RESULT:      -7.9      3.543      6.029
REMARK  6 active torsions:
REMARK  status: ('A' for Active; 'I' for Inactive)
REMARK    1  A    between atoms: C_8  and  N_9 
REMARK       I    between atoms: N_9  and  C_10 
REMARK    2  A    between atoms: C_10  and  C_11 
REMARK    3  A    between atoms: C_11  and  N_12 
REMARK    4  A    between atoms: N_12  and  C_15 
REMARK    5  A    between atoms: C_15  and  C_16 
REMARK    6  A    between atoms: C_15  and  C_22 
ROOT
HETATM    1  N   UNL     1      -6.951   0.018 -30.886  1.00  0.00    -0.055 N 
HETATM    2  H   UNL     1      -6.806  -0.981 -30.738  1.00  0.00     0.278 HD
HETATM    3  H   UNL     1      -7.908   0.256 -30.582  1.00  0.00     0.278 HD
ENDROOT
BRANCH   1   4
HETATM    4  C   UNL     1      -6.006   0.813 -30.017  1.00  0.00     0.336 C 
BRANCH   4   5
HETATM    5  C   UNL     1      -6.277   2.314 -30.114  1.00  0.00     0.248 C 
HETATM    6  N   UNL     1      -7.450   2.708 -29.516  1.00  0.00    -0.322 N 
HETATM    7  H   UNL     1      -8.040   2.016 -29.068  1.00  0.00     0.169 HD
HETATM    8  O   UNL     1      -5.448   3.010 -30.693  1.00  0.00    -0.271 OA
BRANCH   6   9
HETATM    9  C   UNL     1      -7.951   4.001 -29.444  1.00  0.00     0.085 A 
HETATM   10  C   UNL     1      -9.159   4.334 -30.035  1.00  0.00     0.052 A 
HETATM   11  C   UNL     1     -10.153   3.556 -30.814  1.00  0.00     0.072 C 
HETATM   12  N   UNL     1      -9.348   5.663 -29.780  1.00  0.00    -0.280 N 
HETATM   13  H   UNL     1     -10.123   6.257 -30.060  1.00  0.00     0.189 HD
HETATM   14  N   UNL     1      -8.364   6.215 -29.067  1.00  0.00    -0.177 NA
HETATM   15  C   UNL     1      -7.493   5.218 -28.858  1.00  0.00     0.079 A 
HETATM   16  C   UNL     1      -6.260   5.538 -28.095  1.00  0.00     0.075 C 
ENDBRANCH   6   9
ENDBRANCH   4   5
ENDBRANCH   1   4
BRANCH   1  17
HETATM   17  C   UNL     1      -6.917   0.316 -32.363  1.00  0.00     0.252 C 
BRANCH  17  18
HETATM   18  C   UNL     1      -6.275  -0.818 -33.143  1.00  0.00    -0.023 A 
HETATM   19  C   UNL     1      -7.027  -1.665 -33.975  1.00  0.00     0.009 A 
HETATM   20  C   UNL     1      -6.416  -2.724 -34.648  1.00  0.00     0.001 A 
HETATM   21  C   UNL     1      -5.050  -2.954 -34.499  1.00  0.00     0.000 A 
HETATM   22  C   UNL     1      -4.289  -2.121 -33.682  1.00  0.00     0.001 A 
HETATM   23  C   UNL     1      -4.895  -1.059 -33.009  1.00  0.00     0.009 A 
ENDBRANCH  17  18
BRANCH  17  24
HETATM   24  C   UNL     1      -8.283   0.722 -32.906  1.00  0.00    -0.023 A 
HETATM   25  C   UNL     1      -8.358   1.796 -33.812  1.00  0.00     0.009 A 
HETATM   26  C   UNL     1      -9.582   2.201 -34.347  1.00  0.00     0.001 A 
HETATM   27  C   UNL     1     -10.752   1.539 -33.991  1.00  0.00     0.000 A 
HETATM   28  C   UNL     1     -10.699   0.466 -33.105  1.00  0.00     0.001 A 
HETATM   29  C   UNL     1      -9.475   0.056 -32.568  1.00  0.00     0.009 A 
ENDBRANCH  17  24
ENDBRANCH   1  17
TORSDOF 6
ENDMDL
MODEL 10
REMARK VINA RESULT:      -7.9      2.067      4.450
REMARK  6 active torsions:
REMARK  status: ('A' for Active; 'I' for Inactive)
REMARK    1  A    between atoms: C_8  and  N_9 
REMARK       I    between atoms: N_9  and  C_10 
REMARK    2  A    between atoms: C_10  and  C_11 
REMARK    3  A    between atoms: C_11  and  N_12 
REMARK    4  A    between atoms: N_12  and  C_15 
REMARK    5  A    between atoms: C_15  and  C_16 
REMARK    6  A    between atoms: C_15  and  C_22 
ROOT
HETATM    1  N   UNL     1      -7.546   0.721 -34.335  1.00  0.00    -0.055 N 
HETATM    2  H   UNL     1      -6.963   0.529 -35.151  1.00  0.00     0.278 HD
HETATM    3  H   UNL     1      -7.300   1.655 -33.973  1.00  0.00     0.278 HD
ENDROOT
BRANCH   1   4
HETATM    4  C   UNL     1      -9.000   0.778 -34.739  1.00  0.00     0.336 C 
BRANCH   4   5
HETATM    5  C   UNL     1      -9.900   1.140 -33.558  1.00  0.00     0.248 C 
HETATM    6  N   UNL     1      -9.919   2.482 -33.263  1.00  0.00    -0.322 N 
HETATM    7  H   UNL     1      -9.362   3.124 -33.816  1.00  0.00     0.169 HD
HETATM    8  O   UNL     1     -10.510   0.231 -33.002  1.00  0.00    -0.271 OA
BRANCH   6   9
HETATM    9  C   UNL     1     -10.644   3.099 -32.252  1.00  0.00     0.085 A 
HETATM   10  C   UNL     1     -10.080   3.335 -31.009  1.00  0.00     0.052 A 
HETATM   11  C   UNL     1      -8.741   3.053 -30.435  1.00  0.00     0.072 C 
HETATM   12  N   UNL     1     -11.051   3.943 -30.265  1.00  0.00    -0.280 N 
HETATM   13  H   UNL     1     -11.004   4.261 -29.301  1.00  0.00     0.189 HD
HETATM   14  N   UNL     1     -12.194   4.126 -30.927  1.00  0.00    -0.177 NA
HETATM   15  C   UNL     1     -11.972   3.609 -32.143  1.00  0.00     0.079 A 
HETATM   16  C   UNL     1     -13.092   3.647 -33.117  1.00  0.00     0.075 C 
ENDBRANCH   6   9
ENDBRANCH   4   5
ENDBRANCH   1   4
BRANCH   1  17
HETATM   17  C   UNL     1      -7.194  -0.241 -33.230  1.00  0.00     0.252 C 
BRANCH  17  18
HETATM   18  C   UNL     1      -6.434  -1.444 -33.763  1.00  0.00    -0.023 A 
HETATM   19  C   UNL     1      -7.087  -2.505 -34.413  1.00  0.00     0.009 A 
HETATM   20  C   UNL     1      -6.368  -3.616 -34.855  1.00  0.00     0.001 A 
HETATM   21  C   UNL     1      -4.992  -3.687 -34.652  1.00  0.00     0.000 A 
HETATM   22  C   UNL     1      -4.329  -2.642 -34.013  1.00  0.00     0.001 A 
HETATM   23  C   UNL     1      -5.042  -1.527 -33.572  1.00  0.00     0.009 A 
ENDBRANCH  17  18
BRANCH  17  24
HETATM   24  C   UNL     1      -6.491   0.446 -32.063  1.00  0.00    -0.023 A 
HETATM   25  C   UNL     1      -5.801   1.649 -32.304  1.00  0.00     0.009 A 
HETATM   26  C   UNL     1      -5.150   2.323 -31.268  1.00  0.00     0.001 A 
HETATM   27  C   UNL     1      -5.182   1.811 -29.975  1.00  0.00     0.000 A 
HETATM   28  C   UNL     1      -5.870   0.630 -29.714  1.00  0.00     0.001 A 
HETATM   29  C   UNL     1      -6.524  -0.048 -30.747  1.00  0.00     0.009 A 
ENDBRANCH  17  24
ENDBRANCH   1  17
TORSDOF 6
ENDMDL
