MODEL 1
REMARK VINA RESULT:      -8.5      0.000      0.000
REMARK  11 active torsions:
REMARK  status: ('A' for Active; 'I' for Inactive)
REMARK    1  A    between atoms: O_2  and  C_3 
REMARK    2  A    between atoms: C_6  and  C_7 
REMARK    3  A    between atoms: C_7  and  S_8 
REMARK    4  A    between atoms: C_7  and  C_22 
REMARK    5  A    between atoms: S_8  and  C_9 
REMARK    6  A    between atoms: C_12  and  C_13 
REMARK    7  A    between atoms: C_22  and  C_23 
REMARK       I    between atoms: C_23  and  N_24 
REMARK    8  A    between atoms: N_24  and  C_25 
REMARK    9  A    between atoms: C_25  and  C_26 
REMARK   10  A    between atoms: C_26  and  C_27 
REMARK   11  A    between atoms: C_27  and  N_28 
ROOT
HETATM    1  C   UNL     1      -7.175   0.415 -33.752  1.00  0.00     0.097 C 
ENDROOT
BRANCH   1   2
HETATM    2  C   UNL     1      -6.248  -0.766 -34.010  1.00  0.00    -0.043 A 
HETATM    3  C   UNL     1      -4.921  -0.785 -33.551  1.00  0.00     0.011 A 
HETATM    4  C   UNL     1      -4.121  -1.914 -33.737  1.00  0.00     0.037 A 
HETATM    5  C   UNL     1      -4.642  -3.052 -34.348  1.00  0.00     0.068 A 
HETATM    6  C   UNL     1      -5.945  -3.041 -34.837  1.00  0.00     0.037 A 
HETATM    7  C   UNL     1      -6.743  -1.906 -34.669  1.00  0.00     0.011 A 
BRANCH   5   8
HETATM    8  O   UNL     1      -3.797  -4.119 -34.467  1.00  0.00    -0.356 OA
HETATM    9  C   UNL     1      -3.688  -4.889 -33.270  1.00  0.00     0.210 C 
ENDBRANCH   5   8
ENDBRANCH   1   2
BRANCH   1  10
HETATM   10  S   UNL     1      -7.010   1.042 -32.024  1.00  0.00    -0.080 SA
BRANCH  10  11
HETATM   11  C   UNL     1      -6.245   2.566 -32.200  1.00  0.00     0.190 A 
HETATM   12  N   UNL     1      -6.729   3.636 -32.775  1.00  0.00    -0.122 NA
HETATM   13  N   UNL     1      -5.761   4.604 -32.719  1.00  0.00    -0.129 NA
HETATM   14  C   UNL     1      -4.678   4.091 -32.152  1.00  0.00     0.162 A 
HETATM   15  N   UNL     1      -4.959   2.787 -31.815  1.00  0.00    -0.317 N 
HETATM   16  H   UNL     1      -4.350   2.128 -31.355  1.00  0.00     0.169 HD
BRANCH  14  17
HETATM   17  C   UNL     1      -3.413   4.786 -31.915  1.00  0.00     0.012 A 
HETATM   18  C   UNL     1      -2.290   4.449 -32.690  1.00  0.00     0.017 A 
HETATM   19  C   UNL     1      -1.058   5.077 -32.490  1.00  0.00     0.025 A 
HETATM   20  C   UNL     1      -0.932   6.050 -31.504  1.00  0.00     0.034 A 
HETATM   21 CL   UNL     1       0.583   6.819 -31.246  1.00  0.00    -0.084 Cl
HETATM   22  C   UNL     1      -2.031   6.399 -30.721  1.00  0.00     0.025 A 
HETATM   23  C   UNL     1      -3.266   5.772 -30.926  1.00  0.00     0.017 A 
ENDBRANCH  14  17
ENDBRANCH  10  11
ENDBRANCH   1  10
BRANCH   1  24
HETATM   24  C   UNL     1      -8.582   0.101 -34.275  1.00  0.00     0.123 C 
BRANCH  24  25
HETATM   25  C   UNL     1      -9.582   1.189 -33.963  1.00  0.00     0.219 C 
HETATM   26  N   UNL     1      -9.328   2.392 -34.571  1.00  0.00    -0.361 N 
HETATM   27  H   UNL     1      -8.693   2.392 -35.374  1.00  0.00     0.162 HD
HETATM   28  O   UNL     1     -10.543   1.029 -33.210  1.00  0.00    -0.274 OA
BRANCH  26  29
HETATM   29  C   UNL     1     -10.057   3.605 -34.291  1.00  0.00     0.124 C 
BRANCH  29  30
HETATM   30  C   UNL     1     -10.984   4.055 -35.418  1.00  0.00     0.047 C 
BRANCH  30  31
HETATM   31  C   UNL     1     -12.279   3.267 -35.614  1.00  0.00     0.236 C 
BRANCH  31  32
HETATM   32  N   UNL     1     -12.850   2.694 -34.346  1.00  0.00    -0.067 N 
HETATM   33  H   UNL     1     -12.044   2.275 -33.831  1.00  0.00     0.280 HD
HETATM   34  C   UNL     1     -13.555   3.681 -33.436  1.00  0.00     0.261 C 
HETATM   35  C   UNL     1     -14.047   2.961 -32.175  1.00  0.00     0.195 C 
HETATM   36  O   UNL     1     -14.918   1.875 -32.511  1.00  0.00    -0.388 OA
HETATM   37  C   UNL     1     -14.246   0.896 -33.311  1.00  0.00     0.195 C 
HETATM   38  C   UNL     1     -13.765   1.506 -34.632  1.00  0.00     0.261 C 
ENDBRANCH  31  32
ENDBRANCH  30  31
ENDBRANCH  29  30
ENDBRANCH  26  29
ENDBRANCH  24  25
ENDBRANCH   1  24
TORSDOF 11
ENDMDL
MODEL 2
REMARK VINA RESULT:      -8.5      4.087      8.473
REMARK  11 active torsions:
REMARK  status: ('A' for Active; 'I' for Inactive)
REMARK    1  A    between atoms: O_2  and  C_3 
REMARK    2  A    between atoms: C_6  and  C_7 
REMARK    3  A    between atoms: C_7  and  S_8 
REMARK    4  A    between atoms: C_7  and  C_22 
REMARK    5  A    between atoms: S_8  and  C_9 
REMARK    6  A    between atoms: C_12  and  C_13 
REMARK    7  A    between atoms: C_22  and  C_23 
REMARK       I    between atoms: C_23  and  N_24 
REMARK    8  A    between atoms: N_24  and  C_25 
REMARK    9  A    between atoms: C_25  and  C_26 
REMARK   10  A    between atoms: C_26  and  C_27 
REMARK   11  A    between atoms: C_27  and  N_28 
ROOT
HETATM    1  C   UNL     1      -5.799   1.211 -32.430  1.00  0.00     0.097 C 
ENDROOT
BRANCH   1   2
HETATM    2  C   UNL     1      -5.707  -0.164 -33.081  1.00  0.00    -0.043 A 
HETATM    3  C   UNL     1      -6.809  -0.764 -33.711  1.00  0.00     0.011 A 
HETATM    4  C   UNL     1      -6.672  -1.991 -34.366  1.00  0.00     0.037 A 
HETATM    5  C   UNL     1      -5.429  -2.616 -34.433  1.00  0.00     0.068 A 
HETATM    6  C   UNL     1      -4.333  -2.051 -33.787  1.00  0.00     0.037 A 
HETATM    7  C   UNL     1      -4.471  -0.832 -33.117  1.00  0.00     0.011 A 
BRANCH   5   8
HETATM    8  O   UNL     1      -5.381  -3.800 -35.114  1.00  0.00    -0.356 OA
HETATM    9  C   UNL     1      -6.650  -4.446 -35.212  1.00  0.00     0.210 C 
ENDBRANCH   5   8
ENDBRANCH   1   2
BRANCH   1  10
HETATM   10  S   UNL     1      -6.009   2.544 -33.688  1.00  0.00    -0.080 SA
BRANCH  10  11
HETATM   11  C   UNL     1      -7.656   3.002 -33.545  1.00  0.00     0.190 A 
HETATM   12  N   UNL     1      -8.130   4.126 -33.073  1.00  0.00    -0.122 NA
HETATM   13  N   UNL     1      -9.497   4.042 -33.114  1.00  0.00    -0.129 NA
HETATM   14  C   UNL     1      -9.837   2.844 -33.565  1.00  0.00     0.162 A 
HETATM   15  N   UNL     1      -8.678   2.156 -33.845  1.00  0.00    -0.317 N 
HETATM   16  H   UNL     1      -8.593   1.222 -34.217  1.00  0.00     0.169 HD
BRANCH  14  17
HETATM   17  C   UNL     1     -11.199   2.341 -33.746  1.00  0.00     0.012 A 
HETATM   18  C   UNL     1     -11.432   0.956 -33.687  1.00  0.00     0.017 A 
HETATM   19  C   UNL     1     -12.714   0.430 -33.867  1.00  0.00     0.025 A 
HETATM   20  C   UNL     1     -13.782   1.286 -34.115  1.00  0.00     0.034 A 
HETATM   21 CL   UNL     1     -15.359   0.645 -34.347  1.00  0.00    -0.084 Cl
HETATM   22  C   UNL     1     -13.574   2.663 -34.182  1.00  0.00     0.025 A 
HETATM   23  C   UNL     1     -12.290   3.188 -33.997  1.00  0.00     0.017 A 
ENDBRANCH  14  17
ENDBRANCH  10  11
ENDBRANCH   1  10
BRANCH   1  24
HETATM   24  C   UNL     1      -4.688   1.372 -31.386  1.00  0.00     0.123 C 
BRANCH  24  25
HETATM   25  C   UNL     1      -4.053   2.742 -31.409  1.00  0.00     0.219 C 
HETATM   26  N   UNL     1      -4.663   3.670 -30.604  1.00  0.00    -0.361 N 
HETATM   27  H   UNL     1      -5.281   3.322 -29.866  1.00  0.00     0.162 HD
HETATM   28  O   UNL     1      -3.077   3.025 -32.105  1.00  0.00    -0.274 OA
BRANCH  26  29
HETATM   29  C   UNL     1      -4.325   5.073 -30.592  1.00  0.00     0.124 C 
BRANCH  29  30
HETATM   30  C   UNL     1      -5.229   5.943 -31.461  1.00  0.00     0.047 C 
BRANCH  30  31
HETATM   31  C   UNL     1      -4.871   6.060 -32.943  1.00  0.00     0.236 C 
BRANCH  31  32
HETATM   32  N   UNL     1      -3.401   5.936 -33.234  1.00  0.00    -0.067 N 
HETATM   33  H   UNL     1      -3.024   5.261 -32.533  1.00  0.00     0.280 HD
HETATM   34  C   UNL     1      -3.044   5.448 -34.625  1.00  0.00     0.261 C 
HETATM   35  C   UNL     1      -1.520   5.337 -34.758  1.00  0.00     0.195 C 
HETATM   36  O   UNL     1      -0.889   6.593 -34.488  1.00  0.00    -0.388 OA
HETATM   37  C   UNL     1      -1.156   7.034 -33.152  1.00  0.00     0.195 C 
HETATM   38  C   UNL     1      -2.660   7.235 -32.934  1.00  0.00     0.261 C 
ENDBRANCH  31  32
ENDBRANCH  30  31
ENDBRANCH  29  30
ENDBRANCH  26  29
ENDBRANCH  24  25
ENDBRANCH   1  24
TORSDOF 11
ENDMDL
MODEL 3
REMARK VINA RESULT:      -8.2      2.109      2.822
REMARK  11 active torsions:
REMARK  status: ('A' for Active; 'I' for Inactive)
REMARK    1  A    between atoms: O_2  and  C_3 
REMARK    2  A    between atoms: C_6  and  C_7 
REMARK    3  A    between atoms: C_7  and  S_8 
REMARK    4  A    between atoms: C_7  and  C_22 
REMARK    5  A    between atoms: S_8  and  C_9 
REMARK    6  A    between atoms: C_12  and  C_13 
REMARK    7  A    between atoms: C_22  and  C_23 
REMARK       I    between atoms: C_23  and  N_24 
REMARK    8  A    between atoms: N_24  and  C_25 
REMARK    9  A    between atoms: C_25  and  C_26 
REMARK   10  A    between atoms: C_26  and  C_27 
REMARK   11  A    between atoms: C_27  and  N_28 
ROOT
HETATM    1  C   UNL     1      -6.233   0.725 -31.989  1.00  0.00     0.097 C 
ENDROOT
BRANCH   1   2
HETATM    2  C   UNL     1      -5.998  -0.543 -32.801  1.00  0.00    -0.043 A 
HETATM    3  C   UNL     1      -7.025  -1.157 -33.536  1.00  0.00     0.011 A 
HETATM    4  C   UNL     1      -6.759  -2.274 -34.332  1.00  0.00     0.037 A 
HETATM    5  C   UNL     1      -5.462  -2.770 -34.434  1.00  0.00     0.068 A 
HETATM    6  C   UNL     1      -4.438  -2.194 -33.688  1.00  0.00     0.037 A 
HETATM    7  C   UNL     1      -4.704  -1.087 -32.878  1.00  0.00     0.011 A 
BRANCH   5   8
HETATM    8  O   UNL     1      -5.288  -3.850 -35.253  1.00  0.00    -0.356 OA
HETATM    9  C   UNL     1      -6.488  -4.592 -35.472  1.00  0.00     0.210 C 
ENDBRANCH   5   8
ENDBRANCH   1   2
BRANCH   1  10
HETATM   10  S   UNL     1      -4.944   0.947 -30.689  1.00  0.00    -0.080 SA
BRANCH  10  11
HETATM   11  C   UNL     1      -4.011   2.275 -31.242  1.00  0.00     0.190 A 
HETATM   12  N   UNL     1      -3.034   2.253 -32.110  1.00  0.00    -0.122 NA
HETATM   13  N   UNL     1      -2.555   3.532 -32.221  1.00  0.00    -0.129 NA
HETATM   14  C   UNL     1      -3.218   4.309 -31.378  1.00  0.00     0.162 A 
HETATM   15  N   UNL     1      -4.153   3.530 -30.735  1.00  0.00    -0.317 N 
HETATM   16  H   UNL     1      -4.826   3.824 -30.043  1.00  0.00     0.169 HD
BRANCH  14  17
HETATM   17  C   UNL     1      -3.006   5.742 -31.170  1.00  0.00     0.012 A 
HETATM   18  C   UNL     1      -3.961   6.653 -31.652  1.00  0.00     0.017 A 
HETATM   19  C   UNL     1      -3.793   8.031 -31.488  1.00  0.00     0.025 A 
HETATM   20  C   UNL     1      -2.661   8.516 -30.842  1.00  0.00     0.034 A 
HETATM   21 CL   UNL     1      -2.444  10.209 -30.646  1.00  0.00    -0.084 Cl
HETATM   22  C   UNL     1      -1.699   7.631 -30.358  1.00  0.00     0.025 A 
HETATM   23  C   UNL     1      -1.870   6.251 -30.519  1.00  0.00     0.017 A 
ENDBRANCH  14  17
ENDBRANCH  10  11
ENDBRANCH   1  10
BRANCH   1  24
HETATM   24  C   UNL     1      -7.705   0.813 -31.569  1.00  0.00     0.123 C 
BRANCH  24  25
HETATM   25  C   UNL     1      -8.142   2.222 -31.244  1.00  0.00     0.219 C 
HETATM   26  N   UNL     1      -9.400   2.322 -30.706  1.00  0.00    -0.361 N 
HETATM   27  H   UNL     1      -9.815   1.474 -30.312  1.00  0.00     0.162 HD
HETATM   28  O   UNL     1      -7.443   3.214 -31.457  1.00  0.00    -0.274 OA
BRANCH  26  29
HETATM   29  C   UNL     1     -10.078   3.574 -30.471  1.00  0.00     0.124 C 
BRANCH  29  30
HETATM   30  C   UNL     1     -10.876   4.090 -31.665  1.00  0.00     0.047 C 
BRANCH  30  31
HETATM   31  C   UNL     1     -12.374   3.788 -31.688  1.00  0.00     0.236 C 
BRANCH  31  32
HETATM   32  N   UNL     1     -12.758   2.640 -32.582  1.00  0.00    -0.067 N 
HETATM   33  H   UNL     1     -12.330   1.788 -32.157  1.00  0.00     0.280 HD
HETATM   34  C   UNL     1     -14.247   2.408 -32.753  1.00  0.00     0.261 C 
HETATM   35  C   UNL     1     -14.479   1.190 -33.655  1.00  0.00     0.195 C 
HETATM   36  O   UNL     1     -13.848   1.366 -34.928  1.00  0.00    -0.388 OA
HETATM   37  C   UNL     1     -12.430   1.515 -34.790  1.00  0.00     0.195 C 
HETATM   38  C   UNL     1     -12.089   2.749 -33.949  1.00  0.00     0.261 C 
ENDBRANCH  31  32
ENDBRANCH  30  31
ENDBRANCH  29  30
ENDBRANCH  26  29
ENDBRANCH  24  25
ENDBRANCH   1  24
TORSDOF 11
ENDMDL
MODEL 4
REMARK VINA RESULT:      -8.2      1.949      3.950
REMARK  11 active torsions:
REMARK  status: ('A' for Active; 'I' for Inactive)
REMARK    1  A    between atoms: O_2  and  C_3 
REMARK    2  A    between atoms: C_6  and  C_7 
REMARK    3  A    between atoms: C_7  and  S_8 
REMARK    4  A    between atoms: C_7  and  C_22 
REMARK    5  A    between atoms: S_8  and  C_9 
REMARK    6  A    between atoms: C_12  and  C_13 
REMARK    7  A    between atoms: C_22  and  C_23 
REMARK       I    between atoms: C_23  and  N_24 
REMARK    8  A    between atoms: N_24  and  C_25 
REMARK    9  A    between atoms: C_25  and  C_26 
REMARK   10  A    between atoms: C_26  and  C_27 
REMARK   11  A    between atoms: C_27  and  N_28 
ROOT
HETATM    1  C   UNL     1      -7.162   0.335 -34.173  1.00  0.00     0.097 C 
ENDROOT
BRANCH   1   2
HETATM    2  C   UNL     1      -6.423  -0.997 -34.192  1.00  0.00    -0.043 A 
HETATM    3  C   UNL     1      -7.002  -2.163 -34.721  1.00  0.00     0.011 A 
HETATM    4  C   UNL     1      -6.269  -3.350 -34.794  1.00  0.00     0.037 A 
HETATM    5  C   UNL     1      -4.941  -3.382 -34.377  1.00  0.00     0.068 A 
HETATM    6  C   UNL     1      -4.360  -2.245 -33.822  1.00  0.00     0.037 A 
HETATM    7  C   UNL     1      -5.096  -1.061 -33.731  1.00  0.00     0.011 A 
BRANCH   5   8
HETATM    8  O   UNL     1      -4.292  -4.578 -34.508  1.00  0.00    -0.356 OA
HETATM    9  C   UNL     1      -3.368  -4.837 -33.451  1.00  0.00     0.210 C 
ENDBRANCH   5   8
ENDBRANCH   1   2
BRANCH   1  10
HETATM   10  S   UNL     1      -6.917   1.223 -32.575  1.00  0.00    -0.080 SA
BRANCH  10  11
HETATM   11  C   UNL     1      -5.954   2.580 -32.990  1.00  0.00     0.190 A 
HETATM   12  N   UNL     1      -6.145   3.418 -33.976  1.00  0.00    -0.122 NA
HETATM   13  N   UNL     1      -5.113   4.318 -33.953  1.00  0.00    -0.129 NA
HETATM   14  C   UNL     1      -4.277   3.984 -32.980  1.00  0.00     0.162 A 
HETATM   15  N   UNL     1      -4.789   2.872 -32.351  1.00  0.00    -0.317 N 
HETATM   16  H   UNL     1      -4.399   2.380 -31.561  1.00  0.00     0.169 HD
BRANCH  14  17
HETATM   17  C   UNL     1      -3.037   4.676 -32.627  1.00  0.00     0.012 A 
HETATM   18  C   UNL     1      -2.777   4.971 -31.278  1.00  0.00     0.017 A 
HETATM   19  C   UNL     1      -1.612   5.641 -30.896  1.00  0.00     0.025 A 
HETATM   20  C   UNL     1      -0.692   6.031 -31.864  1.00  0.00     0.034 A 
HETATM   21 CL   UNL     1       0.738   6.865 -31.402  1.00  0.00    -0.084 Cl
HETATM   22  C   UNL     1      -0.930   5.752 -33.208  1.00  0.00     0.025 A 
HETATM   23  C   UNL     1      -2.096   5.077 -33.589  1.00  0.00     0.017 A 
ENDBRANCH  14  17
ENDBRANCH  10  11
ENDBRANCH   1  10
BRANCH   1  24
HETATM   24  C   UNL     1      -8.596   0.145 -34.681  1.00  0.00     0.123 C 
BRANCH  24  25
HETATM   25  C   UNL     1      -9.548   1.199 -34.166  1.00  0.00     0.219 C 
HETATM   26  N   UNL     1      -9.345   2.455 -34.680  1.00  0.00    -0.361 N 
HETATM   27  H   UNL     1      -8.795   2.530 -35.540  1.00  0.00     0.162 HD
HETATM   28  O   UNL     1     -10.428   0.969 -33.336  1.00  0.00    -0.274 OA
BRANCH  26  29
HETATM   29  C   UNL     1     -10.028   3.636 -34.212  1.00  0.00     0.124 C 
BRANCH  29  30
HETATM   30  C   UNL     1      -9.413   4.263 -32.963  1.00  0.00     0.047 C 
BRANCH  30  31
HETATM   31  C   UNL     1      -8.763   5.638 -33.119  1.00  0.00     0.236 C 
BRANCH  31  32
HETATM   32  N   UNL     1      -7.497   5.814 -32.327  1.00  0.00    -0.067 N 
HETATM   33  H   UNL     1      -6.784   5.203 -32.783  1.00  0.00     0.280 HD
HETATM   34  C   UNL     1      -6.956   7.229 -32.255  1.00  0.00     0.261 C 
HETATM   35  C   UNL     1      -5.650   7.242 -31.451  1.00  0.00     0.195 C 
HETATM   36  O   UNL     1      -5.851   6.713 -30.136  1.00  0.00    -0.388 OA
HETATM   37  C   UNL     1      -6.294   5.352 -30.184  1.00  0.00     0.195 C 
HETATM   38  C   UNL     1      -7.633   5.238 -30.920  1.00  0.00     0.261 C 
ENDBRANCH  31  32
ENDBRANCH  30  31
ENDBRANCH  29  30
ENDBRANCH  26  29
ENDBRANCH  24  25
ENDBRANCH   1  24
TORSDOF 11
ENDMDL
MODEL 5
REMARK VINA RESULT:      -8.1      3.715      7.161
REMARK  11 active torsions:
REMARK  status: ('A' for Active; 'I' for Inactive)
REMARK    1  A    between atoms: O_2  and  C_3 
REMARK    2  A    between atoms: C_6  and  C_7 
REMARK    3  A    between atoms: C_7  and  S_8 
REMARK    4  A    between atoms: C_7  and  C_22 
REMARK    5  A    between atoms: S_8  and  C_9 
REMARK    6  A    between atoms: C_12  and  C_13 
REMARK    7  A    between atoms: C_22  and  C_23 
REMARK       I    between atoms: C_23  and  N_24 
REMARK    8  A    between atoms: N_24  and  C_25 
REMARK    9  A    between atoms: C_25  and  C_26 
REMARK   10  A    between atoms: C_26  and  C_27 
REMARK   11  A    between atoms: C_27  and  N_28 
ROOT
HETATM    1  C   UNL     1      -5.365   4.404 -31.521  1.00  0.00     0.097 C 
ENDROOT
BRANCH   1   2
HETATM    2  C   UNL     1      -4.023   5.096 -31.727  1.00  0.00    -0.043 A 
HETATM    3  C   UNL     1      -3.494   5.991 -30.783  1.00  0.00     0.011 A 
HETATM    4  C   UNL     1      -2.226   6.549 -30.965  1.00  0.00     0.037 A 
HETATM    5  C   UNL     1      -1.455   6.195 -32.069  1.00  0.00     0.068 A 
HETATM    6  C   UNL     1      -1.975   5.333 -33.031  1.00  0.00     0.037 A 
HETATM    7  C   UNL     1      -3.250   4.787 -32.860  1.00  0.00     0.011 A 
BRANCH   5   8
HETATM    8  O   UNL     1      -0.218   6.769 -32.155  1.00  0.00    -0.356 OA
HETATM    9  C   UNL     1       0.470   6.818 -30.906  1.00  0.00     0.210 C 
ENDBRANCH   5   8
ENDBRANCH   1   2
BRANCH   1  10
HETATM   10  S   UNL     1      -5.239   3.034 -30.291  1.00  0.00    -0.080 SA
BRANCH  10  11
HETATM   11  C   UNL     1      -4.661   1.702 -31.202  1.00  0.00     0.190 A 
HETATM   12  N   UNL     1      -3.418   1.421 -31.498  1.00  0.00    -0.122 NA
HETATM   13  N   UNL     1      -3.427   0.291 -32.272  1.00  0.00    -0.129 NA
HETATM   14  C   UNL     1      -4.684  -0.074 -32.478  1.00  0.00     0.162 A 
HETATM   15  N   UNL     1      -5.495   0.814 -31.809  1.00  0.00    -0.317 N 
HETATM   16  H   UNL     1      -6.502   0.805 -31.755  1.00  0.00     0.169 HD
BRANCH  14  17
HETATM   17  C   UNL     1      -5.136  -1.221 -33.267  1.00  0.00     0.012 A 
HETATM   18  C   UNL     1      -4.224  -2.247 -33.567  1.00  0.00     0.017 A 
HETATM   19  C   UNL     1      -4.608  -3.355 -34.328  1.00  0.00     0.025 A 
HETATM   20  C   UNL     1      -5.911  -3.447 -34.805  1.00  0.00     0.034 A 
HETATM   21 CL   UNL     1      -6.386  -4.801 -35.750  1.00  0.00    -0.084 Cl
HETATM   22  C   UNL     1      -6.832  -2.439 -34.522  1.00  0.00     0.025 A 
HETATM   23  C   UNL     1      -6.447  -1.332 -33.756  1.00  0.00     0.017 A 
ENDBRANCH  14  17
ENDBRANCH  10  11
ENDBRANCH   1  10
BRANCH   1  24
HETATM   24  C   UNL     1      -6.011   4.100 -32.877  1.00  0.00     0.123 C 
BRANCH  24  25
HETATM   25  C   UNL     1      -7.243   4.932 -33.142  1.00  0.00     0.219 C 
HETATM   26  N   UNL     1      -7.871   5.402 -32.016  1.00  0.00    -0.361 N 
HETATM   27  H   UNL     1      -7.336   5.407 -31.144  1.00  0.00     0.162 HD
HETATM   28  O   UNL     1      -7.673   5.165 -34.273  1.00  0.00    -0.274 OA
BRANCH  26  29
HETATM   29  C   UNL     1      -9.145   6.078 -32.028  1.00  0.00     0.124 C 
BRANCH  29  30
HETATM   30  C   UNL     1     -10.352   5.144 -32.030  1.00  0.00     0.047 C 
BRANCH  30  31
HETATM   31  C   UNL     1     -10.362   4.014 -31.000  1.00  0.00     0.236 C 
BRANCH  31  32
HETATM   32  N   UNL     1     -10.370   2.634 -31.599  1.00  0.00    -0.067 N 
HETATM   33  H   UNL     1     -11.029   2.071 -31.018  1.00  0.00     0.280 HD
HETATM   34  C   UNL     1     -10.801   2.550 -33.051  1.00  0.00     0.261 C 
HETATM   35  C   UNL     1     -10.794   1.086 -33.507  1.00  0.00     0.195 C 
HETATM   36  O   UNL     1      -9.500   0.499 -33.331  1.00  0.00    -0.388 OA
HETATM   37  C   UNL     1      -9.108   0.505 -31.954  1.00  0.00     0.195 C 
HETATM   38  C   UNL     1      -9.025   1.938 -31.415  1.00  0.00     0.261 C 
ENDBRANCH  31  32
ENDBRANCH  30  31
ENDBRANCH  29  30
ENDBRANCH  26  29
ENDBRANCH  24  25
ENDBRANCH   1  24
TORSDOF 11
ENDMDL
MODEL 6
REMARK VINA RESULT:      -8.1      3.996      9.033
REMARK  11 active torsions:
REMARK  status: ('A' for Active; 'I' for Inactive)
REMARK    1  A    between atoms: O_2  and  C_3 
REMARK    2  A    between atoms: C_6  and  C_7 
REMARK    3  A    between atoms: C_7  and  S_8 
REMARK    4  A    between atoms: C_7  and  C_22 
REMARK    5  A    between atoms: S_8  and  C_9 
REMARK    6  A    between atoms: C_12  and  C_13 
REMARK    7  A    between atoms: C_22  and  C_23 
REMARK       I    between atoms: C_23  and  N_24 
REMARK    8  A    between atoms: N_24  and  C_25 
REMARK    9  A    between atoms: C_25  and  C_26 
REMARK   10  A    between atoms: C_26  and  C_27 
REMARK   11  A    between atoms: C_27  and  N_28 
ROOT
HETATM    1  C   UNL     1      -4.941   3.686 -32.301  1.00  0.00     0.097 C 
ENDROOT
BRANCH   1   2
HETATM    2  C   UNL     1      -3.654   4.495 -32.203  1.00  0.00    -0.043 A 
HETATM    3  C   UNL     1      -3.330   5.244 -31.059  1.00  0.00     0.011 A 
HETATM    4  C   UNL     1      -2.107   5.911 -30.970  1.00  0.00     0.037 A 
HETATM    5  C   UNL     1      -1.175   5.812 -32.001  1.00  0.00     0.068 A 
HETATM    6  C   UNL     1      -1.491   5.100 -33.155  1.00  0.00     0.037 A 
HETATM    7  C   UNL     1      -2.722   4.445 -33.254  1.00  0.00     0.011 A 
BRANCH   5   8
HETATM    8  O   UNL     1       0.005   6.477 -31.819  1.00  0.00    -0.356 OA
HETATM    9  C   UNL     1       0.142   7.036 -30.513  1.00  0.00     0.210 C 
ENDBRANCH   5   8
ENDBRANCH   1   2
BRANCH   1  10
HETATM   10  S   UNL     1      -6.050   4.335 -33.625  1.00  0.00    -0.080 SA
BRANCH  10  11
HETATM   11  C   UNL     1      -7.137   3.044 -33.934  1.00  0.00     0.190 A 
HETATM   12  N   UNL     1      -6.844   1.845 -34.364  1.00  0.00    -0.122 NA
HETATM   13  N   UNL     1      -8.023   1.161 -34.503  1.00  0.00    -0.129 NA
HETATM   14  C   UNL     1      -9.025   1.973 -34.201  1.00  0.00     0.162 A 
HETATM   15  N   UNL     1      -8.487   3.187 -33.838  1.00  0.00    -0.317 N 
HETATM   16  H   UNL     1      -8.982   4.013 -33.539  1.00  0.00     0.169 HD
BRANCH  14  17
HETATM   17  C   UNL     1     -10.449   1.642 -34.236  1.00  0.00     0.012 A 
HETATM   18  C   UNL     1     -11.310   2.398 -35.050  1.00  0.00     0.017 A 
HETATM   19  C   UNL     1     -12.679   2.126 -35.104  1.00  0.00     0.025 A 
HETATM   20  C   UNL     1     -13.208   1.093 -34.337  1.00  0.00     0.034 A 
HETATM   21 CL   UNL     1     -14.893   0.759 -34.391  1.00  0.00    -0.084 Cl
HETATM   22  C   UNL     1     -12.374   0.331 -33.519  1.00  0.00     0.025 A 
HETATM   23  C   UNL     1     -11.002   0.603 -33.469  1.00  0.00     0.017 A 
ENDBRANCH  14  17
ENDBRANCH  10  11
ENDBRANCH   1  10
BRANCH   1  24
HETATM   24  C   UNL     1      -5.534   3.474 -30.903  1.00  0.00     0.123 C 
BRANCH  24  25
HETATM   25  C   UNL     1      -5.809   2.021 -30.594  1.00  0.00     0.219 C 
HETATM   26  N   UNL     1      -5.356   1.139 -31.542  1.00  0.00    -0.361 N 
HETATM   27  H   UNL     1      -4.651   1.475 -32.203  1.00  0.00     0.162 HD
HETATM   28  O   UNL     1      -6.407   1.644 -29.586  1.00  0.00    -0.274 OA
BRANCH  26  29
HETATM   29  C   UNL     1      -5.648  -0.274 -31.531  1.00  0.00     0.124 C 
BRANCH  29  30
HETATM   30  C   UNL     1      -4.704  -1.116 -32.386  1.00  0.00     0.047 C 
BRANCH  30  31
HETATM   31  C   UNL     1      -4.997  -1.191 -33.885  1.00  0.00     0.236 C 
BRANCH  31  32
HETATM   32  N   UNL     1      -4.920  -2.579 -34.459  1.00  0.00    -0.067 N 
HETATM   33  H   UNL     1      -4.492  -2.476 -35.406  1.00  0.00     0.280 HD
HETATM   34  C   UNL     1      -4.107  -3.578 -33.659  1.00  0.00     0.261 C 
HETATM   35  C   UNL     1      -4.089  -4.929 -34.385  1.00  0.00     0.195 C 
HETATM   36  O   UNL     1      -5.419  -5.416 -34.595  1.00  0.00    -0.388 OA
HETATM   37  C   UNL     1      -6.180  -4.518 -35.410  1.00  0.00     0.195 C 
HETATM   38  C   UNL     1      -6.309  -3.146 -34.739  1.00  0.00     0.261 C 
ENDBRANCH  31  32
ENDBRANCH  30  31
ENDBRANCH  29  30
ENDBRANCH  26  29
ENDBRANCH  24  25
ENDBRANCH   1  24
TORSDOF 11
ENDMDL
MODEL 7
REMARK VINA RESULT:      -8.0      3.595      6.896
REMARK  11 active torsions:
REMARK  status: ('A' for Active; 'I' for Inactive)
REMARK    1  A    between atoms: O_2  and  C_3 
REMARK    2  A    between atoms: C_6  and  C_7 
REMARK    3  A    between atoms: C_7  and  S_8 
REMARK    4  A    between atoms: C_7  and  C_22 
REMARK    5  A    between atoms: S_8  and  C_9 
REMARK    6  A    between atoms: C_12  and  C_13 
REMARK    7  A    between atoms: C_22  and  C_23 
REMARK       I    between atoms: C_23  and  N_24 
REMARK    8  A    between atoms: N_24  and  C_25 
REMARK    9  A    between atoms: C_25  and  C_26 
REMARK   10  A    between atoms: C_26  and  C_27 
REMARK   11  A    between atoms: C_27  and  N_28 
ROOT
HETATM    1  C   UNL     1      -5.419   4.642 -32.208  1.00  0.00     0.097 C 
ENDROOT
BRANCH   1   2
HETATM    2  C   UNL     1      -4.035   5.279 -32.235  1.00  0.00    -0.043 A 
HETATM    3  C   UNL     1      -3.486   5.816 -33.411  1.00  0.00     0.011 A 
HETATM    4  C   UNL     1      -2.247   6.462 -33.385  1.00  0.00     0.037 A 
HETATM    5  C   UNL     1      -1.559   6.614 -32.184  1.00  0.00     0.068 A 
HETATM    6  C   UNL     1      -2.074   6.061 -31.015  1.00  0.00     0.037 A 
HETATM    7  C   UNL     1      -3.304   5.399 -31.040  1.00  0.00     0.011 A 
BRANCH   5   8
HETATM    8  O   UNL     1      -0.367   7.280 -32.248  1.00  0.00    -0.356 OA
HETATM    9  C   UNL     1       0.528   6.937 -31.190  1.00  0.00     0.210 C 
ENDBRANCH   5   8
ENDBRANCH   1   2
BRANCH   1  10
HETATM   10  S   UNL     1      -5.559   3.378 -30.871  1.00  0.00    -0.080 SA
BRANCH  10  11
HETATM   11  C   UNL     1      -4.934   1.946 -31.579  1.00  0.00     0.190 A 
HETATM   12  N   UNL     1      -3.680   1.594 -31.684  1.00  0.00    -0.122 NA
HETATM   13  N   UNL     1      -3.645   0.397 -32.350  1.00  0.00    -0.129 NA
HETATM   14  C   UNL     1      -4.882   0.061 -32.687  1.00  0.00     0.162 A 
HETATM   15  N   UNL     1      -5.726   1.037 -32.210  1.00  0.00    -0.317 N 
HETATM   16  H   UNL     1      -6.732   1.071 -32.288  1.00  0.00     0.169 HD
BRANCH  14  17
HETATM   17  C   UNL     1      -5.284  -1.136 -33.425  1.00  0.00     0.012 A 
HETATM   18  C   UNL     1      -4.316  -2.104 -33.742  1.00  0.00     0.017 A 
HETATM   19  C   UNL     1      -4.652  -3.257 -34.457  1.00  0.00     0.025 A 
HETATM   20  C   UNL     1      -5.965  -3.454 -34.869  1.00  0.00     0.034 A 
HETATM   21 CL   UNL     1      -6.384  -4.865 -35.757  1.00  0.00    -0.084 Cl
HETATM   22  C   UNL     1      -6.943  -2.506 -34.569  1.00  0.00     0.025 A 
HETATM   23  C   UNL     1      -6.605  -1.354 -33.849  1.00  0.00     0.017 A 
ENDBRANCH  14  17
ENDBRANCH  10  11
ENDBRANCH   1  10
BRANCH   1  24
HETATM   24  C   UNL     1      -5.839   4.241 -33.627  1.00  0.00     0.123 C 
BRANCH  24  25
HETATM   25  C   UNL     1      -7.329   4.345 -33.852  1.00  0.00     0.219 C 
HETATM   26  N   UNL     1      -8.023   3.180 -33.645  1.00  0.00    -0.361 N 
HETATM   27  H   UNL     1      -7.561   2.444 -33.103  1.00  0.00     0.162 HD
HETATM   28  O   UNL     1      -7.889   5.382 -34.211  1.00  0.00    -0.274 OA
BRANCH  26  29
HETATM   29  C   UNL     1      -9.422   3.009 -33.954  1.00  0.00     0.124 C 
BRANCH  29  30
HETATM   30  C   UNL     1     -10.295   2.679 -32.746  1.00  0.00     0.047 C 
BRANCH  30  31
HETATM   31  C   UNL     1     -11.714   3.249 -32.733  1.00  0.00     0.236 C 
BRANCH  31  32
HETATM   32  N   UNL     1     -12.797   2.206 -32.774  1.00  0.00    -0.067 N 
HETATM   33  H   UNL     1     -12.748   1.703 -31.861  1.00  0.00     0.280 HD
HETATM   34  C   UNL     1     -14.207   2.729 -32.972  1.00  0.00     0.261 C 
HETATM   35  C   UNL     1     -15.198   1.559 -32.956  1.00  0.00     0.195 C 
HETATM   36  O   UNL     1     -14.872   0.596 -33.964  1.00  0.00    -0.388 OA
HETATM   37  C   UNL     1     -13.571   0.038 -33.750  1.00  0.00     0.195 C 
HETATM   38  C   UNL     1     -12.493   1.126 -33.809  1.00  0.00     0.261 C 
ENDBRANCH  31  32
ENDBRANCH  30  31
ENDBRANCH  29  30
ENDBRANCH  26  29
ENDBRANCH  24  25
ENDBRANCH   1  24
TORSDOF 11
ENDMDL
MODEL 8
REMARK VINA RESULT:      -8.0      3.442      6.259
REMARK  11 active torsions:
REMARK  status: ('A' for Active; 'I' for Inactive)
REMARK    1  A    between atoms: O_2  and  C_3 
REMARK    2  A    between atoms: C_6  and  C_7 
REMARK    3  A    between atoms: C_7  and  S_8 
REMARK    4  A    between atoms: C_7  and  C_22 
REMARK    5  A    between atoms: S_8  and  C_9 
REMARK    6  A    between atoms: C_12  and  C_13 
REMARK    7  A    between atoms: C_22  and  C_23 
REMARK       I    between atoms: C_23  and  N_24 
REMARK    8  A    between atoms: N_24  and  C_25 
REMARK    9  A    between atoms: C_25  and  C_26 
REMARK   10  A    between atoms: C_26  and  C_27 
REMARK   11  A    between atoms: C_27  and  N_28 
ROOT
HETATM    1  C   UNL     1      -6.598   4.623 -31.237  1.00  0.00     0.097 C 
ENDROOT
BRANCH   1   2
HETATM    2  C   UNL     1      -5.597   4.928 -32.344  1.00  0.00    -0.043 A 
HETATM    3  C   UNL     1      -4.404   5.627 -32.097  1.00  0.00     0.011 A 
HETATM    4  C   UNL     1      -3.471   5.822 -33.118  1.00  0.00     0.037 A 
HETATM    5  C   UNL     1      -3.696   5.292 -34.387  1.00  0.00     0.068 A 
HETATM    6  C   UNL     1      -4.886   4.624 -34.658  1.00  0.00     0.037 A 
HETATM    7  C   UNL     1      -5.830   4.441 -33.643  1.00  0.00     0.011 A 
BRANCH   5   8
HETATM    8  O   UNL     1      -2.720   5.511 -35.318  1.00  0.00    -0.356 OA
HETATM    9  C   UNL     1      -1.404   5.253 -34.827  1.00  0.00     0.210 C 
ENDBRANCH   5   8
ENDBRANCH   1   2
BRANCH   1  10
HETATM   10  S   UNL     1      -5.946   3.358 -30.062  1.00  0.00    -0.080 SA
BRANCH  10  11
HETATM   11  C   UNL     1      -5.219   2.179 -31.074  1.00  0.00     0.190 A 
HETATM   12  N   UNL     1      -3.986   2.156 -31.507  1.00  0.00    -0.122 NA
HETATM   13  N   UNL     1      -3.856   1.056 -32.314  1.00  0.00    -0.129 NA
HETATM   14  C   UNL     1      -5.031   0.450 -32.400  1.00  0.00     0.162 A 
HETATM   15  N   UNL     1      -5.923   1.151 -31.620  1.00  0.00    -0.317 N 
HETATM   16  H   UNL     1      -6.896   0.940 -31.461  1.00  0.00     0.169 HD
BRANCH  14  17
HETATM   17  C   UNL     1      -5.330  -0.753 -33.176  1.00  0.00     0.012 A 
HETATM   18  C   UNL     1      -4.279  -1.608 -33.549  1.00  0.00     0.017 A 
HETATM   19  C   UNL     1      -4.516  -2.761 -34.301  1.00  0.00     0.025 A 
HETATM   20  C   UNL     1      -5.813  -3.073 -34.695  1.00  0.00     0.034 A 
HETATM   21 CL   UNL     1      -6.111  -4.485 -35.629  1.00  0.00    -0.084 Cl
HETATM   22  C   UNL     1      -6.872  -2.239 -34.340  1.00  0.00     0.025 A 
HETATM   23  C   UNL     1      -6.633  -1.085 -33.582  1.00  0.00     0.017 A 
ENDBRANCH  14  17
ENDBRANCH  10  11
ENDBRANCH   1  10
BRANCH   1  24
HETATM   24  C   UNL     1      -7.991   4.401 -31.837  1.00  0.00     0.123 C 
BRANCH  24  25
HETATM   25  C   UNL     1      -8.682   3.177 -31.283  1.00  0.00     0.219 C 
HETATM   26  N   UNL     1      -8.684   2.091 -32.122  1.00  0.00    -0.361 N 
HETATM   27  H   UNL     1      -8.008   2.086 -32.890  1.00  0.00     0.162 HD
HETATM   28  O   UNL     1      -9.223   3.146 -30.177  1.00  0.00    -0.274 OA
BRANCH  26  29
HETATM   29  C   UNL     1      -9.420   0.877 -31.866  1.00  0.00     0.124 C 
BRANCH  29  30
HETATM   30  C   UNL     1     -10.118   0.296 -33.093  1.00  0.00     0.047 C 
BRANCH  30  31
HETATM   31  C   UNL     1     -10.641   1.286 -34.134  1.00  0.00     0.236 C 
BRANCH  31  32
HETATM   32  N   UNL     1     -12.111   1.582 -34.018  1.00  0.00    -0.067 N 
HETATM   33  H   UNL     1     -12.403   1.960 -34.947  1.00  0.00     0.280 HD
HETATM   34  C   UNL     1     -12.995   0.400 -33.670  1.00  0.00     0.261 C 
HETATM   35  C   UNL     1     -14.462   0.847 -33.625  1.00  0.00     0.195 C 
HETATM   36  O   UNL     1     -14.646   1.908 -32.682  1.00  0.00    -0.388 OA
HETATM   37  C   UNL     1     -13.872   3.060 -33.037  1.00  0.00     0.195 C 
HETATM   38  C   UNL     1     -12.376   2.731 -33.050  1.00  0.00     0.261 C 
ENDBRANCH  31  32
ENDBRANCH  30  31
ENDBRANCH  29  30
ENDBRANCH  26  29
ENDBRANCH  24  25
ENDBRANCH   1  24
TORSDOF 11
ENDMDL
MODEL 9
REMARK VINA RESULT:      -7.9      3.560      6.531
REMARK  11 active torsions:
REMARK  status: ('A' for Active; 'I' for Inactive)
REMARK    1  A    between atoms: O_2  and  C_3 
REMARK    2  A    between atoms: C_6  and  C_7 
REMARK    3  A    between atoms: C_7  and  S_8 
REMARK    4  A    between atoms: C_7  and  C_22 
REMARK    5  A    between atoms: S_8  and  C_9 
REMARK    6  A    between atoms: C_12  and  C_13 
REMARK    7  A    between atoms: C_22  and  C_23 
REMARK       I    between atoms: C_23  and  N_24 
REMARK    8  A    between atoms: N_24  and  C_25 
REMARK    9  A    between atoms: C_25  and  C_26 
REMARK   10  A    between atoms: C_26  and  C_27 
REMARK   11  A    between atoms: C_27  and  N_28 
ROOT
HETATM    1  C   UNL     1      -6.994   4.850 -32.615  1.00  0.00     0.097 C 
ENDROOT
BRANCH   1   2
HETATM    2  C   UNL     1      -5.642   5.301 -33.154  1.00  0.00    -0.043 A 
HETATM    3  C   UNL     1      -4.786   6.134 -32.415  1.00  0.00     0.011 A 
HETATM    4  C   UNL     1      -3.521   6.466 -32.904  1.00  0.00     0.037 A 
HETATM    5  C   UNL     1      -3.077   5.944 -34.117  1.00  0.00     0.068 A 
HETATM    6  C   UNL     1      -3.923   5.143 -34.878  1.00  0.00     0.037 A 
HETATM    7  C   UNL     1      -5.196   4.822 -34.399  1.00  0.00     0.011 A 
BRANCH   5   8
HETATM    8  O   UNL     1      -1.817   6.302 -34.507  1.00  0.00    -0.356 OA
HETATM    9  C   UNL     1      -1.064   6.934 -33.473  1.00  0.00     0.210 C 
ENDBRANCH   5   8
ENDBRANCH   1   2
BRANCH   1  10
HETATM   10  S   UNL     1      -6.806   3.765 -31.134  1.00  0.00    -0.080 SA
BRANCH  10  11
HETATM   11  C   UNL     1      -5.929   2.410 -31.714  1.00  0.00     0.190 A 
HETATM   12  N   UNL     1      -4.632   2.243 -31.712  1.00  0.00    -0.122 NA
HETATM   13  N   UNL     1      -4.374   1.035 -32.304  1.00  0.00    -0.129 NA
HETATM   14  C   UNL     1      -5.521   0.504 -32.705  1.00  0.00     0.162 A 
HETATM   15  N   UNL     1      -6.531   1.365 -32.344  1.00  0.00    -0.317 N 
HETATM   16  H   UNL     1      -7.522   1.246 -32.493  1.00  0.00     0.169 HD
BRANCH  14  17
HETATM   17  C   UNL     1      -5.688  -0.774 -33.398  1.00  0.00     0.012 A 
HETATM   18  C   UNL     1      -4.558  -1.567 -33.658  1.00  0.00     0.017 A 
HETATM   19  C   UNL     1      -4.669  -2.788 -34.328  1.00  0.00     0.025 A 
HETATM   20  C   UNL     1      -5.917  -3.229 -34.754  1.00  0.00     0.034 A 
HETATM   21 CL   UNL     1      -6.059  -4.725 -35.589  1.00  0.00    -0.084 Cl
HETATM   22  C   UNL     1      -7.053  -2.458 -34.511  1.00  0.00     0.025 A 
HETATM   23  C   UNL     1      -6.940  -1.237 -33.836  1.00  0.00     0.017 A 
ENDBRANCH  14  17
ENDBRANCH  10  11
ENDBRANCH   1  10
BRANCH   1  24
HETATM   24  C   UNL     1      -7.877   4.354 -33.766  1.00  0.00     0.123 C 
BRANCH  24  25
HETATM   25  C   UNL     1      -9.034   5.279 -34.061  1.00  0.00     0.219 C 
HETATM   26  N   UNL     1      -9.748   5.674 -32.958  1.00  0.00    -0.361 N 
HETATM   27  H   UNL     1      -9.303   5.563 -32.042  1.00  0.00     0.162 HD
HETATM   28  O   UNL     1      -9.336   5.644 -35.197  1.00  0.00    -0.274 OA
BRANCH  26  29
HETATM   29  C   UNL     1     -10.980   6.422 -33.021  1.00  0.00     0.124 C 
BRANCH  29  30
HETATM   30  C   UNL     1     -12.237   5.578 -32.831  1.00  0.00     0.047 C 
BRANCH  30  31
HETATM   31  C   UNL     1     -13.039   5.226 -34.084  1.00  0.00     0.236 C 
BRANCH  31  32
HETATM   32  N   UNL     1     -13.223   3.749 -34.303  1.00  0.00    -0.067 N 
HETATM   33  H   UNL     1     -14.065   3.650 -34.911  1.00  0.00     0.280 HD
HETATM   34  C   UNL     1     -12.059   3.030 -34.956  1.00  0.00     0.261 C 
HETATM   35  C   UNL     1     -12.407   1.549 -35.146  1.00  0.00     0.195 C 
HETATM   36  O   UNL     1     -12.739   0.935 -33.895  1.00  0.00    -0.388 OA
HETATM   37  C   UNL     1     -13.883   1.557 -33.298  1.00  0.00     0.195 C 
HETATM   38  C   UNL     1     -13.613   3.037 -33.010  1.00  0.00     0.261 C 
ENDBRANCH  31  32
ENDBRANCH  30  31
ENDBRANCH  29  30
ENDBRANCH  26  29
ENDBRANCH  24  25
ENDBRANCH   1  24
TORSDOF 11
ENDMDL
MODEL 10
REMARK VINA RESULT:      -7.9      3.421      8.973
REMARK  11 active torsions:
REMARK  status: ('A' for Active; 'I' for Inactive)
REMARK    1  A    between atoms: O_2  and  C_3 
REMARK    2  A    between atoms: C_6  and  C_7 
REMARK    3  A    between atoms: C_7  and  S_8 
REMARK    4  A    between atoms: C_7  and  C_22 
REMARK    5  A    between atoms: S_8  and  C_9 
REMARK    6  A    between atoms: C_12  and  C_13 
REMARK    7  A    between atoms: C_22  and  C_23 
REMARK       I    between atoms: C_23  and  N_24 
REMARK    8  A    between atoms: N_24  and  C_25 
REMARK    9  A    between atoms: C_25  and  C_26 
REMARK   10  A    between atoms: C_26  and  C_27 
REMARK   11  A    between atoms: C_27  and  N_28 
ROOT
HETATM    1  C   UNL     1     -10.662   3.130 -33.218  1.00  0.00     0.097 C 
ENDROOT
BRANCH   1   2
HETATM    2  C   UNL     1     -12.118   2.698 -33.103  1.00  0.00    -0.043 A 
HETATM    3  C   UNL     1     -13.061   3.445 -32.377  1.00  0.00     0.011 A 
HETATM    4  C   UNL     1     -14.404   3.064 -32.355  1.00  0.00     0.037 A 
HETATM    5  C   UNL     1     -14.833   1.958 -33.085  1.00  0.00     0.068 A 
HETATM    6  C   UNL     1     -13.908   1.188 -33.785  1.00  0.00     0.037 A 
HETATM    7  C   UNL     1     -12.560   1.557 -33.795  1.00  0.00     0.011 A 
BRANCH   5   8
HETATM    8  O   UNL     1     -16.168   1.672 -33.026  1.00  0.00    -0.356 OA
HETATM    9  C   UNL     1     -16.888   2.518 -32.130  1.00  0.00     0.210 C 
ENDBRANCH   5   8
ENDBRANCH   1   2
BRANCH   1  10
HETATM   10  S   UNL     1      -9.566   2.115 -32.134  1.00  0.00    -0.080 SA
BRANCH  10  11
HETATM   11  C   UNL     1      -8.679   1.138 -33.229  1.00  0.00     0.190 A 
HETATM   12  N   UNL     1      -8.797   1.095 -34.530  1.00  0.00    -0.122 NA
HETATM   13  N   UNL     1      -7.920   0.148 -34.990  1.00  0.00    -0.129 NA
HETATM   14  C   UNL     1      -7.314  -0.410 -33.952  1.00  0.00     0.162 A 
HETATM   15  N   UNL     1      -7.784   0.201 -32.813  1.00  0.00    -0.317 N 
HETATM   16  H   UNL     1      -7.511   0.016 -31.859  1.00  0.00     0.169 HD
BRANCH  14  17
HETATM   17  C   UNL     1      -6.315  -1.478 -34.004  1.00  0.00     0.012 A 
HETATM   18  C   UNL     1      -6.646  -2.698 -34.616  1.00  0.00     0.017 A 
HETATM   19  C   UNL     1      -5.728  -3.750 -34.677  1.00  0.00     0.025 A 
HETATM   20  C   UNL     1      -4.464  -3.595 -34.118  1.00  0.00     0.034 A 
HETATM   21 CL   UNL     1      -3.334  -4.888 -34.180  1.00  0.00    -0.084 Cl
HETATM   22  C   UNL     1      -4.113  -2.394 -33.503  1.00  0.00     0.025 A 
HETATM   23  C   UNL     1      -5.033  -1.340 -33.447  1.00  0.00     0.017 A 
ENDBRANCH  14  17
ENDBRANCH  10  11
ENDBRANCH   1  10
BRANCH   1  24
HETATM   24  C   UNL     1     -10.559   4.656 -33.122  1.00  0.00     0.123 C 
BRANCH  24  25
HETATM   25  C   UNL     1      -9.210   5.184 -33.553  1.00  0.00     0.219 C 
HETATM   26  N   UNL     1      -8.422   5.646 -32.530  1.00  0.00    -0.361 N 
HETATM   27  H   UNL     1      -8.660   5.351 -31.579  1.00  0.00     0.162 HD
HETATM   28  O   UNL     1      -8.842   5.220 -34.728  1.00  0.00    -0.274 OA
BRANCH  26  29
HETATM   29  C   UNL     1      -7.170   6.336 -32.727  1.00  0.00     0.124 C 
BRANCH  29  30
HETATM   30  C   UNL     1      -6.014   5.787 -31.895  1.00  0.00     0.047 C 
BRANCH  30  31
HETATM   31  C   UNL     1      -5.042   4.833 -32.592  1.00  0.00     0.236 C 
BRANCH  31  32
HETATM   32  N   UNL     1      -3.708   5.445 -32.919  1.00  0.00    -0.067 N 
HETATM   33  H   UNL     1      -2.999   4.889 -32.392  1.00  0.00     0.280 HD
HETATM   34  C   UNL     1      -3.331   5.454 -34.388  1.00  0.00     0.261 C 
HETATM   35  C   UNL     1      -1.937   6.070 -34.560  1.00  0.00     0.195 C 
HETATM   36  O   UNL     1      -1.892   7.396 -34.021  1.00  0.00    -0.388 OA
HETATM   37  C   UNL     1      -2.175   7.397 -32.616  1.00  0.00     0.195 C 
HETATM   38  C   UNL     1      -3.581   6.852 -32.342  1.00  0.00     0.261 C 
ENDBRANCH  31  32
ENDBRANCH  30  31
ENDBRANCH  29  30
ENDBRANCH  26  29
ENDBRANCH  24  25
ENDBRANCH   1  24
TORSDOF 11
ENDMDL
