MODEL 1
REMARK VINA RESULT:      -9.4      0.000      0.000
REMARK  5 active torsions:
REMARK  status: ('A' for Active; 'I' for Inactive)
REMARK    1  A    between atoms: C_2  and  C_3 
REMARK    2  A    between atoms: C_6  and  N_7 
REMARK       I    between atoms: N_7  and  C_8 
REMARK    3  A    between atoms: C_8  and  C_9 
REMARK    4  A    between atoms: C_17  and  C_18 
REMARK    5  A    between atoms: C_21  and  O_22 
ROOT
HETATM    1  C   UNL     1      -6.338   1.156 -33.077  1.00  0.00     0.047 A 
HETATM    2  C   UNL     1      -5.964  -0.136 -33.520  1.00  0.00     0.008 A 
HETATM    3  C   UNL     1      -6.968  -0.872 -34.172  1.00  0.00     0.068 A 
HETATM    4  C   UNL     1      -6.665  -2.132 -34.671  1.00  0.00     0.032 A 
HETATM    5  C   UNL     1      -5.404  -2.708 -34.517  1.00  0.00     0.002 A 
HETATM    6  C   UNL     1      -4.415  -2.017 -33.834  1.00  0.00     0.001 A 
HETATM    7  C   UNL     1      -4.693  -0.747 -33.332  1.00  0.00     0.015 A 
HETATM    8  N   UNL     1      -8.224  -0.426 -34.319  1.00  0.00    -0.248 NA
HETATM    9  C   UNL     1      -8.589   0.773 -33.800  1.00  0.00     0.068 A 
HETATM   10  C   UNL     1      -7.657   1.601 -33.198  1.00  0.00     0.050 A 
ENDROOT
BRANCH   1  11
HETATM   11  C   UNL     1      -5.393   2.089 -32.409  1.00  0.00     0.257 C 
HETATM   12  N   UNL     1      -5.137   3.258 -33.102  1.00  0.00    -0.323 N 
HETATM   13  H   UNL     1      -5.669   3.412 -33.951  1.00  0.00     0.169 HD
HETATM   14  O   UNL     1      -4.946   1.763 -31.316  1.00  0.00    -0.267 OA
BRANCH  12  15
HETATM   15  C   UNL     1      -4.124   4.201 -32.827  1.00  0.00     0.035 A 
HETATM   16  C   UNL     1      -2.764   3.968 -33.036  1.00  0.00     0.030 A 
HETATM   17  C   UNL     1      -1.828   4.987 -32.826  1.00  0.00     0.017 A 
HETATM   18  C   UNL     1      -2.244   6.258 -32.422  1.00  0.00     0.009 A 
HETATM   19  C   UNL     1      -3.600   6.489 -32.173  1.00  0.00     0.017 A 
HETATM   20  C   UNL     1      -4.531   5.461 -32.368  1.00  0.00     0.030 A 
BRANCH  18  21
HETATM   21  C   UNL     1      -1.223   7.332 -32.284  1.00  0.00     0.155 C 
HETATM   22  C   UNL     1       0.075   7.008 -31.592  1.00  0.00     0.096 C 
HETATM   23  O   UNL     1      -1.456   8.457 -32.721  1.00  0.00    -0.293 OA
ENDBRANCH  18  21
ENDBRANCH  12  15
ENDBRANCH   1  11
BRANCH   9  24
HETATM   24  C   UNL     1     -10.031   1.091 -33.888  1.00  0.00    -0.007 A 
HETATM   25  C   UNL     1     -11.023   0.231 -33.384  1.00  0.00     0.016 A 
HETATM   26  C   UNL     1     -12.384   0.524 -33.531  1.00  0.00     0.037 A 
HETATM   27  C   UNL     1     -12.799   1.678 -34.195  1.00  0.00     0.068 A 
HETATM   28  C   UNL     1     -11.837   2.554 -34.688  1.00  0.00     0.037 A 
HETATM   29  C   UNL     1     -10.474   2.260 -34.536  1.00  0.00     0.016 A 
BRANCH  27  30
HETATM   30  O   UNL     1     -14.153   1.832 -34.292  1.00  0.00    -0.356 OA
HETATM   31  C   UNL     1     -14.932   0.642 -34.280  1.00  0.00     0.210 C 
ENDBRANCH  27  30
ENDBRANCH   9  24
TORSDOF 5
ENDMDL
MODEL 2
REMARK VINA RESULT:      -9.3      1.696      8.927
REMARK  5 active torsions:
REMARK  status: ('A' for Active; 'I' for Inactive)
REMARK    1  A    between atoms: C_2  and  C_3 
REMARK    2  A    between atoms: C_6  and  N_7 
REMARK       I    between atoms: N_7  and  C_8 
REMARK    3  A    between atoms: C_8  and  C_9 
REMARK    4  A    between atoms: C_17  and  C_18 
REMARK    5  A    between atoms: C_21  and  O_22 
ROOT
HETATM    1  C   UNL     1      -6.993   0.685 -33.746  1.00  0.00     0.047 A 
HETATM    2  C   UNL     1      -6.222  -0.492 -33.912  1.00  0.00     0.008 A 
HETATM    3  C   UNL     1      -4.914  -0.440 -33.402  1.00  0.00     0.068 A 
HETATM    4  C   UNL     1      -4.110  -1.568 -33.491  1.00  0.00     0.032 A 
HETATM    5  C   UNL     1      -4.547  -2.745 -34.101  1.00  0.00     0.002 A 
HETATM    6  C   UNL     1      -5.816  -2.798 -34.654  1.00  0.00     0.001 A 
HETATM    7  C   UNL     1      -6.645  -1.680 -34.569  1.00  0.00     0.015 A 
HETATM    8  N   UNL     1      -4.387   0.662 -32.848  1.00  0.00    -0.248 NA
HETATM    9  C   UNL     1      -5.108   1.810 -32.788  1.00  0.00     0.068 A 
HETATM   10  C   UNL     1      -6.428   1.842 -33.203  1.00  0.00     0.050 A 
ENDROOT
BRANCH   1  11
HETATM   11  C   UNL     1      -8.410   0.795 -34.184  1.00  0.00     0.257 C 
HETATM   12  N   UNL     1      -9.272   1.335 -33.247  1.00  0.00    -0.323 N 
HETATM   13  H   UNL     1      -8.856   1.681 -32.389  1.00  0.00     0.169 HD
HETATM   14  O   UNL     1      -8.687   0.424 -35.318  1.00  0.00    -0.267 OA
BRANCH  12  15
HETATM   15  C   UNL     1     -10.682   1.344 -33.299  1.00  0.00     0.035 A 
HETATM   16  C   UNL     1     -11.451   2.505 -33.386  1.00  0.00     0.030 A 
HETATM   17  C   UNL     1     -12.841   2.427 -33.528  1.00  0.00     0.017 A 
HETATM   18  C   UNL     1     -13.476   1.184 -33.604  1.00  0.00     0.009 A 
HETATM   19  C   UNL     1     -12.718   0.018 -33.479  1.00  0.00     0.017 A 
HETATM   20  C   UNL     1     -11.328   0.101 -33.319  1.00  0.00     0.030 A 
BRANCH  18  21
HETATM   21  C   UNL     1     -14.947   1.148 -33.830  1.00  0.00     0.155 C 
HETATM   22  C   UNL     1     -15.848   1.817 -32.824  1.00  0.00     0.096 C 
HETATM   23  O   UNL     1     -15.400   0.571 -34.816  1.00  0.00    -0.293 OA
ENDBRANCH  18  21
ENDBRANCH  12  15
ENDBRANCH   1  11
BRANCH   9  24
HETATM   24  C   UNL     1      -4.374   2.997 -32.299  1.00  0.00    -0.007 A 
HETATM   25  C   UNL     1      -2.978   3.117 -32.414  1.00  0.00     0.016 A 
HETATM   26  C   UNL     1      -2.297   4.223 -31.890  1.00  0.00     0.037 A 
HETATM   27  C   UNL     1      -2.986   5.238 -31.227  1.00  0.00     0.068 A 
HETATM   28  C   UNL     1      -4.369   5.151 -31.115  1.00  0.00     0.037 A 
HETATM   29  C   UNL     1      -5.049   4.043 -31.642  1.00  0.00     0.016 A 
BRANCH  27  30
HETATM   30  O   UNL     1      -2.200   6.246 -30.742  1.00  0.00    -0.356 OA
HETATM   31  C   UNL     1      -0.855   5.909 -30.424  1.00  0.00     0.210 C 
ENDBRANCH  27  30
ENDBRANCH   9  24
TORSDOF 5
ENDMDL
MODEL 3
REMARK VINA RESULT:      -9.0      2.040      5.432
REMARK  5 active torsions:
REMARK  status: ('A' for Active; 'I' for Inactive)
REMARK    1  A    between atoms: C_2  and  C_3 
REMARK    2  A    between atoms: C_6  and  N_7 
REMARK       I    between atoms: N_7  and  C_8 
REMARK    3  A    between atoms: C_8  and  C_9 
REMARK    4  A    between atoms: C_17  and  C_18 
REMARK    5  A    between atoms: C_21  and  O_22 
ROOT
HETATM    1  C   UNL     1      -7.432   2.556 -33.898  1.00  0.00     0.047 A 
HETATM    2  C   UNL     1      -8.847   2.486 -33.909  1.00  0.00     0.008 A 
HETATM    3  C   UNL     1      -9.394   1.192 -33.894  1.00  0.00     0.068 A 
HETATM    4  C   UNL     1     -10.774   1.043 -33.864  1.00  0.00     0.032 A 
HETATM    5  C   UNL     1     -11.639   2.137 -33.880  1.00  0.00     0.002 A 
HETATM    6  C   UNL     1     -11.119   3.420 -33.944  1.00  0.00     0.001 A 
HETATM    7  C   UNL     1      -9.736   3.595 -33.968  1.00  0.00     0.015 A 
HETATM    8  N   UNL     1      -8.645   0.079 -33.932  1.00  0.00    -0.248 NA
HETATM    9  C   UNL     1      -7.294   0.167 -34.023  1.00  0.00     0.068 A 
HETATM   10  C   UNL     1      -6.657   1.395 -33.976  1.00  0.00     0.050 A 
ENDROOT
BRANCH   1  11
HETATM   11  C   UNL     1      -6.683   3.839 -33.867  1.00  0.00     0.257 C 
HETATM   12  N   UNL     1      -5.363   3.737 -33.467  1.00  0.00    -0.323 N 
HETATM   13  H   UNL     1      -5.003   2.802 -33.313  1.00  0.00     0.169 HD
HETATM   14  O   UNL     1      -7.277   4.855 -34.207  1.00  0.00    -0.267 OA
BRANCH  12  15
HETATM   15  C   UNL     1      -4.497   4.798 -33.127  1.00  0.00     0.035 A 
HETATM   16  C   UNL     1      -4.364   5.311 -31.836  1.00  0.00     0.030 A 
HETATM   17  C   UNL     1      -3.415   6.302 -31.560  1.00  0.00     0.017 A 
HETATM   18  C   UNL     1      -2.574   6.777 -32.570  1.00  0.00     0.009 A 
HETATM   19  C   UNL     1      -2.727   6.296 -33.873  1.00  0.00     0.017 A 
HETATM   20  C   UNL     1      -3.690   5.317 -34.148  1.00  0.00     0.030 A 
BRANCH  18  21
HETATM   21  C   UNL     1      -1.529   7.777 -32.216  1.00  0.00     0.155 C 
HETATM   22  C   UNL     1      -0.239   7.288 -31.612  1.00  0.00     0.096 C 
HETATM   23  O   UNL     1      -1.737   8.973 -32.409  1.00  0.00    -0.293 OA
ENDBRANCH  18  21
ENDBRANCH  12  15
ENDBRANCH   1  11
BRANCH   9  24
HETATM   24  C   UNL     1      -6.586  -1.117 -34.213  1.00  0.00    -0.007 A 
HETATM   25  C   UNL     1      -7.245  -2.283 -34.641  1.00  0.00     0.016 A 
HETATM   26  C   UNL     1      -6.565  -3.502 -34.757  1.00  0.00     0.037 A 
HETATM   27  C   UNL     1      -5.211  -3.598 -34.440  1.00  0.00     0.068 A 
HETATM   28  C   UNL     1      -4.532  -2.455 -34.031  1.00  0.00     0.037 A 
HETATM   29  C   UNL     1      -5.214  -1.235 -33.918  1.00  0.00     0.016 A 
BRANCH  27  30
HETATM   30  O   UNL     1      -4.676  -4.849 -34.572  1.00  0.00    -0.356 OA
HETATM   31  C   UNL     1      -3.744  -5.253 -33.576  1.00  0.00     0.210 C 
ENDBRANCH  27  30
ENDBRANCH   9  24
TORSDOF 5
ENDMDL
MODEL 4
REMARK VINA RESULT:      -8.8      3.137      9.548
REMARK  5 active torsions:
REMARK  status: ('A' for Active; 'I' for Inactive)
REMARK    1  A    between atoms: C_2  and  C_3 
REMARK    2  A    between atoms: C_6  and  N_7 
REMARK       I    between atoms: N_7  and  C_8 
REMARK    3  A    between atoms: C_8  and  C_9 
REMARK    4  A    between atoms: C_17  and  C_18 
REMARK    5  A    between atoms: C_21  and  O_22 
ROOT
HETATM    1  C   UNL     1      -6.070   3.234 -32.452  1.00  0.00     0.047 A 
HETATM    2  C   UNL     1      -7.162   3.823 -31.767  1.00  0.00     0.008 A 
HETATM    3  C   UNL     1      -6.863   4.970 -31.013  1.00  0.00     0.068 A 
HETATM    4  C   UNL     1      -7.888   5.626 -30.345  1.00  0.00     0.032 A 
HETATM    5  C   UNL     1      -9.205   5.164 -30.371  1.00  0.00     0.002 A 
HETATM    6  C   UNL     1      -9.510   4.006 -31.069  1.00  0.00     0.001 A 
HETATM    7  C   UNL     1      -8.498   3.335 -31.753  1.00  0.00     0.015 A 
HETATM    8  N   UNL     1      -5.620   5.458 -30.884  1.00  0.00    -0.248 NA
HETATM    9  C   UNL     1      -4.572   4.823 -31.467  1.00  0.00     0.068 A 
HETATM   10  C   UNL     1      -4.772   3.723 -32.284  1.00  0.00     0.050 A 
ENDROOT
BRANCH   1  11
HETATM   11  C   UNL     1      -6.210   2.043 -33.330  1.00  0.00     0.257 C 
HETATM   12  N   UNL     1      -6.052   0.826 -32.695  1.00  0.00    -0.323 N 
HETATM   13  H   UNL     1      -5.939   0.847 -31.687  1.00  0.00     0.169 HD
HETATM   14  O   UNL     1      -6.467   2.234 -34.513  1.00  0.00    -0.267 OA
BRANCH  12  15
HETATM   15  C   UNL     1      -5.903  -0.437 -33.308  1.00  0.00     0.035 A 
HETATM   16  C   UNL     1      -4.683  -1.101 -33.436  1.00  0.00     0.030 A 
HETATM   17  C   UNL     1      -4.631  -2.393 -33.974  1.00  0.00     0.017 A 
HETATM   18  C   UNL     1      -5.803  -3.042 -34.372  1.00  0.00     0.009 A 
HETATM   19  C   UNL     1      -7.024  -2.368 -34.283  1.00  0.00     0.017 A 
HETATM   20  C   UNL     1      -7.069  -1.069 -33.761  1.00  0.00     0.030 A 
BRANCH  18  21
HETATM   21  C   UNL     1      -5.709  -4.442 -34.868  1.00  0.00     0.155 C 
HETATM   22  C   UNL     1      -4.591  -5.314 -34.359  1.00  0.00     0.096 C 
HETATM   23  O   UNL     1      -6.528  -4.857 -35.685  1.00  0.00    -0.293 OA
ENDBRANCH  18  21
ENDBRANCH  12  15
ENDBRANCH   1  11
BRANCH   9  24
HETATM   24  C   UNL     1      -3.236   5.361 -31.130  1.00  0.00    -0.007 A 
HETATM   25  C   UNL     1      -3.067   6.531 -30.369  1.00  0.00     0.016 A 
HETATM   26  C   UNL     1      -1.794   7.055 -30.112  1.00  0.00     0.037 A 
HETATM   27  C   UNL     1      -0.651   6.435 -30.616  1.00  0.00     0.068 A 
HETATM   28  C   UNL     1      -0.790   5.266 -31.357  1.00  0.00     0.037 A 
HETATM   29  C   UNL     1      -2.066   4.742 -31.610  1.00  0.00     0.016 A 
BRANCH  27  30
HETATM   30  O   UNL     1       0.525   7.063 -30.314  1.00  0.00    -0.356 OA
HETATM   31  C   UNL     1       0.643   7.599 -29.002  1.00  0.00     0.210 C 
ENDBRANCH  27  30
ENDBRANCH   9  24
TORSDOF 5
ENDMDL
MODEL 5
REMARK VINA RESULT:      -8.7      1.907      8.586
REMARK  5 active torsions:
REMARK  status: ('A' for Active; 'I' for Inactive)
REMARK    1  A    between atoms: C_2  and  C_3 
REMARK    2  A    between atoms: C_6  and  N_7 
REMARK       I    between atoms: N_7  and  C_8 
REMARK    3  A    between atoms: C_8  and  C_9 
REMARK    4  A    between atoms: C_17  and  C_18 
REMARK    5  A    between atoms: C_21  and  O_22 
ROOT
HETATM    1  C   UNL     1      -7.330   0.823 -32.702  1.00  0.00     0.047 A 
HETATM    2  C   UNL     1      -6.665  -0.274 -33.301  1.00  0.00     0.008 A 
HETATM    3  C   UNL     1      -5.266  -0.166 -33.388  1.00  0.00     0.068 A 
HETATM    4  C   UNL     1      -4.540  -1.219 -33.928  1.00  0.00     0.032 A 
HETATM    5  C   UNL     1      -5.156  -2.371 -34.418  1.00  0.00     0.002 A 
HETATM    6  C   UNL     1      -6.537  -2.474 -34.387  1.00  0.00     0.001 A 
HETATM    7  C   UNL     1      -7.287  -1.434 -33.842  1.00  0.00     0.015 A 
HETATM    8  N   UNL     1      -4.590   0.923 -32.993  1.00  0.00    -0.248 NA
HETATM    9  C   UNL     1      -5.255   2.004 -32.513  1.00  0.00     0.068 A 
HETATM   10  C   UNL     1      -6.626   1.970 -32.327  1.00  0.00     0.050 A 
ENDROOT
BRANCH   1  11
HETATM   11  C   UNL     1      -8.801   0.860 -32.487  1.00  0.00     0.257 C 
HETATM   12  N   UNL     1      -9.493   1.716 -33.326  1.00  0.00    -0.323 N 
HETATM   13  H   UNL     1      -8.958   2.172 -34.056  1.00  0.00     0.169 HD
HETATM   14  O   UNL     1      -9.270   0.135 -31.620  1.00  0.00    -0.267 OA
BRANCH  12  15
HETATM   15  C   UNL     1     -10.838   2.122 -33.198  1.00  0.00     0.035 A 
HETATM   16  C   UNL     1     -11.920   1.409 -33.716  1.00  0.00     0.030 A 
HETATM   17  C   UNL     1     -13.232   1.828 -33.468  1.00  0.00     0.017 A 
HETATM   18  C   UNL     1     -13.477   2.957 -32.681  1.00  0.00     0.009 A 
HETATM   19  C   UNL     1     -12.399   3.698 -32.191  1.00  0.00     0.017 A 
HETATM   20  C   UNL     1     -11.087   3.285 -32.457  1.00  0.00     0.030 A 
BRANCH  18  21
HETATM   21  C   UNL     1     -14.888   3.323 -32.380  1.00  0.00     0.155 C 
HETATM   22  C   UNL     1     -15.877   2.220 -32.107  1.00  0.00     0.096 C 
HETATM   23  O   UNL     1     -15.223   4.506 -32.370  1.00  0.00    -0.293 OA
ENDBRANCH  18  21
ENDBRANCH  12  15
ENDBRANCH   1  11
BRANCH   9  24
HETATM   24  C   UNL     1      -4.422   3.199 -32.255  1.00  0.00    -0.007 A 
HETATM   25  C   UNL     1      -4.866   4.501 -32.544  1.00  0.00     0.016 A 
HETATM   26  C   UNL     1      -4.038   5.613 -32.346  1.00  0.00     0.037 A 
HETATM   27  C   UNL     1      -2.739   5.460 -31.864  1.00  0.00     0.068 A 
HETATM   28  C   UNL     1      -2.282   4.183 -31.553  1.00  0.00     0.037 A 
HETATM   29  C   UNL     1      -3.114   3.071 -31.749  1.00  0.00     0.016 A 
BRANCH  27  30
HETATM   30  O   UNL     1      -2.030   6.622 -31.741  1.00  0.00    -0.356 OA
HETATM   31  C   UNL     1      -2.745   7.831 -31.959  1.00  0.00     0.210 C 
ENDBRANCH  27  30
ENDBRANCH   9  24
TORSDOF 5
ENDMDL
MODEL 6
REMARK VINA RESULT:      -8.6      3.099      9.006
REMARK  5 active torsions:
REMARK  status: ('A' for Active; 'I' for Inactive)
REMARK    1  A    between atoms: C_2  and  C_3 
REMARK    2  A    between atoms: C_6  and  N_7 
REMARK       I    between atoms: N_7  and  C_8 
REMARK    3  A    between atoms: C_8  and  C_9 
REMARK    4  A    between atoms: C_17  and  C_18 
REMARK    5  A    between atoms: C_21  and  O_22 
ROOT
HETATM    1  C   UNL     1      -8.371   2.875 -33.936  1.00  0.00     0.047 A 
HETATM    2  C   UNL     1      -7.369   3.810 -33.577  1.00  0.00     0.008 A 
HETATM    3  C   UNL     1      -6.055   3.313 -33.545  1.00  0.00     0.068 A 
HETATM    4  C   UNL     1      -5.013   4.179 -33.240  1.00  0.00     0.032 A 
HETATM    5  C   UNL     1      -5.231   5.523 -32.932  1.00  0.00     0.002 A 
HETATM    6  C   UNL     1      -6.525   6.018 -32.910  1.00  0.00     0.001 A 
HETATM    7  C   UNL     1      -7.586   5.170 -33.221  1.00  0.00     0.015 A 
HETATM    8  N   UNL     1      -5.752   2.027 -33.773  1.00  0.00    -0.248 NA
HETATM    9  C   UNL     1      -6.737   1.126 -34.017  1.00  0.00     0.068 A 
HETATM   10  C   UNL     1      -8.056   1.528 -34.135  1.00  0.00     0.050 A 
ENDROOT
BRANCH   1  11
HETATM   11  C   UNL     1      -9.808   3.235 -34.064  1.00  0.00     0.257 C 
HETATM   12  N   UNL     1     -10.586   2.938 -32.960  1.00  0.00    -0.323 N 
HETATM   13  H   UNL     1     -10.103   2.584 -32.142  1.00  0.00     0.169 HD
HETATM   14  O   UNL     1     -10.172   3.770 -35.104  1.00  0.00    -0.267 OA
BRANCH  12  15
HETATM   15  C   UNL     1     -11.995   2.954 -32.888  1.00  0.00     0.035 A 
HETATM   16  C   UNL     1     -12.808   1.897 -33.299  1.00  0.00     0.030 A 
HETATM   17  C   UNL     1     -14.194   1.951 -33.110  1.00  0.00     0.017 A 
HETATM   18  C   UNL     1     -14.780   3.057 -32.489  1.00  0.00     0.009 A 
HETATM   19  C   UNL     1     -13.978   4.137 -32.110  1.00  0.00     0.017 A 
HETATM   20  C   UNL     1     -12.594   4.086 -32.318  1.00  0.00     0.030 A 
BRANCH  18  21
HETATM   21  C   UNL     1     -16.248   3.040 -32.240  1.00  0.00     0.155 C 
HETATM   22  C   UNL     1     -16.904   4.287 -31.710  1.00  0.00     0.096 C 
HETATM   23  O   UNL     1     -16.893   2.016 -32.458  1.00  0.00    -0.293 OA
ENDBRANCH  18  21
ENDBRANCH  12  15
ENDBRANCH   1  11
BRANCH   9  24
HETATM   24  C   UNL     1      -6.300  -0.285 -34.100  1.00  0.00    -0.007 A 
HETATM   25  C   UNL     1      -5.015  -0.699 -33.709  1.00  0.00     0.016 A 
HETATM   26  C   UNL     1      -4.603  -2.029 -33.852  1.00  0.00     0.037 A 
HETATM   27  C   UNL     1      -5.457  -2.987 -34.399  1.00  0.00     0.068 A 
HETATM   28  C   UNL     1      -6.740  -2.607 -34.777  1.00  0.00     0.037 A 
HETATM   29  C   UNL     1      -7.151  -1.274 -34.631  1.00  0.00     0.016 A 
BRANCH  27  30
HETATM   30  O   UNL     1      -4.923  -4.240 -34.505  1.00  0.00    -0.356 OA
HETATM   31  C   UNL     1      -3.689  -4.467 -33.836  1.00  0.00     0.210 C 
ENDBRANCH  27  30
ENDBRANCH   9  24
TORSDOF 5
ENDMDL
MODEL 7
REMARK VINA RESULT:      -8.5     16.222     17.994
REMARK  5 active torsions:
REMARK  status: ('A' for Active; 'I' for Inactive)
REMARK    1  A    between atoms: C_2  and  C_3 
REMARK    2  A    between atoms: C_6  and  N_7 
REMARK       I    between atoms: N_7  and  C_8 
REMARK    3  A    between atoms: C_8  and  C_9 
REMARK    4  A    between atoms: C_17  and  C_18 
REMARK    5  A    between atoms: C_21  and  O_22 
ROOT
HETATM    1  C   UNL     1      -6.719 -13.554 -36.293  1.00  0.00     0.047 A 
HETATM    2  C   UNL     1      -5.534 -13.234 -37.000  1.00  0.00     0.008 A 
HETATM    3  C   UNL     1      -5.685 -13.025 -38.381  1.00  0.00     0.068 A 
HETATM    4  C   UNL     1      -4.575 -12.668 -39.135  1.00  0.00     0.032 A 
HETATM    5  C   UNL     1      -3.305 -12.542 -38.572  1.00  0.00     0.002 A 
HETATM    6  C   UNL     1      -3.128 -12.794 -37.221  1.00  0.00     0.001 A 
HETATM    7  C   UNL     1      -4.229 -13.145 -36.442  1.00  0.00     0.015 A 
HETATM    8  N   UNL     1      -6.854 -13.175 -39.021  1.00  0.00    -0.248 NA
HETATM    9  C   UNL     1      -7.958 -13.580 -38.344  1.00  0.00     0.068 A 
HETATM   10  C   UNL     1      -7.927 -13.747 -36.970  1.00  0.00     0.050 A 
ENDROOT
BRANCH   1  11
HETATM   11  C   UNL     1      -6.755 -13.765 -34.822  1.00  0.00     0.257 C 
HETATM   12  N   UNL     1      -6.012 -14.839 -34.367  1.00  0.00    -0.323 N 
HETATM   13  H   UNL     1      -5.452 -15.331 -35.053  1.00  0.00     0.169 HD
HETATM   14  O   UNL     1      -7.407 -12.977 -34.148  1.00  0.00    -0.267 OA
BRANCH  12  15
HETATM   15  C   UNL     1      -6.048 -15.406 -33.075  1.00  0.00     0.035 A 
HETATM   16  C   UNL     1      -6.834 -16.505 -32.728  1.00  0.00     0.030 A 
HETATM   17  C   UNL     1      -6.744 -17.068 -31.449  1.00  0.00     0.017 A 
HETATM   18  C   UNL     1      -5.851 -16.547 -30.508  1.00  0.00     0.009 A 
HETATM   19  C   UNL     1      -5.089 -15.422 -30.835  1.00  0.00     0.017 A 
HETATM   20  C   UNL     1      -5.195 -14.852 -32.110  1.00  0.00     0.030 A 
BRANCH  18  21
HETATM   21  C   UNL     1      -5.734 -17.222 -29.187  1.00  0.00     0.155 C 
HETATM   22  C   UNL     1      -4.675 -18.279 -29.008  1.00  0.00     0.096 C 
HETATM   23  O   UNL     1      -6.501 -16.919 -28.276  1.00  0.00    -0.293 OA
ENDBRANCH  18  21
ENDBRANCH  12  15
ENDBRANCH   1  11
BRANCH   9  24
HETATM   24  C   UNL     1      -9.148 -13.859 -39.176  1.00  0.00    -0.007 A 
HETATM   25  C   UNL     1      -9.388 -15.123 -39.744  1.00  0.00     0.016 A 
HETATM   26  C   UNL     1     -10.490 -15.350 -40.578  1.00  0.00     0.037 A 
HETATM   27  C   UNL     1     -11.381 -14.320 -40.879  1.00  0.00     0.068 A 
HETATM   28  C   UNL     1     -11.175 -13.065 -40.316  1.00  0.00     0.037 A 
HETATM   29  C   UNL     1     -10.072 -12.842 -39.479  1.00  0.00     0.016 A 
BRANCH  27  30
HETATM   30  O   UNL     1     -12.397 -14.668 -41.724  1.00  0.00    -0.356 OA
HETATM   31  C   UNL     1     -12.231 -15.874 -42.459  1.00  0.00     0.210 C 
ENDBRANCH  27  30
ENDBRANCH   9  24
TORSDOF 5
ENDMDL
MODEL 8
REMARK VINA RESULT:      -8.4      3.035      8.108
REMARK  5 active torsions:
REMARK  status: ('A' for Active; 'I' for Inactive)
REMARK    1  A    between atoms: C_2  and  C_3 
REMARK    2  A    between atoms: C_6  and  N_7 
REMARK       I    between atoms: N_7  and  C_8 
REMARK    3  A    between atoms: C_8  and  C_9 
REMARK    4  A    between atoms: C_17  and  C_18 
REMARK    5  A    between atoms: C_21  and  O_22 
ROOT
HETATM    1  C   UNL     1      -8.609   2.354 -33.438  1.00  0.00     0.047 A 
HETATM    2  C   UNL     1      -9.891   2.456 -34.031  1.00  0.00     0.008 A 
HETATM    3  C   UNL     1     -10.355   3.763 -34.258  1.00  0.00     0.068 A 
HETATM    4  C   UNL     1     -11.587   3.945 -34.872  1.00  0.00     0.032 A 
HETATM    5  C   UNL     1     -12.396   2.871 -35.244  1.00  0.00     0.002 A 
HETATM    6  C   UNL     1     -11.977   1.576 -34.983  1.00  0.00     0.001 A 
HETATM    7  C   UNL     1     -10.741   1.368 -34.374  1.00  0.00     0.015 A 
HETATM    8  N   UNL     1      -9.673   4.857 -33.887  1.00  0.00    -0.248 NA
HETATM    9  C   UNL     1      -8.492   4.737 -33.230  1.00  0.00     0.068 A 
HETATM   10  C   UNL     1      -7.920   3.495 -33.018  1.00  0.00     0.050 A 
ENDROOT
BRANCH   1  11
HETATM   11  C   UNL     1      -7.943   1.053 -33.166  1.00  0.00     0.257 C 
HETATM   12  N   UNL     1      -6.960   0.698 -34.073  1.00  0.00    -0.323 N 
HETATM   13  H   UNL     1      -6.726   1.381 -34.784  1.00  0.00     0.169 HD
HETATM   14  O   UNL     1      -8.296   0.426 -32.175  1.00  0.00    -0.267 OA
BRANCH  12  15
HETATM   15  C   UNL     1      -6.336  -0.562 -34.195  1.00  0.00     0.035 A 
HETATM   16  C   UNL     1      -5.031  -0.828 -33.782  1.00  0.00     0.030 A 
HETATM   17  C   UNL     1      -4.514  -2.127 -33.852  1.00  0.00     0.017 A 
HETATM   18  C   UNL     1      -5.307  -3.180 -34.319  1.00  0.00     0.009 A 
HETATM   19  C   UNL     1      -6.602  -2.915 -34.771  1.00  0.00     0.017 A 
HETATM   20  C   UNL     1      -7.108  -1.610 -34.715  1.00  0.00     0.030 A 
BRANCH  18  21
HETATM   21  C   UNL     1      -4.742  -4.557 -34.305  1.00  0.00     0.155 C 
HETATM   22  C   UNL     1      -3.488  -4.815 -33.512  1.00  0.00     0.096 C 
HETATM   23  O   UNL     1      -5.296  -5.450 -34.943  1.00  0.00    -0.293 OA
ENDBRANCH  18  21
ENDBRANCH  12  15
ENDBRANCH   1  11
BRANCH   9  24
HETATM   24  C   UNL     1      -7.909   6.003 -32.736  1.00  0.00    -0.007 A 
HETATM   25  C   UNL     1      -6.530   6.156 -32.507  1.00  0.00     0.016 A 
HETATM   26  C   UNL     1      -6.007   7.345 -31.983  1.00  0.00     0.037 A 
HETATM   27  C   UNL     1      -6.843   8.413 -31.662  1.00  0.00     0.068 A 
HETATM   28  C   UNL     1      -8.209   8.293 -31.896  1.00  0.00     0.037 A 
HETATM   29  C   UNL     1      -8.730   7.103 -32.423  1.00  0.00     0.016 A 
BRANCH  27  30
HETATM   30  O   UNL     1      -6.208   9.503 -31.135  1.00  0.00    -0.356 OA
HETATM   31  C   UNL     1      -6.516  10.763 -31.717  1.00  0.00     0.210 C 
ENDBRANCH  27  30
ENDBRANCH   9  24
TORSDOF 5
ENDMDL
MODEL 9
REMARK VINA RESULT:      -8.3      2.817      6.808
REMARK  5 active torsions:
REMARK  status: ('A' for Active; 'I' for Inactive)
REMARK    1  A    between atoms: C_2  and  C_3 
REMARK    2  A    between atoms: C_6  and  N_7 
REMARK       I    between atoms: N_7  and  C_8 
REMARK    3  A    between atoms: C_8  and  C_9 
REMARK    4  A    between atoms: C_17  and  C_18 
REMARK    5  A    between atoms: C_21  and  O_22 
ROOT
HETATM    1  C   UNL     1      -7.183   2.762 -32.217  1.00  0.00     0.047 A 
HETATM    2  C   UNL     1      -6.504   4.000 -32.332  1.00  0.00     0.008 A 
HETATM    3  C   UNL     1      -7.305   5.148 -32.209  1.00  0.00     0.068 A 
HETATM    4  C   UNL     1      -6.705   6.399 -32.271  1.00  0.00     0.032 A 
HETATM    5  C   UNL     1      -5.335   6.555 -32.483  1.00  0.00     0.002 A 
HETATM    6  C   UNL     1      -4.537   5.435 -32.656  1.00  0.00     0.001 A 
HETATM    7  C   UNL     1      -5.116   4.169 -32.590  1.00  0.00     0.015 A 
HETATM    8  N   UNL     1      -8.637   5.100 -32.058  1.00  0.00    -0.248 NA
HETATM    9  C   UNL     1      -9.281   3.906 -32.051  1.00  0.00     0.068 A 
HETATM   10  C   UNL     1      -8.575   2.716 -32.098  1.00  0.00     0.050 A 
ENDROOT
BRANCH   1  11
HETATM   11  C   UNL     1      -6.490   1.448 -32.277  1.00  0.00     0.257 C 
HETATM   12  N   UNL     1      -6.399   0.892 -33.539  1.00  0.00    -0.323 N 
HETATM   13  H   UNL     1      -6.732   1.456 -34.313  1.00  0.00     0.169 HD
HETATM   14  O   UNL     1      -6.052   0.986 -31.231  1.00  0.00    -0.267 OA
BRANCH  12  15
HETATM   15  C   UNL     1      -6.009  -0.427 -33.857  1.00  0.00     0.035 A 
HETATM   16  C   UNL     1      -4.724  -0.930 -33.653  1.00  0.00     0.030 A 
HETATM   17  C   UNL     1      -4.440  -2.277 -33.907  1.00  0.00     0.017 A 
HETATM   18  C   UNL     1      -5.445  -3.141 -34.351  1.00  0.00     0.009 A 
HETATM   19  C   UNL     1      -6.725  -2.636 -34.595  1.00  0.00     0.017 A 
HETATM   20  C   UNL     1      -7.000  -1.284 -34.356  1.00  0.00     0.030 A 
BRANCH  18  21
HETATM   21  C   UNL     1      -5.116  -4.581 -34.537  1.00  0.00     0.155 C 
HETATM   22  C   UNL     1      -3.969  -5.165 -33.756  1.00  0.00     0.096 C 
HETATM   23  O   UNL     1      -5.772  -5.261 -35.324  1.00  0.00    -0.293 OA
ENDBRANCH  18  21
ENDBRANCH  12  15
ENDBRANCH   1  11
BRANCH   9  24
HETATM   24  C   UNL     1     -10.759   3.982 -32.033  1.00  0.00    -0.007 A 
HETATM   25  C   UNL     1     -11.490   4.115 -30.839  1.00  0.00     0.016 A 
HETATM   26  C   UNL     1     -12.890   4.125 -30.841  1.00  0.00     0.037 A 
HETATM   27  C   UNL     1     -13.604   3.993 -32.031  1.00  0.00     0.068 A 
HETATM   28  C   UNL     1     -12.904   3.878 -33.227  1.00  0.00     0.037 A 
HETATM   29  C   UNL     1     -11.502   3.871 -33.223  1.00  0.00     0.016 A 
BRANCH  27  30
HETATM   30  O   UNL     1     -14.964   3.993 -31.890  1.00  0.00    -0.356 OA
HETATM   31  C   UNL     1     -15.608   2.725 -31.926  1.00  0.00     0.210 C 
ENDBRANCH  27  30
ENDBRANCH   9  24
TORSDOF 5
ENDMDL
MODEL 10
REMARK VINA RESULT:      -8.1      3.858      8.759
REMARK  5 active torsions:
REMARK  status: ('A' for Active; 'I' for Inactive)
REMARK    1  A    between atoms: C_2  and  C_3 
REMARK    2  A    between atoms: C_6  and  N_7 
REMARK       I    between atoms: N_7  and  C_8 
REMARK    3  A    between atoms: C_8  and  C_9 
REMARK    4  A    between atoms: C_17  and  C_18 
REMARK    5  A    between atoms: C_21  and  O_22 
ROOT
HETATM    1  C   UNL     1      -4.589   4.590 -32.518  1.00  0.00     0.047 A 
HETATM    2  C   UNL     1      -3.443   5.244 -33.032  1.00  0.00     0.008 A 
HETATM    3  C   UNL     1      -3.045   6.405 -32.347  1.00  0.00     0.068 A 
HETATM    4  C   UNL     1      -1.907   7.080 -32.768  1.00  0.00     0.032 A 
HETATM    5  C   UNL     1      -1.161   6.662 -33.871  1.00  0.00     0.002 A 
HETATM    6  C   UNL     1      -1.567   5.549 -34.588  1.00  0.00     0.001 A 
HETATM    7  C   UNL     1      -2.701   4.850 -34.180  1.00  0.00     0.015 A 
HETATM    8  N   UNL     1      -3.727   6.914 -31.311  1.00  0.00    -0.248 NA
HETATM    9  C   UNL     1      -4.879   6.328 -30.896  1.00  0.00     0.068 A 
HETATM   10  C   UNL     1      -5.318   5.144 -31.463  1.00  0.00     0.050 A 
ENDROOT
BRANCH   1  11
HETATM   11  C   UNL     1      -5.125   3.326 -33.088  1.00  0.00     0.257 C 
HETATM   12  N   UNL     1      -4.833   2.186 -32.362  1.00  0.00    -0.323 N 
HETATM   13  H   UNL     1      -4.358   2.317 -31.476  1.00  0.00     0.169 HD
HETATM   14  O   UNL     1      -5.782   3.398 -34.119  1.00  0.00    -0.267 OA
BRANCH  12  15
HETATM   15  C   UNL     1      -5.009   0.848 -32.778  1.00  0.00     0.035 A 
HETATM   16  C   UNL     1      -6.245   0.294 -33.113  1.00  0.00     0.030 A 
HETATM   17  C   UNL     1      -6.326  -1.014 -33.606  1.00  0.00     0.017 A 
HETATM   18  C   UNL     1      -5.168  -1.775 -33.787  1.00  0.00     0.009 A 
HETATM   19  C   UNL     1      -3.931  -1.241 -33.417  1.00  0.00     0.017 A 
HETATM   20  C   UNL     1      -3.857   0.062 -32.908  1.00  0.00     0.030 A 
BRANCH  18  21
HETATM   21  C   UNL     1      -5.294  -3.133 -34.384  1.00  0.00     0.155 C 
HETATM   22  C   UNL     1      -6.646  -3.584 -34.870  1.00  0.00     0.096 C 
HETATM   23  O   UNL     1      -4.306  -3.861 -34.460  1.00  0.00    -0.293 OA
ENDBRANCH  18  21
ENDBRANCH  12  15
ENDBRANCH   1  11
BRANCH   9  24
HETATM   24  C   UNL     1      -5.624   7.062 -29.850  1.00  0.00    -0.007 A 
HETATM   25  C   UNL     1      -5.215   8.322 -29.380  1.00  0.00     0.016 A 
HETATM   26  C   UNL     1      -5.902   8.972 -28.347  1.00  0.00     0.037 A 
HETATM   27  C   UNL     1      -7.011   8.381 -27.744  1.00  0.00     0.068 A 
HETATM   28  C   UNL     1      -7.446   7.141 -28.203  1.00  0.00     0.037 A 
HETATM   29  C   UNL     1      -6.758   6.494 -29.239  1.00  0.00     0.016 A 
BRANCH  27  30
HETATM   30  O   UNL     1      -7.573   9.108 -26.733  1.00  0.00    -0.356 OA
HETATM   31  C   UNL     1      -6.727  10.041 -26.072  1.00  0.00     0.210 C 
ENDBRANCH  27  30
ENDBRANCH   9  24
TORSDOF 5
ENDMDL
