MODEL 1
REMARK VINA RESULT:      -9.1      0.000      0.000
REMARK  3 active torsions:
REMARK  status: ('A' for Active; 'I' for Inactive)
REMARK    1  A    between atoms: C_8  and  C_9 
REMARK       I    between atoms: C_9  and  N_10 
REMARK    2  A    between atoms: N_10  and  C_11 
REMARK    3  A    between atoms: C_18  and  C_19 
REMARK       I    between atoms: C_19  and  N_20 
ROOT
HETATM    1  C   UNL     1      -5.769   0.112 -33.841  1.00  0.00     0.035 A 
HETATM    2  C   UNL     1      -4.957  -1.010 -33.626  1.00  0.00     0.046 A 
HETATM    3  C   UNL     1      -5.374  -2.273 -34.102  1.00  0.00     0.030 A 
HETATM    4  C   UNL     1      -6.575  -2.366 -34.794  1.00  0.00     0.063 A 
HETATM    5  N   UNL     1      -6.697  -3.685 -35.133  1.00  0.00    -0.277 N 
HETATM    6  H   UNL     1      -7.453  -4.117 -35.651  1.00  0.00     0.189 HD
HETATM    7  N   UNL     1      -5.693  -4.465 -34.703  1.00  0.00    -0.168 NA
HETATM    8  C   UNL     1      -4.868  -3.608 -34.058  1.00  0.00     0.156 A 
HETATM    9  C   UNL     1      -7.407  -1.270 -35.028  1.00  0.00     0.034 A 
HETATM   10  C   UNL     1      -6.983  -0.034 -34.527  1.00  0.00     0.032 A 
ENDROOT
BRANCH   1  11
HETATM   11  N   UNL     1      -5.457   1.407 -33.374  1.00  0.00    -0.327 N 
HETATM   12  C   UNL     1      -5.801   1.972 -32.159  1.00  0.00     0.231 C 
HETATM   13  O   UNL     1      -6.367   1.378 -31.243  1.00  0.00    -0.272 OA
HETATM   14  H   UNL     1      -4.871   1.957 -33.990  1.00  0.00     0.169 HD
BRANCH  12  15
HETATM   15  C   UNL     1      -5.467   3.464 -31.985  1.00  0.00     0.116 C 
HETATM   16  C   UNL     1      -4.441   4.032 -32.938  1.00  0.00    -0.012 A 
HETATM   17  C   UNL     1      -3.073   3.797 -32.727  1.00  0.00     0.011 A 
HETATM   18  C   UNL     1      -4.843   4.780 -34.050  1.00  0.00     0.075 A 
HETATM   19  C   UNL     1      -2.125   4.301 -33.619  1.00  0.00     0.001 A 
HETATM   20  C   UNL     1      -2.534   5.047 -34.722  1.00  0.00     0.003 A 
HETATM   21  C   UNL     1      -3.891   5.289 -34.934  1.00  0.00     0.037 A 
HETATM   22  O   UNL     1      -6.143   5.093 -34.335  1.00  0.00    -0.351 OA
HETATM   23  C   UNL     1      -7.137   4.412 -33.563  1.00  0.00     0.176 C 
HETATM   24  C   UNL     1      -6.756   4.282 -32.097  1.00  0.00     0.045 C 
ENDBRANCH  12  15
ENDBRANCH   1  11
BRANCH   8  25
HETATM   25  C   UNL     1      -3.638  -4.080 -33.409  1.00  0.00     0.270 C 
HETATM   26  N   UNL     1      -3.070  -5.169 -34.014  1.00  0.00    -0.365 N 
HETATM   27  H   UNL     1      -3.531  -5.568 -34.824  1.00  0.00     0.159 HD
HETATM   28  H   UNL     1      -2.238  -5.580 -33.622  1.00  0.00     0.159 HD
HETATM   29  O   UNL     1      -3.139  -3.580 -32.407  1.00  0.00    -0.266 OA
ENDBRANCH   8  25
TORSDOF 3
ENDMDL
MODEL 2
REMARK VINA RESULT:      -9.0      4.290      6.261
REMARK  3 active torsions:
REMARK  status: ('A' for Active; 'I' for Inactive)
REMARK    1  A    between atoms: C_8  and  C_9 
REMARK       I    between atoms: C_9  and  N_10 
REMARK    2  A    between atoms: N_10  and  C_11 
REMARK    3  A    between atoms: C_18  and  C_19 
REMARK       I    between atoms: C_19  and  N_20 
ROOT
HETATM    1  C   UNL     1      -7.546   0.361 -34.424  1.00  0.00     0.035 A 
HETATM    2  C   UNL     1      -7.431  -1.020 -34.631  1.00  0.00     0.046 A 
HETATM    3  C   UNL     1      -6.218  -1.673 -34.314  1.00  0.00     0.030 A 
HETATM    4  C   UNL     1      -5.174  -0.927 -33.783  1.00  0.00     0.063 A 
HETATM    5  N   UNL     1      -4.161  -1.820 -33.571  1.00  0.00    -0.277 N 
HETATM    6  H   UNL     1      -3.244  -1.627 -33.185  1.00  0.00     0.189 HD
HETATM    7  N   UNL     1      -4.444  -3.080 -33.938  1.00  0.00    -0.168 NA
HETATM    8  C   UNL     1      -5.712  -3.005 -34.405  1.00  0.00     0.156 A 
HETATM    9  C   UNL     1      -5.255   0.449 -33.562  1.00  0.00     0.034 A 
HETATM   10  C   UNL     1      -6.458   1.077 -33.906  1.00  0.00     0.032 A 
ENDROOT
BRANCH   1  11
HETATM   11  N   UNL     1      -8.701   1.108 -34.742  1.00  0.00    -0.327 N 
HETATM   12  C   UNL     1      -9.915   1.108 -34.080  1.00  0.00     0.231 C 
HETATM   13  O   UNL     1     -10.143   0.507 -33.031  1.00  0.00    -0.272 OA
HETATM   14  H   UNL     1      -8.598   1.751 -35.518  1.00  0.00     0.169 HD
BRANCH  12  15
HETATM   15  C   UNL     1     -11.055   1.897 -34.749  1.00  0.00     0.116 C 
HETATM   16  C   UNL     1     -12.420   1.758 -34.118  1.00  0.00    -0.012 A 
HETATM   17  C   UNL     1     -13.198   0.613 -34.358  1.00  0.00     0.011 A 
HETATM   18  C   UNL     1     -12.916   2.756 -33.272  1.00  0.00     0.075 A 
HETATM   19  C   UNL     1     -14.450   0.472 -33.757  1.00  0.00     0.001 A 
HETATM   20  C   UNL     1     -14.936   1.472 -32.919  1.00  0.00     0.003 A 
HETATM   21  C   UNL     1     -14.172   2.614 -32.681  1.00  0.00     0.037 A 
HETATM   22  O   UNL     1     -12.258   3.921 -32.992  1.00  0.00    -0.351 OA
HETATM   23  C   UNL     1     -10.895   3.991 -33.419  1.00  0.00     0.176 C 
HETATM   24  C   UNL     1     -10.677   3.380 -34.794  1.00  0.00     0.045 C 
ENDBRANCH  12  15
ENDBRANCH   1  11
BRANCH   8  25
HETATM   25  C   UNL     1      -6.397  -4.191 -34.937  1.00  0.00     0.270 C 
HETATM   26  N   UNL     1      -7.553  -4.509 -34.277  1.00  0.00    -0.365 N 
HETATM   27  H   UNL     1      -7.835  -3.939 -33.488  1.00  0.00     0.159 HD
HETATM   28  H   UNL     1      -8.077  -5.325 -34.554  1.00  0.00     0.159 HD
HETATM   29  O   UNL     1      -5.995  -4.869 -35.876  1.00  0.00    -0.266 OA
ENDBRANCH   8  25
TORSDOF 3
ENDMDL
MODEL 3
REMARK VINA RESULT:      -8.7      4.346      6.441
REMARK  3 active torsions:
REMARK  status: ('A' for Active; 'I' for Inactive)
REMARK    1  A    between atoms: C_8  and  C_9 
REMARK       I    between atoms: C_9  and  N_10 
REMARK    2  A    between atoms: N_10  and  C_11 
REMARK    3  A    between atoms: C_18  and  C_19 
REMARK       I    between atoms: C_19  and  N_20 
ROOT
HETATM    1  C   UNL     1      -7.545   0.331 -34.298  1.00  0.00     0.035 A 
HETATM    2  C   UNL     1      -6.570   0.587 -33.325  1.00  0.00     0.046 A 
HETATM    3  C   UNL     1      -5.521  -0.340 -33.129  1.00  0.00     0.030 A 
HETATM    4  C   UNL     1      -5.474  -1.476 -33.925  1.00  0.00     0.063 A 
HETATM    5  N   UNL     1      -4.362  -2.158 -33.518  1.00  0.00    -0.277 N 
HETATM    6  H   UNL     1      -4.011  -3.036 -33.885  1.00  0.00     0.189 HD
HETATM    7  N   UNL     1      -3.692  -1.579 -32.509  1.00  0.00    -0.168 NA
HETATM    8  C   UNL     1      -4.400  -0.454 -32.253  1.00  0.00     0.156 A 
HETATM    9  C   UNL     1      -6.426  -1.762 -34.905  1.00  0.00     0.034 A 
HETATM   10  C   UNL     1      -7.467  -0.840 -35.065  1.00  0.00     0.032 A 
ENDROOT
BRANCH   1  11
HETATM   11  N   UNL     1      -8.648   1.177 -34.544  1.00  0.00    -0.327 N 
HETATM   12  C   UNL     1      -9.911   1.102 -33.985  1.00  0.00     0.231 C 
HETATM   13  O   UNL     1     -10.240   0.318 -33.095  1.00  0.00    -0.272 OA
HETATM   14  H   UNL     1      -8.465   1.954 -35.167  1.00  0.00     0.169 HD
BRANCH  12  15
HETATM   15  C   UNL     1     -10.969   2.058 -34.564  1.00  0.00     0.116 C 
HETATM   16  C   UNL     1     -12.382   1.867 -34.064  1.00  0.00    -0.012 A 
HETATM   17  C   UNL     1     -13.179   0.827 -34.571  1.00  0.00     0.011 A 
HETATM   18  C   UNL     1     -12.906   2.709 -33.077  1.00  0.00     0.075 A 
HETATM   19  C   UNL     1     -14.476   0.636 -34.094  1.00  0.00     0.001 A 
HETATM   20  C   UNL     1     -14.989   1.481 -33.113  1.00  0.00     0.003 A 
HETATM   21  C   UNL     1     -14.206   2.519 -32.610  1.00  0.00     0.037 A 
HETATM   22  O   UNL     1     -12.231   3.767 -32.535  1.00  0.00    -0.351 OA
HETATM   23  C   UNL     1     -10.838   3.851 -32.848  1.00  0.00     0.176 C 
HETATM   24  C   UNL     1     -10.539   3.502 -34.298  1.00  0.00     0.045 C 
ENDBRANCH  12  15
ENDBRANCH   1  11
BRANCH   8  25
HETATM   25  C   UNL     1      -4.003   0.466 -31.178  1.00  0.00     0.270 C 
HETATM   26  N   UNL     1      -4.917   0.569 -30.165  1.00  0.00    -0.365 N 
HETATM   27  H   UNL     1      -5.778   0.039 -30.233  1.00  0.00     0.159 HD
HETATM   28  H   UNL     1      -4.741   1.199 -29.398  1.00  0.00     0.159 HD
HETATM   29  O   UNL     1      -2.961   1.112 -31.161  1.00  0.00    -0.266 OA
ENDBRANCH   8  25
TORSDOF 3
ENDMDL
MODEL 4
REMARK VINA RESULT:      -8.7      3.590      7.574
REMARK  3 active torsions:
REMARK  status: ('A' for Active; 'I' for Inactive)
REMARK    1  A    between atoms: C_8  and  C_9 
REMARK       I    between atoms: C_9  and  N_10 
REMARK    2  A    between atoms: N_10  and  C_11 
REMARK    3  A    between atoms: C_18  and  C_19 
REMARK       I    between atoms: C_19  and  N_20 
ROOT
HETATM    1  C   UNL     1      -3.798   3.130 -32.247  1.00  0.00     0.035 A 
HETATM    2  C   UNL     1      -2.622   3.541 -31.604  1.00  0.00     0.046 A 
HETATM    3  C   UNL     1      -2.035   4.779 -31.950  1.00  0.00     0.030 A 
HETATM    4  C   UNL     1      -2.654   5.570 -32.910  1.00  0.00     0.063 A 
HETATM    5  N   UNL     1      -1.875   6.687 -33.017  1.00  0.00    -0.277 N 
HETATM    6  H   UNL     1      -2.028   7.486 -33.622  1.00  0.00     0.189 HD
HETATM    7  N   UNL     1      -0.788   6.686 -32.229  1.00  0.00    -0.168 NA
HETATM    8  C   UNL     1      -0.870   5.508 -31.566  1.00  0.00     0.156 A 
HETATM    9  C   UNL     1      -3.826   5.193 -33.568  1.00  0.00     0.034 A 
HETATM   10  C   UNL     1      -4.376   3.952 -33.224  1.00  0.00     0.032 A 
ENDROOT
BRANCH   1  11
HETATM   11  N   UNL     1      -4.439   1.898 -31.996  1.00  0.00    -0.327 N 
HETATM   12  C   UNL     1      -3.876   0.742 -31.486  1.00  0.00     0.231 C 
HETATM   13  O   UNL     1      -2.720   0.644 -31.078  1.00  0.00    -0.272 OA
HETATM   14  H   UNL     1      -5.437   1.889 -32.167  1.00  0.00     0.169 HD
BRANCH  12  15
HETATM   15  C   UNL     1      -4.778  -0.505 -31.473  1.00  0.00     0.116 C 
HETATM   16  C   UNL     1      -6.171  -0.323 -32.029  1.00  0.00    -0.012 A 
HETATM   17  C   UNL     1      -7.168   0.291 -31.254  1.00  0.00     0.011 A 
HETATM   18  C   UNL     1      -6.479  -0.746 -33.327  1.00  0.00     0.075 A 
HETATM   19  C   UNL     1      -8.450   0.481 -31.773  1.00  0.00     0.001 A 
HETATM   20  C   UNL     1      -8.747   0.054 -33.065  1.00  0.00     0.003 A 
HETATM   21  C   UNL     1      -7.764  -0.563 -33.838  1.00  0.00     0.037 A 
HETATM   22  O   UNL     1      -5.596  -1.380 -34.156  1.00  0.00    -0.351 OA
HETATM   23  C   UNL     1      -4.231  -1.391 -33.730  1.00  0.00     0.176 C 
HETATM   24  C   UNL     1      -4.083  -1.635 -32.237  1.00  0.00     0.045 C 
ENDBRANCH  12  15
ENDBRANCH   1  11
BRANCH   8  25
HETATM   25  C   UNL     1       0.164   5.105 -30.603  1.00  0.00     0.270 C 
HETATM   26  N   UNL     1      -0.161   5.356 -29.298  1.00  0.00    -0.365 N 
HETATM   27  H   UNL     1      -1.049   5.801 -29.096  1.00  0.00     0.159 HD
HETATM   28  H   UNL     1       0.500   5.138 -28.569  1.00  0.00     0.159 HD
HETATM   29  O   UNL     1       1.241   4.600 -30.903  1.00  0.00    -0.266 OA
ENDBRANCH   8  25
TORSDOF 3
ENDMDL
MODEL 5
REMARK VINA RESULT:      -8.7      3.408      7.489
REMARK  3 active torsions:
REMARK  status: ('A' for Active; 'I' for Inactive)
REMARK    1  A    between atoms: C_8  and  C_9 
REMARK       I    between atoms: C_9  and  N_10 
REMARK    2  A    between atoms: N_10  and  C_11 
REMARK    3  A    between atoms: C_18  and  C_19 
REMARK       I    between atoms: C_19  and  N_20 
ROOT
HETATM    1  C   UNL     1      -3.955   3.750 -32.738  1.00  0.00     0.035 A 
HETATM    2  C   UNL     1      -2.797   4.021 -31.997  1.00  0.00     0.046 A 
HETATM    3  C   UNL     1      -1.995   5.134 -32.339  1.00  0.00     0.030 A 
HETATM    4  C   UNL     1      -2.390   5.945 -33.395  1.00  0.00     0.063 A 
HETATM    5  N   UNL     1      -1.441   6.926 -33.474  1.00  0.00    -0.277 N 
HETATM    6  H   UNL     1      -1.410   7.698 -34.129  1.00  0.00     0.189 HD
HETATM    7  N   UNL     1      -0.448   6.812 -32.578  1.00  0.00    -0.168 NA
HETATM    8  C   UNL     1      -0.773   5.704 -31.872  1.00  0.00     0.156 A 
HETATM    9  C   UNL     1      -3.538   5.707 -34.152  1.00  0.00     0.034 A 
HETATM   10  C   UNL     1      -4.303   4.587 -33.808  1.00  0.00     0.032 A 
ENDROOT
BRANCH   1  11
HETATM   11  N   UNL     1      -4.800   2.646 -32.497  1.00  0.00    -0.327 N 
HETATM   12  C   UNL     1      -5.859   2.570 -31.610  1.00  0.00     0.231 C 
HETATM   13  O   UNL     1      -6.289   3.514 -30.948  1.00  0.00    -0.272 OA
HETATM   14  H   UNL     1      -4.631   1.838 -33.084  1.00  0.00     0.169 HD
BRANCH  12  15
HETATM   15  C   UNL     1      -6.502   1.183 -31.435  1.00  0.00     0.116 C 
HETATM   16  C   UNL     1      -6.497   0.290 -32.653  1.00  0.00    -0.012 A 
HETATM   17  C   UNL     1      -7.432   0.491 -33.682  1.00  0.00     0.011 A 
HETATM   18  C   UNL     1      -5.551  -0.733 -32.780  1.00  0.00     0.075 A 
HETATM   19  C   UNL     1      -7.415  -0.319 -34.819  1.00  0.00     0.001 A 
HETATM   20  C   UNL     1      -6.471  -1.336 -34.935  1.00  0.00     0.003 A 
HETATM   21  C   UNL     1      -5.543  -1.545 -33.914  1.00  0.00     0.037 A 
HETATM   22  O   UNL     1      -4.616  -1.034 -31.830  1.00  0.00    -0.351 OA
HETATM   23  C   UNL     1      -4.475  -0.091 -30.764  1.00  0.00     0.176 C 
HETATM   24  C   UNL     1      -5.811   0.452 -30.281  1.00  0.00     0.045 C 
ENDBRANCH  12  15
ENDBRANCH   1  11
BRANCH   8  25
HETATM   25  C   UNL     1       0.090   5.213 -30.788  1.00  0.00     0.270 C 
HETATM   26  N   UNL     1      -0.358   5.525 -29.533  1.00  0.00    -0.365 N 
HETATM   27  H   UNL     1      -1.210   6.067 -29.443  1.00  0.00     0.159 HD
HETATM   28  H   UNL     1       0.184   5.253 -28.728  1.00  0.00     0.159 HD
HETATM   29  O   UNL     1       1.132   4.589 -30.953  1.00  0.00    -0.266 OA
ENDBRANCH   8  25
TORSDOF 3
ENDMDL
MODEL 6
REMARK VINA RESULT:      -8.6      3.666      8.018
REMARK  3 active torsions:
REMARK  status: ('A' for Active; 'I' for Inactive)
REMARK    1  A    between atoms: C_8  and  C_9 
REMARK       I    between atoms: C_9  and  N_10 
REMARK    2  A    between atoms: N_10  and  C_11 
REMARK    3  A    between atoms: C_18  and  C_19 
REMARK       I    between atoms: C_19  and  N_20 
ROOT
HETATM    1  C   UNL     1      -8.158   2.786 -33.502  1.00  0.00     0.035 A 
HETATM    2  C   UNL     1      -9.414   2.832 -34.122  1.00  0.00     0.046 A 
HETATM    3  C   UNL     1      -9.921   4.071 -34.577  1.00  0.00     0.030 A 
HETATM    4  C   UNL     1      -9.147   5.212 -34.416  1.00  0.00     0.063 A 
HETATM    5  N   UNL     1      -9.884   6.229 -34.956  1.00  0.00    -0.277 N 
HETATM    6  H   UNL     1      -9.626   7.207 -35.019  1.00  0.00     0.189 HD
HETATM    7  N   UNL     1     -11.081   5.856 -35.435  1.00  0.00    -0.168 NA
HETATM    8  C   UNL     1     -11.122   4.523 -35.203  1.00  0.00     0.156 A 
HETATM    9  C   UNL     1      -7.892   5.203 -33.807  1.00  0.00     0.034 A 
HETATM   10  C   UNL     1      -7.421   3.968 -33.343  1.00  0.00     0.032 A 
ENDROOT
BRANCH   1  11
HETATM   11  N   UNL     1      -7.582   1.607 -32.984  1.00  0.00    -0.327 N 
HETATM   12  C   UNL     1      -6.953   0.594 -33.686  1.00  0.00     0.231 C 
HETATM   13  O   UNL     1      -6.715   0.620 -34.892  1.00  0.00    -0.272 OA
HETATM   14  H   UNL     1      -7.595   1.530 -31.974  1.00  0.00     0.169 HD
BRANCH  12  15
HETATM   15  C   UNL     1      -6.566  -0.656 -32.876  1.00  0.00     0.116 C 
HETATM   16  C   UNL     1      -6.144  -1.863 -33.680  1.00  0.00    -0.012 A 
HETATM   17  C   UNL     1      -7.109  -2.676 -34.297  1.00  0.00     0.011 A 
HETATM   18  C   UNL     1      -4.789  -2.175 -33.835  1.00  0.00     0.075 A 
HETATM   19  C   UNL     1      -6.720  -3.779 -35.058  1.00  0.00     0.001 A 
HETATM   20  C   UNL     1      -5.369  -4.082 -35.204  1.00  0.00     0.003 A 
HETATM   21  C   UNL     1      -4.405  -3.284 -34.589  1.00  0.00     0.037 A 
HETATM   22  O   UNL     1      -3.770  -1.471 -33.256  1.00  0.00    -0.351 OA
HETATM   23  C   UNL     1      -4.128  -0.224 -32.655  1.00  0.00     0.176 C 
HETATM   24  C   UNL     1      -5.446  -0.293 -31.899  1.00  0.00     0.045 C 
ENDBRANCH  12  15
ENDBRANCH   1  11
BRANCH   8  25
HETATM   25  C   UNL     1     -12.301   3.725 -35.566  1.00  0.00     0.270 C 
HETATM   26  N   UNL     1     -13.325   3.798 -34.660  1.00  0.00    -0.365 N 
HETATM   27  H   UNL     1     -13.196   4.360 -33.827  1.00  0.00     0.159 HD
HETATM   28  H   UNL     1     -14.164   3.260 -34.812  1.00  0.00     0.159 HD
HETATM   29  O   UNL     1     -12.393   3.031 -36.573  1.00  0.00    -0.266 OA
ENDBRANCH   8  25
TORSDOF 3
ENDMDL
MODEL 7
REMARK VINA RESULT:      -8.2      4.254      8.175
REMARK  3 active torsions:
REMARK  status: ('A' for Active; 'I' for Inactive)
REMARK    1  A    between atoms: C_8  and  C_9 
REMARK       I    between atoms: C_9  and  N_10 
REMARK    2  A    between atoms: N_10  and  C_11 
REMARK    3  A    between atoms: C_18  and  C_19 
REMARK       I    between atoms: C_19  and  N_20 
ROOT
HETATM    1  C   UNL     1     -10.241   1.877 -34.024  1.00  0.00     0.035 A 
HETATM    2  C   UNL     1     -10.107   3.266 -34.150  1.00  0.00     0.046 A 
HETATM    3  C   UNL     1     -11.105   4.004 -34.826  1.00  0.00     0.030 A 
HETATM    4  C   UNL     1     -12.209   3.331 -35.332  1.00  0.00     0.063 A 
HETATM    5  N   UNL     1     -12.990   4.294 -35.906  1.00  0.00    -0.277 N 
HETATM    6  H   UNL     1     -13.882   4.165 -36.370  1.00  0.00     0.189 HD
HETATM    7  N   UNL     1     -12.482   5.535 -35.841  1.00  0.00    -0.168 NA
HETATM    8  C   UNL     1     -11.312   5.371 -35.180  1.00  0.00     0.156 A 
HETATM    9  C   UNL     1     -12.377   1.949 -35.222  1.00  0.00     0.034 A 
HETATM   10  C   UNL     1     -11.364   1.238 -34.569  1.00  0.00     0.032 A 
ENDROOT
BRANCH   1  11
HETATM   11  N   UNL     1      -9.283   1.050 -33.399  1.00  0.00    -0.327 N 
HETATM   12  C   UNL     1      -8.214   0.401 -33.990  1.00  0.00     0.231 C 
HETATM   13  O   UNL     1      -7.879   0.527 -35.167  1.00  0.00    -0.272 OA
HETATM   14  H   UNL     1      -9.372   0.972 -32.393  1.00  0.00     0.169 HD
BRANCH  12  15
HETATM   15  C   UNL     1      -7.427  -0.570 -33.092  1.00  0.00     0.116 C 
HETATM   16  C   UNL     1      -6.651  -1.653 -33.804  1.00  0.00    -0.012 A 
HETATM   17  C   UNL     1      -7.311  -2.791 -34.296  1.00  0.00     0.011 A 
HETATM   18  C   UNL     1      -5.271  -1.527 -33.998  1.00  0.00     0.075 A 
HETATM   19  C   UNL     1      -6.599  -3.782 -34.974  1.00  0.00     0.001 A 
HETATM   20  C   UNL     1      -5.226  -3.648 -35.160  1.00  0.00     0.003 A 
HETATM   21  C   UNL     1      -4.562  -2.524 -34.668  1.00  0.00     0.037 A 
HETATM   22  O   UNL     1      -4.525  -0.479 -33.537  1.00  0.00    -0.351 OA
HETATM   23  C   UNL     1      -5.258   0.642 -33.033  1.00  0.00     0.176 C 
HETATM   24  C   UNL     1      -6.467   0.230 -32.209  1.00  0.00     0.045 C 
ENDBRANCH  12  15
ENDBRANCH   1  11
BRANCH   8  25
HETATM   25  C   UNL     1     -10.421   6.510 -34.918  1.00  0.00     0.270 C 
HETATM   26  N   UNL     1     -10.293   7.373 -35.974  1.00  0.00    -0.365 N 
HETATM   27  H   UNL     1     -10.787   7.163 -36.833  1.00  0.00     0.159 HD
HETATM   28  H   UNL     1      -9.680   8.169 -35.895  1.00  0.00     0.159 HD
HETATM   29  O   UNL     1      -9.818   6.700 -33.868  1.00  0.00    -0.266 OA
ENDBRANCH   8  25
TORSDOF 3
ENDMDL
MODEL 8
REMARK VINA RESULT:      -7.9      2.715      3.264
REMARK  3 active torsions:
REMARK  status: ('A' for Active; 'I' for Inactive)
REMARK    1  A    between atoms: C_8  and  C_9 
REMARK       I    between atoms: C_9  and  N_10 
REMARK    2  A    between atoms: N_10  and  C_11 
REMARK    3  A    between atoms: C_18  and  C_19 
REMARK       I    between atoms: C_19  and  N_20 
ROOT
HETATM    1  C   UNL     1      -6.895   0.059 -33.012  1.00  0.00     0.035 A 
HETATM    2  C   UNL     1      -5.747  -0.595 -32.544  1.00  0.00     0.046 A 
HETATM    3  C   UNL     1      -5.197  -1.659 -33.294  1.00  0.00     0.030 A 
HETATM    4  C   UNL     1      -5.800  -2.017 -34.492  1.00  0.00     0.063 A 
HETATM    5  N   UNL     1      -5.048  -3.047 -34.984  1.00  0.00    -0.277 N 
HETATM    6  H   UNL     1      -5.193  -3.553 -35.850  1.00  0.00     0.189 HD
HETATM    7  N   UNL     1      -4.020  -3.409 -34.200  1.00  0.00    -0.168 NA
HETATM    8  C   UNL     1      -4.102  -2.563 -33.147  1.00  0.00     0.156 A 
HETATM    9  C   UNL     1      -6.942  -1.387 -34.990  1.00  0.00     0.034 A 
HETATM   10  C   UNL     1      -7.481  -0.351 -34.218  1.00  0.00     0.032 A 
ENDROOT
BRANCH   1  11
HETATM   11  N   UNL     1      -7.538   1.106 -32.319  1.00  0.00    -0.327 N 
HETATM   12  C   UNL     1      -8.828   1.122 -31.819  1.00  0.00     0.231 C 
HETATM   13  O   UNL     1      -9.595   0.160 -31.826  1.00  0.00    -0.272 OA
HETATM   14  H   UNL     1      -6.959   1.916 -32.129  1.00  0.00     0.169 HD
BRANCH  12  15
HETATM   15  C   UNL     1      -9.321   2.464 -31.251  1.00  0.00     0.116 C 
HETATM   16  C   UNL     1      -8.253   3.488 -30.945  1.00  0.00    -0.012 A 
HETATM   17  C   UNL     1      -7.484   3.382 -29.774  1.00  0.00     0.011 A 
HETATM   18  C   UNL     1      -8.005   4.542 -31.831  1.00  0.00     0.075 A 
HETATM   19  C   UNL     1      -6.483   4.315 -29.501  1.00  0.00     0.001 A 
HETATM   20  C   UNL     1      -6.245   5.361 -30.388  1.00  0.00     0.003 A 
HETATM   21  C   UNL     1      -7.009   5.477 -31.550  1.00  0.00     0.037 A 
HETATM   22  O   UNL     1      -8.711   4.758 -32.982  1.00  0.00    -0.351 OA
HETATM   23  C   UNL     1      -9.589   3.704 -33.388  1.00  0.00     0.176 C 
HETATM   24  C   UNL     1     -10.334   3.077 -32.221  1.00  0.00     0.045 C 
ENDBRANCH  12  15
ENDBRANCH   1  11
BRANCH   8  25
HETATM   25  C   UNL     1      -3.151  -2.647 -32.029  1.00  0.00     0.270 C 
HETATM   26  N   UNL     1      -2.547  -1.458 -31.720  1.00  0.00    -0.365 N 
HETATM   27  H   UNL     1      -2.775  -0.640 -32.273  1.00  0.00     0.159 HD
HETATM   28  H   UNL     1      -1.859  -1.426 -30.984  1.00  0.00     0.159 HD
HETATM   29  O   UNL     1      -2.884  -3.673 -31.414  1.00  0.00    -0.266 OA
ENDBRANCH   8  25
TORSDOF 3
ENDMDL
MODEL 9
REMARK VINA RESULT:      -7.9      3.551      7.649
REMARK  3 active torsions:
REMARK  status: ('A' for Active; 'I' for Inactive)
REMARK    1  A    between atoms: C_8  and  C_9 
REMARK       I    between atoms: C_9  and  N_10 
REMARK    2  A    between atoms: N_10  and  C_11 
REMARK    3  A    between atoms: C_18  and  C_19 
REMARK       I    between atoms: C_19  and  N_20 
ROOT
HETATM    1  C   UNL     1      -4.641   4.512 -33.608  1.00  0.00     0.035 A 
HETATM    2  C   UNL     1      -4.065   5.049 -32.448  1.00  0.00     0.046 A 
HETATM    3  C   UNL     1      -2.934   5.889 -32.558  1.00  0.00     0.030 A 
HETATM    4  C   UNL     1      -2.433   6.179 -33.820  1.00  0.00     0.063 A 
HETATM    5  N   UNL     1      -1.368   7.009 -33.606  1.00  0.00    -0.277 N 
HETATM    6  H   UNL     1      -0.765   7.426 -34.307  1.00  0.00     0.189 HD
HETATM    7  N   UNL     1      -1.116   7.269 -32.314  1.00  0.00    -0.168 NA
HETATM    8  C   UNL     1      -2.072   6.578 -31.651  1.00  0.00     0.156 A 
HETATM    9  C   UNL     1      -2.982   5.664 -34.995  1.00  0.00     0.034 A 
HETATM   10  C   UNL     1      -4.088   4.816 -34.860  1.00  0.00     0.032 A 
ENDROOT
BRANCH   1  11
HETATM   11  N   UNL     1      -5.747   3.636 -33.600  1.00  0.00    -0.327 N 
HETATM   12  C   UNL     1      -7.074   3.950 -33.834  1.00  0.00     0.231 C 
HETATM   13  O   UNL     1      -7.483   5.056 -34.185  1.00  0.00    -0.272 OA
HETATM   14  H   UNL     1      -5.522   2.660 -33.453  1.00  0.00     0.169 HD
BRANCH  12  15
HETATM   15  C   UNL     1      -8.092   2.820 -33.596  1.00  0.00     0.116 C 
HETATM   16  C   UNL     1      -7.565   1.411 -33.733  1.00  0.00    -0.012 A 
HETATM   17  C   UNL     1      -7.374   0.846 -35.004  1.00  0.00     0.011 A 
HETATM   18  C   UNL     1      -7.242   0.661 -32.596  1.00  0.00     0.075 A 
HETATM   19  C   UNL     1      -6.866  -0.448 -35.132  1.00  0.00     0.001 A 
HETATM   20  C   UNL     1      -6.550  -1.187 -33.995  1.00  0.00     0.003 A 
HETATM   21  C   UNL     1      -6.743  -0.635 -32.729  1.00  0.00     0.037 A 
HETATM   22  O   UNL     1      -7.414   1.101 -31.313  1.00  0.00    -0.351 OA
HETATM   23  C   UNL     1      -7.726   2.488 -31.160  1.00  0.00     0.176 C 
HETATM   24  C   UNL     1      -8.710   2.987 -32.206  1.00  0.00     0.045 C 
ENDBRANCH  12  15
ENDBRANCH   1  11
BRANCH   8  25
HETATM   25  C   UNL     1      -2.132   6.581 -30.183  1.00  0.00     0.270 C 
HETATM   26  N   UNL     1      -1.016   6.068 -29.578  1.00  0.00    -0.365 N 
HETATM   27  H   UNL     1      -0.264   5.720 -30.163  1.00  0.00     0.159 HD
HETATM   28  H   UNL     1      -0.978   6.004 -28.573  1.00  0.00     0.159 HD
HETATM   29  O   UNL     1      -3.083   6.984 -29.522  1.00  0.00    -0.266 OA
ENDBRANCH   8  25
TORSDOF 3
ENDMDL
MODEL 10
REMARK VINA RESULT:      -7.8      3.634      7.854
REMARK  3 active torsions:
REMARK  status: ('A' for Active; 'I' for Inactive)
REMARK    1  A    between atoms: C_8  and  C_9 
REMARK       I    between atoms: C_9  and  N_10 
REMARK    2  A    between atoms: N_10  and  C_11 
REMARK    3  A    between atoms: C_18  and  C_19 
REMARK       I    between atoms: C_19  and  N_20 
ROOT
HETATM    1  C   UNL     1      -4.629   3.828 -31.089  1.00  0.00     0.035 A 
HETATM    2  C   UNL     1      -3.834   4.392 -32.096  1.00  0.00     0.046 A 
HETATM    3  C   UNL     1      -3.554   5.777 -32.068  1.00  0.00     0.030 A 
HETATM    4  C   UNL     1      -4.060   6.543 -31.026  1.00  0.00     0.063 A 
HETATM    5  N   UNL     1      -3.617   7.814 -31.261  1.00  0.00    -0.277 N 
HETATM    6  H   UNL     1      -3.790   8.638 -30.697  1.00  0.00     0.189 HD
HETATM    7  N   UNL     1      -2.886   7.951 -32.379  1.00  0.00    -0.168 NA
HETATM    8  C   UNL     1      -2.843   6.699 -32.893  1.00  0.00     0.156 A 
HETATM    9  C   UNL     1      -4.852   6.014 -30.006  1.00  0.00     0.034 A 
HETATM   10  C   UNL     1      -5.135   4.644 -30.068  1.00  0.00     0.032 A 
ENDROOT
BRANCH   1  11
HETATM   11  N   UNL     1      -4.993   2.465 -31.049  1.00  0.00    -0.327 N 
HETATM   12  C   UNL     1      -4.156   1.365 -31.098  1.00  0.00     0.231 C 
HETATM   13  O   UNL     1      -2.927   1.418 -31.091  1.00  0.00    -0.272 OA
HETATM   14  H   UNL     1      -5.982   2.287 -30.920  1.00  0.00     0.169 HD
BRANCH  12  15
HETATM   15  C   UNL     1      -4.842  -0.008 -31.204  1.00  0.00     0.116 C 
HETATM   16  C   UNL     1      -6.157  -0.039 -31.947  1.00  0.00    -0.012 A 
HETATM   17  C   UNL     1      -7.335   0.398 -31.321  1.00  0.00     0.011 A 
HETATM   18  C   UNL     1      -6.212  -0.483 -33.273  1.00  0.00     0.075 A 
HETATM   19  C   UNL     1      -8.547   0.392 -32.014  1.00  0.00     0.001 A 
HETATM   20  C   UNL     1      -8.593  -0.055 -33.332  1.00  0.00     0.003 A 
HETATM   21  C   UNL     1      -7.427  -0.496 -33.958  1.00  0.00     0.037 A 
HETATM   22  O   UNL     1      -5.135  -0.956 -33.969  1.00  0.00    -0.351 OA
HETATM   23  C   UNL     1      -3.857  -0.759 -33.359  1.00  0.00     0.176 C 
HETATM   24  C   UNL     1      -3.878  -1.001 -31.858  1.00  0.00     0.045 C 
ENDBRANCH  12  15
ENDBRANCH   1  11
BRANCH   8  25
HETATM   25  C   UNL     1      -2.143   6.420 -34.155  1.00  0.00     0.270 C 
HETATM   26  N   UNL     1      -2.903   5.757 -35.080  1.00  0.00    -0.365 N 
HETATM   27  H   UNL     1      -3.851   5.499 -34.833  1.00  0.00     0.159 HD
HETATM   28  H   UNL     1      -2.497   5.499 -35.965  1.00  0.00     0.159 HD
HETATM   29  O   UNL     1      -0.979   6.725 -34.391  1.00  0.00    -0.266 OA
ENDBRANCH   8  25
TORSDOF 3
ENDMDL
