MODEL 1
REMARK VINA RESULT:      -7.7      0.000      0.000
REMARK  7 active torsions:
REMARK  status: ('A' for Active; 'I' for Inactive)
REMARK    1  A    between atoms: O_2  and  C_3 
REMARK    2  A    between atoms: C_4  and  O_5 
REMARK    3  A    between atoms: C_9  and  C_10 
REMARK    4  A    between atoms: C_10  and  N_11 
REMARK    5  A    between atoms: C_14  and  C_15 
REMARK    6  A    between atoms: C_15  and  N_16 
REMARK    7  A    between atoms: N_16  and  C_17 
ROOT
HETATM    1  N   UNL     1      -7.432   1.351 -32.814  1.00  0.00    -0.067 N 
HETATM    2  H   UNL     1      -6.657   1.084 -32.188  1.00  0.00     0.280 HD
HETATM    3  C   UNL     1      -8.707   0.968 -32.087  1.00  0.00     0.241 C 
HETATM    4  C   UNL     1      -9.578   2.223 -32.095  1.00  0.00     0.031 C 
HETATM    5  C   UNL     1      -8.538   3.339 -32.047  1.00  0.00     0.035 C 
HETATM    6  C   UNL     1      -7.402   2.862 -32.936  1.00  0.00     0.235 C 
ENDROOT
BRANCH   1   7
HETATM    7  C   UNL     1      -7.145   0.648 -34.123  1.00  0.00     0.273 C 
BRANCH   7   8
HETATM    8  C   UNL     1      -6.297  -0.587 -33.984  1.00  0.00    -0.028 A 
HETATM    9  C   UNL     1      -6.658  -1.777 -34.633  1.00  0.00     0.031 A 
HETATM   10  C   UNL     1      -5.835  -2.904 -34.547  1.00  0.00     0.047 A 
HETATM   11  C   UNL     1      -4.654  -2.847 -33.810  1.00  0.00     0.116 A 
HETATM   12 BR   UNL     1      -6.365  -4.474 -35.463  1.00  0.00    -0.048 Br
HETATM   13  C   UNL     1      -4.288  -1.679 -33.133  1.00  0.00     0.103 A 
HETATM   14  C   UNL     1      -5.111  -0.552 -33.222  1.00  0.00     0.048 A 
BRANCH  11  15
HETATM   15  O   UNL     1      -3.833  -3.941 -33.739  1.00  0.00    -0.357 OA
HETATM   16  H   UNL     1      -3.165  -3.845 -34.445  1.00  0.00     0.218 HD
ENDBRANCH  11  15
BRANCH  13  17
HETATM   17  O   UNL     1      -3.103  -1.750 -32.451  1.00  0.00    -0.353 OA
HETATM   18  C   UNL     1      -2.685  -0.599 -31.727  1.00  0.00     0.210 C 
ENDBRANCH  13  17
ENDBRANCH   7   8
ENDBRANCH   1   7
BRANCH   4  19
HETATM   19  C   UNL     1     -10.499   2.254 -33.329  1.00  0.00     0.127 C 
BRANCH  19  20
HETATM   20  N   UNL     1     -11.324   1.047 -33.411  1.00  0.00    -0.376 N 
HETATM   21  H   UNL     1     -10.929   0.296 -33.973  1.00  0.00     0.161 HD
BRANCH  20  22
HETATM   22  C   UNL     1     -12.709   1.167 -33.435  1.00  0.00     0.100 A 
HETATM   23  N   UNL     1     -13.290   2.092 -32.649  1.00  0.00    -0.353 N 
HETATM   24  H   UNL     1     -12.693   2.673 -32.067  1.00  0.00     0.166 HD
HETATM   25  C   UNL     1     -14.615   2.301 -32.595  1.00  0.00     0.089 A 
HETATM   26  C   UNL     1     -15.471   1.556 -33.388  1.00  0.00     0.017 A 
HETATM   27  C   UNL     1     -14.930   0.607 -34.243  1.00  0.00     0.005 A 
HETATM   28  C   UNL     1     -13.548   0.417 -34.274  1.00  0.00     0.048 A 
ENDBRANCH  20  22
ENDBRANCH  19  20
ENDBRANCH   4  19
TORSDOF 7
ENDMDL
MODEL 2
REMARK VINA RESULT:      -7.6      4.128      7.657
REMARK  7 active torsions:
REMARK  status: ('A' for Active; 'I' for Inactive)
REMARK    1  A    between atoms: O_2  and  C_3 
REMARK    2  A    between atoms: C_4  and  O_5 
REMARK    3  A    between atoms: C_9  and  C_10 
REMARK    4  A    between atoms: C_10  and  N_11 
REMARK    5  A    between atoms: C_14  and  C_15 
REMARK    6  A    between atoms: C_15  and  N_16 
REMARK    7  A    between atoms: N_16  and  C_17 
ROOT
HETATM    1  N   UNL     1      -7.153   1.510 -32.355  1.00  0.00    -0.067 N 
HETATM    2  H   UNL     1      -7.564   2.437 -32.546  1.00  0.00     0.280 HD
HETATM    3  C   UNL     1      -5.958   1.384 -33.281  1.00  0.00     0.241 C 
HETATM    4  C   UNL     1      -4.784   0.993 -32.385  1.00  0.00     0.031 C 
HETATM    5  C   UNL     1      -5.132   1.689 -31.072  1.00  0.00     0.035 C 
HETATM    6  C   UNL     1      -6.637   1.538 -30.930  1.00  0.00     0.235 C 
ENDROOT
BRANCH   1   7
HETATM    7  C   UNL     1      -8.286   0.526 -32.553  1.00  0.00     0.273 C 
BRANCH   7   8
HETATM    8  C   UNL     1      -9.495   1.109 -33.232  1.00  0.00    -0.028 A 
HETATM    9  C   UNL     1     -10.715   0.416 -33.235  1.00  0.00     0.031 A 
HETATM   10  C   UNL     1     -11.849   0.988 -33.818  1.00  0.00     0.047 A 
HETATM   11  C   UNL     1     -11.767   2.250 -34.404  1.00  0.00     0.116 A 
HETATM   12 BR   UNL     1     -13.472   0.013 -33.771  1.00  0.00    -0.048 Br
HETATM   13  C   UNL     1     -10.555   2.947 -34.436  1.00  0.00     0.103 A 
HETATM   14  C   UNL     1      -9.422   2.374 -33.850  1.00  0.00     0.048 A 
BRANCH  11  15
HETATM   15  O   UNL     1     -12.879   2.826 -34.958  1.00  0.00    -0.357 OA
HETATM   16  H   UNL     1     -12.633   3.119 -35.857  1.00  0.00     0.218 HD
ENDBRANCH  11  15
BRANCH  13  17
HETATM   17  O   UNL     1     -10.609   4.178 -35.033  1.00  0.00    -0.353 OA
HETATM   18  C   UNL     1      -9.653   5.152 -34.631  1.00  0.00     0.210 C 
ENDBRANCH  13  17
ENDBRANCH   7   8
ENDBRANCH   1   7
BRANCH   4  19
HETATM   19  C   UNL     1      -4.645  -0.537 -32.285  1.00  0.00     0.127 C 
BRANCH  19  20
HETATM   20  N   UNL     1      -4.279  -1.127 -33.575  1.00  0.00    -0.376 N 
HETATM   21  H   UNL     1      -4.015  -0.455 -34.292  1.00  0.00     0.161 HD
BRANCH  20  22
HETATM   22  C   UNL     1      -4.938  -2.269 -34.015  1.00  0.00     0.100 A 
HETATM   23  N   UNL     1      -4.269  -3.436 -34.025  1.00  0.00    -0.353 N 
HETATM   24  H   UNL     1      -3.304  -3.442 -33.706  1.00  0.00     0.166 HD
HETATM   25  C   UNL     1      -4.806  -4.602 -34.422  1.00  0.00     0.089 A 
HETATM   26  C   UNL     1      -6.125  -4.655 -34.840  1.00  0.00     0.017 A 
HETATM   27  C   UNL     1      -6.876  -3.489 -34.824  1.00  0.00     0.005 A 
HETATM   28  C   UNL     1      -6.287  -2.297 -34.404  1.00  0.00     0.048 A 
ENDBRANCH  20  22
ENDBRANCH  19  20
ENDBRANCH   4  19
TORSDOF 7
ENDMDL
MODEL 3
REMARK VINA RESULT:      -7.6      3.007      5.806
REMARK  7 active torsions:
REMARK  status: ('A' for Active; 'I' for Inactive)
REMARK    1  A    between atoms: O_2  and  C_3 
REMARK    2  A    between atoms: C_4  and  O_5 
REMARK    3  A    between atoms: C_9  and  C_10 
REMARK    4  A    between atoms: C_10  and  N_11 
REMARK    5  A    between atoms: C_14  and  C_15 
REMARK    6  A    between atoms: C_15  and  N_16 
REMARK    7  A    between atoms: N_16  and  C_17 
ROOT
HETATM    1  N   UNL     1      -8.528   1.005 -34.037  1.00  0.00    -0.067 N 
HETATM    2  H   UNL     1      -9.408   0.642 -34.433  1.00  0.00     0.280 HD
HETATM    3  C   UNL     1      -8.762   2.482 -33.781  1.00  0.00     0.241 C 
HETATM    4  C   UNL     1      -8.359   2.716 -32.327  1.00  0.00     0.031 C 
HETATM    5  C   UNL     1      -8.712   1.383 -31.674  1.00  0.00     0.035 C 
HETATM    6  C   UNL     1      -8.330   0.326 -32.697  1.00  0.00     0.235 C 
ENDROOT
BRANCH   1   7
HETATM    7  C   UNL     1      -7.460   0.641 -35.046  1.00  0.00     0.273 C 
BRANCH   7   8
HETATM    8  C   UNL     1      -6.513  -0.431 -34.578  1.00  0.00    -0.028 A 
HETATM    9  C   UNL     1      -6.732  -1.775 -34.917  1.00  0.00     0.031 A 
HETATM   10  C   UNL     1      -5.817  -2.758 -34.528  1.00  0.00     0.047 A 
HETATM   11  C   UNL     1      -4.685  -2.403 -33.796  1.00  0.00     0.116 A 
HETATM   12 BR   UNL     1      -6.157  -4.550 -35.035  1.00  0.00    -0.048 Br
HETATM   13  C   UNL     1      -4.461  -1.073 -33.425  1.00  0.00     0.103 A 
HETATM   14  C   UNL     1      -5.376  -0.091 -33.817  1.00  0.00     0.048 A 
BRANCH  11  15
HETATM   15  O   UNL     1      -3.775  -3.358 -33.430  1.00  0.00    -0.357 OA
HETATM   16  H   UNL     1      -4.108  -3.773 -32.610  1.00  0.00     0.218 HD
ENDBRANCH  11  15
BRANCH  13  17
HETATM   17  O   UNL     1      -3.311  -0.856 -32.714  1.00  0.00    -0.353 OA
HETATM   18  C   UNL     1      -3.403  -0.074 -31.529  1.00  0.00     0.210 C 
ENDBRANCH  13  17
ENDBRANCH   7   8
ENDBRANCH   1   7
BRANCH   4  19
HETATM   19  C   UNL     1      -6.875   3.113 -32.217  1.00  0.00     0.127 C 
BRANCH  19  20
HETATM   20  N   UNL     1      -6.446   3.904 -33.373  1.00  0.00    -0.376 N 
HETATM   21  H   UNL     1      -7.005   3.772 -34.213  1.00  0.00     0.161 HD
BRANCH  20  22
HETATM   22  C   UNL     1      -5.092   4.148 -33.568  1.00  0.00     0.100 A 
HETATM   23  N   UNL     1      -4.723   4.984 -34.556  1.00  0.00    -0.353 N 
HETATM   24  H   UNL     1      -5.450   5.412 -35.122  1.00  0.00     0.166 HD
HETATM   25  C   UNL     1      -3.447   5.298 -34.832  1.00  0.00     0.089 A 
HETATM   26  C   UNL     1      -2.418   4.765 -34.073  1.00  0.00     0.017 A 
HETATM   27  C   UNL     1      -2.736   3.919 -33.020  1.00  0.00     0.005 A 
HETATM   28  C   UNL     1      -4.073   3.617 -32.762  1.00  0.00     0.048 A 
ENDBRANCH  20  22
ENDBRANCH  19  20
ENDBRANCH   4  19
TORSDOF 7
ENDMDL
MODEL 4
REMARK VINA RESULT:      -7.3      1.706      2.658
REMARK  7 active torsions:
REMARK  status: ('A' for Active; 'I' for Inactive)
REMARK    1  A    between atoms: O_2  and  C_3 
REMARK    2  A    between atoms: C_4  and  O_5 
REMARK    3  A    between atoms: C_9  and  C_10 
REMARK    4  A    between atoms: C_10  and  N_11 
REMARK    5  A    between atoms: C_14  and  C_15 
REMARK    6  A    between atoms: C_15  and  N_16 
REMARK    7  A    between atoms: N_16  and  C_17 
ROOT
HETATM    1  N   UNL     1      -8.173   1.014 -33.010  1.00  0.00    -0.067 N 
HETATM    2  H   UNL     1      -7.622   0.620 -32.233  1.00  0.00     0.280 HD
HETATM    3  C   UNL     1      -9.516   0.309 -32.972  1.00  0.00     0.241 C 
HETATM    4  C   UNL     1     -10.564   1.420 -32.973  1.00  0.00     0.031 C 
HETATM    5  C   UNL     1      -9.850   2.539 -32.221  1.00  0.00     0.035 C 
HETATM    6  C   UNL     1      -8.407   2.477 -32.692  1.00  0.00     0.235 C 
ENDROOT
BRANCH   1   7
HETATM    7  C   UNL     1      -7.320   0.808 -34.244  1.00  0.00     0.273 C 
BRANCH   7   8
HETATM    8  C   UNL     1      -6.308  -0.297 -34.114  1.00  0.00    -0.028 A 
HETATM    9  C   UNL     1      -5.229  -0.176 -33.225  1.00  0.00     0.031 A 
HETATM   10  C   UNL     1      -4.324  -1.230 -33.066  1.00  0.00     0.047 A 
HETATM   11  C   UNL     1      -4.491  -2.404 -33.798  1.00  0.00     0.116 A 
HETATM   12 BR   UNL     1      -2.903  -1.014 -31.835  1.00  0.00    -0.048 Br
HETATM   13  C   UNL     1      -5.544  -2.536 -34.710  1.00  0.00     0.103 A 
HETATM   14  C   UNL     1      -6.449  -1.481 -34.865  1.00  0.00     0.048 A 
BRANCH  11  15
HETATM   15  O   UNL     1      -3.620  -3.448 -33.633  1.00  0.00    -0.357 OA
HETATM   16  H   UNL     1      -2.722  -3.101 -33.798  1.00  0.00     0.218 HD
ENDBRANCH  11  15
BRANCH  13  17
HETATM   17  O   UNL     1      -5.600  -3.740 -35.361  1.00  0.00    -0.353 OA
HETATM   18  C   UNL     1      -6.743  -4.558 -35.142  1.00  0.00     0.210 C 
ENDBRANCH  13  17
ENDBRANCH   7   8
ENDBRANCH   1   7
BRANCH   4  19
HETATM   19  C   UNL     1     -10.992   1.780 -34.407  1.00  0.00     0.127 C 
BRANCH  19  20
HETATM   20  N   UNL     1     -12.033   2.811 -34.412  1.00  0.00    -0.376 N 
HETATM   21  H   UNL     1     -11.688   3.767 -34.383  1.00  0.00     0.161 HD
BRANCH  20  22
HETATM   22  C   UNL     1     -13.233   2.572 -33.752  1.00  0.00     0.100 A 
HETATM   23  N   UNL     1     -14.012   1.559 -34.176  1.00  0.00    -0.353 N 
HETATM   24  H   UNL     1     -13.692   1.002 -34.963  1.00  0.00     0.166 HD
HETATM   25  C   UNL     1     -15.186   1.232 -33.611  1.00  0.00     0.089 A 
HETATM   26  C   UNL     1     -15.655   1.941 -32.518  1.00  0.00     0.017 A 
HETATM   27  C   UNL     1     -14.882   2.978 -32.015  1.00  0.00     0.005 A 
HETATM   28  C   UNL     1     -13.667   3.288 -32.626  1.00  0.00     0.048 A 
ENDBRANCH  20  22
ENDBRANCH  19  20
ENDBRANCH   4  19
TORSDOF 7
ENDMDL
MODEL 5
REMARK VINA RESULT:      -7.3      3.932      7.005
REMARK  7 active torsions:
REMARK  status: ('A' for Active; 'I' for Inactive)
REMARK    1  A    between atoms: O_2  and  C_3 
REMARK    2  A    between atoms: C_4  and  O_5 
REMARK    3  A    between atoms: C_9  and  C_10 
REMARK    4  A    between atoms: C_10  and  N_11 
REMARK    5  A    between atoms: C_14  and  C_15 
REMARK    6  A    between atoms: C_15  and  N_16 
REMARK    7  A    between atoms: N_16  and  C_17 
ROOT
HETATM    1  N   UNL     1      -7.211   1.609 -33.233  1.00  0.00    -0.067 N 
HETATM    2  H   UNL     1      -8.226   1.705 -33.389  1.00  0.00     0.280 HD
HETATM    3  C   UNL     1      -6.698   3.008 -32.948  1.00  0.00     0.241 C 
HETATM    4  C   UNL     1      -5.908   2.900 -31.645  1.00  0.00     0.031 C 
HETATM    5  C   UNL     1      -6.656   1.794 -30.904  1.00  0.00     0.035 C 
HETATM    6  C   UNL     1      -7.031   0.783 -31.975  1.00  0.00     0.235 C 
ENDROOT
BRANCH   1   7
HETATM    7  C   UNL     1      -6.683   0.919 -34.472  1.00  0.00     0.273 C 
BRANCH   7   8
HETATM    8  C   UNL     1      -5.980  -0.383 -34.198  1.00  0.00    -0.028 A 
HETATM    9  C   UNL     1      -6.466  -1.583 -34.737  1.00  0.00     0.031 A 
HETATM   10  C   UNL     1      -5.777  -2.781 -34.527  1.00  0.00     0.047 A 
HETATM   11  C   UNL     1      -4.604  -2.784 -33.774  1.00  0.00     0.116 A 
HETATM   12 BR   UNL     1      -6.471  -4.364 -35.299  1.00  0.00    -0.048 Br
HETATM   13  C   UNL     1      -4.116  -1.603 -33.204  1.00  0.00     0.103 A 
HETATM   14  C   UNL     1      -4.806  -0.406 -33.418  1.00  0.00     0.048 A 
BRANCH  11  15
HETATM   15  O   UNL     1      -3.913  -3.950 -33.581  1.00  0.00    -0.357 OA
HETATM   16  H   UNL     1      -3.221  -3.767 -32.915  1.00  0.00     0.218 HD
ENDBRANCH  11  15
BRANCH  13  17
HETATM   17  O   UNL     1      -2.953  -1.739 -32.493  1.00  0.00    -0.353 OA
HETATM   18  C   UNL     1      -2.596  -0.689 -31.602  1.00  0.00     0.210 C 
ENDBRANCH  13  17
ENDBRANCH   7   8
ENDBRANCH   1   7
BRANCH   4  19
HETATM   19  C   UNL     1      -4.423   2.600 -31.918  1.00  0.00     0.127 C 
BRANCH  19  20
HETATM   20  N   UNL     1      -3.550   3.358 -31.018  1.00  0.00    -0.376 N 
HETATM   21  H   UNL     1      -3.955   3.572 -30.110  1.00  0.00     0.161 HD
BRANCH  20  22
HETATM   22  C   UNL     1      -2.689   4.313 -31.546  1.00  0.00     0.100 A 
HETATM   23  N   UNL     1      -2.228   5.284 -30.736  1.00  0.00    -0.353 N 
HETATM   24  H   UNL     1      -2.523   5.281 -29.764  1.00  0.00     0.166 HD
HETATM   25  C   UNL     1      -1.387   6.253 -31.134  1.00  0.00     0.089 A 
HETATM   26  C   UNL     1      -0.932   6.287 -32.442  1.00  0.00     0.017 A 
HETATM   27  C   UNL     1      -1.349   5.295 -33.318  1.00  0.00     0.005 A 
HETATM   28  C   UNL     1      -2.220   4.303 -32.869  1.00  0.00     0.048 A 
ENDBRANCH  20  22
ENDBRANCH  19  20
ENDBRANCH   4  19
TORSDOF 7
ENDMDL
MODEL 6
REMARK VINA RESULT:      -7.2      2.295      4.519
REMARK  7 active torsions:
REMARK  status: ('A' for Active; 'I' for Inactive)
REMARK    1  A    between atoms: O_2  and  C_3 
REMARK    2  A    between atoms: C_4  and  O_5 
REMARK    3  A    between atoms: C_9  and  C_10 
REMARK    4  A    between atoms: C_10  and  N_11 
REMARK    5  A    between atoms: C_14  and  C_15 
REMARK    6  A    between atoms: C_15  and  N_16 
REMARK    7  A    between atoms: N_16  and  C_17 
ROOT
HETATM    1  N   UNL     1      -8.723   0.418 -34.390  1.00  0.00    -0.067 N 
HETATM    2  H   UNL     1      -8.881  -0.248 -35.162  1.00  0.00     0.280 HD
HETATM    3  C   UNL     1      -9.699   1.558 -34.614  1.00  0.00     0.241 C 
HETATM    4  C   UNL     1     -10.445   1.727 -33.291  1.00  0.00     0.031 C 
HETATM    5  C   UNL     1     -10.474   0.300 -32.751  1.00  0.00     0.035 C 
HETATM    6  C   UNL     1      -9.118  -0.287 -33.108  1.00  0.00     0.235 C 
ENDROOT
BRANCH   1   7
HETATM    7  C   UNL     1      -7.248   0.751 -34.449  1.00  0.00     0.273 C 
BRANCH   7   8
HETATM    8  C   UNL     1      -6.342  -0.422 -34.192  1.00  0.00    -0.028 A 
HETATM    9  C   UNL     1      -6.634  -1.683 -34.735  1.00  0.00     0.031 A 
HETATM   10  C   UNL     1      -5.758  -2.755 -34.539  1.00  0.00     0.047 A 
HETATM   11  C   UNL     1      -4.592  -2.572 -33.797  1.00  0.00     0.116 A 
HETATM   12 BR   UNL     1      -6.196  -4.424 -35.316  1.00  0.00    -0.048 Br
HETATM   13  C   UNL     1      -4.296  -1.331 -33.224  1.00  0.00     0.103 A 
HETATM   14  C   UNL     1      -5.172  -0.260 -33.423  1.00  0.00     0.048 A 
BRANCH  11  15
HETATM   15  O   UNL     1      -3.720  -3.613 -33.619  1.00  0.00    -0.357 OA
HETATM   16  H   UNL     1      -3.574  -4.019 -34.496  1.00  0.00     0.218 HD
ENDBRANCH  11  15
BRANCH  13  17
HETATM   17  O   UNL     1      -3.119  -1.282 -32.525  1.00  0.00    -0.353 OA
HETATM   18  C   UNL     1      -2.989  -0.288 -31.515  1.00  0.00     0.210 C 
ENDBRANCH  13  17
ENDBRANCH   7   8
ENDBRANCH   1   7
BRANCH   4  19
HETATM   19  C   UNL     1      -9.737   2.746 -32.380  1.00  0.00     0.127 C 
BRANCH  19  20
HETATM   20  N   UNL     1      -9.337   2.138 -31.108  1.00  0.00    -0.376 N 
HETATM   21  H   UNL     1     -10.038   2.185 -30.373  1.00  0.00     0.161 HD
BRANCH  20  22
HETATM   22  C   UNL     1      -8.011   2.223 -30.699  1.00  0.00     0.100 A 
HETATM   23  N   UNL     1      -7.334   1.083 -30.466  1.00  0.00    -0.353 N 
HETATM   24  H   UNL     1      -7.816   0.199 -30.602  1.00  0.00     0.166 HD
HETATM   25  C   UNL     1      -6.050   1.044 -30.074  1.00  0.00     0.089 A 
HETATM   26  C   UNL     1      -5.337   2.218 -29.901  1.00  0.00     0.017 A 
HETATM   27  C   UNL     1      -5.972   3.426 -30.154  1.00  0.00     0.005 A 
HETATM   28  C   UNL     1      -7.306   3.429 -30.562  1.00  0.00     0.048 A 
ENDBRANCH  20  22
ENDBRANCH  19  20
ENDBRANCH   4  19
TORSDOF 7
ENDMDL
MODEL 7
REMARK VINA RESULT:      -7.2      5.875      9.547
REMARK  7 active torsions:
REMARK  status: ('A' for Active; 'I' for Inactive)
REMARK    1  A    between atoms: O_2  and  C_3 
REMARK    2  A    between atoms: C_4  and  O_5 
REMARK    3  A    between atoms: C_9  and  C_10 
REMARK    4  A    between atoms: C_10  and  N_11 
REMARK    5  A    between atoms: C_14  and  C_15 
REMARK    6  A    between atoms: C_15  and  N_16 
REMARK    7  A    between atoms: N_16  and  C_17 
ROOT
HETATM    1  N   UNL     1      -3.680   4.024 -32.479  1.00  0.00    -0.067 N 
HETATM    2  H   UNL     1      -4.283   3.911 -33.308  1.00  0.00     0.280 HD
HETATM    3  C   UNL     1      -2.263   4.151 -33.006  1.00  0.00     0.241 C 
HETATM    4  C   UNL     1      -1.697   5.416 -32.364  1.00  0.00     0.031 C 
HETATM    5  C   UNL     1      -2.939   6.293 -32.227  1.00  0.00     0.035 C 
HETATM    6  C   UNL     1      -4.055   5.342 -31.831  1.00  0.00     0.235 C 
ENDROOT
BRANCH   1   7
HETATM    7  C   UNL     1      -3.985   2.829 -31.602  1.00  0.00     0.273 C 
BRANCH   7   8
HETATM    8  C   UNL     1      -4.532   1.642 -32.349  1.00  0.00    -0.028 A 
HETATM    9  C   UNL     1      -5.723   1.748 -33.082  1.00  0.00     0.031 A 
HETATM   10  C   UNL     1      -6.196   0.658 -33.820  1.00  0.00     0.047 A 
HETATM   11  C   UNL     1      -5.483  -0.540 -33.823  1.00  0.00     0.116 A 
HETATM   12 BR   UNL     1      -7.797   0.870 -34.808  1.00  0.00    -0.048 Br
HETATM   13  C   UNL     1      -4.307  -0.675 -33.077  1.00  0.00     0.103 A 
HETATM   14  C   UNL     1      -3.835   0.417 -32.342  1.00  0.00     0.048 A 
BRANCH  11  15
HETATM   15  O   UNL     1      -5.929  -1.604 -34.560  1.00  0.00    -0.357 OA
HETATM   16  H   UNL     1      -5.582  -2.413 -34.136  1.00  0.00     0.218 HD
ENDBRANCH  11  15
BRANCH  13  17
HETATM   17  O   UNL     1      -3.700  -1.899 -33.170  1.00  0.00    -0.353 OA
HETATM   18  C   UNL     1      -3.127  -2.445 -31.987  1.00  0.00     0.210 C 
ENDBRANCH  13  17
ENDBRANCH   7   8
ENDBRANCH   1   7
BRANCH   4  19
HETATM   19  C   UNL     1      -0.987   5.096 -31.036  1.00  0.00     0.127 C 
BRANCH  19  20
HETATM   20  N   UNL     1      -1.509   5.915 -29.939  1.00  0.00    -0.376 N 
HETATM   21  H   UNL     1      -2.333   6.465 -30.171  1.00  0.00     0.161 HD
BRANCH  20  22
HETATM   22  C   UNL     1      -0.624   6.487 -29.033  1.00  0.00     0.100 A 
HETATM   23  N   UNL     1      -0.552   5.976 -27.790  1.00  0.00    -0.353 N 
HETATM   24  H   UNL     1      -1.147   5.185 -27.560  1.00  0.00     0.166 HD
HETATM   25  C   UNL     1       0.270   6.442 -26.836  1.00  0.00     0.089 A 
HETATM   26  C   UNL     1       1.121   7.500 -27.106  1.00  0.00     0.017 A 
HETATM   27  C   UNL     1       1.116   8.051 -28.379  1.00  0.00     0.005 A 
HETATM   28  C   UNL     1       0.250   7.540 -29.346  1.00  0.00     0.048 A 
ENDBRANCH  20  22
ENDBRANCH  19  20
ENDBRANCH   4  19
TORSDOF 7
ENDMDL
MODEL 8
REMARK VINA RESULT:      -7.0      6.447     10.137
REMARK  7 active torsions:
REMARK  status: ('A' for Active; 'I' for Inactive)
REMARK    1  A    between atoms: O_2  and  C_3 
REMARK    2  A    between atoms: C_4  and  O_5 
REMARK    3  A    between atoms: C_9  and  C_10 
REMARK    4  A    between atoms: C_10  and  N_11 
REMARK    5  A    between atoms: C_14  and  C_15 
REMARK    6  A    between atoms: C_15  and  N_16 
REMARK    7  A    between atoms: N_16  and  C_17 
ROOT
HETATM    1  N   UNL     1      -2.437   4.768 -32.954  1.00  0.00    -0.067 N 
HETATM    2  H   UNL     1      -2.246   3.968 -33.575  1.00  0.00     0.280 HD
HETATM    3  C   UNL     1      -1.223   4.900 -32.055  1.00  0.00     0.241 C 
HETATM    4  C   UNL     1      -0.785   6.359 -32.165  1.00  0.00     0.031 C 
HETATM    5  C   UNL     1      -1.177   6.707 -33.598  1.00  0.00     0.035 C 
HETATM    6  C   UNL     1      -2.504   6.004 -33.829  1.00  0.00     0.235 C 
ENDROOT
BRANCH   1   7
HETATM    7  C   UNL     1      -3.757   4.446 -32.288  1.00  0.00     0.273 C 
BRANCH   7   8
HETATM    8  C   UNL     1      -4.263   3.056 -32.565  1.00  0.00    -0.028 A 
HETATM    9  C   UNL     1      -3.510   1.934 -32.187  1.00  0.00     0.031 A 
HETATM   10  C   UNL     1      -4.012   0.646 -32.396  1.00  0.00     0.047 A 
HETATM   11  C   UNL     1      -5.262   0.475 -32.987  1.00  0.00     0.116 A 
HETATM   12 BR   UNL     1      -2.959  -0.827 -31.844  1.00  0.00    -0.048 Br
HETATM   13  C   UNL     1      -6.017   1.579 -33.397  1.00  0.00     0.103 A 
HETATM   14  C   UNL     1      -5.515   2.867 -33.185  1.00  0.00     0.048 A 
BRANCH  11  15
HETATM   15  O   UNL     1      -5.768  -0.783 -33.176  1.00  0.00    -0.357 OA
HETATM   16  H   UNL     1      -6.704  -0.761 -32.897  1.00  0.00     0.218 HD
ENDBRANCH  11  15
BRANCH  13  17
HETATM   17  O   UNL     1      -7.230   1.277 -33.958  1.00  0.00    -0.353 OA
HETATM   18  C   UNL     1      -8.247   2.270 -33.910  1.00  0.00     0.210 C 
ENDBRANCH  13  17
ENDBRANCH   7   8
ENDBRANCH   1   7
BRANCH   4  19
HETATM   19  C   UNL     1      -1.459   7.225 -31.085  1.00  0.00     0.127 C 
BRANCH  19  20
HETATM   20  N   UNL     1      -1.555   6.512 -29.810  1.00  0.00    -0.376 N 
HETATM   21  H   UNL     1      -2.502   6.272 -29.524  1.00  0.00     0.161 HD
BRANCH  20  22
HETATM   22  C   UNL     1      -0.665   6.819 -28.787  1.00  0.00     0.100 A 
HETATM   23  N   UNL     1      -0.745   6.129 -27.634  1.00  0.00    -0.353 N 
HETATM   24  H   UNL     1      -1.452   5.404 -27.555  1.00  0.00     0.166 HD
HETATM   25  C   UNL     1       0.066   6.334 -26.583  1.00  0.00     0.089 A 
HETATM   26  C   UNL     1       1.065   7.291 -26.650  1.00  0.00     0.017 A 
HETATM   27  C   UNL     1       1.216   8.015 -27.823  1.00  0.00     0.005 A 
HETATM   28  C   UNL     1       0.358   7.773 -28.896  1.00  0.00     0.048 A 
ENDBRANCH  20  22
ENDBRANCH  19  20
ENDBRANCH   4  19
TORSDOF 7
ENDMDL
MODEL 9
REMARK VINA RESULT:      -7.0      1.640      2.563
REMARK  7 active torsions:
REMARK  status: ('A' for Active; 'I' for Inactive)
REMARK    1  A    between atoms: O_2  and  C_3 
REMARK    2  A    between atoms: C_4  and  O_5 
REMARK    3  A    between atoms: C_9  and  C_10 
REMARK    4  A    between atoms: C_10  and  N_11 
REMARK    5  A    between atoms: C_14  and  C_15 
REMARK    6  A    between atoms: C_15  and  N_16 
REMARK    7  A    between atoms: N_16  and  C_17 
ROOT
HETATM    1  N   UNL     1      -5.835   2.443 -33.424  1.00  0.00    -0.067 N 
HETATM    2  H   UNL     1      -4.850   2.139 -33.392  1.00  0.00     0.280 HD
HETATM    3  C   UNL     1      -6.209   2.797 -31.997  1.00  0.00     0.241 C 
HETATM    4  C   UNL     1      -6.805   4.202 -32.065  1.00  0.00     0.031 C 
HETATM    5  C   UNL     1      -6.030   4.827 -33.222  1.00  0.00     0.035 C 
HETATM    6  C   UNL     1      -5.881   3.715 -34.246  1.00  0.00     0.235 C 
ENDROOT
BRANCH   1   7
HETATM    7  C   UNL     1      -6.583   1.296 -34.069  1.00  0.00     0.273 C 
BRANCH   7   8
HETATM    8  C   UNL     1      -5.919  -0.044 -33.898  1.00  0.00    -0.028 A 
HETATM    9  C   UNL     1      -6.456  -1.188 -34.507  1.00  0.00     0.031 A 
HETATM   10  C   UNL     1      -5.803  -2.419 -34.392  1.00  0.00     0.047 A 
HETATM   11  C   UNL     1      -4.617  -2.512 -33.666  1.00  0.00     0.116 A 
HETATM   12 BR   UNL     1      -6.565  -3.923 -35.255  1.00  0.00    -0.048 Br
HETATM   13  C   UNL     1      -4.079  -1.388 -33.028  1.00  0.00     0.103 A 
HETATM   14  C   UNL     1      -4.732  -0.158 -33.146  1.00  0.00     0.048 A 
BRANCH  11  15
HETATM   15  O   UNL     1      -3.963  -3.710 -33.567  1.00  0.00    -0.357 OA
HETATM   16  H   UNL     1      -3.514  -3.864 -34.421  1.00  0.00     0.218 HD
ENDBRANCH  11  15
BRANCH  13  17
HETATM   17  O   UNL     1      -2.909  -1.610 -32.353  1.00  0.00    -0.353 OA
HETATM   18  C   UNL     1      -2.476  -0.615 -31.433  1.00  0.00     0.210 C 
ENDBRANCH  13  17
ENDBRANCH   7   8
ENDBRANCH   1   7
BRANCH   4  19
HETATM   19  C   UNL     1      -8.331   4.151 -32.266  1.00  0.00     0.127 C 
BRANCH  19  20
HETATM   20  N   UNL     1      -8.939   3.081 -31.472  1.00  0.00    -0.376 N 
HETATM   21  H   UNL     1      -8.374   2.753 -30.692  1.00  0.00     0.161 HD
BRANCH  20  22
HETATM   22  C   UNL     1      -9.726   2.125 -32.104  1.00  0.00     0.100 A 
HETATM   23  N   UNL     1     -10.856   2.523 -32.717  1.00  0.00    -0.353 N 
HETATM   24  H   UNL     1     -11.092   3.511 -32.700  1.00  0.00     0.166 HD
HETATM   25  C   UNL     1     -11.688   1.690 -33.364  1.00  0.00     0.089 A 
HETATM   26  C   UNL     1     -11.399   0.338 -33.442  1.00  0.00     0.017 A 
HETATM   27  C   UNL     1     -10.233  -0.129 -32.855  1.00  0.00     0.005 A 
HETATM   28  C   UNL     1      -9.391   0.765 -32.193  1.00  0.00     0.048 A 
ENDBRANCH  20  22
ENDBRANCH  19  20
ENDBRANCH   4  19
TORSDOF 7
ENDMDL
MODEL 10
REMARK VINA RESULT:      -7.0      6.486      8.495
REMARK  7 active torsions:
REMARK  status: ('A' for Active; 'I' for Inactive)
REMARK    1  A    between atoms: O_2  and  C_3 
REMARK    2  A    between atoms: C_4  and  O_5 
REMARK    3  A    between atoms: C_9  and  C_10 
REMARK    4  A    between atoms: C_10  and  N_11 
REMARK    5  A    between atoms: C_14  and  C_15 
REMARK    6  A    between atoms: C_15  and  N_16 
REMARK    7  A    between atoms: N_16  and  C_17 
ROOT
HETATM    1  N   UNL     1      -4.329   2.168 -31.086  1.00  0.00    -0.067 N 
HETATM    2  H   UNL     1      -3.710   2.505 -30.333  1.00  0.00     0.280 HD
HETATM    3  C   UNL     1      -3.895   0.744 -31.379  1.00  0.00     0.241 C 
HETATM    4  C   UNL     1      -5.168  -0.097 -31.305  1.00  0.00     0.031 C 
HETATM    5  C   UNL     1      -5.986   0.645 -30.252  1.00  0.00     0.035 C 
HETATM    6  C   UNL     1      -5.733   2.120 -30.519  1.00  0.00     0.235 C 
ENDROOT
BRANCH   1   7
HETATM    7  C   UNL     1      -4.179   3.178 -32.204  1.00  0.00     0.273 C 
BRANCH   7   8
HETATM    8  C   UNL     1      -3.433   4.423 -31.811  1.00  0.00    -0.028 A 
HETATM    9  C   UNL     1      -2.065   4.369 -31.503  1.00  0.00     0.031 A 
HETATM   10  C   UNL     1      -1.364   5.539 -31.194  1.00  0.00     0.047 A 
HETATM   11  C   UNL     1      -2.028   6.764 -31.188  1.00  0.00     0.116 A 
HETATM   12 BR   UNL     1       0.484   5.402 -30.810  1.00  0.00    -0.048 Br
HETATM   13  C   UNL     1      -3.397   6.838 -31.465  1.00  0.00     0.103 A 
HETATM   14  C   UNL     1      -4.096   5.667 -31.776  1.00  0.00     0.048 A 
BRANCH  11  15
HETATM   15  O   UNL     1      -1.343   7.916 -30.907  1.00  0.00    -0.357 OA
HETATM   16  H   UNL     1      -1.193   7.933 -29.942  1.00  0.00     0.218 HD
ENDBRANCH  11  15
BRANCH  13  17
HETATM   17  O   UNL     1      -3.928   8.100 -31.432  1.00  0.00    -0.353 OA
HETATM   18  C   UNL     1      -5.142   8.289 -30.714  1.00  0.00     0.210 C 
ENDBRANCH  13  17
ENDBRANCH   7   8
ENDBRANCH   1   7
BRANCH   4  19
HETATM   19  C   UNL     1      -5.843  -0.207 -32.684  1.00  0.00     0.127 C 
BRANCH  19  20
HETATM   20  N   UNL     1      -4.968  -0.864 -33.658  1.00  0.00    -0.376 N 
HETATM   21  H   UNL     1      -4.577  -0.247 -34.366  1.00  0.00     0.161 HD
BRANCH  20  22
HETATM   22  C   UNL     1      -5.254  -2.162 -34.065  1.00  0.00     0.100 A 
HETATM   23  N   UNL     1      -4.290  -3.096 -33.965  1.00  0.00    -0.353 N 
HETATM   24  H   UNL     1      -3.386  -2.818 -33.592  1.00  0.00     0.166 HD
HETATM   25  C   UNL     1      -4.454  -4.380 -34.321  1.00  0.00     0.089 A 
HETATM   26  C   UNL     1      -5.673  -4.818 -34.809  1.00  0.00     0.017 A 
HETATM   27  C   UNL     1      -6.717  -3.909 -34.907  1.00  0.00     0.005 A 
HETATM   28  C   UNL     1      -6.510  -2.583 -34.527  1.00  0.00     0.048 A 
ENDBRANCH  20  22
ENDBRANCH  19  20
ENDBRANCH   4  19
TORSDOF 7
ENDMDL
