MODEL 1
REMARK VINA RESULT:      -7.4      0.000      0.000
REMARK  6 active torsions:
REMARK  status: ('A' for Active; 'I' for Inactive)
REMARK    1  A    between atoms: C_2  and  O_3 
REMARK    2  A    between atoms: O_3  and  C_4 
REMARK    3  A    between atoms: C_4  and  C_5 
REMARK    4  A    between atoms: C_6  and  O_7 
REMARK    5  A    between atoms: C_12  and  O_13 
REMARK    6  A    between atoms: C_17  and  C_18 
ROOT
HETATM    1  C   UNL     1      -5.556   0.853 -33.285  1.00  0.00     0.133 C 
HETATM    2  C   UNL     1      -7.061   0.950 -33.702  1.00  0.00     0.073 C 
HETATM    3  C   UNL     1      -7.488  -0.188 -34.644  1.00  0.00     0.047 C 
HETATM    4  C   UNL     1      -8.047   1.011 -32.501  1.00  0.00     0.097 C 
HETATM    5  C   UNL     1      -7.490   1.860 -31.420  1.00  0.00     0.042 A 
HETATM    6  C   UNL     1      -6.176   2.237 -31.246  1.00  0.00     0.030 A 
HETATM    7  C   UNL     1      -6.214   2.997 -30.067  1.00  0.00     0.190 A 
HETATM    8  N   UNL     1      -7.425   3.094 -29.531  1.00  0.00    -0.149 NA
HETATM    9  N   UNL     1      -8.198   2.405 -30.387  1.00  0.00    -0.279 N 
HETATM   10  H   UNL     1      -9.193   2.345 -30.196  1.00  0.00     0.189 HD
HETATM   11  C   UNL     1      -5.075   1.815 -32.158  1.00  0.00     0.074 C 
ENDROOT
BRANCH  11  12
HETATM   12  C   UNL     1      -4.406   3.084 -32.677  1.00  0.00    -0.048 A 
HETATM   13  C   UNL     1      -3.020   3.244 -32.488  1.00  0.00     0.009 A 
HETATM   14  C   UNL     1      -2.361   4.388 -32.947  1.00  0.00     0.024 A 
HETATM   15  C   UNL     1      -3.076   5.381 -33.609  1.00  0.00     0.034 A 
HETATM   16 CL   UNL     1      -2.264   6.787 -34.174  1.00  0.00    -0.084 Cl
HETATM   17  C   UNL     1      -4.444   5.240 -33.816  1.00  0.00     0.024 A 
HETATM   18  C   UNL     1      -5.105   4.098 -33.354  1.00  0.00     0.009 A 
ENDBRANCH  11  12
BRANCH   1  19
HETATM   19  C   UNL     1      -5.192  -0.568 -32.904  1.00  0.00     0.267 C 
HETATM   20  O   UNL     1      -5.573  -1.096 -31.868  1.00  0.00    -0.265 OA
BRANCH  19  21
HETATM   21  O   UNL     1      -4.386  -1.157 -33.825  1.00  0.00    -0.321 OA
BRANCH  21  22
HETATM   22  C   UNL     1      -4.389  -2.592 -33.847  1.00  0.00     0.174 C 
HETATM   23  C   UNL     1      -5.245  -3.101 -34.993  1.00  0.00     0.034 C 
ENDBRANCH  21  22
ENDBRANCH  19  21
ENDBRANCH   1  19
BRANCH   2  24
HETATM   24  O   UNL     1      -7.246   2.160 -34.467  1.00  0.00    -0.389 OA
HETATM   25  H   UNL     1      -8.176   2.207 -34.751  1.00  0.00     0.210 HD
ENDBRANCH   2  24
BRANCH   7  26
HETATM   26  O   UNL     1      -5.228   3.629 -29.427  1.00  0.00    -0.343 OA
HETATM   27  H   UNL     1      -4.790   4.241 -30.038  1.00  0.00     0.219 HD
ENDBRANCH   7  26
TORSDOF 6
ENDMDL
MODEL 2
REMARK VINA RESULT:      -7.2      2.877      5.582
REMARK  6 active torsions:
REMARK  status: ('A' for Active; 'I' for Inactive)
REMARK    1  A    between atoms: C_2  and  O_3 
REMARK    2  A    between atoms: O_3  and  C_4 
REMARK    3  A    between atoms: C_4  and  C_5 
REMARK    4  A    between atoms: C_6  and  O_7 
REMARK    5  A    between atoms: C_12  and  O_13 
REMARK    6  A    between atoms: C_17  and  C_18 
ROOT
HETATM    1  C   UNL     1      -5.191   3.223 -33.057  1.00  0.00     0.133 C 
HETATM    2  C   UNL     1      -4.593   3.299 -31.613  1.00  0.00     0.073 C 
HETATM    3  C   UNL     1      -3.299   4.127 -31.553  1.00  0.00     0.047 C 
HETATM    4  C   UNL     1      -5.587   3.832 -30.543  1.00  0.00     0.097 C 
HETATM    5  C   UNL     1      -6.946   3.289 -30.787  1.00  0.00     0.042 A 
HETATM    6  C   UNL     1      -7.428   2.735 -31.952  1.00  0.00     0.030 A 
HETATM    7  C   UNL     1      -8.759   2.425 -31.634  1.00  0.00     0.190 A 
HETATM    8  N   UNL     1      -9.103   2.753 -30.395  1.00  0.00    -0.149 NA
HETATM    9  N   UNL     1      -7.970   3.265 -29.884  1.00  0.00    -0.279 N 
HETATM   10  H   UNL     1      -7.976   3.581 -28.920  1.00  0.00     0.189 HD
HETATM   11  C   UNL     1      -6.616   2.606 -33.196  1.00  0.00     0.074 C 
ENDROOT
BRANCH  11  12
HETATM   12  C   UNL     1      -6.611   1.131 -33.583  1.00  0.00    -0.048 A 
HETATM   13  C   UNL     1      -7.168   0.755 -34.820  1.00  0.00     0.009 A 
HETATM   14  C   UNL     1      -7.186  -0.584 -35.222  1.00  0.00     0.024 A 
HETATM   15  C   UNL     1      -6.639  -1.562 -34.396  1.00  0.00     0.034 A 
HETATM   16 CL   UNL     1      -6.661  -3.209 -34.890  1.00  0.00    -0.084 Cl
HETATM   17  C   UNL     1      -6.074  -1.213 -33.174  1.00  0.00     0.024 A 
HETATM   18  C   UNL     1      -6.060   0.126 -32.771  1.00  0.00     0.009 A 
ENDBRANCH  11  12
BRANCH   1  19
HETATM   19  C   UNL     1      -5.182   4.588 -33.716  1.00  0.00     0.267 C 
HETATM   20  O   UNL     1      -5.819   5.539 -33.284  1.00  0.00    -0.265 OA
BRANCH  19  21
HETATM   21  O   UNL     1      -4.417   4.611 -34.838  1.00  0.00    -0.321 OA
BRANCH  21  22
HETATM   22  C   UNL     1      -3.400   5.622 -34.891  1.00  0.00     0.174 C 
HETATM   23  C   UNL     1      -2.021   4.986 -34.881  1.00  0.00     0.034 C 
ENDBRANCH  21  22
ENDBRANCH  19  21
ENDBRANCH   1  19
BRANCH   2  24
HETATM   24  O   UNL     1      -4.205   1.968 -31.209  1.00  0.00    -0.389 OA
HETATM   25  H   UNL     1      -4.263   1.380 -31.983  1.00  0.00     0.210 HD
ENDBRANCH   2  24
BRANCH   7  26
HETATM   26  O   UNL     1      -9.704   1.853 -32.382  1.00  0.00    -0.343 OA
HETATM   27  H   UNL     1      -9.562   0.895 -32.402  1.00  0.00     0.219 HD
ENDBRANCH   7  26
TORSDOF 6
ENDMDL
MODEL 3
REMARK VINA RESULT:      -7.1      2.972      5.766
REMARK  6 active torsions:
REMARK  status: ('A' for Active; 'I' for Inactive)
REMARK    1  A    between atoms: C_2  and  O_3 
REMARK    2  A    between atoms: O_3  and  C_4 
REMARK    3  A    between atoms: C_4  and  C_5 
REMARK    4  A    between atoms: C_6  and  O_7 
REMARK    5  A    between atoms: C_12  and  O_13 
REMARK    6  A    between atoms: C_17  and  C_18 
ROOT
HETATM    1  C   UNL     1      -4.850   3.357 -33.614  1.00  0.00     0.133 C 
HETATM    2  C   UNL     1      -3.676   3.444 -32.584  1.00  0.00     0.073 C 
HETATM    3  C   UNL     1      -2.514   4.319 -33.084  1.00  0.00     0.047 C 
HETATM    4  C   UNL     1      -4.107   3.932 -31.172  1.00  0.00     0.097 C 
HETATM    5  C   UNL     1      -5.416   3.341 -30.801  1.00  0.00     0.042 A 
HETATM    6  C   UNL     1      -6.349   2.778 -31.645  1.00  0.00     0.030 A 
HETATM    7  C   UNL     1      -7.391   2.417 -30.777  1.00  0.00     0.190 A 
HETATM    8  N   UNL     1      -7.158   2.723 -29.506  1.00  0.00    -0.149 NA
HETATM    9  N   UNL     1      -5.932   3.272 -29.539  1.00  0.00    -0.279 N 
HETATM   10  H   UNL     1      -5.519   3.581 -28.665  1.00  0.00     0.189 HD
HETATM   11  C   UNL     1      -6.169   2.689 -33.122  1.00  0.00     0.074 C 
ENDROOT
BRANCH  11  12
HETATM   12  C   UNL     1      -6.293   1.218 -33.505  1.00  0.00    -0.048 A 
HETATM   13  C   UNL     1      -7.027   0.879 -34.657  1.00  0.00     0.009 A 
HETATM   14  C   UNL     1      -7.168  -0.455 -35.052  1.00  0.00     0.024 A 
HETATM   15  C   UNL     1      -6.568  -1.465 -34.306  1.00  0.00     0.034 A 
HETATM   16 CL   UNL     1      -6.741  -3.105 -34.791  1.00  0.00    -0.084 Cl
HETATM   17  C   UNL     1      -5.829  -1.153 -33.169  1.00  0.00     0.024 A 
HETATM   18  C   UNL     1      -5.692   0.181 -32.772  1.00  0.00     0.009 A 
ENDBRANCH  11  12
BRANCH   1  19
HETATM   19  C   UNL     1      -5.175   4.727 -34.178  1.00  0.00     0.267 C 
HETATM   20  O   UNL     1      -4.513   5.256 -35.060  1.00  0.00    -0.265 OA
BRANCH  19  21
HETATM   21  O   UNL     1      -6.253   5.288 -33.572  1.00  0.00    -0.321 OA
BRANCH  21  22
HETATM   22  C   UNL     1      -5.995   6.440 -32.756  1.00  0.00     0.174 C 
HETATM   23  C   UNL     1      -7.023   6.541 -31.644  1.00  0.00     0.034 C 
ENDBRANCH  21  22
ENDBRANCH  19  21
ENDBRANCH   1  19
BRANCH   2  24
HETATM   24  O   UNL     1      -3.109   2.126 -32.425  1.00  0.00    -0.389 OA
HETATM   25  H   UNL     1      -2.139   2.200 -32.450  1.00  0.00     0.210 HD
ENDBRANCH   2  24
BRANCH   7  26
HETATM   26  O   UNL     1      -8.552   1.816 -31.042  1.00  0.00    -0.343 OA
HETATM   27  H   UNL     1      -9.023   2.315 -31.725  1.00  0.00     0.219 HD
ENDBRANCH   7  26
TORSDOF 6
ENDMDL
MODEL 4
REMARK VINA RESULT:      -7.0      3.122      5.843
REMARK  6 active torsions:
REMARK  status: ('A' for Active; 'I' for Inactive)
REMARK    1  A    between atoms: C_2  and  O_3 
REMARK    2  A    between atoms: O_3  and  C_4 
REMARK    3  A    between atoms: C_4  and  C_5 
REMARK    4  A    between atoms: C_6  and  O_7 
REMARK    5  A    between atoms: C_12  and  O_13 
REMARK    6  A    between atoms: C_17  and  C_18 
ROOT
HETATM    1  C   UNL     1      -5.336   1.273 -32.319  1.00  0.00     0.133 C 
HETATM    2  C   UNL     1      -6.156   1.330 -30.987  1.00  0.00     0.073 C 
HETATM    3  C   UNL     1      -5.408   2.069 -29.865  1.00  0.00     0.047 C 
HETATM    4  C   UNL     1      -7.575   1.947 -31.143  1.00  0.00     0.097 C 
HETATM    5  C   UNL     1      -8.196   1.495 -32.412  1.00  0.00     0.042 A 
HETATM    6  C   UNL     1      -7.560   0.956 -33.509  1.00  0.00     0.030 A 
HETATM    7  C   UNL     1      -8.609   0.744 -34.417  1.00  0.00     0.190 A 
HETATM    8  N   UNL     1      -9.797   1.114 -33.956  1.00  0.00    -0.149 NA
HETATM    9  N   UNL     1      -9.526   1.555 -32.716  1.00  0.00    -0.279 N 
HETATM   10  H   UNL     1     -10.295   1.886 -32.143  1.00  0.00     0.189 HD
HETATM   11  C   UNL     1      -6.085   0.753 -33.583  1.00  0.00     0.074 C 
ENDROOT
BRANCH  11  12
HETATM   12  C   UNL     1      -5.846  -0.725 -33.874  1.00  0.00    -0.048 A 
HETATM   13  C   UNL     1      -4.558  -1.255 -33.667  1.00  0.00     0.009 A 
HETATM   14  C   UNL     1      -4.289  -2.604 -33.917  1.00  0.00     0.024 A 
HETATM   15  C   UNL     1      -5.305  -3.442 -34.366  1.00  0.00     0.034 A 
HETATM   16 CL   UNL     1      -4.974  -5.101 -34.672  1.00  0.00    -0.084 Cl
HETATM   17  C   UNL     1      -6.588  -2.943 -34.567  1.00  0.00     0.024 A 
HETATM   18  C   UNL     1      -6.856  -1.593 -34.321  1.00  0.00     0.009 A 
ENDBRANCH  11  12
BRANCH   1  19
HETATM   19  C   UNL     1      -4.724   2.623 -32.633  1.00  0.00     0.267 C 
HETATM   20  O   UNL     1      -5.393   3.603 -32.933  1.00  0.00    -0.265 OA
BRANCH  19  21
HETATM   21  O   UNL     1      -3.368   2.599 -32.569  1.00  0.00    -0.321 OA
BRANCH  21  22
HETATM   22  C   UNL     1      -2.697   3.840 -32.835  1.00  0.00     0.174 C 
HETATM   23  C   UNL     1      -2.226   4.475 -31.539  1.00  0.00     0.034 C 
ENDBRANCH  21  22
ENDBRANCH  19  21
ENDBRANCH   1  19
BRANCH   2  24
HETATM   24  O   UNL     1      -6.329  -0.017 -30.499  1.00  0.00    -0.389 OA
HETATM   25  H   UNL     1      -5.751  -0.609 -31.012  1.00  0.00     0.210 HD
ENDBRANCH   2  24
BRANCH   7  26
HETATM   26  O   UNL     1      -8.582   0.225 -35.646  1.00  0.00    -0.343 OA
HETATM   27  H   UNL     1      -8.149  -0.641 -35.620  1.00  0.00     0.219 HD
ENDBRANCH   7  26
TORSDOF 6
ENDMDL
MODEL 5
REMARK VINA RESULT:      -7.0      4.385      6.793
REMARK  6 active torsions:
REMARK  status: ('A' for Active; 'I' for Inactive)
REMARK    1  A    between atoms: C_2  and  O_3 
REMARK    2  A    between atoms: O_3  and  C_4 
REMARK    3  A    between atoms: C_4  and  C_5 
REMARK    4  A    between atoms: C_6  and  O_7 
REMARK    5  A    between atoms: C_12  and  O_13 
REMARK    6  A    between atoms: C_17  and  C_18 
ROOT
HETATM    1  C   UNL     1      -3.830   4.980 -31.012  1.00  0.00     0.133 C 
HETATM    2  C   UNL     1      -3.405   3.551 -31.485  1.00  0.00     0.073 C 
HETATM    3  C   UNL     1      -4.375   2.457 -31.007  1.00  0.00     0.047 C 
HETATM    4  C   UNL     1      -3.216   3.423 -33.023  1.00  0.00     0.097 C 
HETATM    5  C   UNL     1      -2.563   4.640 -33.565  1.00  0.00     0.042 A 
HETATM    6  C   UNL     1      -2.472   5.877 -32.964  1.00  0.00     0.030 A 
HETATM    7  C   UNL     1      -1.791   6.648 -33.919  1.00  0.00     0.190 A 
HETATM    8  N   UNL     1      -1.482   5.980 -35.024  1.00  0.00    -0.149 NA
HETATM    9  N   UNL     1      -1.948   4.744 -34.779  1.00  0.00    -0.279 N 
HETATM   10  H   UNL     1      -1.815   4.030 -35.488  1.00  0.00     0.189 HD
HETATM   11  C   UNL     1      -3.054   6.184 -31.626  1.00  0.00     0.074 C 
ENDROOT
BRANCH  11  12
HETATM   12  C   UNL     1      -1.919   6.697 -30.746  1.00  0.00    -0.048 A 
HETATM   13  C   UNL     1      -2.159   7.805 -29.911  1.00  0.00     0.009 A 
HETATM   14  C   UNL     1      -1.152   8.311 -29.084  1.00  0.00     0.024 A 
HETATM   15  C   UNL     1       0.103   7.710 -29.073  1.00  0.00     0.034 A 
HETATM   16 CL   UNL     1       1.341   8.333 -28.055  1.00  0.00    -0.084 Cl
HETATM   17  C   UNL     1       0.360   6.608 -29.882  1.00  0.00     0.024 A 
HETATM   18  C   UNL     1      -0.646   6.104 -30.712  1.00  0.00     0.009 A 
ENDBRANCH  11  12
BRANCH   1  19
HETATM   19  C   UNL     1      -5.316   5.198 -31.221  1.00  0.00     0.267 C 
HETATM   20  O   UNL     1      -5.819   5.326 -32.329  1.00  0.00    -0.265 OA
BRANCH  19  21
HETATM   21  O   UNL     1      -5.996   5.259 -30.047  1.00  0.00    -0.321 OA
BRANCH  21  22
HETATM   22  C   UNL     1      -6.730   6.468 -29.801  1.00  0.00     0.174 C 
HETATM   23  C   UNL     1      -5.831   7.511 -29.161  1.00  0.00     0.034 C 
ENDBRANCH  21  22
ENDBRANCH  19  21
ENDBRANCH   1  19
BRANCH   2  24
HETATM   24  O   UNL     1      -2.140   3.224 -30.872  1.00  0.00    -0.389 OA
HETATM   25  H   UNL     1      -1.762   4.036 -30.490  1.00  0.00     0.210 HD
ENDBRANCH   2  24
BRANCH   7  26
HETATM   26  O   UNL     1      -1.411   7.926 -33.870  1.00  0.00    -0.343 OA
HETATM   27  H   UNL     1      -2.074   8.440 -33.386  1.00  0.00     0.219 HD
ENDBRANCH   7  26
TORSDOF 6
ENDMDL
MODEL 6
REMARK VINA RESULT:      -6.7      3.151      5.690
REMARK  6 active torsions:
REMARK  status: ('A' for Active; 'I' for Inactive)
REMARK    1  A    between atoms: C_2  and  O_3 
REMARK    2  A    between atoms: O_3  and  C_4 
REMARK    3  A    between atoms: C_4  and  C_5 
REMARK    4  A    between atoms: C_6  and  O_7 
REMARK    5  A    between atoms: C_12  and  O_13 
REMARK    6  A    between atoms: C_17  and  C_18 
ROOT
HETATM    1  C   UNL     1      -6.592   3.101 -32.164  1.00  0.00     0.133 C 
HETATM    2  C   UNL     1      -7.198   3.066 -30.722  1.00  0.00     0.073 C 
HETATM    3  C   UNL     1      -6.392   3.910 -29.721  1.00  0.00     0.047 C 
HETATM    4  C   UNL     1      -8.693   3.490 -30.654  1.00  0.00     0.097 C 
HETATM    5  C   UNL     1      -9.436   2.945 -31.817  1.00  0.00     0.042 A 
HETATM    6  C   UNL     1      -8.910   2.481 -33.003  1.00  0.00     0.030 A 
HETATM    7  C   UNL     1     -10.047   2.122 -33.741  1.00  0.00     0.190 A 
HETATM    8  N   UNL     1     -11.190   2.339 -33.101  1.00  0.00    -0.149 NA
HETATM    9  N   UNL     1     -10.793   2.826 -31.913  1.00  0.00    -0.279 N 
HETATM   10  H   UNL     1     -11.503   3.061 -31.227  1.00  0.00     0.189 HD
HETATM   11  C   UNL     1      -7.449   2.472 -33.303  1.00  0.00     0.074 C 
ENDROOT
BRANCH  11  12
HETATM   12  C   UNL     1      -7.065   1.035 -33.639  1.00  0.00    -0.048 A 
HETATM   13  C   UNL     1      -7.091   0.625 -34.986  1.00  0.00     0.009 A 
HETATM   14  C   UNL     1      -6.746  -0.681 -35.346  1.00  0.00     0.024 A 
HETATM   15  C   UNL     1      -6.361  -1.590 -34.365  1.00  0.00     0.034 A 
HETATM   16 CL   UNL     1      -5.937  -3.197 -34.808  1.00  0.00    -0.084 Cl
HETATM   17  C   UNL     1      -6.318  -1.205 -33.029  1.00  0.00     0.024 A 
HETATM   18  C   UNL     1      -6.667   0.100 -32.669  1.00  0.00     0.009 A 
ENDBRANCH  11  12
BRANCH   1  19
HETATM   19  C   UNL     1      -6.217   4.516 -32.557  1.00  0.00     0.267 C 
HETATM   20  O   UNL     1      -7.043   5.351 -32.900  1.00  0.00    -0.265 OA
BRANCH  19  21
HETATM   21  O   UNL     1      -4.876   4.725 -32.507  1.00  0.00    -0.321 OA
BRANCH  21  22
HETATM   22  C   UNL     1      -4.046   3.574 -32.721  1.00  0.00     0.174 C 
HETATM   23  C   UNL     1      -2.992   3.473 -31.634  1.00  0.00     0.034 C 
ENDBRANCH  21  22
ENDBRANCH  19  21
ENDBRANCH   1  19
BRANCH   2  24
HETATM   24  O   UNL     1      -7.116   1.714 -30.224  1.00  0.00    -0.389 OA
HETATM   25  H   UNL     1      -7.648   1.138 -30.802  1.00  0.00     0.210 HD
ENDBRANCH   2  24
BRANCH   7  26
HETATM   26  O   UNL     1     -10.140   1.597 -34.964  1.00  0.00    -0.343 OA
HETATM   27  H   UNL     1      -9.992   0.641 -34.915  1.00  0.00     0.219 HD
ENDBRANCH   7  26
TORSDOF 6
ENDMDL
MODEL 7
REMARK VINA RESULT:      -6.6      4.704      6.801
REMARK  6 active torsions:
REMARK  status: ('A' for Active; 'I' for Inactive)
REMARK    1  A    between atoms: C_2  and  O_3 
REMARK    2  A    between atoms: O_3  and  C_4 
REMARK    3  A    between atoms: C_4  and  C_5 
REMARK    4  A    between atoms: C_6  and  O_7 
REMARK    5  A    between atoms: C_12  and  O_13 
REMARK    6  A    between atoms: C_17  and  C_18 
ROOT
HETATM    1  C   UNL     1      -9.186   0.870 -33.241  1.00  0.00     0.133 C 
HETATM    2  C   UNL     1      -8.427   1.581 -32.072  1.00  0.00     0.073 C 
HETATM    3  C   UNL     1      -7.406   0.661 -31.383  1.00  0.00     0.047 C 
HETATM    4  C   UNL     1      -7.720   2.903 -32.487  1.00  0.00     0.097 C 
HETATM    5  C   UNL     1      -8.571   3.667 -33.432  1.00  0.00     0.042 A 
HETATM    6  C   UNL     1      -9.625   3.191 -34.181  1.00  0.00     0.030 A 
HETATM    7  C   UNL     1     -10.038   4.318 -34.908  1.00  0.00     0.190 A 
HETATM    8  N   UNL     1      -9.320   5.407 -34.659  1.00  0.00    -0.149 NA
HETATM    9  N   UNL     1      -8.436   4.991 -33.736  1.00  0.00    -0.279 N 
HETATM   10  H   UNL     1      -7.771   5.664 -33.370  1.00  0.00     0.189 HD
HETATM   11  C   UNL     1     -10.074   1.769 -34.153  1.00  0.00     0.074 C 
ENDROOT
BRANCH  11  12
HETATM   12  C   UNL     1     -11.549   1.768 -33.766  1.00  0.00    -0.048 A 
HETATM   13  C   UNL     1     -12.046   2.834 -32.991  1.00  0.00     0.009 A 
HETATM   14  C   UNL     1     -13.391   2.880 -32.613  1.00  0.00     0.024 A 
HETATM   15  C   UNL     1     -14.258   1.868 -33.012  1.00  0.00     0.034 A 
HETATM   16 CL   UNL     1     -15.912   1.926 -32.547  1.00  0.00    -0.084 Cl
HETATM   17  C   UNL     1     -13.792   0.811 -33.787  1.00  0.00     0.024 A 
HETATM   18  C   UNL     1     -12.447   0.762 -34.163  1.00  0.00     0.009 A 
ENDBRANCH  11  12
BRANCH   1  19
HETATM   19  C   UNL     1      -8.222   0.090 -34.113  1.00  0.00     0.267 C 
HETATM   20  O   UNL     1      -7.759   0.535 -35.155  1.00  0.00    -0.265 OA
BRANCH  19  21
HETATM   21  O   UNL     1      -7.966  -1.147 -33.616  1.00  0.00    -0.321 OA
BRANCH  21  22
HETATM   22  C   UNL     1      -6.692  -1.716 -33.951  1.00  0.00     0.174 C 
HETATM   23  C   UNL     1      -6.876  -3.048 -34.656  1.00  0.00     0.034 C 
ENDBRANCH  21  22
ENDBRANCH  19  21
ENDBRANCH   1  19
BRANCH   2  24
HETATM   24  O   UNL     1      -9.384   1.916 -31.044  1.00  0.00    -0.389 OA
HETATM   25  H   UNL     1      -9.569   1.116 -30.521  1.00  0.00     0.210 HD
ENDBRANCH   2  24
BRANCH   7  26
HETATM   26  O   UNL     1     -11.034   4.449 -35.786  1.00  0.00    -0.343 OA
HETATM   27  H   UNL     1     -11.502   5.281 -35.618  1.00  0.00     0.219 HD
ENDBRANCH   7  26
TORSDOF 6
ENDMDL
MODEL 8
REMARK VINA RESULT:      -6.6      4.117      6.906
REMARK  6 active torsions:
REMARK  status: ('A' for Active; 'I' for Inactive)
REMARK    1  A    between atoms: C_2  and  O_3 
REMARK    2  A    between atoms: O_3  and  C_4 
REMARK    3  A    between atoms: C_4  and  C_5 
REMARK    4  A    between atoms: C_6  and  O_7 
REMARK    5  A    between atoms: C_12  and  O_13 
REMARK    6  A    between atoms: C_17  and  C_18 
ROOT
HETATM    1  C   UNL     1      -1.927   6.350 -31.953  1.00  0.00     0.133 C 
HETATM    2  C   UNL     1      -0.889   6.240 -30.787  1.00  0.00     0.073 C 
HETATM    3  C   UNL     1       0.508   6.739 -31.191  1.00  0.00     0.047 C 
HETATM    4  C   UNL     1      -1.326   6.959 -29.480  1.00  0.00     0.097 C 
HETATM    5  C   UNL     1      -2.777   6.759 -29.242  1.00  0.00     0.042 A 
HETATM    6  C   UNL     1      -3.728   6.368 -30.159  1.00  0.00     0.030 A 
HETATM    7  C   UNL     1      -4.916   6.371 -29.412  1.00  0.00     0.190 A 
HETATM    8  N   UNL     1      -4.749   6.733 -28.145  1.00  0.00    -0.149 NA
HETATM    9  N   UNL     1      -3.426   6.949 -28.056  1.00  0.00    -0.279 N 
HETATM   10  H   UNL     1      -3.043   7.229 -27.159  1.00  0.00     0.189 HD
HETATM   11  C   UNL     1      -3.421   6.090 -31.592  1.00  0.00     0.074 C 
ENDROOT
BRANCH  11  12
HETATM   12  C   UNL     1      -3.885   4.667 -31.885  1.00  0.00    -0.048 A 
HETATM   13  C   UNL     1      -4.953   4.476 -32.783  1.00  0.00     0.009 A 
HETATM   14  C   UNL     1      -5.414   3.192 -33.087  1.00  0.00     0.024 A 
HETATM   15  C   UNL     1      -4.806   2.083 -32.506  1.00  0.00     0.034 A 
HETATM   16 CL   UNL     1      -5.374   0.503 -32.880  1.00  0.00    -0.084 Cl
HETATM   17  C   UNL     1      -3.743   2.246 -31.625  1.00  0.00     0.024 A 
HETATM   18  C   UNL     1      -3.284   3.531 -31.317  1.00  0.00     0.009 A 
ENDBRANCH  11  12
BRANCH   1  19
HETATM   19  C   UNL     1      -1.818   7.694 -32.646  1.00  0.00     0.267 C 
HETATM   20  O   UNL     1      -1.975   8.758 -32.062  1.00  0.00    -0.265 OA
BRANCH  19  21
HETATM   21  O   UNL     1      -1.558   7.567 -33.973  1.00  0.00    -0.321 OA
BRANCH  21  22
HETATM   22  C   UNL     1      -2.182   6.459 -34.639  1.00  0.00     0.174 C 
HETATM   23  C   UNL     1      -1.161   5.373 -34.926  1.00  0.00     0.034 C 
ENDBRANCH  21  22
ENDBRANCH  19  21
ENDBRANCH   1  19
BRANCH   2  24
HETATM   24  O   UNL     1      -0.710   4.844 -30.465  1.00  0.00    -0.389 OA
HETATM   25  H   UNL     1       0.056   4.759 -29.871  1.00  0.00     0.210 HD
ENDBRANCH   2  24
BRANCH   7  26
HETATM   26  O   UNL     1      -6.159   6.059 -29.783  1.00  0.00    -0.343 OA
HETATM   27  H   UNL     1      -6.178   5.146 -30.107  1.00  0.00     0.219 HD
ENDBRANCH   7  26
TORSDOF 6
ENDMDL
MODEL 9
REMARK VINA RESULT:      -6.6      2.793      5.420
REMARK  6 active torsions:
REMARK  status: ('A' for Active; 'I' for Inactive)
REMARK    1  A    between atoms: C_2  and  O_3 
REMARK    2  A    between atoms: O_3  and  C_4 
REMARK    3  A    between atoms: C_4  and  C_5 
REMARK    4  A    between atoms: C_6  and  O_7 
REMARK    5  A    between atoms: C_12  and  O_13 
REMARK    6  A    between atoms: C_17  and  C_18 
ROOT
HETATM    1  C   UNL     1      -5.455   2.964 -32.195  1.00  0.00     0.133 C 
HETATM    2  C   UNL     1      -5.969   3.374 -30.776  1.00  0.00     0.073 C 
HETATM    3  C   UNL     1      -5.464   4.760 -30.341  1.00  0.00     0.047 C 
HETATM    4  C   UNL     1      -7.516   3.327 -30.624  1.00  0.00     0.097 C 
HETATM    5  C   UNL     1      -8.067   2.146 -31.333  1.00  0.00     0.042 A 
HETATM    6  C   UNL     1      -7.452   1.396 -32.312  1.00  0.00     0.030 A 
HETATM    7  C   UNL     1      -8.425   0.440 -32.642  1.00  0.00     0.190 A 
HETATM    8  N   UNL     1      -9.553   0.565 -31.953  1.00  0.00    -0.149 NA
HETATM    9  N   UNL     1      -9.306   1.606 -31.140  1.00  0.00    -0.279 N 
HETATM   10  H   UNL     1     -10.032   1.893 -30.491  1.00  0.00     0.189 HD
HETATM   11  C   UNL     1      -6.085   1.688 -32.830  1.00  0.00     0.074 C 
ENDROOT
BRANCH  11  12
HETATM   12  C   UNL     1      -5.249   0.427 -32.633  1.00  0.00    -0.048 A 
HETATM   13  C   UNL     1      -4.616   0.223 -31.392  1.00  0.00     0.009 A 
HETATM   14  C   UNL     1      -3.841  -0.917 -31.162  1.00  0.00     0.024 A 
HETATM   15  C   UNL     1      -3.697  -1.871 -32.164  1.00  0.00     0.034 A 
HETATM   16 CL   UNL     1      -2.743  -3.274 -31.880  1.00  0.00    -0.084 Cl
HETATM   17  C   UNL     1      -4.321  -1.696 -33.394  1.00  0.00     0.024 A 
HETATM   18  C   UNL     1      -5.093  -0.554 -33.627  1.00  0.00     0.009 A 
ENDBRANCH  11  12
BRANCH   1  19
HETATM   19  C   UNL     1      -5.593   4.115 -33.172  1.00  0.00     0.267 C 
HETATM   20  O   UNL     1      -6.646   4.389 -33.731  1.00  0.00    -0.265 OA
BRANCH  19  21
HETATM   21  O   UNL     1      -4.419   4.771 -33.362  1.00  0.00    -0.321 OA
BRANCH  21  22
HETATM   22  C   UNL     1      -4.125   5.168 -34.709  1.00  0.00     0.174 C 
HETATM   23  C   UNL     1      -2.624   5.219 -34.929  1.00  0.00     0.034 C 
ENDBRANCH  21  22
ENDBRANCH  19  21
ENDBRANCH   1  19
BRANCH   2  24
HETATM   24  O   UNL     1      -5.419   2.455 -29.807  1.00  0.00    -0.389 OA
HETATM   25  H   UNL     1      -6.054   1.729 -29.674  1.00  0.00     0.210 HD
ENDBRANCH   2  24
BRANCH   7  26
HETATM   26  O   UNL     1      -8.373  -0.560 -33.524  1.00  0.00    -0.343 OA
HETATM   27  H   UNL     1      -8.568  -0.217 -34.409  1.00  0.00     0.219 HD
ENDBRANCH   7  26
TORSDOF 6
ENDMDL
MODEL 10
REMARK VINA RESULT:      -6.4      3.443      5.245
REMARK  6 active torsions:
REMARK  status: ('A' for Active; 'I' for Inactive)
REMARK    1  A    between atoms: C_2  and  O_3 
REMARK    2  A    between atoms: O_3  and  C_4 
REMARK    3  A    between atoms: C_4  and  C_5 
REMARK    4  A    between atoms: C_6  and  O_7 
REMARK    5  A    between atoms: C_12  and  O_13 
REMARK    6  A    between atoms: C_17  and  C_18 
ROOT
HETATM    1  C   UNL     1      -6.988   1.379 -31.764  1.00  0.00     0.133 C 
HETATM    2  C   UNL     1      -6.329   1.844 -30.423  1.00  0.00     0.073 C 
HETATM    3  C   UNL     1      -5.681   0.683 -29.649  1.00  0.00     0.047 C 
HETATM    4  C   UNL     1      -5.288   2.986 -30.591  1.00  0.00     0.097 C 
HETATM    5  C   UNL     1      -5.758   3.967 -31.600  1.00  0.00     0.042 A 
HETATM    6  C   UNL     1      -6.729   3.779 -32.559  1.00  0.00     0.030 A 
HETATM    7  C   UNL     1      -6.743   5.003 -33.246  1.00  0.00     0.190 A 
HETATM    8  N   UNL     1      -5.866   5.886 -32.782  1.00  0.00    -0.149 NA
HETATM    9  N   UNL     1      -5.285   5.237 -31.759  1.00  0.00    -0.279 N 
HETATM   10  H   UNL     1      -4.571   5.723 -31.224  1.00  0.00     0.189 HD
HETATM   11  C   UNL     1      -7.471   2.499 -32.734  1.00  0.00     0.074 C 
ENDROOT
BRANCH  11  12
HETATM   12  C   UNL     1      -8.958   2.817 -32.612  1.00  0.00    -0.048 A 
HETATM   13  C   UNL     1      -9.847   2.269 -33.557  1.00  0.00     0.009 A 
HETATM   14  C   UNL     1     -11.219   2.530 -33.487  1.00  0.00     0.024 A 
HETATM   15  C   UNL     1     -11.720   3.333 -32.467  1.00  0.00     0.034 A 
HETATM   16 CL   UNL     1     -13.407   3.653 -32.381  1.00  0.00    -0.084 Cl
HETATM   17  C   UNL     1     -10.862   3.877 -31.517  1.00  0.00     0.024 A 
HETATM   18  C   UNL     1      -9.490   3.619 -31.589  1.00  0.00     0.009 A 
ENDBRANCH  11  12
BRANCH   1  19
HETATM   19  C   UNL     1      -6.068   0.440 -32.519  1.00  0.00     0.267 C 
HETATM   20  O   UNL     1      -4.961   0.774 -32.919  1.00  0.00    -0.265 OA
BRANCH  19  21
HETATM   21  O   UNL     1      -6.630  -0.781 -32.714  1.00  0.00    -0.321 OA
BRANCH  21  22
HETATM   22  C   UNL     1      -6.561  -1.305 -34.049  1.00  0.00     0.174 C 
HETATM   23  C   UNL     1      -7.434  -0.487 -34.983  1.00  0.00     0.034 C 
ENDBRANCH  21  22
ENDBRANCH  19  21
ENDBRANCH   1  19
BRANCH   2  24
HETATM   24  O   UNL     1      -7.368   2.340 -29.551  1.00  0.00    -0.389 OA
HETATM   25  H   UNL     1      -7.298   3.310 -29.509  1.00  0.00     0.210 HD
ENDBRANCH   2  24
BRANCH   7  26
HETATM   26  O   UNL     1      -7.502   5.399 -34.269  1.00  0.00    -0.343 OA
HETATM   27  H   UNL     1      -7.850   4.621 -34.730  1.00  0.00     0.219 HD
ENDBRANCH   7  26
TORSDOF 6
ENDMDL
