MODEL 1
REMARK VINA RESULT:      -8.3      0.000      0.000
REMARK  9 active torsions:
REMARK  status: ('A' for Active; 'I' for Inactive)
REMARK    1  A    between atoms: N_5  and  C_6 
REMARK    2  A    between atoms: C_6  and  C_7 
REMARK    3  A    between atoms: C_7  and  O_8 
REMARK    4  A    between atoms: C_7  and  C_9 
REMARK    5  A    between atoms: C_9  and  O_10 
REMARK    6  A    between atoms: O_10  and  C_11 
REMARK    7  A    between atoms: N_23  and  C_24 
REMARK    8  A    between atoms: C_24  and  C_25 
REMARK    9  A    between atoms: C_25  and  N_26 
ROOT
HETATM    1  C   UNL     1     -10.267   0.398 -33.247  1.00  0.00     0.002 A 
HETATM    2  C   UNL     1      -8.995  -0.111 -32.988  1.00  0.00     0.032 A 
HETATM    3  C   UNL     1      -8.019   0.788 -32.596  1.00  0.00     0.079 A 
HETATM    4  C   UNL     1      -8.257   2.181 -32.450  1.00  0.00     0.079 A 
HETATM    5  N   UNL     1      -7.070   2.798 -32.025  1.00  0.00    -0.179 N 
HETATM    6  C   UNL     1      -6.067   1.769 -32.048  1.00  0.00     0.681 A 
HETATM    7  N   UNL     1      -4.741   1.970 -31.861  1.00  0.00    -0.234 N 
HETATM    8  H   UNL     1      -4.044   1.247 -31.964  1.00  0.00     0.174 HD
HETATM    9  H   UNL     1      -4.384   2.901 -31.666  1.00  0.00     0.174 HD
HETATM   10  N   UNL     1      -6.631   0.518 -32.322  1.00  0.00    -0.180 N 
HETATM   11  C   UNL     1      -9.516   2.667 -32.726  1.00  0.00     0.032 A 
HETATM   12  C   UNL     1     -10.520   1.771 -33.120  1.00  0.00     0.002 A 
ENDROOT
BRANCH   5  13
HETATM   13  C   UNL     1      -6.742   4.218 -32.238  1.00  0.00     0.181 C 
BRANCH  13  14
HETATM   14  C   UNL     1      -6.455   4.742 -33.654  1.00  0.00     0.161 C 
BRANCH  14  15
HETATM   15  O   UNL     1      -7.528   5.595 -34.064  1.00  0.00    -0.392 OA
HETATM   16  H   UNL     1      -8.324   5.318 -33.563  1.00  0.00     0.210 HD
ENDBRANCH  14  15
BRANCH  14  17
HETATM   17  C   UNL     1      -5.099   5.422 -33.869  1.00  0.00     0.209 C 
BRANCH  17  18
HETATM   18  O   UNL     1      -4.099   4.502 -33.397  1.00  0.00    -0.347 OA
BRANCH  18  19
HETATM   19  C   UNL     1      -3.077   5.128 -32.731  1.00  0.00     0.090 A 
HETATM   20  C   UNL     1      -1.859   5.361 -33.383  1.00  0.00     0.069 A 
HETATM   21 CL   UNL     1      -1.648   4.951 -35.046  1.00  0.00    -0.081 Cl
HETATM   22  C   UNL     1      -0.797   5.954 -32.700  1.00  0.00     0.050 A 
HETATM   23  C   UNL     1      -0.956   6.291 -31.358  1.00  0.00     0.035 A 
HETATM   24 CL   UNL     1       0.345   7.025 -30.505  1.00  0.00    -0.084 Cl
HETATM   25  C   UNL     1      -2.158   6.038 -30.695  1.00  0.00     0.026 A 
HETATM   26  C   UNL     1      -3.222   5.448 -31.381  1.00  0.00     0.040 A 
ENDBRANCH  18  19
ENDBRANCH  17  18
ENDBRANCH  14  17
ENDBRANCH  13  14
ENDBRANCH   5  13
BRANCH  10  27
HETATM   27  C   UNL     1      -5.963  -0.776 -32.538  1.00  0.00     0.175 C 
BRANCH  27  28
HETATM   28  C   UNL     1      -5.392  -0.921 -33.963  1.00  0.00     0.256 C 
BRANCH  28  29
HETATM   29  N   UNL     1      -5.276  -2.348 -34.460  1.00  0.00    -0.066 N 
HETATM   30  H   UNL     1      -4.876  -2.282 -35.409  1.00  0.00     0.280 HD
HETATM   31  C   UNL     1      -4.269  -3.206 -33.681  1.00  0.00     0.261 C 
HETATM   32  C   UNL     1      -4.134  -4.576 -34.358  1.00  0.00     0.195 C 
HETATM   33  O   UNL     1      -5.409  -5.219 -34.439  1.00  0.00    -0.388 OA
HETATM   34  C   UNL     1      -6.331  -4.482 -35.248  1.00  0.00     0.195 C 
HETATM   35  C   UNL     1      -6.597  -3.104 -34.630  1.00  0.00     0.261 C 
ENDBRANCH  28  29
ENDBRANCH  27  28
ENDBRANCH  10  27
TORSDOF 9
ENDMDL
MODEL 2
REMARK VINA RESULT:      -8.2      3.018      7.444
REMARK  9 active torsions:
REMARK  status: ('A' for Active; 'I' for Inactive)
REMARK    1  A    between atoms: N_5  and  C_6 
REMARK    2  A    between atoms: C_6  and  C_7 
REMARK    3  A    between atoms: C_7  and  O_8 
REMARK    4  A    between atoms: C_7  and  C_9 
REMARK    5  A    between atoms: C_9  and  O_10 
REMARK    6  A    between atoms: O_10  and  C_11 
REMARK    7  A    between atoms: N_23  and  C_24 
REMARK    8  A    between atoms: C_24  and  C_25 
REMARK    9  A    between atoms: C_25  and  N_26 
ROOT
HETATM    1  C   UNL     1      -5.765   0.605 -29.647  1.00  0.00     0.002 A 
HETATM    2  C   UNL     1      -5.289   1.876 -29.964  1.00  0.00     0.032 A 
HETATM    3  C   UNL     1      -5.866   2.519 -31.044  1.00  0.00     0.079 A 
HETATM    4  C   UNL     1      -6.904   1.948 -31.827  1.00  0.00     0.079 A 
HETATM    5  N   UNL     1      -7.272   2.863 -32.824  1.00  0.00    -0.179 N 
HETATM    6  C   UNL     1      -6.339   3.951 -32.717  1.00  0.00     0.681 A 
HETATM    7  N   UNL     1      -6.237   4.978 -33.594  1.00  0.00    -0.234 N 
HETATM    8  H   UNL     1      -5.520   5.688 -33.545  1.00  0.00     0.174 HD
HETATM    9  H   UNL     1      -6.860   5.037 -34.393  1.00  0.00     0.174 HD
HETATM   10  N   UNL     1      -5.517   3.804 -31.595  1.00  0.00    -0.180 N 
HETATM   11  C   UNL     1      -7.351   0.685 -31.507  1.00  0.00     0.032 A 
HETATM   12  C   UNL     1      -6.782   0.018 -30.412  1.00  0.00     0.002 A 
ENDROOT
BRANCH   5  13
HETATM   13  C   UNL     1      -7.909   2.500 -34.102  1.00  0.00     0.181 C 
BRANCH  13  14
HETATM   14  C   UNL     1      -8.455   1.078 -34.317  1.00  0.00     0.161 C 
BRANCH  14  15
HETATM   15  O   UNL     1      -9.800   1.161 -34.799  1.00  0.00    -0.392 OA
HETATM   16  H   UNL     1     -10.285   0.392 -34.430  1.00  0.00     0.210 HD
ENDBRANCH  14  15
BRANCH  14  17
HETATM   17  C   UNL     1      -7.612   0.149 -35.195  1.00  0.00     0.209 C 
BRANCH  17  18
HETATM   18  O   UNL     1      -6.268   0.211 -34.687  1.00  0.00    -0.347 OA
BRANCH  18  19
HETATM   19  C   UNL     1      -5.746  -1.027 -34.418  1.00  0.00     0.090 A 
HETATM   20  C   UNL     1      -4.595  -1.143 -33.628  1.00  0.00     0.069 A 
HETATM   21 CL   UNL     1      -3.864   0.246 -32.911  1.00  0.00    -0.081 Cl
HETATM   22  C   UNL     1      -4.029  -2.395 -33.387  1.00  0.00     0.050 A 
HETATM   23  C   UNL     1      -4.609  -3.525 -33.958  1.00  0.00     0.035 A 
HETATM   24 CL   UNL     1      -3.923  -5.075 -33.666  1.00  0.00    -0.084 Cl
HETATM   25  C   UNL     1      -5.742  -3.414 -34.767  1.00  0.00     0.026 A 
HETATM   26  C   UNL     1      -6.310  -2.161 -35.004  1.00  0.00     0.040 A 
ENDBRANCH  18  19
ENDBRANCH  17  18
ENDBRANCH  14  17
ENDBRANCH  13  14
ENDBRANCH   5  13
BRANCH  10  27
HETATM   27  C   UNL     1      -4.370   4.623 -31.169  1.00  0.00     0.175 C 
BRANCH  27  28
HETATM   28  C   UNL     1      -3.017   4.026 -31.605  1.00  0.00     0.256 C 
BRANCH  28  29
HETATM   29  N   UNL     1      -2.153   4.948 -32.441  1.00  0.00    -0.066 N 
HETATM   30  H   UNL     1      -1.178   4.675 -32.244  1.00  0.00     0.280 HD
HETATM   31  C   UNL     1      -2.305   4.752 -33.956  1.00  0.00     0.261 C 
HETATM   32  C   UNL     1      -1.287   5.633 -34.691  1.00  0.00     0.195 C 
HETATM   33  O   UNL     1      -1.462   7.006 -34.326  1.00  0.00    -0.388 OA
HETATM   34  C   UNL     1      -1.224   7.225 -32.933  1.00  0.00     0.195 C 
HETATM   35  C   UNL     1      -2.233   6.437 -32.089  1.00  0.00     0.261 C 
ENDBRANCH  28  29
ENDBRANCH  27  28
ENDBRANCH  10  27
TORSDOF 9
ENDMDL
MODEL 3
REMARK VINA RESULT:      -8.0      3.034      5.643
REMARK  9 active torsions:
REMARK  status: ('A' for Active; 'I' for Inactive)
REMARK    1  A    between atoms: N_5  and  C_6 
REMARK    2  A    between atoms: C_6  and  C_7 
REMARK    3  A    between atoms: C_7  and  O_8 
REMARK    4  A    between atoms: C_7  and  C_9 
REMARK    5  A    between atoms: C_9  and  O_10 
REMARK    6  A    between atoms: O_10  and  C_11 
REMARK    7  A    between atoms: N_23  and  C_24 
REMARK    8  A    between atoms: C_24  and  C_25 
REMARK    9  A    between atoms: C_25  and  N_26 
ROOT
HETATM    1  C   UNL     1      -6.190  -1.677 -34.185  1.00  0.00     0.002 A 
HETATM    2  C   UNL     1      -7.484  -1.227 -33.928  1.00  0.00     0.032 A 
HETATM    3  C   UNL     1      -7.627  -0.197 -33.015  1.00  0.00     0.079 A 
HETATM    4  C   UNL     1      -6.530   0.408 -32.345  1.00  0.00     0.079 A 
HETATM    5  N   UNL     1      -7.018   1.424 -31.509  1.00  0.00    -0.179 N 
HETATM    6  C   UNL     1      -8.450   1.333 -31.582  1.00  0.00     0.681 A 
HETATM    7  N   UNL     1      -9.315   2.028 -30.805  1.00  0.00    -0.234 N 
HETATM    8  H   UNL     1     -10.315   1.888 -30.815  1.00  0.00     0.174 HD
HETATM    9  H   UNL     1      -8.971   2.692 -30.118  1.00  0.00     0.174 HD
HETATM   10  N   UNL     1      -8.850   0.403 -32.547  1.00  0.00    -0.180 N 
HETATM   11  C   UNL     1      -5.261  -0.062 -32.602  1.00  0.00     0.032 A 
HETATM   12  C   UNL     1      -5.095  -1.102 -33.527  1.00  0.00     0.002 A 
ENDROOT
BRANCH   5  13
HETATM   13  C   UNL     1      -6.324   1.930 -30.312  1.00  0.00     0.181 C 
BRANCH  13  14
HETATM   14  C   UNL     1      -5.526   3.242 -30.378  1.00  0.00     0.161 C 
BRANCH  14  15
HETATM   15  O   UNL     1      -5.267   3.701 -29.048  1.00  0.00    -0.392 OA
HETATM   16  H   UNL     1      -6.099   3.592 -28.540  1.00  0.00     0.210 HD
ENDBRANCH  14  15
BRANCH  14  17
HETATM   17  C   UNL     1      -4.240   3.218 -31.211  1.00  0.00     0.209 C 
BRANCH  17  18
HETATM   18  O   UNL     1      -4.056   4.551 -31.720  1.00  0.00    -0.347 OA
BRANCH  18  19
HETATM   19  C   UNL     1      -2.971   5.183 -31.169  1.00  0.00     0.090 A 
HETATM   20  C   UNL     1      -3.152   6.353 -30.420  1.00  0.00     0.069 A 
HETATM   21 CL   UNL     1      -4.731   6.972 -30.103  1.00  0.00    -0.081 Cl
HETATM   22  C   UNL     1      -2.050   7.029 -29.895  1.00  0.00     0.050 A 
HETATM   23  C   UNL     1      -0.770   6.540 -30.142  1.00  0.00     0.035 A 
HETATM   24 CL   UNL     1       0.595   7.362 -29.497  1.00  0.00    -0.084 Cl
HETATM   25  C   UNL     1      -0.582   5.388 -30.909  1.00  0.00     0.026 A 
HETATM   26  C   UNL     1      -1.685   4.710 -31.431  1.00  0.00     0.040 A 
ENDBRANCH  18  19
ENDBRANCH  17  18
ENDBRANCH  14  17
ENDBRANCH  13  14
ENDBRANCH   5  13
BRANCH  10  27
HETATM   27  C   UNL     1     -10.204  -0.073 -32.875  1.00  0.00     0.175 C 
BRANCH  27  28
HETATM   28  C   UNL     1     -10.991   0.923 -33.750  1.00  0.00     0.256 C 
BRANCH  28  29
HETATM   29  N   UNL     1     -12.281   1.429 -33.137  1.00  0.00    -0.066 N 
HETATM   30  H   UNL     1     -12.309   1.042 -32.182  1.00  0.00     0.280 HD
HETATM   31  C   UNL     1     -12.327   2.951 -32.933  1.00  0.00     0.261 C 
HETATM   32  C   UNL     1     -13.610   3.328 -32.183  1.00  0.00     0.195 C 
HETATM   33  O   UNL     1     -14.760   2.867 -32.900  1.00  0.00    -0.388 OA
HETATM   34  C   UNL     1     -14.786   1.440 -33.011  1.00  0.00     0.195 C 
HETATM   35  C   UNL     1     -13.572   0.946 -33.806  1.00  0.00     0.261 C 
ENDBRANCH  28  29
ENDBRANCH  27  28
ENDBRANCH  10  27
TORSDOF 9
ENDMDL
MODEL 4
REMARK VINA RESULT:      -7.9      3.954      9.272
REMARK  9 active torsions:
REMARK  status: ('A' for Active; 'I' for Inactive)
REMARK    1  A    between atoms: N_5  and  C_6 
REMARK    2  A    between atoms: C_6  and  C_7 
REMARK    3  A    between atoms: C_7  and  O_8 
REMARK    4  A    between atoms: C_7  and  C_9 
REMARK    5  A    between atoms: C_9  and  O_10 
REMARK    6  A    between atoms: O_10  and  C_11 
REMARK    7  A    between atoms: N_23  and  C_24 
REMARK    8  A    between atoms: C_24  and  C_25 
REMARK    9  A    between atoms: C_25  and  N_26 
ROOT
HETATM    1  C   UNL     1      -1.343   6.718 -34.095  1.00  0.00     0.002 A 
HETATM    2  C   UNL     1      -1.967   7.170 -32.933  1.00  0.00     0.032 A 
HETATM    3  C   UNL     1      -2.702   6.248 -32.208  1.00  0.00     0.079 A 
HETATM    4  C   UNL     1      -2.841   4.888 -32.593  1.00  0.00     0.079 A 
HETATM    5  N   UNL     1      -3.627   4.229 -31.636  1.00  0.00    -0.179 N 
HETATM    6  C   UNL     1      -4.078   5.251 -30.732  1.00  0.00     0.681 A 
HETATM    7  N   UNL     1      -4.993   5.072 -29.749  1.00  0.00    -0.234 N 
HETATM    8  H   UNL     1      -5.357   5.822 -29.179  1.00  0.00     0.174 HD
HETATM    9  H   UNL     1      -5.404   4.157 -29.587  1.00  0.00     0.174 HD
HETATM   10  N   UNL     1      -3.471   6.479 -31.013  1.00  0.00    -0.180 N 
HETATM   11  C   UNL     1      -2.229   4.465 -33.752  1.00  0.00     0.032 A 
HETATM   12  C   UNL     1      -1.477   5.383 -34.498  1.00  0.00     0.002 A 
ENDROOT
BRANCH   5  13
HETATM   13  C   UNL     1      -4.410   3.007 -31.892  1.00  0.00     0.181 C 
BRANCH  13  14
HETATM   14  C   UNL     1      -4.407   1.858 -30.871  1.00  0.00     0.161 C 
BRANCH  14  15
HETATM   15  O   UNL     1      -5.481   2.050 -29.945  1.00  0.00    -0.392 OA
HETATM   16  H   UNL     1      -5.278   1.508 -29.154  1.00  0.00     0.210 HD
ENDBRANCH  14  15
BRANCH  14  17
HETATM   17  C   UNL     1      -4.422   0.437 -31.442  1.00  0.00     0.209 C 
BRANCH  17  18
HETATM   18  O   UNL     1      -4.491   0.570 -32.873  1.00  0.00    -0.347 OA
BRANCH  18  19
HETATM   19  C   UNL     1      -4.986  -0.552 -33.486  1.00  0.00     0.090 A 
HETATM   20  C   UNL     1      -6.318  -0.581 -33.918  1.00  0.00     0.069 A 
HETATM   21 CL   UNL     1      -7.332   0.808 -33.771  1.00  0.00    -0.081 Cl
HETATM   22  C   UNL     1      -6.844  -1.735 -34.500  1.00  0.00     0.050 A 
HETATM   23  C   UNL     1      -6.037  -2.861 -34.627  1.00  0.00     0.035 A 
HETATM   24 CL   UNL     1      -6.672  -4.289 -35.345  1.00  0.00    -0.084 Cl
HETATM   25  C   UNL     1      -4.715  -2.847 -34.175  1.00  0.00     0.026 A 
HETATM   26  C   UNL     1      -4.188  -1.691 -33.596  1.00  0.00     0.040 A 
ENDBRANCH  18  19
ENDBRANCH  17  18
ENDBRANCH  14  17
ENDBRANCH  13  14
ENDBRANCH   5  13
BRANCH  10  27
HETATM   27  C   UNL     1      -3.719   7.798 -30.408  1.00  0.00     0.175 C 
BRANCH  27  28
HETATM   28  C   UNL     1      -2.477   8.369 -29.694  1.00  0.00     0.256 C 
BRANCH  28  29
HETATM   29  N   UNL     1      -1.704   7.367 -28.860  1.00  0.00    -0.066 N 
HETATM   30  H   UNL     1      -2.198   6.468 -28.974  1.00  0.00     0.280 HD
HETATM   31  C   UNL     1      -0.283   7.087 -29.369  1.00  0.00     0.261 C 
HETATM   32  C   UNL     1       0.347   5.962 -28.537  1.00  0.00     0.195 C 
HETATM   33  O   UNL     1       0.352   6.312 -27.150  1.00  0.00    -0.388 OA
HETATM   34  C   UNL     1      -0.972   6.477 -26.633  1.00  0.00     0.195 C 
HETATM   35  C   UNL     1      -1.685   7.629 -27.351  1.00  0.00     0.261 C 
ENDBRANCH  28  29
ENDBRANCH  27  28
ENDBRANCH  10  27
TORSDOF 9
ENDMDL
MODEL 5
REMARK VINA RESULT:      -7.8      2.925      5.715
REMARK  9 active torsions:
REMARK  status: ('A' for Active; 'I' for Inactive)
REMARK    1  A    between atoms: N_5  and  C_6 
REMARK    2  A    between atoms: C_6  and  C_7 
REMARK    3  A    between atoms: C_7  and  O_8 
REMARK    4  A    between atoms: C_7  and  C_9 
REMARK    5  A    between atoms: C_9  and  O_10 
REMARK    6  A    between atoms: O_10  and  C_11 
REMARK    7  A    between atoms: N_23  and  C_24 
REMARK    8  A    between atoms: C_24  and  C_25 
REMARK    9  A    between atoms: C_25  and  N_26 
ROOT
HETATM    1  C   UNL     1      -6.312  -1.451 -34.379  1.00  0.00     0.002 A 
HETATM    2  C   UNL     1      -7.608  -1.081 -34.025  1.00  0.00     0.032 A 
HETATM    3  C   UNL     1      -7.747  -0.069 -33.092  1.00  0.00     0.079 A 
HETATM    4  C   UNL     1      -6.643   0.596 -32.494  1.00  0.00     0.079 A 
HETATM    5  N   UNL     1      -7.129   1.574 -31.614  1.00  0.00    -0.179 N 
HETATM    6  C   UNL     1      -8.555   1.398 -31.586  1.00  0.00     0.681 A 
HETATM    7  N   UNL     1      -9.402   2.033 -30.741  1.00  0.00    -0.234 N 
HETATM    8  H   UNL     1     -10.390   1.833 -30.682  1.00  0.00     0.174 HD
HETATM    9  H   UNL     1      -9.049   2.711 -30.072  1.00  0.00     0.174 HD
HETATM   10  N   UNL     1      -8.967   0.452 -32.531  1.00  0.00    -0.180 N 
HETATM   11  C   UNL     1      -5.370   0.206 -32.846  1.00  0.00     0.032 A 
HETATM   12  C   UNL     1      -5.208  -0.815 -33.794  1.00  0.00     0.002 A 
ENDROOT
BRANCH   5  13
HETATM   13  C   UNL     1      -6.383   2.112 -30.464  1.00  0.00     0.181 C 
BRANCH  13  14
HETATM   14  C   UNL     1      -6.487   3.604 -30.103  1.00  0.00     0.161 C 
BRANCH  14  15
HETATM   15  O   UNL     1      -7.300   3.748 -28.935  1.00  0.00    -0.392 OA
HETATM   16  H   UNL     1      -7.060   3.018 -28.326  1.00  0.00     0.210 HD
ENDBRANCH  14  15
BRANCH  14  17
HETATM   17  C   UNL     1      -5.165   4.363 -29.950  1.00  0.00     0.209 C 
BRANCH  17  18
HETATM   18  O   UNL     1      -5.244   5.505 -30.821  1.00  0.00    -0.347 OA
BRANCH  18  19
HETATM   19  C   UNL     1      -4.291   5.485 -31.806  1.00  0.00     0.090 A 
HETATM   20  C   UNL     1      -4.678   5.403 -33.150  1.00  0.00     0.069 A 
HETATM   21 CL   UNL     1      -6.345   5.413 -33.598  1.00  0.00    -0.081 Cl
HETATM   22  C   UNL     1      -3.716   5.335 -34.157  1.00  0.00     0.050 A 
HETATM   23  C   UNL     1      -2.367   5.328 -33.810  1.00  0.00     0.035 A 
HETATM   24 CL   UNL     1      -1.170   5.247 -35.043  1.00  0.00    -0.084 Cl
HETATM   25  C   UNL     1      -1.975   5.384 -32.471  1.00  0.00     0.026 A 
HETATM   26  C   UNL     1      -2.939   5.456 -31.464  1.00  0.00     0.040 A 
ENDBRANCH  18  19
ENDBRANCH  17  18
ENDBRANCH  14  17
ENDBRANCH  13  14
ENDBRANCH   5  13
BRANCH  10  27
HETATM   27  C   UNL     1     -10.310  -0.102 -32.767  1.00  0.00     0.175 C 
BRANCH  27  28
HETATM   28  C   UNL     1     -11.157   0.770 -33.716  1.00  0.00     0.256 C 
BRANCH  28  29
HETATM   29  N   UNL     1     -12.232   1.593 -33.035  1.00  0.00    -0.066 N 
HETATM   30  H   UNL     1     -12.177   1.352 -32.033  1.00  0.00     0.280 HD
HETATM   31  C   UNL     1     -11.986   3.108 -33.076  1.00  0.00     0.261 C 
HETATM   32  C   UNL     1     -13.055   3.823 -32.241  1.00  0.00     0.195 C 
HETATM   33  O   UNL     1     -14.363   3.497 -32.721  1.00  0.00    -0.388 OA
HETATM   34  C   UNL     1     -14.648   2.101 -32.596  1.00  0.00     0.195 C 
HETATM   35  C   UNL     1     -13.673   1.279 -33.447  1.00  0.00     0.261 C 
ENDBRANCH  28  29
ENDBRANCH  27  28
ENDBRANCH  10  27
TORSDOF 9
ENDMDL
MODEL 6
REMARK VINA RESULT:      -7.6      2.872      5.166
REMARK  9 active torsions:
REMARK  status: ('A' for Active; 'I' for Inactive)
REMARK    1  A    between atoms: N_5  and  C_6 
REMARK    2  A    between atoms: C_6  and  C_7 
REMARK    3  A    between atoms: C_7  and  O_8 
REMARK    4  A    between atoms: C_7  and  C_9 
REMARK    5  A    between atoms: C_9  and  O_10 
REMARK    6  A    between atoms: O_10  and  C_11 
REMARK    7  A    between atoms: N_23  and  C_24 
REMARK    8  A    between atoms: C_24  and  C_25 
REMARK    9  A    between atoms: C_25  and  N_26 
ROOT
HETATM    1  C   UNL     1      -7.759  -0.957 -33.573  1.00  0.00     0.002 A 
HETATM    2  C   UNL     1      -8.618   0.051 -33.137  1.00  0.00     0.032 A 
HETATM    3  C   UNL     1      -8.147   1.351 -33.188  1.00  0.00     0.079 A 
HETATM    4  C   UNL     1      -6.851   1.692 -33.658  1.00  0.00     0.079 A 
HETATM    5  N   UNL     1      -6.702   3.086 -33.594  1.00  0.00    -0.179 N 
HETATM    6  C   UNL     1      -7.888   3.575 -32.946  1.00  0.00     0.681 A 
HETATM    7  N   UNL     1      -8.083   4.853 -32.541  1.00  0.00    -0.234 N 
HETATM    8  H   UNL     1      -8.888   5.157 -32.013  1.00  0.00     0.174 HD
HETATM    9  H   UNL     1      -7.373   5.560 -32.707  1.00  0.00     0.174 HD
HETATM   10  N   UNL     1      -8.818   2.549 -32.752  1.00  0.00    -0.180 N 
HETATM   11  C   UNL     1      -6.012   0.681 -34.070  1.00  0.00     0.032 A 
HETATM   12  C   UNL     1      -6.472  -0.643 -34.031  1.00  0.00     0.002 A 
ENDROOT
BRANCH   5  13
HETATM   13  C   UNL     1      -5.410   3.787 -33.498  1.00  0.00     0.181 C 
BRANCH  13  14
HETATM   14  C   UNL     1      -5.172   5.083 -34.291  1.00  0.00     0.161 C 
BRANCH  14  15
HETATM   15  O   UNL     1      -5.590   6.199 -33.501  1.00  0.00    -0.392 OA
HETATM   16  H   UNL     1      -4.782   6.703 -33.265  1.00  0.00     0.210 HD
ENDBRANCH  14  15
BRANCH  14  17
HETATM   17  C   UNL     1      -3.759   5.297 -34.842  1.00  0.00     0.209 C 
BRANCH  17  18
HETATM   18  O   UNL     1      -2.899   4.392 -34.128  1.00  0.00    -0.347 OA
BRANCH  18  19
HETATM   19  C   UNL     1      -2.089   5.032 -33.225  1.00  0.00     0.090 A 
HETATM   20  C   UNL     1      -1.984   4.547 -31.915  1.00  0.00     0.069 A 
HETATM   21 CL   UNL     1      -2.790   3.098 -31.436  1.00  0.00    -0.081 Cl
HETATM   22  C   UNL     1      -1.200   5.218 -30.977  1.00  0.00     0.050 A 
HETATM   23  C   UNL     1      -0.543   6.387 -31.351  1.00  0.00     0.035 A 
HETATM   24 CL   UNL     1       0.429   7.223 -30.204  1.00  0.00    -0.084 Cl
HETATM   25  C   UNL     1      -0.664   6.891 -32.648  1.00  0.00     0.026 A 
HETATM   26  C   UNL     1      -1.446   6.216 -33.588  1.00  0.00     0.040 A 
ENDBRANCH  18  19
ENDBRANCH  17  18
ENDBRANCH  14  17
ENDBRANCH  13  14
ENDBRANCH   5  13
BRANCH  10  27
HETATM   27  C   UNL     1     -10.108   2.585 -32.042  1.00  0.00     0.175 C 
BRANCH  27  28
HETATM   28  C   UNL     1     -11.282   2.982 -32.959  1.00  0.00     0.256 C 
BRANCH  28  29
HETATM   29  N   UNL     1     -12.452   2.019 -32.948  1.00  0.00    -0.066 N 
HETATM   30  H   UNL     1     -12.493   1.637 -31.991  1.00  0.00     0.280 HD
HETATM   31  C   UNL     1     -13.820   2.688 -33.149  1.00  0.00     0.261 C 
HETATM   32  C   UNL     1     -14.931   1.644 -32.979  1.00  0.00     0.195 C 
HETATM   33  O   UNL     1     -14.743   0.563 -33.898  1.00  0.00    -0.388 OA
HETATM   34  C   UNL     1     -13.518  -0.137 -33.660  1.00  0.00     0.195 C 
HETATM   35  C   UNL     1     -12.321   0.799 -33.865  1.00  0.00     0.261 C 
ENDBRANCH  28  29
ENDBRANCH  27  28
ENDBRANCH  10  27
TORSDOF 9
ENDMDL
MODEL 7
REMARK VINA RESULT:      -7.6      4.283      8.570
REMARK  9 active torsions:
REMARK  status: ('A' for Active; 'I' for Inactive)
REMARK    1  A    between atoms: N_5  and  C_6 
REMARK    2  A    between atoms: C_6  and  C_7 
REMARK    3  A    between atoms: C_7  and  O_8 
REMARK    4  A    between atoms: C_7  and  C_9 
REMARK    5  A    between atoms: C_9  and  O_10 
REMARK    6  A    between atoms: O_10  and  C_11 
REMARK    7  A    between atoms: N_23  and  C_24 
REMARK    8  A    between atoms: C_24  and  C_25 
REMARK    9  A    between atoms: C_25  and  N_26 
ROOT
HETATM    1  C   UNL     1      -4.671  -2.055 -34.201  1.00  0.00     0.002 A 
HETATM    2  C   UNL     1      -4.448  -1.226 -33.103  1.00  0.00     0.032 A 
HETATM    3  C   UNL     1      -5.553  -0.621 -32.530  1.00  0.00     0.079 A 
HETATM    4  C   UNL     1      -6.878  -0.809 -33.006  1.00  0.00     0.079 A 
HETATM    5  N   UNL     1      -7.755  -0.074 -32.195  1.00  0.00    -0.179 N 
HETATM    6  C   UNL     1      -6.920   0.676 -31.298  1.00  0.00     0.681 A 
HETATM    7  N   UNL     1      -7.356   1.638 -30.450  1.00  0.00    -0.234 N 
HETATM    8  H   UNL     1      -6.742   2.210 -29.888  1.00  0.00     0.174 HD
HETATM    9  H   UNL     1      -8.344   1.866 -30.394  1.00  0.00     0.174 HD
HETATM   10  N   UNL     1      -5.577   0.308 -31.430  1.00  0.00    -0.180 N 
HETATM   11  C   UNL     1      -7.075  -1.620 -34.101  1.00  0.00     0.032 A 
HETATM   12  C   UNL     1      -5.969  -2.246 -34.693  1.00  0.00     0.002 A 
ENDROOT
BRANCH   5  13
HETATM   13  C   UNL     1      -9.082   0.407 -32.618  1.00  0.00     0.181 C 
BRANCH  13  14
HETATM   14  C   UNL     1      -9.237   1.805 -33.239  1.00  0.00     0.161 C 
BRANCH  14  15
HETATM   15  O   UNL     1      -9.471   1.671 -34.643  1.00  0.00    -0.392 OA
HETATM   16  H   UNL     1      -8.646   1.318 -35.040  1.00  0.00     0.210 HD
ENDBRANCH  14  15
BRANCH  14  17
HETATM   17  C   UNL     1     -10.277   2.727 -32.594  1.00  0.00     0.209 C 
BRANCH  17  18
HETATM   18  O   UNL     1     -11.268   2.996 -33.601  1.00  0.00    -0.347 OA
BRANCH  18  19
HETATM   19  C   UNL     1     -12.549   2.852 -33.134  1.00  0.00     0.090 A 
HETATM   20  C   UNL     1     -13.367   1.834 -33.642  1.00  0.00     0.069 A 
HETATM   21 CL   UNL     1     -12.762   0.696 -34.789  1.00  0.00    -0.081 Cl
HETATM   22  C   UNL     1     -14.687   1.710 -33.208  1.00  0.00     0.050 A 
HETATM   23  C   UNL     1     -15.187   2.620 -32.280  1.00  0.00     0.035 A 
HETATM   24 CL   UNL     1     -16.811   2.475 -31.735  1.00  0.00    -0.084 Cl
HETATM   25  C   UNL     1     -14.385   3.652 -31.789  1.00  0.00     0.026 A 
HETATM   26  C   UNL     1     -13.063   3.774 -32.222  1.00  0.00     0.040 A 
ENDBRANCH  18  19
ENDBRANCH  17  18
ENDBRANCH  14  17
ENDBRANCH  13  14
ENDBRANCH   5  13
BRANCH  10  27
HETATM   27  C   UNL     1      -4.387   0.888 -30.786  1.00  0.00     0.175 C 
BRANCH  27  28
HETATM   28  C   UNL     1      -3.636   1.875 -31.703  1.00  0.00     0.256 C 
BRANCH  28  29
HETATM   29  N   UNL     1      -3.526   3.287 -31.164  1.00  0.00    -0.066 N 
HETATM   30  H   UNL     1      -3.234   3.190 -30.180  1.00  0.00     0.280 HD
HETATM   31  C   UNL     1      -2.412   4.123 -31.811  1.00  0.00     0.261 C 
HETATM   32  C   UNL     1      -2.304   5.475 -31.094  1.00  0.00     0.195 C 
HETATM   33  O   UNL     1      -3.558   6.162 -31.136  1.00  0.00    -0.388 OA
HETATM   34  C   UNL     1      -4.587   5.443 -30.448  1.00  0.00     0.195 C 
HETATM   35  C   UNL     1      -4.831   4.088 -31.121  1.00  0.00     0.261 C 
ENDBRANCH  28  29
ENDBRANCH  27  28
ENDBRANCH  10  27
TORSDOF 9
ENDMDL
MODEL 8
REMARK VINA RESULT:      -7.5      2.541      5.205
REMARK  9 active torsions:
REMARK  status: ('A' for Active; 'I' for Inactive)
REMARK    1  A    between atoms: N_5  and  C_6 
REMARK    2  A    between atoms: C_6  and  C_7 
REMARK    3  A    between atoms: C_7  and  O_8 
REMARK    4  A    between atoms: C_7  and  C_9 
REMARK    5  A    between atoms: C_9  and  O_10 
REMARK    6  A    between atoms: O_10  and  C_11 
REMARK    7  A    between atoms: N_23  and  C_24 
REMARK    8  A    between atoms: C_24  and  C_25 
REMARK    9  A    between atoms: C_25  and  N_26 
ROOT
HETATM    1  C   UNL     1      -6.058  -2.017 -34.561  1.00  0.00     0.002 A 
HETATM    2  C   UNL     1      -7.067  -1.055 -34.590  1.00  0.00     0.032 A 
HETATM    3  C   UNL     1      -6.839   0.125 -33.905  1.00  0.00     0.079 A 
HETATM    4  C   UNL     1      -5.642   0.390 -33.187  1.00  0.00     0.079 A 
HETATM    5  N   UNL     1      -5.728   1.674 -32.629  1.00  0.00    -0.179 N 
HETATM    6  C   UNL     1      -7.062   2.132 -32.907  1.00  0.00     0.681 A 
HETATM    7  N   UNL     1      -7.617   3.261 -32.407  1.00  0.00    -0.234 N 
HETATM    8  H   UNL     1      -8.583   3.521 -32.549  1.00  0.00     0.174 HD
HETATM    9  H   UNL     1      -7.081   3.875 -31.802  1.00  0.00     0.174 HD
HETATM   10  N   UNL     1      -7.738   1.240 -33.746  1.00  0.00    -0.180 N 
HETATM   11  C   UNL     1      -4.664  -0.578 -33.158  1.00  0.00     0.032 A 
HETATM   12  C   UNL     1      -4.874  -1.779 -33.850  1.00  0.00     0.002 A 
ENDROOT
BRANCH   5  13
HETATM   13  C   UNL     1      -4.975   2.125 -31.445  1.00  0.00     0.181 C 
BRANCH  13  14
HETATM   14  C   UNL     1      -3.924   3.240 -31.575  1.00  0.00     0.161 C 
BRANCH  14  15
HETATM   15  O   UNL     1      -3.461   3.292 -32.928  1.00  0.00    -0.392 OA
HETATM   16  H   UNL     1      -2.824   2.556 -33.041  1.00  0.00     0.210 HD
ENDBRANCH  14  15
BRANCH  14  17
HETATM   17  C   UNL     1      -4.339   4.630 -31.082  1.00  0.00     0.209 C 
BRANCH  17  18
HETATM   18  O   UNL     1      -3.595   5.581 -31.863  1.00  0.00    -0.347 OA
BRANCH  18  19
HETATM   19  C   UNL     1      -2.572   6.160 -31.158  1.00  0.00     0.090 A 
HETATM   20  C   UNL     1      -1.270   6.144 -31.676  1.00  0.00     0.069 A 
HETATM   21 CL   UNL     1      -0.942   5.481 -33.235  1.00  0.00    -0.081 Cl
HETATM   22  C   UNL     1      -0.214   6.687 -30.945  1.00  0.00     0.050 A 
HETATM   23  C   UNL     1      -0.466   7.228 -29.686  1.00  0.00     0.035 A 
HETATM   24 CL   UNL     1       0.827   7.904 -28.776  1.00  0.00    -0.084 Cl
HETATM   25  C   UNL     1      -1.756   7.224 -29.153  1.00  0.00     0.026 A 
HETATM   26  C   UNL     1      -2.813   6.683 -29.887  1.00  0.00     0.040 A 
ENDBRANCH  18  19
ENDBRANCH  17  18
ENDBRANCH  14  17
ENDBRANCH  13  14
ENDBRANCH   5  13
BRANCH  10  27
HETATM   27  C   UNL     1      -9.141   1.265 -34.192  1.00  0.00     0.175 C 
BRANCH  27  28
HETATM   28  C   UNL     1     -10.095   0.575 -33.196  1.00  0.00     0.256 C 
BRANCH  28  29
HETATM   29  N   UNL     1     -11.405   1.300 -32.963  1.00  0.00    -0.066 N 
HETATM   30  H   UNL     1     -11.655   1.118 -31.978  1.00  0.00     0.280 HD
HETATM   31  C   UNL     1     -11.303   2.830 -33.053  1.00  0.00     0.261 C 
HETATM   32  C   UNL     1     -12.647   3.456 -32.662  1.00  0.00     0.195 C 
HETATM   33  O   UNL     1     -13.692   2.956 -33.502  1.00  0.00    -0.388 OA
HETATM   34  C   UNL     1     -13.870   1.544 -33.355  1.00  0.00     0.195 C 
HETATM   35  C   UNL     1     -12.599   0.800 -33.782  1.00  0.00     0.261 C 
ENDBRANCH  28  29
ENDBRANCH  27  28
ENDBRANCH  10  27
TORSDOF 9
ENDMDL
MODEL 9
REMARK VINA RESULT:      -7.5      3.452      7.324
REMARK  9 active torsions:
REMARK  status: ('A' for Active; 'I' for Inactive)
REMARK    1  A    between atoms: N_5  and  C_6 
REMARK    2  A    between atoms: C_6  and  C_7 
REMARK    3  A    between atoms: C_7  and  O_8 
REMARK    4  A    between atoms: C_7  and  C_9 
REMARK    5  A    between atoms: C_9  and  O_10 
REMARK    6  A    between atoms: O_10  and  C_11 
REMARK    7  A    between atoms: N_23  and  C_24 
REMARK    8  A    between atoms: C_24  and  C_25 
REMARK    9  A    between atoms: C_25  and  N_26 
ROOT
HETATM    1  C   UNL     1      -3.616   5.137 -34.402  1.00  0.00     0.002 A 
HETATM    2  C   UNL     1      -4.954   5.333 -34.065  1.00  0.00     0.032 A 
HETATM    3  C   UNL     1      -5.403   4.762 -32.888  1.00  0.00     0.079 A 
HETATM    4  C   UNL     1      -4.571   4.001 -32.024  1.00  0.00     0.079 A 
HETATM    5  N   UNL     1      -5.328   3.587 -30.918  1.00  0.00    -0.179 N 
HETATM    6  C   UNL     1      -6.677   3.998 -31.195  1.00  0.00     0.681 A 
HETATM    7  N   UNL     1      -7.761   3.657 -30.458  1.00  0.00    -0.234 N 
HETATM    8  H   UNL     1      -8.710   3.888 -30.716  1.00  0.00     0.174 HD
HETATM    9  H   UNL     1      -7.659   3.086 -29.625  1.00  0.00     0.174 HD
HETATM   10  N   UNL     1      -6.741   4.780 -32.353  1.00  0.00    -0.180 N 
HETATM   11  C   UNL     1      -3.255   3.806 -32.382  1.00  0.00     0.032 A 
HETATM   12  C   UNL     1      -2.780   4.380 -33.569  1.00  0.00     0.002 A 
ENDROOT
BRANCH   5  13
HETATM   13  C   UNL     1      -5.022   2.411 -30.085  1.00  0.00     0.181 C 
BRANCH  13  14
HETATM   14  C   UNL     1      -5.606   1.035 -30.445  1.00  0.00     0.161 C 
BRANCH  14  15
HETATM   15  O   UNL     1      -6.710   0.754 -29.580  1.00  0.00    -0.392 OA
HETATM   16  H   UNL     1      -6.509  -0.089 -29.122  1.00  0.00     0.210 HD
ENDBRANCH  14  15
BRANCH  14  17
HETATM   17  C   UNL     1      -5.988   0.818 -31.913  1.00  0.00     0.209 C 
BRANCH  17  18
HETATM   18  O   UNL     1      -4.847   0.216 -32.549  1.00  0.00    -0.347 OA
BRANCH  18  19
HETATM   19  C   UNL     1      -5.168  -0.919 -33.247  1.00  0.00     0.090 A 
HETATM   20  C   UNL     1      -4.348  -2.052 -33.153  1.00  0.00     0.069 A 
HETATM   21 CL   UNL     1      -2.979  -2.074 -32.103  1.00  0.00    -0.081 Cl
HETATM   22  C   UNL     1      -4.640  -3.196 -33.896  1.00  0.00     0.050 A 
HETATM   23  C   UNL     1      -5.743  -3.192 -34.746  1.00  0.00     0.035 A 
HETATM   24 CL   UNL     1      -6.115  -4.597 -35.665  1.00  0.00    -0.084 Cl
HETATM   25  C   UNL     1      -6.550  -2.058 -34.863  1.00  0.00     0.026 A 
HETATM   26  C   UNL     1      -6.259  -0.915 -34.117  1.00  0.00     0.040 A 
ENDBRANCH  18  19
ENDBRANCH  17  18
ENDBRANCH  14  17
ENDBRANCH  13  14
ENDBRANCH   5  13
BRANCH  10  27
HETATM   27  C   UNL     1      -7.922   5.317 -33.049  1.00  0.00     0.175 C 
BRANCH  27  28
HETATM   28  C   UNL     1      -8.478   4.348 -34.112  1.00  0.00     0.256 C 
BRANCH  28  29
HETATM   29  N   UNL     1      -9.451   3.313 -33.584  1.00  0.00    -0.066 N 
HETATM   30  H   UNL     1      -9.506   3.473 -32.567  1.00  0.00     0.280 HD
HETATM   31  C   UNL     1     -10.894   3.495 -34.077  1.00  0.00     0.261 C 
HETATM   32  C   UNL     1     -11.807   2.484 -33.372  1.00  0.00     0.195 C 
HETATM   33  O   UNL     1     -11.345   1.150 -33.604  1.00  0.00    -0.388 OA
HETATM   34  C   UNL     1     -10.039   0.932 -33.060  1.00  0.00     0.195 C 
HETATM   35  C   UNL     1      -9.019   1.851 -33.741  1.00  0.00     0.261 C 
ENDBRANCH  28  29
ENDBRANCH  27  28
ENDBRANCH  10  27
TORSDOF 9
ENDMDL
MODEL 10
REMARK VINA RESULT:      -7.3      3.526      8.903
REMARK  9 active torsions:
REMARK  status: ('A' for Active; 'I' for Inactive)
REMARK    1  A    between atoms: N_5  and  C_6 
REMARK    2  A    between atoms: C_6  and  C_7 
REMARK    3  A    between atoms: C_7  and  O_8 
REMARK    4  A    between atoms: C_7  and  C_9 
REMARK    5  A    between atoms: C_9  and  O_10 
REMARK    6  A    between atoms: O_10  and  C_11 
REMARK    7  A    between atoms: N_23  and  C_24 
REMARK    8  A    between atoms: C_24  and  C_25 
REMARK    9  A    between atoms: C_25  and  N_26 
ROOT
HETATM    1  C   UNL     1      -0.812   6.258 -33.960  1.00  0.00     0.002 A 
HETATM    2  C   UNL     1      -1.402   6.761 -32.801  1.00  0.00     0.032 A 
HETATM    3  C   UNL     1      -2.736   6.461 -32.588  1.00  0.00     0.079 A 
HETATM    4  C   UNL     1      -3.511   5.677 -33.483  1.00  0.00     0.079 A 
HETATM    5  N   UNL     1      -4.808   5.550 -32.963  1.00  0.00    -0.179 N 
HETATM    6  C   UNL     1      -4.843   6.390 -31.797  1.00  0.00     0.681 A 
HETATM    7  N   UNL     1      -5.956   6.683 -31.083  1.00  0.00    -0.234 N 
HETATM    8  H   UNL     1      -5.974   7.341 -30.317  1.00  0.00     0.174 HD
HETATM    9  H   UNL     1      -6.854   6.284 -31.341  1.00  0.00     0.174 HD
HETATM   10  N   UNL     1      -3.575   6.900 -31.502  1.00  0.00    -0.180 N 
HETATM   11  C   UNL     1      -2.913   5.202 -34.629  1.00  0.00     0.032 A 
HETATM   12  C   UNL     1      -1.561   5.491 -34.862  1.00  0.00     0.002 A 
ENDROOT
BRANCH   5  13
HETATM   13  C   UNL     1      -6.010   5.274 -33.768  1.00  0.00     0.181 C 
BRANCH  13  14
HETATM   14  C   UNL     1      -6.859   4.023 -33.487  1.00  0.00     0.161 C 
BRANCH  14  15
HETATM   15  O   UNL     1      -8.202   4.261 -33.919  1.00  0.00    -0.392 OA
HETATM   16  H   UNL     1      -8.589   4.920 -33.303  1.00  0.00     0.210 HD
ENDBRANCH  14  15
BRANCH  14  17
HETATM   17  C   UNL     1      -6.329   2.699 -34.045  1.00  0.00     0.209 C 
BRANCH  17  18
HETATM   18  O   UNL     1      -6.473   1.724 -32.996  1.00  0.00    -0.347 OA
BRANCH  18  19
HETATM   19  C   UNL     1      -6.238   0.445 -33.427  1.00  0.00     0.090 A 
HETATM   20  C   UNL     1      -4.980  -0.139 -33.231  1.00  0.00     0.069 A 
HETATM   21 CL   UNL     1      -3.736   0.696 -32.374  1.00  0.00    -0.081 Cl
HETATM   22  C   UNL     1      -4.717  -1.423 -33.709  1.00  0.00     0.050 A 
HETATM   23  C   UNL     1      -5.712  -2.109 -34.400  1.00  0.00     0.035 A 
HETATM   24 CL   UNL     1      -5.402  -3.694 -34.991  1.00  0.00    -0.084 Cl
HETATM   25  C   UNL     1      -6.960  -1.523 -34.621  1.00  0.00     0.026 A 
HETATM   26  C   UNL     1      -7.224  -0.239 -34.140  1.00  0.00     0.040 A 
ENDBRANCH  18  19
ENDBRANCH  17  18
ENDBRANCH  14  17
ENDBRANCH  13  14
ENDBRANCH   5  13
BRANCH  10  27
HETATM   27  C   UNL     1      -3.181   7.873 -30.470  1.00  0.00     0.175 C 
BRANCH  27  28
HETATM   28  C   UNL     1      -3.317   7.313 -29.040  1.00  0.00     0.256 C 
BRANCH  28  29
HETATM   29  N   UNL     1      -2.054   6.697 -28.474  1.00  0.00    -0.066 N 
HETATM   30  H   UNL     1      -2.185   5.676 -28.540  1.00  0.00     0.280 HD
HETATM   31  C   UNL     1      -0.792   6.974 -29.304  1.00  0.00     0.261 C 
HETATM   32  C   UNL     1       0.389   6.191 -28.717  1.00  0.00     0.195 C 
HETATM   33  O   UNL     1       0.585   6.541 -27.343  1.00  0.00    -0.388 OA
HETATM   34  C   UNL     1      -0.544   6.196 -26.535  1.00  0.00     0.195 C 
HETATM   35  C   UNL     1      -1.783   6.974 -26.991  1.00  0.00     0.261 C 
ENDBRANCH  28  29
ENDBRANCH  27  28
ENDBRANCH  10  27
TORSDOF 9
ENDMDL
