MODEL 1
REMARK VINA RESULT:      -8.0      0.000      0.000
REMARK  6 active torsions:
REMARK  status: ('A' for Active; 'I' for Inactive)
REMARK    1  A    between atoms: C_2  and  N_3 
REMARK    2  A    between atoms: C_2  and  C_18 
REMARK    3  A    between atoms: N_3  and  C_6 
REMARK    4  A    between atoms: C_6  and  C_7 
REMARK    5  A    between atoms: C_10  and  N_11 
REMARK       I    between atoms: N_11  and  C_12 
REMARK    6  A    between atoms: C_12  and  O_13 
ROOT
HETATM    1  N   UNL     1      -6.808   1.782 -33.939  1.00  0.00    -0.061 N 
HETATM    2  H   UNL     1      -6.413   2.375 -34.682  1.00  0.00     0.278 HD
HETATM    3  H   UNL     1      -7.228   1.004 -34.471  1.00  0.00     0.278 HD
ENDROOT
BRANCH   1   4
HETATM    4  C   UNL     1      -5.651   1.214 -33.153  1.00  0.00     0.241 C 
HETATM    5  C   UNL     1      -5.922   1.369 -31.659  1.00  0.00     0.047 C 
BRANCH   4   6
HETATM    6  C   UNL     1      -5.501  -0.243 -33.517  1.00  0.00     0.106 A 
HETATM    7  S   UNL     1      -4.012  -1.062 -33.336  1.00  0.00    -0.070 SA
HETATM    8  C   UNL     1      -4.741  -2.508 -33.924  1.00  0.00     0.035 A 
HETATM    9  C   UNL     1      -6.078  -2.249 -34.240  1.00  0.00     0.075 A 
HETATM   10  C   UNL     1      -4.171  -3.780 -34.095  1.00  0.00     0.021 A 
HETATM   11  N   UNL     1      -6.497  -0.942 -34.019  1.00  0.00    -0.243 NA
HETATM   12  C   UNL     1      -6.872  -3.299 -34.743  1.00  0.00     0.033 A 
HETATM   13  C   UNL     1      -6.314  -4.571 -34.912  1.00  0.00     0.002 A 
HETATM   14  C   UNL     1      -4.981  -4.806 -34.592  1.00  0.00     0.002 A 
ENDBRANCH   4   6
ENDBRANCH   1   4
BRANCH   1  15
HETATM   15  C   UNL     1      -7.843   2.549 -33.208  1.00  0.00     0.271 C 
BRANCH  15  16
HETATM   16  C   UNL     1      -9.225   2.071 -33.552  1.00  0.00    -0.033 A 
HETATM   17  C   UNL     1      -9.716   0.866 -33.034  1.00  0.00     0.011 A 
HETATM   18  C   UNL     1     -11.000   0.411 -33.366  1.00  0.00     0.030 A 
HETATM   19  C   UNL     1     -11.821   1.151 -34.217  1.00  0.00     0.036 A 
HETATM   20  C   UNL     1     -11.330   2.359 -34.728  1.00  0.00     0.030 A 
HETATM   21  C   UNL     1     -10.047   2.814 -34.407  1.00  0.00     0.011 A 
BRANCH  19  22
HETATM   22  N   UNL     1     -13.122   0.789 -34.602  1.00  0.00    -0.303 N 
HETATM   23  C   UNL     1     -14.357   1.079 -34.084  1.00  0.00     0.364 C 
HETATM   24  O   UNL     1     -15.366   0.649 -34.633  1.00  0.00    -0.238 OA
HETATM   25  H   UNL     1     -13.218   0.193 -35.415  1.00  0.00     0.171 HD
BRANCH  23  26
HETATM   26  O   UNL     1     -14.362   1.827 -32.954  1.00  0.00    -0.309 OA
HETATM   27  C   UNL     1     -15.663   2.031 -32.397  1.00  0.00     0.215 C 
ENDBRANCH  23  26
ENDBRANCH  19  22
ENDBRANCH  15  16
ENDBRANCH   1  15
TORSDOF 6
ENDMDL
MODEL 2
REMARK VINA RESULT:      -7.8      1.408      1.892
REMARK  6 active torsions:
REMARK  status: ('A' for Active; 'I' for Inactive)
REMARK    1  A    between atoms: C_2  and  N_3 
REMARK    2  A    between atoms: C_2  and  C_18 
REMARK    3  A    between atoms: N_3  and  C_6 
REMARK    4  A    between atoms: C_6  and  C_7 
REMARK    5  A    between atoms: C_10  and  N_11 
REMARK       I    between atoms: N_11  and  C_12 
REMARK    6  A    between atoms: C_12  and  O_13 
ROOT
HETATM    1  N   UNL     1      -5.756   0.822 -31.010  1.00  0.00    -0.061 N 
HETATM    2  H   UNL     1      -6.105  -0.138 -30.886  1.00  0.00     0.278 HD
HETATM    3  H   UNL     1      -5.014   0.886 -30.296  1.00  0.00     0.278 HD
ENDROOT
BRANCH   1   4
HETATM    4  C   UNL     1      -5.083   0.885 -32.360  1.00  0.00     0.241 C 
HETATM    5  C   UNL     1      -3.650   1.384 -32.195  1.00  0.00     0.047 C 
BRANCH   4   6
HETATM    6  C   UNL     1      -5.097  -0.498 -32.963  1.00  0.00     0.106 A 
HETATM    7  S   UNL     1      -3.743  -1.535 -32.857  1.00  0.00    -0.070 SA
HETATM    8  C   UNL     1      -4.611  -2.748 -33.721  1.00  0.00     0.035 A 
HETATM    9  C   UNL     1      -5.878  -2.257 -34.048  1.00  0.00     0.075 A 
HETATM   10  C   UNL     1      -4.199  -4.041 -34.082  1.00  0.00     0.021 A 
HETATM   11  N   UNL     1      -6.138  -0.959 -33.623  1.00  0.00    -0.243 NA
HETATM   12  C   UNL     1      -6.764  -3.089 -34.761  1.00  0.00     0.033 A 
HETATM   13  C   UNL     1      -6.365  -4.380 -35.122  1.00  0.00     0.002 A 
HETATM   14  C   UNL     1      -5.099  -4.848 -34.786  1.00  0.00     0.002 A 
ENDBRANCH   4   6
ENDBRANCH   1   4
BRANCH   1  15
HETATM   15  C   UNL     1      -6.854   1.776 -30.728  1.00  0.00     0.271 C 
BRANCH  15  16
HETATM   16  C   UNL     1      -7.908   1.729 -31.797  1.00  0.00    -0.033 A 
HETATM   17  C   UNL     1      -8.747   0.615 -31.927  1.00  0.00     0.011 A 
HETATM   18  C   UNL     1      -9.722   0.564 -32.933  1.00  0.00     0.030 A 
HETATM   19  C   UNL     1      -9.882   1.623 -33.827  1.00  0.00     0.036 A 
HETATM   20  C   UNL     1      -9.046   2.738 -33.690  1.00  0.00     0.030 A 
HETATM   21  C   UNL     1      -8.066   2.792 -32.692  1.00  0.00     0.011 A 
BRANCH  19  22
HETATM   22  N   UNL     1     -10.832   1.673 -34.860  1.00  0.00    -0.303 N 
HETATM   23  C   UNL     1     -12.200   1.592 -34.866  1.00  0.00     0.364 C 
HETATM   24  O   UNL     1     -12.813   1.690 -35.924  1.00  0.00    -0.238 OA
HETATM   25  H   UNL     1     -10.487   1.787 -35.805  1.00  0.00     0.171 HD
BRANCH  23  26
HETATM   26  O   UNL     1     -12.785   1.380 -33.662  1.00  0.00    -0.309 OA
HETATM   27  C   UNL     1     -13.658   0.249 -33.631  1.00  0.00     0.215 C 
ENDBRANCH  23  26
ENDBRANCH  19  22
ENDBRANCH  15  16
ENDBRANCH   1  15
TORSDOF 6
ENDMDL
MODEL 3
REMARK VINA RESULT:      -7.8      0.837      1.278
REMARK  6 active torsions:
REMARK  status: ('A' for Active; 'I' for Inactive)
REMARK    1  A    between atoms: C_2  and  N_3 
REMARK    2  A    between atoms: C_2  and  C_18 
REMARK    3  A    between atoms: N_3  and  C_6 
REMARK    4  A    between atoms: C_6  and  C_7 
REMARK    5  A    between atoms: C_10  and  N_11 
REMARK       I    between atoms: N_11  and  C_12 
REMARK    6  A    between atoms: C_12  and  O_13 
ROOT
HETATM    1  N   UNL     1      -6.620   1.775 -33.733  1.00  0.00    -0.061 N 
HETATM    2  H   UNL     1      -6.238   2.500 -34.357  1.00  0.00     0.278 HD
HETATM    3  H   UNL     1      -7.037   1.105 -34.397  1.00  0.00     0.278 HD
ENDROOT
BRANCH   1   4
HETATM    4  C   UNL     1      -5.450   1.085 -33.075  1.00  0.00     0.241 C 
HETATM    5  C   UNL     1      -5.573   1.204 -31.558  1.00  0.00     0.047 C 
BRANCH   4   6
HETATM    6  C   UNL     1      -5.456  -0.364 -33.496  1.00  0.00     0.106 A 
HETATM    7  S   UNL     1      -6.756  -1.034 -34.379  1.00  0.00    -0.070 SA
HETATM    8  C   UNL     1      -5.949  -2.557 -34.403  1.00  0.00     0.035 A 
HETATM    9  C   UNL     1      -4.742  -2.444 -33.708  1.00  0.00     0.075 A 
HETATM   10  C   UNL     1      -6.355  -3.764 -34.995  1.00  0.00     0.021 A 
HETATM   11  N   UNL     1      -4.479  -1.186 -33.176  1.00  0.00    -0.243 NA
HETATM   12  C   UNL     1      -3.912  -3.578 -33.601  1.00  0.00     0.033 A 
HETATM   13  C   UNL     1      -4.305  -4.784 -34.191  1.00  0.00     0.002 A 
HETATM   14  C   UNL     1      -5.511  -4.873 -34.879  1.00  0.00     0.002 A 
ENDBRANCH   4   6
ENDBRANCH   1   4
BRANCH   1  15
HETATM   15  C   UNL     1      -7.655   2.383 -32.864  1.00  0.00     0.271 C 
BRANCH  15  16
HETATM   16  C   UNL     1      -9.037   1.978 -33.294  1.00  0.00    -0.033 A 
HETATM   17  C   UNL     1      -9.629   0.810 -32.798  1.00  0.00     0.011 A 
HETATM   18  C   UNL     1     -10.912   0.424 -33.209  1.00  0.00     0.030 A 
HETATM   19  C   UNL     1     -11.632   1.197 -34.119  1.00  0.00     0.036 A 
HETATM   20  C   UNL     1     -11.042   2.369 -34.608  1.00  0.00     0.030 A 
HETATM   21  C   UNL     1      -9.758   2.755 -34.208  1.00  0.00     0.011 A 
BRANCH  19  22
HETATM   22  N   UNL     1     -12.924   0.903 -34.584  1.00  0.00    -0.303 N 
HETATM   23  C   UNL     1     -14.171   1.117 -34.056  1.00  0.00     0.364 C 
HETATM   24  O   UNL     1     -15.167   0.780 -34.688  1.00  0.00    -0.238 OA
HETATM   25  H   UNL     1     -13.002   0.440 -35.481  1.00  0.00     0.171 HD
BRANCH  23  26
HETATM   26  O   UNL     1     -14.203   1.683 -32.826  1.00  0.00    -0.309 OA
HETATM   27  C   UNL     1     -15.520   1.968 -32.350  1.00  0.00     0.215 C 
ENDBRANCH  23  26
ENDBRANCH  19  22
ENDBRANCH  15  16
ENDBRANCH   1  15
TORSDOF 6
ENDMDL
MODEL 4
REMARK VINA RESULT:      -7.7      5.410      8.278
REMARK  6 active torsions:
REMARK  status: ('A' for Active; 'I' for Inactive)
REMARK    1  A    between atoms: C_2  and  N_3 
REMARK    2  A    between atoms: C_2  and  C_18 
REMARK    3  A    between atoms: N_3  and  C_6 
REMARK    4  A    between atoms: C_6  and  C_7 
REMARK    5  A    between atoms: C_10  and  N_11 
REMARK       I    between atoms: N_11  and  C_12 
REMARK    6  A    between atoms: C_12  and  O_13 
ROOT
HETATM    1  N   UNL     1      -4.998   3.023 -32.468  1.00  0.00    -0.061 N 
HETATM    2  H   UNL     1      -4.467   2.190 -32.180  1.00  0.00     0.278 HD
HETATM    3  H   UNL     1      -4.917   3.638 -31.645  1.00  0.00     0.278 HD
ENDROOT
BRANCH   1   4
HETATM    4  C   UNL     1      -4.233   3.678 -33.593  1.00  0.00     0.241 C 
HETATM    5  C   UNL     1      -5.162   4.606 -34.371  1.00  0.00     0.047 C 
BRANCH   4   6
HETATM    6  C   UNL     1      -3.085   4.454 -32.997  1.00  0.00     0.106 A 
HETATM    7  S   UNL     1      -2.650   6.000 -33.582  1.00  0.00    -0.070 SA
HETATM    8  C   UNL     1      -1.388   6.083 -32.410  1.00  0.00     0.035 A 
HETATM    9  C   UNL     1      -1.379   4.900 -31.665  1.00  0.00     0.075 A 
HETATM   10  C   UNL     1      -0.473   7.119 -32.168  1.00  0.00     0.021 A 
HETATM   11  N   UNL     1      -2.346   3.966 -32.024  1.00  0.00    -0.243 NA
HETATM   12  C   UNL     1      -0.422   4.750 -30.642  1.00  0.00     0.033 A 
HETATM   13  C   UNL     1       0.492   5.779 -30.391  1.00  0.00     0.002 A 
HETATM   14  C   UNL     1       0.465   6.947 -31.145  1.00  0.00     0.002 A 
ENDBRANCH   4   6
ENDBRANCH   1   4
BRANCH   1  15
HETATM   15  C   UNL     1      -6.408   2.636 -32.711  1.00  0.00     0.271 C 
BRANCH  15  16
HETATM   16  C   UNL     1      -6.506   1.241 -33.259  1.00  0.00    -0.033 A 
HETATM   17  C   UNL     1      -6.831   1.021 -34.604  1.00  0.00     0.011 A 
HETATM   18  C   UNL     1      -6.937  -0.280 -35.114  1.00  0.00     0.030 A 
HETATM   19  C   UNL     1      -6.717  -1.388 -34.295  1.00  0.00     0.036 A 
HETATM   20  C   UNL     1      -6.384  -1.165 -32.953  1.00  0.00     0.030 A 
HETATM   21  C   UNL     1      -6.285   0.132 -32.436  1.00  0.00     0.011 A 
BRANCH  19  22
HETATM   22  N   UNL     1      -6.789  -2.727 -34.710  1.00  0.00    -0.303 N 
HETATM   23  C   UNL     1      -5.829  -3.675 -34.953  1.00  0.00     0.364 C 
HETATM   24  O   UNL     1      -6.161  -4.807 -35.291  1.00  0.00    -0.238 OA
HETATM   25  H   UNL     1      -7.709  -3.113 -34.880  1.00  0.00     0.171 HD
BRANCH  23  26
HETATM   26  O   UNL     1      -4.545  -3.265 -34.816  1.00  0.00    -0.309 OA
HETATM   27  C   UNL     1      -3.833  -3.922 -33.765  1.00  0.00     0.215 C 
ENDBRANCH  23  26
ENDBRANCH  19  22
ENDBRANCH  15  16
ENDBRANCH   1  15
TORSDOF 6
ENDMDL
MODEL 5
REMARK VINA RESULT:      -7.5      5.646      7.387
REMARK  6 active torsions:
REMARK  status: ('A' for Active; 'I' for Inactive)
REMARK    1  A    between atoms: C_2  and  N_3 
REMARK    2  A    between atoms: C_2  and  C_18 
REMARK    3  A    between atoms: N_3  and  C_6 
REMARK    4  A    between atoms: C_6  and  C_7 
REMARK    5  A    between atoms: C_10  and  N_11 
REMARK       I    between atoms: N_11  and  C_12 
REMARK    6  A    between atoms: C_12  and  O_13 
ROOT
HETATM    1  N   UNL     1      -5.891   1.004 -31.646  1.00  0.00    -0.061 N 
HETATM    2  H   UNL     1      -6.511   0.186 -31.573  1.00  0.00     0.278 HD
HETATM    3  H   UNL     1      -5.513   1.086 -30.690  1.00  0.00     0.278 HD
ENDROOT
BRANCH   1   4
HETATM    4  C   UNL     1      -4.743   0.620 -32.549  1.00  0.00     0.241 C 
HETATM    5  C   UNL     1      -3.457   0.532 -31.731  1.00  0.00     0.047 C 
BRANCH   4   6
HETATM    6  C   UNL     1      -5.062  -0.712 -33.181  1.00  0.00     0.106 A 
HETATM    7  S   UNL     1      -6.568  -1.009 -33.932  1.00  0.00    -0.070 SA
HETATM    8  C   UNL     1      -6.052  -2.607 -34.323  1.00  0.00     0.035 A 
HETATM    9  C   UNL     1      -4.761  -2.804 -33.825  1.00  0.00     0.075 A 
HETATM   10  C   UNL     1      -6.741  -3.613 -35.019  1.00  0.00     0.021 A 
HETATM   11  N   UNL     1      -4.211  -1.716 -33.156  1.00  0.00    -0.243 NA
HETATM   12  C   UNL     1      -4.137  -4.051 -34.032  1.00  0.00     0.033 A 
HETATM   13  C   UNL     1      -4.814  -5.058 -34.728  1.00  0.00     0.002 A 
HETATM   14  C   UNL     1      -6.099  -4.840 -35.214  1.00  0.00     0.002 A 
ENDBRANCH   4   6
ENDBRANCH   1   4
BRANCH   1  15
HETATM   15  C   UNL     1      -6.699   2.193 -32.006  1.00  0.00     0.271 C 
BRANCH  15  16
HETATM   16  C   UNL     1      -5.827   3.335 -32.445  1.00  0.00    -0.033 A 
HETATM   17  C   UNL     1      -5.709   3.667 -33.800  1.00  0.00     0.011 A 
HETATM   18  C   UNL     1      -4.885   4.723 -34.212  1.00  0.00     0.030 A 
HETATM   19  C   UNL     1      -4.166   5.472 -33.281  1.00  0.00     0.036 A 
HETATM   20  C   UNL     1      -4.291   5.143 -31.925  1.00  0.00     0.030 A 
HETATM   21  C   UNL     1      -5.106   4.084 -31.509  1.00  0.00     0.011 A 
BRANCH  19  22
HETATM   22  N   UNL     1      -3.323   6.553 -33.589  1.00  0.00    -0.303 N 
HETATM   23  C   UNL     1      -1.967   6.652 -33.761  1.00  0.00     0.364 C 
HETATM   24  O   UNL     1      -1.467   7.732 -34.057  1.00  0.00    -0.238 OA
HETATM   25  H   UNL     1      -3.757   7.459 -33.716  1.00  0.00     0.171 HD
BRANCH  23  26
HETATM   26  O   UNL     1      -1.262   5.513 -33.561  1.00  0.00    -0.309 OA
HETATM   27  C   UNL     1      -0.684   5.407 -32.258  1.00  0.00     0.215 C 
ENDBRANCH  23  26
ENDBRANCH  19  22
ENDBRANCH  15  16
ENDBRANCH   1  15
TORSDOF 6
ENDMDL
MODEL 6
REMARK VINA RESULT:      -7.4      4.698      6.984
REMARK  6 active torsions:
REMARK  status: ('A' for Active; 'I' for Inactive)
REMARK    1  A    between atoms: C_2  and  N_3 
REMARK    2  A    between atoms: C_2  and  C_18 
REMARK    3  A    between atoms: N_3  and  C_6 
REMARK    4  A    between atoms: C_6  and  C_7 
REMARK    5  A    between atoms: C_10  and  N_11 
REMARK       I    between atoms: N_11  and  C_12 
REMARK    6  A    between atoms: C_12  and  O_13 
ROOT
HETATM    1  N   UNL     1      -8.245   2.589 -31.200  1.00  0.00    -0.061 N 
HETATM    2  H   UNL     1      -8.572   2.747 -30.237  1.00  0.00     0.278 HD
HETATM    3  H   UNL     1      -7.244   2.379 -31.066  1.00  0.00     0.278 HD
ENDROOT
BRANCH   1   4
HETATM    4  C   UNL     1      -8.905   1.325 -31.697  1.00  0.00     0.241 C 
HETATM    5  C   UNL     1      -9.934   1.672 -32.769  1.00  0.00     0.047 C 
BRANCH   4   6
HETATM    6  C   UNL     1      -7.836   0.422 -32.260  1.00  0.00     0.106 A 
HETATM    7  S   UNL     1      -6.257   0.387 -31.607  1.00  0.00    -0.070 SA
HETATM    8  C   UNL     1      -5.810  -0.811 -32.762  1.00  0.00     0.035 A 
HETATM    9  C   UNL     1      -6.907  -1.084 -33.584  1.00  0.00     0.075 A 
HETATM   10  C   UNL     1      -4.577  -1.463 -32.928  1.00  0.00     0.021 A 
HETATM   11  N   UNL     1      -8.058  -0.357 -33.298  1.00  0.00    -0.243 NA
HETATM   12  C   UNL     1      -6.766  -2.042 -34.608  1.00  0.00     0.033 A 
HETATM   13  C   UNL     1      -5.543  -2.700 -34.778  1.00  0.00     0.002 A 
HETATM   14  C   UNL     1      -4.465  -2.413 -33.948  1.00  0.00     0.002 A 
ENDBRANCH   4   6
ENDBRANCH   1   4
BRANCH   1  15
HETATM   15  C   UNL     1      -8.432   3.832 -31.984  1.00  0.00     0.271 C 
BRANCH  15  16
HETATM   16  C   UNL     1      -7.161   4.239 -32.675  1.00  0.00    -0.033 A 
HETATM   17  C   UNL     1      -6.406   5.322 -32.206  1.00  0.00     0.011 A 
HETATM   18  C   UNL     1      -5.228   5.712 -32.859  1.00  0.00     0.030 A 
HETATM   19  C   UNL     1      -4.777   5.027 -33.987  1.00  0.00     0.036 A 
HETATM   20  C   UNL     1      -5.530   3.940 -34.449  1.00  0.00     0.030 A 
HETATM   21  C   UNL     1      -6.711   3.551 -33.807  1.00  0.00     0.011 A 
BRANCH  19  22
HETATM   22  N   UNL     1      -3.608   5.331 -34.704  1.00  0.00    -0.303 N 
HETATM   23  C   UNL     1      -2.290   5.010 -34.508  1.00  0.00     0.364 C 
HETATM   24  O   UNL     1      -1.444   5.388 -35.311  1.00  0.00    -0.238 OA
HETATM   25  H   UNL     1      -3.707   5.901 -35.535  1.00  0.00     0.171 HD
BRANCH  23  26
HETATM   26  O   UNL     1      -2.017   4.293 -33.391  1.00  0.00    -0.309 OA
HETATM   27  C   UNL     1      -1.296   5.022 -32.394  1.00  0.00     0.215 C 
ENDBRANCH  23  26
ENDBRANCH  19  22
ENDBRANCH  15  16
ENDBRANCH   1  15
TORSDOF 6
ENDMDL
MODEL 7
REMARK VINA RESULT:      -7.3      3.992      7.528
REMARK  6 active torsions:
REMARK  status: ('A' for Active; 'I' for Inactive)
REMARK    1  A    between atoms: C_2  and  N_3 
REMARK    2  A    between atoms: C_2  and  C_18 
REMARK    3  A    between atoms: N_3  and  C_6 
REMARK    4  A    between atoms: C_6  and  C_7 
REMARK    5  A    between atoms: C_10  and  N_11 
REMARK       I    between atoms: N_11  and  C_12 
REMARK    6  A    between atoms: C_12  and  O_13 
ROOT
HETATM    1  N   UNL     1      -6.708   2.675 -32.038  1.00  0.00    -0.061 N 
HETATM    2  H   UNL     1      -5.991   2.826 -31.315  1.00  0.00     0.278 HD
HETATM    3  H   UNL     1      -7.207   1.842 -31.691  1.00  0.00     0.278 HD
ENDROOT
BRANCH   1   4
HETATM    4  C   UNL     1      -7.671   3.836 -31.966  1.00  0.00     0.241 C 
HETATM    5  C   UNL     1      -6.964   5.116 -32.403  1.00  0.00     0.047 C 
BRANCH   4   6
HETATM    6  C   UNL     1      -8.840   3.539 -32.872  1.00  0.00     0.106 A 
HETATM    7  S   UNL     1      -9.332   4.635 -34.087  1.00  0.00    -0.070 SA
HETATM    8  C   UNL     1     -10.586   3.549 -34.553  1.00  0.00     0.035 A 
HETATM    9  C   UNL     1     -10.549   2.426 -33.722  1.00  0.00     0.075 A 
HETATM   10  C   UNL     1     -11.534   3.681 -35.580  1.00  0.00     0.021 A 
HETATM   11  N   UNL     1      -9.555   2.441 -32.749  1.00  0.00    -0.243 NA
HETATM   12  C   UNL     1     -11.494   1.400 -33.925  1.00  0.00     0.033 A 
HETATM   13  C   UNL     1     -12.439   1.520 -34.949  1.00  0.00     0.002 A 
HETATM   14  C   UNL     1     -12.458   2.647 -35.764  1.00  0.00     0.002 A 
ENDBRANCH   4   6
ENDBRANCH   1   4
BRANCH   1  15
HETATM   15  C   UNL     1      -6.039   2.399 -33.331  1.00  0.00     0.271 C 
BRANCH  15  16
HETATM   16  C   UNL     1      -6.204   0.961 -33.736  1.00  0.00    -0.033 A 
HETATM   17  C   UNL     1      -7.050   0.608 -34.795  1.00  0.00     0.011 A 
HETATM   18  C   UNL     1      -7.217  -0.733 -35.165  1.00  0.00     0.030 A 
HETATM   19  C   UNL     1      -6.539  -1.749 -34.490  1.00  0.00     0.036 A 
HETATM   20  C   UNL     1      -5.687  -1.392 -33.437  1.00  0.00     0.030 A 
HETATM   21  C   UNL     1      -5.523  -0.055 -33.058  1.00  0.00     0.011 A 
BRANCH  19  22
HETATM   22  N   UNL     1      -6.629  -3.118 -34.789  1.00  0.00    -0.303 N 
HETATM   23  C   UNL     1      -5.687  -4.109 -34.892  1.00  0.00     0.364 C 
HETATM   24  O   UNL     1      -6.035  -5.257 -35.147  1.00  0.00    -0.238 OA
HETATM   25  H   UNL     1      -7.550  -3.494 -34.977  1.00  0.00     0.171 HD
BRANCH  23  26
HETATM   26  O   UNL     1      -4.401  -3.721 -34.717  1.00  0.00    -0.309 OA
HETATM   27  C   UNL     1      -3.679  -4.512 -33.769  1.00  0.00     0.215 C 
ENDBRANCH  23  26
ENDBRANCH  19  22
ENDBRANCH  15  16
ENDBRANCH   1  15
TORSDOF 6
ENDMDL
MODEL 8
REMARK VINA RESULT:      -7.3      7.021      9.788
REMARK  6 active torsions:
REMARK  status: ('A' for Active; 'I' for Inactive)
REMARK    1  A    between atoms: C_2  and  N_3 
REMARK    2  A    between atoms: C_2  and  C_18 
REMARK    3  A    between atoms: N_3  and  C_6 
REMARK    4  A    between atoms: C_6  and  C_7 
REMARK    5  A    between atoms: C_10  and  N_11 
REMARK       I    between atoms: N_11  and  C_12 
REMARK    6  A    between atoms: C_12  and  O_13 
ROOT
HETATM    1  N   UNL     1      -3.937   3.682 -32.478  1.00  0.00    -0.061 N 
HETATM    2  H   UNL     1      -4.570   3.458 -33.258  1.00  0.00     0.278 HD
HETATM    3  H   UNL     1      -4.427   4.460 -32.008  1.00  0.00     0.278 HD
ENDROOT
BRANCH   1   4
HETATM    4  C   UNL     1      -3.955   2.506 -31.531  1.00  0.00     0.241 C 
HETATM    5  C   UNL     1      -4.934   2.781 -30.392  1.00  0.00     0.047 C 
BRANCH   4   6
HETATM    6  C   UNL     1      -4.373   1.281 -32.305  1.00  0.00     0.106 A 
HETATM    7  S   UNL     1      -3.352  -0.084 -32.441  1.00  0.00    -0.070 SA
HETATM    8  C   UNL     1      -4.553  -0.882 -33.385  1.00  0.00     0.035 A 
HETATM    9  C   UNL     1      -5.649  -0.029 -33.546  1.00  0.00     0.075 A 
HETATM   10  C   UNL     1      -4.527  -2.171 -33.942  1.00  0.00     0.021 A 
HETATM   11  N   UNL     1      -5.525   1.215 -32.938  1.00  0.00    -0.243 NA
HETATM   12  C   UNL     1      -6.757  -0.481 -34.291  1.00  0.00     0.033 A 
HETATM   13  C   UNL     1      -6.742  -1.765 -34.846  1.00  0.00     0.002 A 
HETATM   14  C   UNL     1      -5.641  -2.597 -34.673  1.00  0.00     0.002 A 
ENDBRANCH   4   6
ENDBRANCH   1   4
BRANCH   1  15
HETATM   15  C   UNL     1      -2.633   4.123 -33.024  1.00  0.00     0.271 C 
BRANCH  15  16
HETATM   16  C   UNL     1      -1.918   5.034 -32.067  1.00  0.00    -0.033 A 
HETATM   17  C   UNL     1      -2.629   5.764 -31.106  1.00  0.00     0.011 A 
HETATM   18  C   UNL     1      -1.965   6.625 -30.222  1.00  0.00     0.030 A 
HETATM   19  C   UNL     1      -0.579   6.772 -30.275  1.00  0.00     0.036 A 
HETATM   20  C   UNL     1       0.131   6.035 -31.231  1.00  0.00     0.030 A 
HETATM   21  C   UNL     1      -0.528   5.180 -32.122  1.00  0.00     0.011 A 
BRANCH  19  22
HETATM   22  N   UNL     1       0.180   7.598 -29.430  1.00  0.00    -0.303 N 
HETATM   23  C   UNL     1       0.738   7.399 -28.194  1.00  0.00     0.364 C 
HETATM   24  O   UNL     1       1.390   8.294 -27.666  1.00  0.00    -0.238 OA
HETATM   25  H   UNL     1       0.376   8.538 -29.751  1.00  0.00     0.171 HD
BRANCH  23  26
HETATM   26  O   UNL     1       0.498   6.192 -27.625  1.00  0.00    -0.309 OA
HETATM   27  C   UNL     1      -0.428   6.237 -26.536  1.00  0.00     0.215 C 
ENDBRANCH  23  26
ENDBRANCH  19  22
ENDBRANCH  15  16
ENDBRANCH   1  15
TORSDOF 6
ENDMDL
MODEL 9
REMARK VINA RESULT:      -7.2      5.765      8.331
REMARK  6 active torsions:
REMARK  status: ('A' for Active; 'I' for Inactive)
REMARK    1  A    between atoms: C_2  and  N_3 
REMARK    2  A    between atoms: C_2  and  C_18 
REMARK    3  A    between atoms: N_3  and  C_6 
REMARK    4  A    between atoms: C_6  and  C_7 
REMARK    5  A    between atoms: C_10  and  N_11 
REMARK       I    between atoms: N_11  and  C_12 
REMARK    6  A    between atoms: C_12  and  O_13 
ROOT
HETATM    1  N   UNL     1      -5.837   1.480 -31.894  1.00  0.00    -0.061 N 
HETATM    2  H   UNL     1      -5.963   0.789 -31.142  1.00  0.00     0.278 HD
HETATM    3  H   UNL     1      -4.847   1.350 -32.154  1.00  0.00     0.278 HD
ENDROOT
BRANCH   1   4
HETATM    4  C   UNL     1      -6.671   1.026 -33.067  1.00  0.00     0.241 C 
HETATM    5  C   UNL     1      -6.495   2.001 -34.228  1.00  0.00     0.047 C 
BRANCH   4   6
HETATM    6  C   UNL     1      -6.221  -0.358 -33.463  1.00  0.00     0.106 A 
HETATM    7  S   UNL     1      -4.603  -0.867 -33.255  1.00  0.00    -0.070 SA
HETATM    8  C   UNL     1      -5.009  -2.410 -33.905  1.00  0.00     0.035 A 
HETATM    9  C   UNL     1      -6.362  -2.415 -34.257  1.00  0.00     0.075 A 
HETATM   10  C   UNL     1      -4.190  -3.536 -34.090  1.00  0.00     0.021 A 
HETATM   11  N   UNL     1      -7.042  -1.226 -34.016  1.00  0.00    -0.243 NA
HETATM   12  C   UNL     1      -6.914  -3.587 -34.813  1.00  0.00     0.033 A 
HETATM   13  C   UNL     1      -6.107  -4.714 -34.997  1.00  0.00     0.002 A 
HETATM   14  C   UNL     1      -4.763  -4.687 -34.640  1.00  0.00     0.002 A 
ENDBRANCH   4   6
ENDBRANCH   1   4
BRANCH   1  15
HETATM   15  C   UNL     1      -6.073   2.837 -31.348  1.00  0.00     0.271 C 
BRANCH  15  16
HETATM   16  C   UNL     1      -4.827   3.675 -31.407  1.00  0.00    -0.033 A 
HETATM   17  C   UNL     1      -4.771   4.920 -30.769  1.00  0.00     0.011 A 
HETATM   18  C   UNL     1      -3.614   5.710 -30.836  1.00  0.00     0.030 A 
HETATM   19  C   UNL     1      -2.491   5.272 -31.536  1.00  0.00     0.036 A 
HETATM   20  C   UNL     1      -2.547   4.023 -32.167  1.00  0.00     0.030 A 
HETATM   21  C   UNL     1      -3.701   3.234 -32.111  1.00  0.00     0.011 A 
BRANCH  19  22
HETATM   22  N   UNL     1      -1.284   5.981 -31.654  1.00  0.00    -0.303 N 
HETATM   23  C   UNL     1      -0.139   5.995 -30.901  1.00  0.00     0.364 C 
HETATM   24  O   UNL     1       0.805   6.702 -31.238  1.00  0.00    -0.238 OA
HETATM   25  H   UNL     1      -1.196   6.624 -32.431  1.00  0.00     0.171 HD
BRANCH  23  26
HETATM   26  O   UNL     1      -0.151   5.214 -29.793  1.00  0.00    -0.309 OA
HETATM   27  C   UNL     1       0.647   5.716 -28.719  1.00  0.00     0.215 C 
ENDBRANCH  23  26
ENDBRANCH  19  22
ENDBRANCH  15  16
ENDBRANCH   1  15
TORSDOF 6
ENDMDL
MODEL 10
REMARK VINA RESULT:      -7.0     14.329     16.352
REMARK  6 active torsions:
REMARK  status: ('A' for Active; 'I' for Inactive)
REMARK    1  A    between atoms: C_2  and  N_3 
REMARK    2  A    between atoms: C_2  and  C_18 
REMARK    3  A    between atoms: N_3  and  C_6 
REMARK    4  A    between atoms: C_6  and  C_7 
REMARK    5  A    between atoms: C_10  and  N_11 
REMARK       I    between atoms: N_11  and  C_12 
REMARK    6  A    between atoms: C_12  and  O_13 
ROOT
HETATM    1  N   UNL     1      -3.626 -13.654 -38.922  1.00  0.00    -0.061 N 
HETATM    2  H   UNL     1      -4.269 -14.300 -39.401  1.00  0.00     0.278 HD
HETATM    3  H   UNL     1      -3.459 -14.129 -38.021  1.00  0.00     0.278 HD
ENDROOT
BRANCH   1   4
HETATM    4  C   UNL     1      -2.322 -13.670 -39.683  1.00  0.00     0.241 C 
HETATM    5  C   UNL     1      -1.240 -14.331 -38.832  1.00  0.00     0.047 C 
BRANCH   4   6
HETATM    6  C   UNL     1      -2.531 -14.437 -40.965  1.00  0.00     0.106 A 
HETATM    7  S   UNL     1      -1.687 -15.888 -41.289  1.00  0.00    -0.070 SA
HETATM    8  C   UNL     1      -2.502 -16.019 -42.802  1.00  0.00     0.035 A 
HETATM    9  C   UNL     1      -3.351 -14.920 -42.960  1.00  0.00     0.075 A 
HETATM   10  C   UNL     1      -2.396 -17.021 -43.779  1.00  0.00     0.021 A 
HETATM   11  N   UNL     1      -3.346 -14.011 -41.907  1.00  0.00    -0.243 NA
HETATM   12  C   UNL     1      -4.122 -14.822 -44.135  1.00  0.00     0.033 A 
HETATM   13  C   UNL     1      -4.027 -15.818 -45.112  1.00  0.00     0.002 A 
HETATM   14  C   UNL     1      -3.174 -16.902 -44.935  1.00  0.00     0.002 A 
ENDBRANCH   4   6
ENDBRANCH   1   4
BRANCH   1  15
HETATM   15  C   UNL     1      -4.307 -12.354 -38.724  1.00  0.00     0.271 C 
BRANCH  15  16
HETATM   16  C   UNL     1      -5.755 -12.428 -39.117  1.00  0.00    -0.033 A 
HETATM   17  C   UNL     1      -6.141 -12.298 -40.457  1.00  0.00     0.011 A 
HETATM   18  C   UNL     1      -7.493 -12.353 -40.823  1.00  0.00     0.030 A 
HETATM   19  C   UNL     1      -8.486 -12.544 -39.862  1.00  0.00     0.036 A 
HETATM   20  C   UNL     1      -8.096 -12.681 -38.524  1.00  0.00     0.030 A 
HETATM   21  C   UNL     1      -6.749 -12.619 -38.151  1.00  0.00     0.011 A 
BRANCH  19  22
HETATM   22  N   UNL     1      -9.863 -12.623 -40.127  1.00  0.00    -0.303 N 
HETATM   23  C   UNL     1     -10.710 -13.683 -40.318  1.00  0.00     0.364 C 
HETATM   24  O   UNL     1     -11.905 -13.482 -40.514  1.00  0.00    -0.238 OA
HETATM   25  H   UNL     1     -10.373 -11.752 -40.204  1.00  0.00     0.171 HD
BRANCH  23  26
HETATM   26  O   UNL     1     -10.136 -14.910 -40.296  1.00  0.00    -0.309 OA
HETATM   27  C   UNL     1     -10.078 -15.549 -41.574  1.00  0.00     0.215 C 
ENDBRANCH  23  26
ENDBRANCH  19  22
ENDBRANCH  15  16
ENDBRANCH   1  15
TORSDOF 6
ENDMDL
