MODEL 1
REMARK VINA RESULT:      -9.6      0.000      0.000
REMARK  7 active torsions:
REMARK  status: ('A' for Active; 'I' for Inactive)
REMARK    1  A    between atoms: N_3  and  C_4 
REMARK    2  A    between atoms: C_12  and  C_13 
REMARK       I    between atoms: C_13  and  N_14 
REMARK    3  A    between atoms: N_14  and  C_15 
REMARK    4  A    between atoms: C_15  and  C_16 
REMARK    5  A    between atoms: C_17  and  C_18 
REMARK    6  A    between atoms: C_18  and  O_19 
REMARK    7  A    between atoms: O_19  and  C_20 
ROOT
HETATM    1  C   UNL     1      -6.139   2.674 -33.115  1.00  0.00     0.255 C 
HETATM    2  N   UNL     1      -5.767   3.624 -34.035  1.00  0.00    -0.346 N 
HETATM    3  O   UNL     1      -6.264   2.917 -31.920  1.00  0.00    -0.268 OA
HETATM    4  H   UNL     1      -5.391   3.317 -34.917  1.00  0.00     0.163 HD
ENDROOT
BRANCH   2   5
HETATM    5  C   UNL     1      -5.542   4.994 -33.652  1.00  0.00     0.217 C 
BRANCH   5   6
HETATM    6  C   UNL     1      -4.189   5.427 -34.005  1.00  0.00    -0.085 C 
HETATM    7  C   UNL     1      -3.070   5.809 -34.221  1.00  0.00    -0.078 C 
BRANCH   7   8
HETATM    8  C   UNL     1      -1.694   6.298 -34.395  1.00  0.00     0.269 C 
BRANCH   8   9
HETATM    9  O   UNL     1      -1.586   7.571 -33.754  1.00  0.00    -0.337 OA
BRANCH   9  10
HETATM   10  C   UNL     1      -1.247   7.454 -32.438  1.00  0.00     0.103 A 
HETATM   11  C   UNL     1      -1.989   8.103 -31.468  1.00  0.00     0.109 A 
HETATM   12  C   UNL     1      -1.600   8.096 -30.139  1.00  0.00    -0.019 A 
HETATM   13  O   UNL     1      -3.137   8.814 -31.702  1.00  0.00    -0.337 OA
HETATM   14  C   UNL     1      -2.522   8.933 -29.339  1.00  0.00     0.079 C 
HETATM   15  C   UNL     1      -0.455   7.429 -29.733  1.00  0.00     0.010 A 
HETATM   16  C   UNL     1      -3.618   9.220 -30.391  1.00  0.00     0.065 C 
HETATM   17  C   UNL     1      -3.938  10.715 -30.463  1.00  0.00     0.046 C 
HETATM   18  C   UNL     1      -4.896   8.426 -30.095  1.00  0.00     0.046 C 
HETATM   19  C   UNL     1       0.306   6.768 -30.701  1.00  0.00     0.003 A 
HETATM   20  C   UNL     1      -0.080   6.790 -32.051  1.00  0.00     0.040 A 
ENDBRANCH   9  10
ENDBRANCH   8   9
ENDBRANCH   7   8
ENDBRANCH   5   6
ENDBRANCH   2   5
BRANCH   1  21
HETATM   21  C   UNL     1      -6.399   1.343 -33.640  1.00  0.00     0.075 C 
HETATM   22  C   UNL     1      -6.260   0.080 -33.062  1.00  0.00     0.050 C 
HETATM   23  C   UNL     1      -5.995  -0.323 -31.655  1.00  0.00     0.071 C 
HETATM   24  N   UNL     1      -6.371  -0.825 -34.123  1.00  0.00    -0.238 N 
HETATM   25  N   UNL     1      -6.950  -0.232 -35.198  1.00  0.00    -0.179 NA
HETATM   26  C   UNL     1      -6.832   1.070 -34.953  1.00  0.00     0.158 C 
BRANCH  24  27
HETATM   27  C   UNL     1      -5.921  -2.177 -34.239  1.00  0.00     0.058 A 
HETATM   28  C   UNL     1      -6.809  -3.154 -34.717  1.00  0.00     0.031 A 
HETATM   29  C   UNL     1      -6.386  -4.474 -34.885  1.00  0.00     0.002 A 
HETATM   30  C   UNL     1      -5.071  -4.830 -34.593  1.00  0.00     0.000 A 
HETATM   31  C   UNL     1      -4.176  -3.862 -34.143  1.00  0.00     0.002 A 
HETATM   32  C   UNL     1      -4.594  -2.539 -33.972  1.00  0.00     0.031 A 
ENDBRANCH  24  27
ENDBRANCH   1  21
TORSDOF 7
ENDMDL
MODEL 2
REMARK VINA RESULT:      -9.3      3.051     10.494
REMARK  7 active torsions:
REMARK  status: ('A' for Active; 'I' for Inactive)
REMARK    1  A    between atoms: N_3  and  C_4 
REMARK    2  A    between atoms: C_12  and  C_13 
REMARK       I    between atoms: C_13  and  N_14 
REMARK    3  A    between atoms: N_14  and  C_15 
REMARK    4  A    between atoms: C_15  and  C_16 
REMARK    5  A    between atoms: C_17  and  C_18 
REMARK    6  A    between atoms: C_18  and  O_19 
REMARK    7  A    between atoms: O_19  and  C_20 
ROOT
HETATM    1  C   UNL     1      -2.114   4.985 -32.189  1.00  0.00     0.255 C 
HETATM    2  N   UNL     1      -3.211   4.321 -31.697  1.00  0.00    -0.346 N 
HETATM    3  O   UNL     1      -1.631   4.750 -33.291  1.00  0.00    -0.268 OA
HETATM    4  H   UNL     1      -3.373   4.331 -30.704  1.00  0.00     0.163 HD
ENDROOT
BRANCH   2   5
HETATM    5  C   UNL     1      -3.898   3.325 -32.478  1.00  0.00     0.217 C 
BRANCH   5   6
HETATM    6  C   UNL     1      -3.525   1.973 -32.058  1.00  0.00    -0.085 C 
HETATM    7  C   UNL     1      -3.239   0.838 -31.785  1.00  0.00    -0.078 C 
BRANCH   7   8
HETATM    8  C   UNL     1      -2.909  -0.574 -31.539  1.00  0.00     0.269 C 
BRANCH   8   9
HETATM    9  O   UNL     1      -4.130  -1.314 -31.470  1.00  0.00    -0.337 OA
BRANCH   9  10
HETATM   10  C   UNL     1      -4.514  -1.782 -32.692  1.00  0.00     0.103 A 
HETATM   11  C   UNL     1      -5.622  -1.249 -33.324  1.00  0.00     0.109 A 
HETATM   12  C   UNL     1      -6.101  -1.782 -34.509  1.00  0.00    -0.019 A 
HETATM   13  O   UNL     1      -6.354  -0.186 -32.862  1.00  0.00    -0.337 OA
HETATM   14  C   UNL     1      -7.337  -1.076 -34.916  1.00  0.00     0.079 C 
HETATM   15  C   UNL     1      -5.481  -2.867 -35.107  1.00  0.00     0.010 A 
HETATM   16  C   UNL     1      -7.342   0.085 -33.895  1.00  0.00     0.065 C 
HETATM   17  C   UNL     1      -8.703   0.210 -33.205  1.00  0.00     0.046 C 
HETATM   18  C   UNL     1      -6.971   1.415 -34.561  1.00  0.00     0.046 C 
HETATM   19  C   UNL     1      -4.360  -3.418 -34.481  1.00  0.00     0.003 A 
HETATM   20  C   UNL     1      -3.885  -2.888 -33.270  1.00  0.00     0.040 A 
ENDBRANCH   9  10
ENDBRANCH   8   9
ENDBRANCH   7   8
ENDBRANCH   5   6
ENDBRANCH   2   5
BRANCH   1  21
HETATM   21  C   UNL     1      -1.550   6.014 -31.328  1.00  0.00     0.075 C 
HETATM   22  C   UNL     1      -0.376   6.044 -30.575  1.00  0.00     0.050 C 
HETATM   23  C   UNL     1       0.793   5.124 -30.555  1.00  0.00     0.071 C 
HETATM   24  N   UNL     1      -0.508   7.152 -29.730  1.00  0.00    -0.238 N 
HETATM   25  N   UNL     1      -1.469   7.992 -30.192  1.00  0.00    -0.179 NA
HETATM   26  C   UNL     1      -2.168   7.249 -31.046  1.00  0.00     0.158 C 
BRANCH  24  27
HETATM   27  C   UNL     1       0.140   7.457 -28.494  1.00  0.00     0.058 A 
HETATM   28  C   UNL     1      -0.248   6.770 -27.332  1.00  0.00     0.031 A 
HETATM   29  C   UNL     1       0.397   7.013 -26.117  1.00  0.00     0.002 A 
HETATM   30  C   UNL     1       1.444   7.930 -26.052  1.00  0.00     0.000 A 
HETATM   31  C   UNL     1       1.853   8.597 -27.205  1.00  0.00     0.002 A 
HETATM   32  C   UNL     1       1.210   8.359 -28.424  1.00  0.00     0.031 A 
ENDBRANCH  24  27
ENDBRANCH   1  21
TORSDOF 7
ENDMDL
MODEL 3
REMARK VINA RESULT:      -9.2      1.713      2.817
REMARK  7 active torsions:
REMARK  status: ('A' for Active; 'I' for Inactive)
REMARK    1  A    between atoms: N_3  and  C_4 
REMARK    2  A    between atoms: C_12  and  C_13 
REMARK       I    between atoms: C_13  and  N_14 
REMARK    3  A    between atoms: N_14  and  C_15 
REMARK    4  A    between atoms: C_15  and  C_16 
REMARK    5  A    between atoms: C_17  and  C_18 
REMARK    6  A    between atoms: C_18  and  O_19 
REMARK    7  A    between atoms: O_19  and  C_20 
ROOT
HETATM    1  C   UNL     1      -6.469   2.588 -32.945  1.00  0.00     0.255 C 
HETATM    2  N   UNL     1      -6.192   3.667 -33.750  1.00  0.00    -0.346 N 
HETATM    3  O   UNL     1      -7.223   2.652 -31.981  1.00  0.00    -0.268 OA
HETATM    4  H   UNL     1      -5.362   3.643 -34.317  1.00  0.00     0.163 HD
ENDROOT
BRANCH   2   5
HETATM    5  C   UNL     1      -6.818   4.946 -33.532  1.00  0.00     0.217 C 
BRANCH   5   6
HETATM    6  C   UNL     1      -5.918   5.861 -32.827  1.00  0.00    -0.085 C 
HETATM    7  C   UNL     1      -5.190   6.569 -32.184  1.00  0.00    -0.078 C 
BRANCH   7   8
HETATM    8  C   UNL     1      -4.309   7.376 -31.325  1.00  0.00     0.269 C 
BRANCH   8   9
HETATM    9  O   UNL     1      -3.601   6.492 -30.453  1.00  0.00    -0.337 OA
BRANCH   9  10
HETATM   10  C   UNL     1      -2.253   6.539 -30.662  1.00  0.00     0.103 A 
HETATM   11  C   UNL     1      -1.406   6.945 -29.647  1.00  0.00     0.109 A 
HETATM   12  C   UNL     1      -0.049   7.113 -29.866  1.00  0.00    -0.019 A 
HETATM   13  O   UNL     1      -1.797   7.232 -28.366  1.00  0.00    -0.337 OA
HETATM   14  C   UNL     1       0.599   7.630 -28.640  1.00  0.00     0.079 C 
HETATM   15  C   UNL     1       0.509   6.873 -31.112  1.00  0.00     0.010 A 
HETATM   16  C   UNL     1      -0.569   7.505 -27.635  1.00  0.00     0.065 C 
HETATM   17  C   UNL     1      -0.776   8.810 -26.862  1.00  0.00     0.046 C 
HETATM   18  C   UNL     1      -0.339   6.348 -26.656  1.00  0.00     0.046 C 
HETATM   19  C   UNL     1      -0.334   6.463 -32.148  1.00  0.00     0.003 A 
HETATM   20  C   UNL     1      -1.713   6.309 -31.930  1.00  0.00     0.040 A 
ENDBRANCH   9  10
ENDBRANCH   8   9
ENDBRANCH   7   8
ENDBRANCH   5   6
ENDBRANCH   2   5
BRANCH   1  21
HETATM   21  C   UNL     1      -5.824   1.337 -33.310  1.00  0.00     0.075 C 
HETATM   22  C   UNL     1      -6.169   0.360 -34.245  1.00  0.00     0.050 C 
HETATM   23  C   UNL     1      -7.192   0.363 -35.324  1.00  0.00     0.071 C 
HETATM   24  N   UNL     1      -5.356  -0.739 -33.947  1.00  0.00    -0.238 N 
HETATM   25  N   UNL     1      -4.302  -0.359 -33.181  1.00  0.00    -0.179 NA
HETATM   26  C   UNL     1      -4.662   0.826 -32.697  1.00  0.00     0.158 C 
BRANCH  24  27
HETATM   27  C   UNL     1      -5.518  -2.124 -34.261  1.00  0.00     0.058 A 
HETATM   28  C   UNL     1      -4.405  -2.977 -34.184  1.00  0.00     0.031 A 
HETATM   29  C   UNL     1      -4.541  -4.343 -34.441  1.00  0.00     0.002 A 
HETATM   30  C   UNL     1      -5.788  -4.874 -34.760  1.00  0.00     0.000 A 
HETATM   31  C   UNL     1      -6.903  -4.041 -34.814  1.00  0.00     0.002 A 
HETATM   32  C   UNL     1      -6.773  -2.672 -34.559  1.00  0.00     0.031 A 
ENDBRANCH  24  27
ENDBRANCH   1  21
TORSDOF 7
ENDMDL
MODEL 4
REMARK VINA RESULT:      -8.9      1.648      2.619
REMARK  7 active torsions:
REMARK  status: ('A' for Active; 'I' for Inactive)
REMARK    1  A    between atoms: N_3  and  C_4 
REMARK    2  A    between atoms: C_12  and  C_13 
REMARK       I    between atoms: C_13  and  N_14 
REMARK    3  A    between atoms: N_14  and  C_15 
REMARK    4  A    between atoms: C_15  and  C_16 
REMARK    5  A    between atoms: C_17  and  C_18 
REMARK    6  A    between atoms: C_18  and  O_19 
REMARK    7  A    between atoms: O_19  and  C_20 
ROOT
HETATM    1  C   UNL     1      -6.463   2.616 -33.130  1.00  0.00     0.255 C 
HETATM    2  N   UNL     1      -5.187   3.123 -33.113  1.00  0.00    -0.346 N 
HETATM    3  O   UNL     1      -7.436   3.248 -32.735  1.00  0.00    -0.268 OA
HETATM    4  H   UNL     1      -4.414   2.480 -33.154  1.00  0.00     0.163 HD
ENDROOT
BRANCH   2   5
HETATM    5  C   UNL     1      -4.918   4.466 -32.666  1.00  0.00     0.217 C 
BRANCH   5   6
HETATM    6  C   UNL     1      -3.527   4.609 -32.232  1.00  0.00    -0.085 C 
HETATM    7  C   UNL     1      -2.412   4.739 -31.802  1.00  0.00    -0.078 C 
BRANCH   7   8
HETATM    8  C   UNL     1      -1.084   4.902 -31.190  1.00  0.00     0.269 C 
BRANCH   8   9
HETATM    9  O   UNL     1      -0.486   6.084 -31.728  1.00  0.00    -0.337 OA
BRANCH   9  10
HETATM   10  C   UNL     1      -1.022   7.218 -31.192  1.00  0.00     0.103 A 
HETATM   11  C   UNL     1      -0.759   7.557 -29.878  1.00  0.00     0.109 A 
HETATM   12  C   UNL     1      -1.381   8.638 -29.275  1.00  0.00    -0.019 A 
HETATM   13  O   UNL     1       0.097   6.882 -29.049  1.00  0.00    -0.337 OA
HETATM   14  C   UNL     1      -0.983   8.720 -27.852  1.00  0.00     0.079 C 
HETATM   15  C   UNL     1      -2.285   9.423 -29.973  1.00  0.00     0.010 A 
HETATM   16  C   UNL     1       0.136   7.654 -27.816  1.00  0.00     0.065 C 
HETATM   17  C   UNL     1      -0.068   6.675 -26.656  1.00  0.00     0.046 C 
HETATM   18  C   UNL     1       1.521   8.303 -27.713  1.00  0.00     0.046 C 
HETATM   19  C   UNL     1      -2.562   9.093 -31.303  1.00  0.00     0.003 A 
HETATM   20  C   UNL     1      -1.943   7.986 -31.908  1.00  0.00     0.040 A 
ENDBRANCH   9  10
ENDBRANCH   8   9
ENDBRANCH   7   8
ENDBRANCH   5   6
ENDBRANCH   2   5
BRANCH   1  21
HETATM   21  C   UNL     1      -6.610   1.272 -33.665  1.00  0.00     0.075 C 
HETATM   22  C   UNL     1      -6.441   0.020 -33.072  1.00  0.00     0.050 C 
HETATM   23  C   UNL     1      -6.253  -0.366 -31.648  1.00  0.00     0.071 C 
HETATM   24  N   UNL     1      -6.426  -0.892 -34.133  1.00  0.00    -0.238 N 
HETATM   25  N   UNL     1      -6.960  -0.333 -35.250  1.00  0.00    -0.179 NA
HETATM   26  C   UNL     1      -6.934   0.974 -35.004  1.00  0.00     0.158 C 
BRANCH  24  27
HETATM   27  C   UNL     1      -5.893  -2.216 -34.211  1.00  0.00     0.058 A 
HETATM   28  C   UNL     1      -6.700  -3.248 -34.716  1.00  0.00     0.031 A 
HETATM   29  C   UNL     1      -6.194  -4.543 -34.846  1.00  0.00     0.002 A 
HETATM   30  C   UNL     1      -4.875  -4.818 -34.490  1.00  0.00     0.000 A 
HETATM   31  C   UNL     1      -4.059  -3.795 -34.012  1.00  0.00     0.002 A 
HETATM   32  C   UNL     1      -4.561  -2.496 -33.879  1.00  0.00     0.031 A 
ENDBRANCH  24  27
ENDBRANCH   1  21
TORSDOF 7
ENDMDL
MODEL 5
REMARK VINA RESULT:      -8.8      2.031      3.784
REMARK  7 active torsions:
REMARK  status: ('A' for Active; 'I' for Inactive)
REMARK    1  A    between atoms: N_3  and  C_4 
REMARK    2  A    between atoms: C_12  and  C_13 
REMARK       I    between atoms: C_13  and  N_14 
REMARK    3  A    between atoms: N_14  and  C_15 
REMARK    4  A    between atoms: C_15  and  C_16 
REMARK    5  A    between atoms: C_17  and  C_18 
REMARK    6  A    between atoms: C_18  and  O_19 
REMARK    7  A    between atoms: O_19  and  C_20 
ROOT
HETATM    1  C   UNL     1      -6.739   2.743 -30.324  1.00  0.00     0.255 C 
HETATM    2  N   UNL     1      -5.948   3.591 -29.588  1.00  0.00    -0.346 N 
HETATM    3  O   UNL     1      -7.949   2.899 -30.448  1.00  0.00    -0.268 OA
HETATM    4  H   UNL     1      -5.052   3.260 -29.274  1.00  0.00     0.163 HD
ENDROOT
BRANCH   2   5
HETATM    5  C   UNL     1      -6.494   4.759 -28.945  1.00  0.00     0.217 C 
BRANCH   5   6
HETATM    6  C   UNL     1      -5.487   5.814 -28.822  1.00  0.00    -0.085 C 
HETATM    7  C   UNL     1      -4.619   6.632 -28.670  1.00  0.00    -0.078 C 
BRANCH   7   8
HETATM    8  C   UNL     1      -3.513   7.572 -28.433  1.00  0.00     0.269 C 
BRANCH   8   9
HETATM    9  O   UNL     1      -3.085   8.088 -29.695  1.00  0.00    -0.337 OA
BRANCH   9  10
HETATM   10  C   UNL     1      -1.925   7.508 -30.118  1.00  0.00     0.103 A 
HETATM   11  C   UNL     1      -1.941   6.603 -31.163  1.00  0.00     0.109 A 
HETATM   12  C   UNL     1      -0.799   5.914 -31.536  1.00  0.00    -0.019 A 
HETATM   13  O   UNL     1      -3.045   6.284 -31.909  1.00  0.00    -0.337 OA
HETATM   14  C   UNL     1      -1.118   4.957 -32.619  1.00  0.00     0.079 C 
HETATM   15  C   UNL     1       0.404   6.113 -30.876  1.00  0.00     0.010 A 
HETATM   16  C   UNL     1      -2.567   5.385 -32.949  1.00  0.00     0.065 C 
HETATM   17  C   UNL     1      -3.508   4.178 -32.979  1.00  0.00     0.046 C 
HETATM   18  C   UNL     1      -2.635   6.135 -34.284  1.00  0.00     0.046 C 
HETATM   19  C   UNL     1       0.436   7.023 -29.817  1.00  0.00     0.003 A 
HETATM   20  C   UNL     1      -0.726   7.710 -29.429  1.00  0.00     0.040 A 
ENDBRANCH   9  10
ENDBRANCH   8   9
ENDBRANCH   7   8
ENDBRANCH   5   6
ENDBRANCH   2   5
BRANCH   1  21
HETATM   21  C   UNL     1      -6.056   1.637 -30.978  1.00  0.00     0.075 C 
HETATM   22  C   UNL     1      -6.055   1.210 -32.306  1.00  0.00     0.050 C 
HETATM   23  C   UNL     1      -6.586   1.855 -33.537  1.00  0.00     0.071 C 
HETATM   24  N   UNL     1      -5.466  -0.059 -32.285  1.00  0.00    -0.238 N 
HETATM   25  N   UNL     1      -4.772  -0.243 -31.133  1.00  0.00    -0.179 NA
HETATM   26  C   UNL     1      -5.241   0.697 -30.317  1.00  0.00     0.158 C 
BRANCH  24  27
HETATM   27  C   UNL     1      -5.553  -1.137 -33.219  1.00  0.00     0.058 A 
HETATM   28  C   UNL     1      -4.386  -1.841 -33.559  1.00  0.00     0.031 A 
HETATM   29  C   UNL     1      -4.446  -2.928 -34.435  1.00  0.00     0.002 A 
HETATM   30  C   UNL     1      -5.668  -3.333 -34.965  1.00  0.00     0.000 A 
HETATM   31  C   UNL     1      -6.834  -2.657 -34.614  1.00  0.00     0.002 A 
HETATM   32  C   UNL     1      -6.781  -1.567 -33.739  1.00  0.00     0.031 A 
ENDBRANCH  24  27
ENDBRANCH   1  21
TORSDOF 7
ENDMDL
MODEL 6
REMARK VINA RESULT:      -8.7      2.390      4.197
REMARK  7 active torsions:
REMARK  status: ('A' for Active; 'I' for Inactive)
REMARK    1  A    between atoms: N_3  and  C_4 
REMARK    2  A    between atoms: C_12  and  C_13 
REMARK       I    between atoms: C_13  and  N_14 
REMARK    3  A    between atoms: N_14  and  C_15 
REMARK    4  A    between atoms: C_15  and  C_16 
REMARK    5  A    between atoms: C_17  and  C_18 
REMARK    6  A    between atoms: C_18  and  O_19 
REMARK    7  A    between atoms: O_19  and  C_20 
ROOT
HETATM    1  C   UNL     1      -6.885   3.082 -29.936  1.00  0.00     0.255 C 
HETATM    2  N   UNL     1      -6.020   3.970 -29.344  1.00  0.00    -0.346 N 
HETATM    3  O   UNL     1      -8.095   3.265 -29.988  1.00  0.00    -0.268 OA
HETATM    4  H   UNL     1      -5.112   3.642 -29.063  1.00  0.00     0.163 HD
ENDROOT
BRANCH   2   5
HETATM    5  C   UNL     1      -6.487   5.211 -28.782  1.00  0.00     0.217 C 
BRANCH   5   6
HETATM    6  C   UNL     1      -5.376   5.996 -28.238  1.00  0.00    -0.085 C 
HETATM    7  C   UNL     1      -4.504   6.643 -27.721  1.00  0.00    -0.078 C 
BRANCH   7   8
HETATM    8  C   UNL     1      -3.484   7.428 -27.011  1.00  0.00     0.269 C 
BRANCH   8   9
HETATM    9  O   UNL     1      -3.027   8.463 -27.884  1.00  0.00    -0.337 OA
BRANCH   9  10
HETATM   10  C   UNL     1      -1.678   8.408 -28.080  1.00  0.00     0.103 A 
HETATM   11  C   UNL     1      -1.158   7.692 -29.142  1.00  0.00     0.109 A 
HETATM   12  C   UNL     1       0.208   7.524 -29.297  1.00  0.00    -0.019 A 
HETATM   13  O   UNL     1      -1.902   7.077 -30.114  1.00  0.00    -0.337 OA
HETATM   14  C   UNL     1       0.480   6.651 -30.461  1.00  0.00     0.079 C 
HETATM   15  C   UNL     1       1.103   8.075 -28.394  1.00  0.00     0.010 A 
HETATM   16  C   UNL     1      -0.938   6.549 -31.068  1.00  0.00     0.065 C 
HETATM   17  C   UNL     1      -1.318   5.092 -31.344  1.00  0.00     0.046 C 
HETATM   18  C   UNL     1      -1.054   7.371 -32.356  1.00  0.00     0.046 C 
HETATM   19  C   UNL     1       0.594   8.801 -27.314  1.00  0.00     0.003 A 
HETATM   20  C   UNL     1      -0.792   8.957 -27.148  1.00  0.00     0.040 A 
ENDBRANCH   9  10
ENDBRANCH   8   9
ENDBRANCH   7   8
ENDBRANCH   5   6
ENDBRANCH   2   5
BRANCH   1  21
HETATM   21  C   UNL     1      -6.280   1.897 -30.524  1.00  0.00     0.075 C 
HETATM   22  C   UNL     1      -5.972   1.581 -31.848  1.00  0.00     0.050 C 
HETATM   23  C   UNL     1      -5.967   2.421 -33.075  1.00  0.00     0.071 C 
HETATM   24  N   UNL     1      -5.690   0.210 -31.843  1.00  0.00    -0.238 N 
HETATM   25  N   UNL     1      -5.424  -0.218 -30.582  1.00  0.00    -0.179 NA
HETATM   26  C   UNL     1      -5.911   0.744 -29.803  1.00  0.00     0.158 C 
BRANCH  24  27
HETATM   27  C   UNL     1      -5.714  -0.745 -32.906  1.00  0.00     0.058 A 
HETATM   28  C   UNL     1      -4.523  -1.397 -33.266  1.00  0.00     0.031 A 
HETATM   29  C   UNL     1      -4.522  -2.368 -34.270  1.00  0.00     0.002 A 
HETATM   30  C   UNL     1      -5.710  -2.710 -34.912  1.00  0.00     0.000 A 
HETATM   31  C   UNL     1      -6.901  -2.088 -34.544  1.00  0.00     0.002 A 
HETATM   32  C   UNL     1      -6.907  -1.114 -33.541  1.00  0.00     0.031 A 
ENDBRANCH  24  27
ENDBRANCH   1  21
TORSDOF 7
ENDMDL
MODEL 7
REMARK VINA RESULT:      -8.7      3.085      8.695
REMARK  7 active torsions:
REMARK  status: ('A' for Active; 'I' for Inactive)
REMARK    1  A    between atoms: N_3  and  C_4 
REMARK    2  A    between atoms: C_12  and  C_13 
REMARK       I    between atoms: C_13  and  N_14 
REMARK    3  A    between atoms: N_14  and  C_15 
REMARK    4  A    between atoms: C_15  and  C_16 
REMARK    5  A    between atoms: C_17  and  C_18 
REMARK    6  A    between atoms: C_18  and  O_19 
REMARK    7  A    between atoms: O_19  and  C_20 
ROOT
HETATM    1  C   UNL     1      -7.610   3.296 -31.590  1.00  0.00     0.255 C 
HETATM    2  N   UNL     1      -7.421   2.080 -32.200  1.00  0.00    -0.346 N 
HETATM    3  O   UNL     1      -8.697   3.664 -31.158  1.00  0.00    -0.268 OA
HETATM    4  H   UNL     1      -6.617   1.959 -32.791  1.00  0.00     0.163 HD
ENDROOT
BRANCH   2   5
HETATM    5  C   UNL     1      -8.496   1.130 -32.329  1.00  0.00     0.217 C 
BRANCH   5   6
HETATM    6  C   UNL     1      -8.089  -0.022 -33.135  1.00  0.00    -0.085 C 
HETATM    7  C   UNL     1      -7.679  -0.951 -33.779  1.00  0.00    -0.078 C 
BRANCH   7   8
HETATM    8  C   UNL     1      -7.093  -2.067 -34.537  1.00  0.00     0.269 C 
BRANCH   8   9
HETATM    9  O   UNL     1      -5.731  -1.744 -34.827  1.00  0.00    -0.337 OA
BRANCH   9  10
HETATM   10  C   UNL     1      -4.876  -2.236 -33.884  1.00  0.00     0.103 A 
HETATM   11  C   UNL     1      -4.362  -1.402 -32.909  1.00  0.00     0.109 A 
HETATM   12  C   UNL     1      -3.406  -1.847 -32.011  1.00  0.00    -0.019 A 
HETATM   13  O   UNL     1      -4.713  -0.089 -32.734  1.00  0.00    -0.337 OA
HETATM   14  C   UNL     1      -2.976  -0.732 -31.139  1.00  0.00     0.079 C 
HETATM   15  C   UNL     1      -2.935  -3.149 -32.057  1.00  0.00     0.010 A 
HETATM   16  C   UNL     1      -4.009   0.347 -31.537  1.00  0.00     0.065 C 
HETATM   17  C   UNL     1      -3.323   1.675 -31.867  1.00  0.00     0.046 C 
HETATM   18  C   UNL     1      -5.050   0.557 -30.431  1.00  0.00     0.046 C 
HETATM   19  C   UNL     1      -3.443  -4.005 -33.038  1.00  0.00     0.003 A 
HETATM   20  C   UNL     1      -4.401  -3.548 -33.958  1.00  0.00     0.040 A 
ENDBRANCH   9  10
ENDBRANCH   8   9
ENDBRANCH   7   8
ENDBRANCH   5   6
ENDBRANCH   2   5
BRANCH   1  21
HETATM   21  C   UNL     1      -6.430   4.138 -31.463  1.00  0.00     0.075 C 
HETATM   22  C   UNL     1      -5.809   4.996 -32.372  1.00  0.00     0.050 C 
HETATM   23  C   UNL     1      -6.252   5.496 -33.700  1.00  0.00     0.071 C 
HETATM   24  N   UNL     1      -4.567   5.299 -31.802  1.00  0.00    -0.238 N 
HETATM   25  N   UNL     1      -4.569   5.013 -30.474  1.00  0.00    -0.179 NA
HETATM   26  C   UNL     1      -5.613   4.204 -30.317  1.00  0.00     0.158 C 
BRANCH  24  27
HETATM   27  C   UNL     1      -3.360   5.769 -32.405  1.00  0.00     0.058 A 
HETATM   28  C   UNL     1      -2.628   4.901 -33.232  1.00  0.00     0.031 A 
HETATM   29  C   UNL     1      -1.468   5.345 -33.873  1.00  0.00     0.002 A 
HETATM   30  C   UNL     1      -1.037   6.659 -33.708  1.00  0.00     0.000 A 
HETATM   31  C   UNL     1      -1.771   7.534 -32.911  1.00  0.00     0.002 A 
HETATM   32  C   UNL     1      -2.932   7.096 -32.266  1.00  0.00     0.031 A 
ENDBRANCH  24  27
ENDBRANCH   1  21
TORSDOF 7
ENDMDL
MODEL 8
REMARK VINA RESULT:      -8.5      2.243      3.631
REMARK  7 active torsions:
REMARK  status: ('A' for Active; 'I' for Inactive)
REMARK    1  A    between atoms: N_3  and  C_4 
REMARK    2  A    between atoms: C_12  and  C_13 
REMARK       I    between atoms: C_13  and  N_14 
REMARK    3  A    between atoms: N_14  and  C_15 
REMARK    4  A    between atoms: C_15  and  C_16 
REMARK    5  A    between atoms: C_17  and  C_18 
REMARK    6  A    between atoms: C_18  and  O_19 
REMARK    7  A    between atoms: O_19  and  C_20 
ROOT
HETATM    1  C   UNL     1      -6.199   3.631 -30.066  1.00  0.00     0.255 C 
HETATM    2  N   UNL     1      -5.429   4.157 -29.058  1.00  0.00    -0.346 N 
HETATM    3  O   UNL     1      -7.130   4.240 -30.582  1.00  0.00    -0.268 OA
HETATM    4  H   UNL     1      -4.900   3.527 -28.479  1.00  0.00     0.163 HD
ENDROOT
BRANCH   2   5
HETATM    5  C   UNL     1      -5.643   5.495 -28.570  1.00  0.00     0.217 C 
BRANCH   5   6
HETATM    6  C   UNL     1      -5.038   6.486 -29.462  1.00  0.00    -0.085 C 
HETATM    7  C   UNL     1      -4.609   7.341 -30.189  1.00  0.00    -0.078 C 
BRANCH   7   8
HETATM    8  C   UNL     1      -4.162   8.435 -31.065  1.00  0.00     0.269 C 
BRANCH   8   9
HETATM    9  O   UNL     1      -2.984   9.011 -30.496  1.00  0.00    -0.337 OA
BRANCH   9  10
HETATM   10  C   UNL     1      -1.897   8.199 -30.638  1.00  0.00     0.103 A 
HETATM   11  C   UNL     1      -1.090   7.922 -29.551  1.00  0.00     0.109 A 
HETATM   12  C   UNL     1       0.082   7.196 -29.690  1.00  0.00    -0.019 A 
HETATM   13  O   UNL     1      -1.335   8.329 -28.266  1.00  0.00    -0.337 OA
HETATM   14  C   UNL     1       0.786   7.121 -28.391  1.00  0.00     0.079 C 
HETATM   15  C   UNL     1       0.482   6.716 -30.927  1.00  0.00     0.010 A 
HETATM   16  C   UNL     1      -0.290   7.720 -27.457  1.00  0.00     0.065 C 
HETATM   17  C   UNL     1       0.298   8.818 -26.567  1.00  0.00     0.046 C 
HETATM   18  C   UNL     1      -0.941   6.637 -26.589  1.00  0.00     0.046 C 
HETATM   19  C   UNL     1      -0.323   6.989 -32.037  1.00  0.00     0.003 A 
HETATM   20  C   UNL     1      -1.502   7.739 -31.897  1.00  0.00     0.040 A 
ENDBRANCH   9  10
ENDBRANCH   8   9
ENDBRANCH   7   8
ENDBRANCH   5   6
ENDBRANCH   2   5
BRANCH   1  21
HETATM   21  C   UNL     1      -5.840   2.294 -30.514  1.00  0.00     0.075 C 
HETATM   22  C   UNL     1      -5.438   1.818 -31.763  1.00  0.00     0.050 C 
HETATM   23  C   UNL     1      -5.045   2.541 -33.001  1.00  0.00     0.071 C 
HETATM   24  N   UNL     1      -5.518   0.424 -31.668  1.00  0.00    -0.238 N 
HETATM   25  N   UNL     1      -5.552   0.035 -30.368  1.00  0.00    -0.179 NA
HETATM   26  C   UNL     1      -5.883   1.140 -29.706  1.00  0.00     0.158 C 
BRANCH  24  27
HETATM   27  C   UNL     1      -5.634  -0.569 -32.689  1.00  0.00     0.058 A 
HETATM   28  C   UNL     1      -6.859  -0.719 -33.360  1.00  0.00     0.031 A 
HETATM   29  C   UNL     1      -6.990  -1.650 -34.394  1.00  0.00     0.002 A 
HETATM   30  C   UNL     1      -5.900  -2.427 -34.778  1.00  0.00     0.000 A 
HETATM   31  C   UNL     1      -4.674  -2.267 -34.137  1.00  0.00     0.002 A 
HETATM   32  C   UNL     1      -4.536  -1.337 -33.100  1.00  0.00     0.031 A 
ENDBRANCH  24  27
ENDBRANCH   1  21
TORSDOF 7
ENDMDL
MODEL 9
REMARK VINA RESULT:      -8.4      4.314      7.032
REMARK  7 active torsions:
REMARK  status: ('A' for Active; 'I' for Inactive)
REMARK    1  A    between atoms: N_3  and  C_4 
REMARK    2  A    between atoms: C_12  and  C_13 
REMARK       I    between atoms: C_13  and  N_14 
REMARK    3  A    between atoms: N_14  and  C_15 
REMARK    4  A    between atoms: C_15  and  C_16 
REMARK    5  A    between atoms: C_17  and  C_18 
REMARK    6  A    between atoms: C_18  and  O_19 
REMARK    7  A    between atoms: O_19  and  C_20 
ROOT
HETATM    1  C   UNL     1      -7.994   0.180 -34.526  1.00  0.00     0.255 C 
HETATM    2  N   UNL     1      -7.596  -0.850 -33.710  1.00  0.00    -0.346 N 
HETATM    3  O   UNL     1      -7.413   0.470 -35.566  1.00  0.00    -0.268 OA
HETATM    4  H   UNL     1      -7.903  -0.851 -32.753  1.00  0.00     0.163 HD
ENDROOT
BRANCH   2   5
HETATM    5  C   UNL     1      -6.481  -1.694 -34.057  1.00  0.00     0.217 C 
BRANCH   5   6
HETATM    6  C   UNL     1      -5.259  -1.263 -33.373  1.00  0.00    -0.085 C 
HETATM    7  C   UNL     1      -4.286  -0.835 -32.812  1.00  0.00    -0.078 C 
BRANCH   7   8
HETATM    8  C   UNL     1      -3.137  -0.229 -32.122  1.00  0.00     0.269 C 
BRANCH   8   9
HETATM    9  O   UNL     1      -3.537   0.099 -30.790  1.00  0.00    -0.337 OA
BRANCH   9  10
HETATM   10  C   UNL     1      -4.401   1.154 -30.761  1.00  0.00     0.103 A 
HETATM   11  C   UNL     1      -3.958   2.426 -31.074  1.00  0.00     0.109 A 
HETATM   12  C   UNL     1      -4.784   3.529 -30.941  1.00  0.00    -0.019 A 
HETATM   13  O   UNL     1      -2.698   2.730 -31.519  1.00  0.00    -0.337 OA
HETATM   14  C   UNL     1      -4.032   4.763 -31.263  1.00  0.00     0.079 C 
HETATM   15  C   UNL     1      -6.088   3.396 -30.493  1.00  0.00     0.010 A 
HETATM   16  C   UNL     1      -2.724   4.154 -31.819  1.00  0.00     0.065 C 
HETATM   17  C   UNL     1      -1.495   4.784 -31.159  1.00  0.00     0.046 C 
HETATM   18  C   UNL     1      -2.639   4.314 -33.342  1.00  0.00     0.046 C 
HETATM   19  C   UNL     1      -6.552   2.118 -30.171  1.00  0.00     0.003 A 
HETATM   20  C   UNL     1      -5.708   1.001 -30.291  1.00  0.00     0.040 A 
ENDBRANCH   9  10
ENDBRANCH   8   9
ENDBRANCH   7   8
ENDBRANCH   5   6
ENDBRANCH   2   5
BRANCH   1  21
HETATM   21  C   UNL     1      -9.174   0.916 -34.097  1.00  0.00     0.075 C 
HETATM   22  C   UNL     1     -10.318   0.504 -33.413  1.00  0.00     0.050 C 
HETATM   23  C   UNL     1     -10.629  -0.771 -32.713  1.00  0.00     0.071 C 
HETATM   24  N   UNL     1     -11.226   1.561 -33.544  1.00  0.00    -0.238 N 
HETATM   25  N   UNL     1     -10.582   2.701 -33.903  1.00  0.00    -0.179 NA
HETATM   26  C   UNL     1      -9.407   2.280 -34.362  1.00  0.00     0.158 C 
BRANCH  24  27
HETATM   27  C   UNL     1     -12.650   1.579 -33.428  1.00  0.00     0.058 A 
HETATM   28  C   UNL     1     -13.255   2.526 -32.585  1.00  0.00     0.031 A 
HETATM   29  C   UNL     1     -14.646   2.599 -32.485  1.00  0.00     0.002 A 
HETATM   30  C   UNL     1     -15.447   1.740 -33.235  1.00  0.00     0.000 A 
HETATM   31  C   UNL     1     -14.857   0.815 -34.093  1.00  0.00     0.002 A 
HETATM   32  C   UNL     1     -13.465   0.737 -34.197  1.00  0.00     0.031 A 
ENDBRANCH  24  27
ENDBRANCH   1  21
TORSDOF 7
ENDMDL
MODEL 10
REMARK VINA RESULT:      -8.3      4.336      7.855
REMARK  7 active torsions:
REMARK  status: ('A' for Active; 'I' for Inactive)
REMARK    1  A    between atoms: N_3  and  C_4 
REMARK    2  A    between atoms: C_12  and  C_13 
REMARK       I    between atoms: C_13  and  N_14 
REMARK    3  A    between atoms: N_14  and  C_15 
REMARK    4  A    between atoms: C_15  and  C_16 
REMARK    5  A    between atoms: C_17  and  C_18 
REMARK    6  A    between atoms: C_18  and  O_19 
REMARK    7  A    between atoms: O_19  and  C_20 
ROOT
HETATM    1  C   UNL     1      -6.318   2.557 -33.213  1.00  0.00     0.255 C 
HETATM    2  N   UNL     1      -6.460   2.714 -31.856  1.00  0.00    -0.346 N 
HETATM    3  O   UNL     1      -6.019   3.479 -33.963  1.00  0.00    -0.268 OA
HETATM    4  H   UNL     1      -6.988   2.028 -31.346  1.00  0.00     0.163 HD
ENDROOT
BRANCH   2   5
HETATM    5  C   UNL     1      -6.217   3.983 -31.218  1.00  0.00     0.217 C 
BRANCH   5   6
HETATM    6  C   UNL     1      -7.448   4.771 -31.123  1.00  0.00    -0.085 C 
HETATM    7  C   UNL     1      -8.497   5.350 -31.031  1.00  0.00    -0.078 C 
BRANCH   7   8
HETATM    8  C   UNL     1      -9.820   5.977 -30.897  1.00  0.00     0.269 C 
BRANCH   8   9
HETATM    9  O   UNL     1     -10.591   5.650 -32.055  1.00  0.00    -0.337 OA
BRANCH   9  10
HETATM   10  C   UNL     1     -11.727   4.965 -31.736  1.00  0.00     0.103 A 
HETATM   11  C   UNL     1     -12.140   3.900 -32.516  1.00  0.00     0.109 A 
HETATM   12  C   UNL     1     -13.347   3.262 -32.283  1.00  0.00    -0.019 A 
HETATM   13  O   UNL     1     -11.440   3.386 -33.575  1.00  0.00    -0.337 OA
HETATM   14  C   UNL     1     -13.573   2.222 -33.311  1.00  0.00     0.079 C 
HETATM   15  C   UNL     1     -14.182   3.666 -31.254  1.00  0.00     0.010 A 
HETATM   16  C   UNL     1     -12.197   2.224 -34.016  1.00  0.00     0.065 C 
HETATM   17  C   UNL     1     -12.353   2.328 -35.535  1.00  0.00     0.046 C 
HETATM   18  C   UNL     1     -11.386   0.973 -33.659  1.00  0.00     0.046 C 
HETATM   19  C   UNL     1     -13.780   4.741 -30.457  1.00  0.00     0.003 A 
HETATM   20  C   UNL     1     -12.564   5.398 -30.704  1.00  0.00     0.040 A 
ENDBRANCH   9  10
ENDBRANCH   8   9
ENDBRANCH   7   8
ENDBRANCH   5   6
ENDBRANCH   2   5
BRANCH   1  21
HETATM   21  C   UNL     1      -6.527   1.212 -33.726  1.00  0.00     0.075 C 
HETATM   22  C   UNL     1      -6.362  -0.038 -33.128  1.00  0.00     0.050 C 
HETATM   23  C   UNL     1      -6.114  -0.416 -31.712  1.00  0.00     0.071 C 
HETATM   24  N   UNL     1      -6.423  -0.960 -34.179  1.00  0.00    -0.238 N 
HETATM   25  N   UNL     1      -6.998  -0.398 -35.274  1.00  0.00    -0.179 NA
HETATM   26  C   UNL     1      -6.924   0.910 -35.044  1.00  0.00     0.158 C 
BRANCH  24  27
HETATM   27  C   UNL     1      -5.931  -2.298 -34.269  1.00  0.00     0.058 A 
HETATM   28  C   UNL     1      -6.794  -3.316 -34.706  1.00  0.00     0.031 A 
HETATM   29  C   UNL     1      -6.330  -4.626 -34.847  1.00  0.00     0.002 A 
HETATM   30  C   UNL     1      -4.999  -4.930 -34.570  1.00  0.00     0.000 A 
HETATM   31  C   UNL     1      -4.129  -3.923 -34.160  1.00  0.00     0.002 A 
HETATM   32  C   UNL     1      -4.588  -2.610 -34.016  1.00  0.00     0.031 A 
ENDBRANCH  24  27
ENDBRANCH   1  21
TORSDOF 7
ENDMDL
