MODEL 1
REMARK VINA RESULT:      -9.7      0.000      0.000
REMARK  4 active torsions:
REMARK  status: ('A' for Active; 'I' for Inactive)
REMARK    1  A    between atoms: N_4  and  C_5 
REMARK    2  A    between atoms: C_15  and  C_16 
REMARK       I    between atoms: C_16  and  N_17 
REMARK    3  A    between atoms: N_17  and  C_18 
REMARK    4  A    between atoms: C_19  and  C_20 
REMARK       I    between atoms: C_20  and  N_21 
ROOT
HETATM    1  C   UNL     1      -6.437   6.356 -32.702  1.00  0.00     0.073 C 
HETATM    2  C   UNL     1      -5.183   5.777 -32.159  1.00  0.00     0.069 A 
HETATM    3  N   UNL     1      -4.141   6.571 -31.880  1.00  0.00    -0.170 NA
HETATM    4  N   UNL     1      -3.177   5.745 -31.368  1.00  0.00    -0.216 N 
HETATM    5  C   UNL     1      -3.590   4.423 -31.453  1.00  0.00     0.145 A 
HETATM    6  C   UNL     1      -4.880   4.424 -31.929  1.00  0.00     0.087 A 
HETATM    7  N   UNL     1      -2.904   3.278 -31.214  1.00  0.00    -0.349 N 
HETATM    8  C   UNL     1      -3.535   2.073 -31.473  1.00  0.00     0.111 A 
HETATM    9  C   UNL     1      -4.810   1.944 -31.905  1.00  0.00     0.098 A 
HETATM   10  C   UNL     1      -5.608   3.193 -32.155  1.00  0.00     0.205 A 
HETATM   11  O   UNL     1      -6.769   3.153 -32.556  1.00  0.00    -0.286 OA
HETATM   12  H   UNL     1      -1.890   3.240 -31.118  1.00  0.00     0.167 HD
ENDROOT
BRANCH   9  13
HETATM   13  C   UNL     1      -5.327   0.567 -32.176  1.00  0.00     0.261 C 
HETATM   14  N   UNL     1      -4.786  -0.046 -33.292  1.00  0.00    -0.322 N 
HETATM   15  H   UNL     1      -3.972   0.419 -33.698  1.00  0.00     0.169 HD
HETATM   16  O   UNL     1      -6.114   0.043 -31.394  1.00  0.00    -0.267 OA
BRANCH  14  17
HETATM   17  C   UNL     1      -4.930  -1.417 -33.620  1.00  0.00     0.050 A 
HETATM   18  C   UNL     1      -4.097  -2.474 -33.207  1.00  0.00     0.058 A 
HETATM   19  C   UNL     1      -4.284  -3.758 -33.754  1.00  0.00     0.019 A 
HETATM   20  C   UNL     1      -5.320  -4.010 -34.653  1.00  0.00     0.001 A 
HETATM   21  C   UNL     1      -6.195  -2.988 -34.998  1.00  0.00     0.002 A 
HETATM   22  C   UNL     1      -6.006  -1.705 -34.480  1.00  0.00     0.030 A 
BRANCH  18  23
HETATM   23  C   UNL     1      -3.110  -2.413 -32.095  1.00  0.00     0.251 C 
HETATM   24  N   UNL     1      -2.823  -3.590 -31.461  1.00  0.00    -0.366 N 
HETATM   25  H   UNL     1      -3.330  -4.443 -31.645  1.00  0.00     0.159 HD
HETATM   26  H   UNL     1      -2.178  -3.550 -30.685  1.00  0.00     0.159 HD
HETATM   27  O   UNL     1      -2.490  -1.389 -31.833  1.00  0.00    -0.268 OA
ENDBRANCH  18  23
ENDBRANCH  14  17
ENDBRANCH   9  13
BRANCH   4  28
HETATM   28  C   UNL     1      -1.972   6.297 -30.849  1.00  0.00     0.060 A 
HETATM   29  C   UNL     1      -1.935   6.974 -29.625  1.00  0.00     0.031 A 
HETATM   30  C   UNL     1      -0.729   7.497 -29.147  1.00  0.00     0.002 A 
HETATM   31  C   UNL     1       0.442   7.353 -29.888  1.00  0.00     0.000 A 
HETATM   32  C   UNL     1       0.411   6.701 -31.119  1.00  0.00     0.002 A 
HETATM   33  C   UNL     1      -0.792   6.183 -31.605  1.00  0.00     0.031 A 
ENDBRANCH   4  28
TORSDOF 4
ENDMDL
MODEL 2
REMARK VINA RESULT:      -9.5      2.480      8.497
REMARK  4 active torsions:
REMARK  status: ('A' for Active; 'I' for Inactive)
REMARK    1  A    between atoms: N_4  and  C_5 
REMARK    2  A    between atoms: C_15  and  C_16 
REMARK       I    between atoms: C_16  and  N_17 
REMARK    3  A    between atoms: N_17  and  C_18 
REMARK    4  A    between atoms: C_19  and  C_20 
REMARK       I    between atoms: C_20  and  N_21 
ROOT
HETATM    1  C   UNL     1      -7.824   2.977 -30.130  1.00  0.00     0.073 C 
HETATM    2  C   UNL     1      -6.808   2.402 -31.046  1.00  0.00     0.069 A 
HETATM    3  N   UNL     1      -6.963   1.162 -31.530  1.00  0.00    -0.170 NA
HETATM    4  N   UNL     1      -5.894   0.954 -32.358  1.00  0.00    -0.216 N 
HETATM    5  C   UNL     1      -5.016   2.026 -32.279  1.00  0.00     0.145 A 
HETATM    6  C   UNL     1      -5.596   2.975 -31.468  1.00  0.00     0.087 A 
HETATM    7  N   UNL     1      -3.772   2.176 -32.797  1.00  0.00    -0.349 N 
HETATM    8  C   UNL     1      -3.067   3.325 -32.481  1.00  0.00     0.111 A 
HETATM    9  C   UNL     1      -3.543   4.343 -31.729  1.00  0.00     0.098 A 
HETATM   10  C   UNL     1      -4.929   4.222 -31.160  1.00  0.00     0.205 A 
HETATM   11  O   UNL     1      -5.423   5.103 -30.461  1.00  0.00    -0.286 OA
HETATM   12  H   UNL     1      -3.223   1.403 -33.171  1.00  0.00     0.167 HD
ENDROOT
BRANCH   9  13
HETATM   13  C   UNL     1      -2.634   5.497 -31.448  1.00  0.00     0.261 C 
HETATM   14  N   UNL     1      -2.392   5.732 -30.107  1.00  0.00    -0.322 N 
HETATM   15  H   UNL     1      -2.701   4.996 -29.469  1.00  0.00     0.169 HD
HETATM   16  O   UNL     1      -2.115   6.107 -32.376  1.00  0.00    -0.267 OA
BRANCH  14  17
HETATM   17  C   UNL     1      -1.395   6.600 -29.597  1.00  0.00     0.050 A 
HETATM   18  C   UNL     1      -0.041   6.286 -29.371  1.00  0.00     0.058 A 
HETATM   19  C   UNL     1       0.783   7.215 -28.707  1.00  0.00     0.019 A 
HETATM   20  C   UNL     1       0.293   8.462 -28.323  1.00  0.00     0.001 A 
HETATM   21  C   UNL     1      -1.020   8.806 -28.619  1.00  0.00     0.002 A 
HETATM   22  C   UNL     1      -1.854   7.886 -29.257  1.00  0.00     0.030 A 
BRANCH  18  23
HETATM   23  C   UNL     1       0.676   5.105 -29.922  1.00  0.00     0.251 C 
HETATM   24  N   UNL     1       1.169   4.205 -29.017  1.00  0.00    -0.366 N 
HETATM   25  H   UNL     1       1.158   4.376 -28.022  1.00  0.00     0.159 HD
HETATM   26  H   UNL     1       1.683   3.418 -29.383  1.00  0.00     0.159 HD
HETATM   27  O   UNL     1       0.723   4.877 -31.125  1.00  0.00    -0.268 OA
ENDBRANCH  18  23
ENDBRANCH  14  17
ENDBRANCH   9  13
BRANCH   4  28
HETATM   28  C   UNL     1      -5.819  -0.235 -33.137  1.00  0.00     0.060 A 
HETATM   29  C   UNL     1      -4.678  -1.043 -33.146  1.00  0.00     0.031 A 
HETATM   30  C   UNL     1      -4.647  -2.207 -33.921  1.00  0.00     0.002 A 
HETATM   31  C   UNL     1      -5.749  -2.566 -34.694  1.00  0.00     0.000 A 
HETATM   32  C   UNL     1      -6.880  -1.754 -34.711  1.00  0.00     0.002 A 
HETATM   33  C   UNL     1      -6.914  -0.587 -33.945  1.00  0.00     0.031 A 
ENDBRANCH   4  28
TORSDOF 4
ENDMDL
MODEL 3
REMARK VINA RESULT:      -9.5      2.232      8.620
REMARK  4 active torsions:
REMARK  status: ('A' for Active; 'I' for Inactive)
REMARK    1  A    between atoms: N_4  and  C_5 
REMARK    2  A    between atoms: C_15  and  C_16 
REMARK       I    between atoms: C_16  and  N_17 
REMARK    3  A    between atoms: N_17  and  C_18 
REMARK    4  A    between atoms: C_19  and  C_20 
REMARK       I    between atoms: C_20  and  N_21 
ROOT
HETATM    1  C   UNL     1      -8.542   1.741 -34.212  1.00  0.00     0.073 C 
HETATM    2  C   UNL     1      -7.345   0.901 -33.959  1.00  0.00     0.069 A 
HETATM    3  N   UNL     1      -7.387  -0.418 -34.191  1.00  0.00    -0.170 NA
HETATM    4  N   UNL     1      -6.133  -0.882 -33.900  1.00  0.00    -0.216 N 
HETATM    5  C   UNL     1      -5.359   0.140 -33.368  1.00  0.00     0.145 A 
HETATM    6  C   UNL     1      -6.106   1.294 -33.425  1.00  0.00     0.087 A 
HETATM    7  N   UNL     1      -4.127   0.099 -32.804  1.00  0.00    -0.349 N 
HETATM    8  C   UNL     1      -3.619   1.266 -32.259  1.00  0.00     0.111 A 
HETATM    9  C   UNL     1      -4.238   2.467 -32.287  1.00  0.00     0.098 A 
HETATM   10  C   UNL     1      -5.596   2.555 -32.929  1.00  0.00     0.205 A 
HETATM   11  O   UNL     1      -6.221   3.611 -32.983  1.00  0.00    -0.286 OA
HETATM   12  H   UNL     1      -3.670  -0.766 -32.515  1.00  0.00     0.167 HD
ENDROOT
BRANCH   9  13
HETATM   13  C   UNL     1      -3.569   3.622 -31.614  1.00  0.00     0.261 C 
HETATM   14  N   UNL     1      -2.246   3.815 -31.972  1.00  0.00    -0.322 N 
HETATM   15  H   UNL     1      -1.926   3.276 -32.779  1.00  0.00     0.169 HD
HETATM   16  O   UNL     1      -4.212   4.353 -30.868  1.00  0.00    -0.267 OA
BRANCH  14  17
HETATM   17  C   UNL     1      -1.476   4.963 -31.662  1.00  0.00     0.050 A 
HETATM   18  C   UNL     1      -1.531   6.213 -32.308  1.00  0.00     0.058 A 
HETATM   19  C   UNL     1      -0.583   7.202 -31.984  1.00  0.00     0.019 A 
HETATM   20  C   UNL     1       0.372   6.982 -30.992  1.00  0.00     0.001 A 
HETATM   21  C   UNL     1       0.376   5.780 -30.296  1.00  0.00     0.002 A 
HETATM   22  C   UNL     1      -0.545   4.783 -30.623  1.00  0.00     0.030 A 
BRANCH  18  23
HETATM   23  C   UNL     1      -2.622   6.673 -33.209  1.00  0.00     0.251 C 
HETATM   24  N   UNL     1      -2.386   6.589 -34.555  1.00  0.00    -0.366 N 
HETATM   25  H   UNL     1      -1.484   6.341 -34.933  1.00  0.00     0.159 HD
HETATM   26  H   UNL     1      -3.110   6.928 -35.171  1.00  0.00     0.159 HD
HETATM   27  O   UNL     1      -3.724   6.997 -32.783  1.00  0.00    -0.268 OA
ENDBRANCH  18  23
ENDBRANCH  14  17
ENDBRANCH   9  13
BRANCH   4  28
HETATM   28  C   UNL     1      -5.800  -2.241 -34.161  1.00  0.00     0.060 A 
HETATM   29  C   UNL     1      -4.507  -2.737 -33.965  1.00  0.00     0.031 A 
HETATM   30  C   UNL     1      -4.223  -4.082 -34.227  1.00  0.00     0.002 A 
HETATM   31  C   UNL     1      -5.222  -4.934 -34.691  1.00  0.00     0.000 A 
HETATM   32  C   UNL     1      -6.507  -4.443 -34.912  1.00  0.00     0.002 A 
HETATM   33  C   UNL     1      -6.795  -3.100 -34.659  1.00  0.00     0.031 A 
ENDBRANCH   4  28
TORSDOF 4
ENDMDL
MODEL 4
REMARK VINA RESULT:      -9.1      3.048      8.730
REMARK  4 active torsions:
REMARK  status: ('A' for Active; 'I' for Inactive)
REMARK    1  A    between atoms: N_4  and  C_5 
REMARK    2  A    between atoms: C_15  and  C_16 
REMARK       I    between atoms: C_16  and  N_17 
REMARK    3  A    between atoms: N_17  and  C_18 
REMARK    4  A    between atoms: C_19  and  C_20 
REMARK       I    between atoms: C_20  and  N_21 
ROOT
HETATM    1  C   UNL     1      -3.468   0.016 -32.438  1.00  0.00     0.073 C 
HETATM    2  C   UNL     1      -4.621   0.947 -32.501  1.00  0.00     0.069 A 
HETATM    3  N   UNL     1      -5.803   0.525 -32.969  1.00  0.00    -0.170 NA
HETATM    4  N   UNL     1      -6.647   1.595 -32.857  1.00  0.00    -0.216 N 
HETATM    5  C   UNL     1      -5.942   2.714 -32.436  1.00  0.00     0.145 A 
HETATM    6  C   UNL     1      -4.652   2.314 -32.174  1.00  0.00     0.087 A 
HETATM    7  N   UNL     1      -6.335   4.008 -32.342  1.00  0.00    -0.349 N 
HETATM    8  C   UNL     1      -5.389   4.953 -31.979  1.00  0.00     0.111 A 
HETATM    9  C   UNL     1      -4.104   4.679 -31.661  1.00  0.00     0.098 A 
HETATM   10  C   UNL     1      -3.642   3.249 -31.729  1.00  0.00     0.205 A 
HETATM   11  O   UNL     1      -2.486   2.928 -31.462  1.00  0.00    -0.286 OA
HETATM   12  H   UNL     1      -7.186   4.370 -32.771  1.00  0.00     0.167 HD
ENDROOT
BRANCH   9  13
HETATM   13  C   UNL     1      -3.200   5.823 -31.329  1.00  0.00     0.261 C 
HETATM   14  N   UNL     1      -2.684   5.801 -30.046  1.00  0.00    -0.322 N 
HETATM   15  H   UNL     1      -2.820   4.929 -29.532  1.00  0.00     0.169 HD
HETATM   16  O   UNL     1      -2.915   6.648 -32.191  1.00  0.00    -0.267 OA
BRANCH  14  17
HETATM   17  C   UNL     1      -1.632   6.627 -29.575  1.00  0.00     0.050 A 
HETATM   18  C   UNL     1      -0.276   6.273 -29.449  1.00  0.00     0.058 A 
HETATM   19  C   UNL     1       0.614   7.158 -28.812  1.00  0.00     0.019 A 
HETATM   20  C   UNL     1       0.183   8.404 -28.356  1.00  0.00     0.001 A 
HETATM   21  C   UNL     1      -1.136   8.789 -28.554  1.00  0.00     0.002 A 
HETATM   22  C   UNL     1      -2.034   7.911 -29.165  1.00  0.00     0.030 A 
BRANCH  18  23
HETATM   23  C   UNL     1       0.373   5.094 -30.085  1.00  0.00     0.251 C 
HETATM   24  N   UNL     1       1.081   4.262 -29.261  1.00  0.00    -0.366 N 
HETATM   25  H   UNL     1       1.263   4.483 -28.293  1.00  0.00     0.159 HD
HETATM   26  H   UNL     1       1.549   3.478 -29.691  1.00  0.00     0.159 HD
HETATM   27  O   UNL     1       0.188   4.807 -31.262  1.00  0.00    -0.268 OA
ENDBRANCH  18  23
ENDBRANCH  14  17
ENDBRANCH   9  13
BRANCH   4  28
HETATM   28  C   UNL     1      -8.030   1.444 -33.158  1.00  0.00     0.060 A 
HETATM   29  C   UNL     1      -8.715   2.355 -33.969  1.00  0.00     0.031 A 
HETATM   30  C   UNL     1     -10.073   2.167 -34.246  1.00  0.00     0.002 A 
HETATM   31  C   UNL     1     -10.755   1.076 -33.710  1.00  0.00     0.000 A 
HETATM   32  C   UNL     1     -10.088   0.178 -32.881  1.00  0.00     0.002 A 
HETATM   33  C   UNL     1      -8.733   0.364 -32.596  1.00  0.00     0.031 A 
ENDBRANCH   4  28
TORSDOF 4
ENDMDL
MODEL 5
REMARK VINA RESULT:      -8.9      2.340      3.290
REMARK  4 active torsions:
REMARK  status: ('A' for Active; 'I' for Inactive)
REMARK    1  A    between atoms: N_4  and  C_5 
REMARK    2  A    between atoms: C_15  and  C_16 
REMARK       I    between atoms: C_16  and  N_17 
REMARK    3  A    between atoms: N_17  and  C_18 
REMARK    4  A    between atoms: C_19  and  C_20 
REMARK       I    between atoms: C_20  and  N_21 
ROOT
HETATM    1  C   UNL     1      -0.834   6.154 -34.476  1.00  0.00     0.073 C 
HETATM    2  C   UNL     1      -1.305   6.279 -33.075  1.00  0.00     0.069 A 
HETATM    3  N   UNL     1      -0.560   6.927 -32.169  1.00  0.00    -0.170 NA
HETATM    4  N   UNL     1      -1.283   6.897 -31.008  1.00  0.00    -0.216 N 
HETATM    5  C   UNL     1      -2.419   6.117 -31.176  1.00  0.00     0.145 A 
HETATM    6  C   UNL     1      -2.466   5.738 -32.497  1.00  0.00     0.087 A 
HETATM    7  N   UNL     1      -3.326   5.690 -30.264  1.00  0.00    -0.349 N 
HETATM    8  C   UNL     1      -4.325   4.830 -30.690  1.00  0.00     0.111 A 
HETATM    9  C   UNL     1      -4.498   4.417 -31.965  1.00  0.00     0.098 A 
HETATM   10  C   UNL     1      -3.525   4.893 -33.008  1.00  0.00     0.205 A 
HETATM   11  O   UNL     1      -3.616   4.552 -34.185  1.00  0.00    -0.286 OA
HETATM   12  H   UNL     1      -3.174   5.735 -29.257  1.00  0.00     0.167 HD
ENDROOT
BRANCH   9  13
HETATM   13  C   UNL     1      -5.606   3.453 -32.250  1.00  0.00     0.261 C 
HETATM   14  N   UNL     1      -5.291   2.463 -33.163  1.00  0.00    -0.322 N 
HETATM   15  H   UNL     1      -4.301   2.382 -33.402  1.00  0.00     0.169 HD
HETATM   16  O   UNL     1      -6.664   3.538 -31.637  1.00  0.00    -0.267 OA
BRANCH  14  17
HETATM   17  C   UNL     1      -6.074   1.309 -33.417  1.00  0.00     0.050 A 
HETATM   18  C   UNL     1      -6.202   0.179 -32.587  1.00  0.00     0.058 A 
HETATM   19  C   UNL     1      -6.892  -0.953 -33.060  1.00  0.00     0.019 A 
HETATM   20  C   UNL     1      -7.500  -0.950 -34.315  1.00  0.00     0.001 A 
HETATM   21  C   UNL     1      -7.445   0.194 -35.102  1.00  0.00     0.002 A 
HETATM   22  C   UNL     1      -6.746   1.316 -34.653  1.00  0.00     0.030 A 
BRANCH  18  23
HETATM   23  C   UNL     1      -5.813   0.112 -31.152  1.00  0.00     0.251 C 
HETATM   24  N   UNL     1      -6.818  -0.112 -30.251  1.00  0.00    -0.366 N 
HETATM   25  H   UNL     1      -7.792  -0.116 -30.515  1.00  0.00     0.159 HD
HETATM   26  H   UNL     1      -6.566  -0.127 -29.274  1.00  0.00     0.159 HD
HETATM   27  O   UNL     1      -4.641   0.132 -30.796  1.00  0.00    -0.268 OA
ENDBRANCH  18  23
ENDBRANCH  14  17
ENDBRANCH   9  13
BRANCH   4  28
HETATM   28  C   UNL     1      -0.824   7.614 -29.867  1.00  0.00     0.060 A 
HETATM   29  C   UNL     1      -1.600   8.603 -29.253  1.00  0.00     0.031 A 
HETATM   30  C   UNL     1      -1.116   9.280 -28.129  1.00  0.00     0.002 A 
HETATM   31  C   UNL     1       0.145   8.978 -27.616  1.00  0.00     0.000 A 
HETATM   32  C   UNL     1       0.934   8.012 -28.236  1.00  0.00     0.002 A 
HETATM   33  C   UNL     1       0.458   7.338 -29.363  1.00  0.00     0.031 A 
ENDBRANCH   4  28
TORSDOF 4
ENDMDL
MODEL 6
REMARK VINA RESULT:      -8.7      4.331      9.245
REMARK  4 active torsions:
REMARK  status: ('A' for Active; 'I' for Inactive)
REMARK    1  A    between atoms: N_4  and  C_5 
REMARK    2  A    between atoms: C_15  and  C_16 
REMARK       I    between atoms: C_16  and  N_17 
REMARK    3  A    between atoms: N_17  and  C_18 
REMARK    4  A    between atoms: C_19  and  C_20 
REMARK       I    between atoms: C_20  and  N_21 
ROOT
HETATM    1  C   UNL     1      -3.894   1.857 -32.297  1.00  0.00     0.073 C 
HETATM    2  C   UNL     1      -4.894   0.917 -32.863  1.00  0.00     0.069 A 
HETATM    3  N   UNL     1      -4.513  -0.294 -33.289  1.00  0.00    -0.170 NA
HETATM    4  N   UNL     1      -5.659  -0.915 -33.706  1.00  0.00    -0.216 N 
HETATM    5  C   UNL     1      -6.725  -0.029 -33.651  1.00  0.00     0.145 A 
HETATM    6  C   UNL     1      -6.263   1.138 -33.087  1.00  0.00     0.087 A 
HETATM    7  N   UNL     1      -7.994  -0.162 -34.109  1.00  0.00    -0.349 N 
HETATM    8  C   UNL     1      -8.843   0.928 -34.009  1.00  0.00     0.111 A 
HETATM    9  C   UNL     1      -8.518   2.112 -33.442  1.00  0.00     0.098 A 
HETATM   10  C   UNL     1      -7.126   2.285 -32.900  1.00  0.00     0.205 A 
HETATM   11  O   UNL     1      -6.758   3.335 -32.379  1.00  0.00    -0.286 OA
HETATM   12  H   UNL     1      -8.286  -0.898 -34.752  1.00  0.00     0.167 HD
ENDROOT
BRANCH   9  13
HETATM   13  C   UNL     1      -9.540   3.203 -33.452  1.00  0.00     0.261 C 
HETATM   14  N   UNL     1      -9.743   3.797 -34.684  1.00  0.00    -0.322 N 
HETATM   15  H   UNL     1      -9.319   3.315 -35.480  1.00  0.00     0.169 HD
HETATM   16  O   UNL     1     -10.173   3.459 -32.432  1.00  0.00    -0.267 OA
BRANCH  14  17
HETATM   17  C   UNL     1     -10.809   4.675 -35.003  1.00  0.00     0.050 A 
HETATM   18  C   UNL     1     -12.128   4.312 -35.334  1.00  0.00     0.058 A 
HETATM   19  C   UNL     1     -13.026   5.299 -35.782  1.00  0.00     0.019 A 
HETATM   20  C   UNL     1     -12.645   6.639 -35.846  1.00  0.00     0.001 A 
HETATM   21  C   UNL     1     -11.369   7.011 -35.442  1.00  0.00     0.002 A 
HETATM   22  C   UNL     1     -10.462   6.038 -35.016  1.00  0.00     0.030 A 
BRANCH  18  23
HETATM   23  C   UNL     1     -12.743   2.977 -35.097  1.00  0.00     0.251 C 
HETATM   24  N   UNL     1     -13.752   2.919 -34.175  1.00  0.00    -0.366 N 
HETATM   25  H   UNL     1     -14.001   3.705 -33.593  1.00  0.00     0.159 HD
HETATM   26  H   UNL     1     -14.152   2.011 -33.987  1.00  0.00     0.159 HD
HETATM   27  O   UNL     1     -12.451   1.998 -35.773  1.00  0.00    -0.268 OA
ENDBRANCH  18  23
ENDBRANCH  14  17
ENDBRANCH   9  13
BRANCH   4  28
HETATM   28  C   UNL     1      -5.621  -2.280 -34.108  1.00  0.00     0.060 A 
HETATM   29  C   UNL     1      -6.730  -2.913 -34.682  1.00  0.00     0.031 A 
HETATM   30  C   UNL     1      -6.651  -4.254 -35.069  1.00  0.00     0.002 A 
HETATM   31  C   UNL     1      -5.471  -4.972 -34.881  1.00  0.00     0.000 A 
HETATM   32  C   UNL     1      -4.370  -4.357 -34.289  1.00  0.00     0.002 A 
HETATM   33  C   UNL     1      -4.446  -3.019 -33.894  1.00  0.00     0.031 A 
ENDBRANCH   4  28
TORSDOF 4
ENDMDL
MODEL 7
REMARK VINA RESULT:      -8.7      1.575      2.493
REMARK  4 active torsions:
REMARK  status: ('A' for Active; 'I' for Inactive)
REMARK    1  A    between atoms: N_4  and  C_5 
REMARK    2  A    between atoms: C_15  and  C_16 
REMARK       I    between atoms: C_16  and  N_17 
REMARK    3  A    between atoms: N_17  and  C_18 
REMARK    4  A    between atoms: C_19  and  C_20 
REMARK       I    between atoms: C_20  and  N_21 
ROOT
HETATM    1  C   UNL     1      -6.573   6.990 -31.260  1.00  0.00     0.073 C 
HETATM    2  C   UNL     1      -5.261   6.321 -31.081  1.00  0.00     0.069 A 
HETATM    3  N   UNL     1      -4.156   7.050 -30.880  1.00  0.00    -0.170 NA
HETATM    4  N   UNL     1      -3.143   6.145 -30.716  1.00  0.00    -0.216 N 
HETATM    5  C   UNL     1      -3.613   4.859 -30.944  1.00  0.00     0.145 A 
HETATM    6  C   UNL     1      -4.971   4.948 -31.150  1.00  0.00     0.087 A 
HETATM    7  N   UNL     1      -2.938   3.688 -31.044  1.00  0.00    -0.349 N 
HETATM    8  C   UNL     1      -3.652   2.549 -31.376  1.00  0.00     0.111 A 
HETATM    9  C   UNL     1      -4.990   2.501 -31.564  1.00  0.00     0.098 A 
HETATM   10  C   UNL     1      -5.774   3.778 -31.436  1.00  0.00     0.205 A 
HETATM   11  O   UNL     1      -6.991   3.812 -31.601  1.00  0.00    -0.286 OA
HETATM   12  H   UNL     1      -1.926   3.630 -31.156  1.00  0.00     0.167 HD
ENDROOT
BRANCH   9  13
HETATM   13  C   UNL     1      -5.601   1.195 -31.960  1.00  0.00     0.261 C 
HETATM   14  N   UNL     1      -5.277   0.766 -33.235  1.00  0.00    -0.322 N 
HETATM   15  H   UNL     1      -4.523   1.280 -33.694  1.00  0.00     0.169 HD
HETATM   16  O   UNL     1      -6.269   0.561 -31.150  1.00  0.00    -0.267 OA
BRANCH  14  17
HETATM   17  C   UNL     1      -5.530  -0.531 -33.748  1.00  0.00     0.050 A 
HETATM   18  C   UNL     1      -6.785  -1.076 -34.077  1.00  0.00     0.058 A 
HETATM   19  C   UNL     1      -6.880  -2.437 -34.424  1.00  0.00     0.019 A 
HETATM   20  C   UNL     1      -5.741  -3.238 -34.502  1.00  0.00     0.001 A 
HETATM   21  C   UNL     1      -4.491  -2.681 -34.259  1.00  0.00     0.002 A 
HETATM   22  C   UNL     1      -4.386  -1.338 -33.893  1.00  0.00     0.030 A 
BRANCH  18  23
HETATM   23  C   UNL     1      -8.042  -0.302 -34.262  1.00  0.00     0.251 C 
HETATM   24  N   UNL     1      -8.217   0.309 -35.474  1.00  0.00    -0.366 N 
HETATM   25  H   UNL     1      -7.492   0.341 -36.175  1.00  0.00     0.159 HD
HETATM   26  H   UNL     1      -9.053   0.862 -35.595  1.00  0.00     0.159 HD
HETATM   27  O   UNL     1      -8.936  -0.304 -33.424  1.00  0.00    -0.268 OA
ENDBRANCH  18  23
ENDBRANCH  14  17
ENDBRANCH   9  13
BRANCH   4  28
HETATM   28  C   UNL     1      -1.840   6.593 -30.358  1.00  0.00     0.060 A 
HETATM   29  C   UNL     1      -1.571   7.161 -29.108  1.00  0.00     0.031 A 
HETATM   30  C   UNL     1      -0.276   7.583 -28.792  1.00  0.00     0.002 A 
HETATM   31  C   UNL     1       0.754   7.448 -29.721  1.00  0.00     0.000 A 
HETATM   32  C   UNL     1       0.490   6.907 -30.977  1.00  0.00     0.002 A 
HETATM   33  C   UNL     1      -0.803   6.489 -31.300  1.00  0.00     0.031 A 
ENDBRANCH   4  28
TORSDOF 4
ENDMDL
MODEL 8
REMARK VINA RESULT:      -8.7      2.176      8.465
REMARK  4 active torsions:
REMARK  status: ('A' for Active; 'I' for Inactive)
REMARK    1  A    between atoms: N_4  and  C_5 
REMARK    2  A    between atoms: C_15  and  C_16 
REMARK       I    between atoms: C_16  and  N_17 
REMARK    3  A    between atoms: N_17  and  C_18 
REMARK    4  A    between atoms: C_19  and  C_20 
REMARK       I    between atoms: C_20  and  N_21 
ROOT
HETATM    1  C   UNL     1      -9.189   1.701 -33.769  1.00  0.00     0.073 C 
HETATM    2  C   UNL     1      -7.887   1.012 -33.588  1.00  0.00     0.069 A 
HETATM    3  N   UNL     1      -7.766  -0.288 -33.889  1.00  0.00    -0.170 NA
HETATM    4  N   UNL     1      -6.455  -0.600 -33.652  1.00  0.00    -0.216 N 
HETATM    5  C   UNL     1      -5.804   0.485 -33.083  1.00  0.00     0.145 A 
HETATM    6  C   UNL     1      -6.694   1.534 -33.061  1.00  0.00     0.087 A 
HETATM    7  N   UNL     1      -4.561   0.575 -32.550  1.00  0.00    -0.349 N 
HETATM    8  C   UNL     1      -4.190   1.769 -31.954  1.00  0.00     0.111 A 
HETATM    9  C   UNL     1      -4.959   2.880 -31.904  1.00  0.00     0.098 A 
HETATM   10  C   UNL     1      -6.335   2.823 -32.509  1.00  0.00     0.205 A 
HETATM   11  O   UNL     1      -7.092   3.791 -32.493  1.00  0.00    -0.286 OA
HETATM   12  H   UNL     1      -3.989  -0.236 -32.318  1.00  0.00     0.167 HD
ENDROOT
BRANCH   9  13
HETATM   13  C   UNL     1      -4.424   4.077 -31.185  1.00  0.00     0.261 C 
HETATM   14  N   UNL     1      -3.399   4.736 -31.840  1.00  0.00    -0.322 N 
HETATM   15  H   UNL     1      -3.245   4.455 -32.810  1.00  0.00     0.169 HD
HETATM   16  O   UNL     1      -4.941   4.442 -30.134  1.00  0.00    -0.267 OA
BRANCH  14  17
HETATM   17  C   UNL     1      -2.895   6.013 -31.488  1.00  0.00     0.050 A 
HETATM   18  C   UNL     1      -1.700   6.285 -30.796  1.00  0.00     0.058 A 
HETATM   19  C   UNL     1      -1.422   7.602 -30.383  1.00  0.00     0.019 A 
HETATM   20  C   UNL     1      -2.286   8.650 -30.701  1.00  0.00     0.001 A 
HETATM   21  C   UNL     1      -3.424   8.397 -31.456  1.00  0.00     0.002 A 
HETATM   22  C   UNL     1      -3.721   7.092 -31.853  1.00  0.00     0.030 A 
BRANCH  18  23
HETATM   23  C   UNL     1      -0.583   5.323 -30.589  1.00  0.00     0.251 C 
HETATM   24  N   UNL     1      -0.086   5.221 -29.318  1.00  0.00    -0.366 N 
HETATM   25  H   UNL     1      -0.369   5.840 -28.573  1.00  0.00     0.159 HD
HETATM   26  H   UNL     1       0.693   4.593 -29.177  1.00  0.00     0.159 HD
HETATM   27  O   UNL     1      -0.202   4.569 -31.476  1.00  0.00    -0.268 OA
ENDBRANCH  18  23
ENDBRANCH  14  17
ENDBRANCH   9  13
BRANCH   4  28
HETATM   28  C   UNL     1      -5.959  -1.890 -33.992  1.00  0.00     0.060 A 
HETATM   29  C   UNL     1      -4.630  -2.258 -33.757  1.00  0.00     0.031 A 
HETATM   30  C   UNL     1      -4.183  -3.538 -34.101  1.00  0.00     0.002 A 
HETATM   31  C   UNL     1      -5.056  -4.454 -34.685  1.00  0.00     0.000 A 
HETATM   32  C   UNL     1      -6.375  -4.088 -34.946  1.00  0.00     0.002 A 
HETATM   33  C   UNL     1      -6.825  -2.809 -34.611  1.00  0.00     0.031 A 
ENDBRANCH   4  28
TORSDOF 4
ENDMDL
MODEL 9
REMARK VINA RESULT:      -8.7      2.175      8.727
REMARK  4 active torsions:
REMARK  status: ('A' for Active; 'I' for Inactive)
REMARK    1  A    between atoms: N_4  and  C_5 
REMARK    2  A    between atoms: C_15  and  C_16 
REMARK       I    between atoms: C_16  and  N_17 
REMARK    3  A    between atoms: N_17  and  C_18 
REMARK    4  A    between atoms: C_19  and  C_20 
REMARK       I    between atoms: C_20  and  N_21 
ROOT
HETATM    1  C   UNL     1      -8.586   1.530 -33.292  1.00  0.00     0.073 C 
HETATM    2  C   UNL     1      -7.341   0.728 -33.375  1.00  0.00     0.069 A 
HETATM    3  N   UNL     1      -7.403  -0.589 -33.615  1.00  0.00    -0.170 NA
HETATM    4  N   UNL     1      -6.104  -1.015 -33.669  1.00  0.00    -0.216 N 
HETATM    5  C   UNL     1      -5.249   0.025 -33.333  1.00  0.00     0.145 A 
HETATM    6  C   UNL     1      -6.017   1.154 -33.171  1.00  0.00     0.087 A 
HETATM    7  N   UNL     1      -3.912   0.017 -33.108  1.00  0.00    -0.349 N 
HETATM    8  C   UNL     1      -3.313   1.193 -32.688  1.00  0.00     0.111 A 
HETATM    9  C   UNL     1      -3.953   2.373 -32.530  1.00  0.00     0.098 A 
HETATM   10  C   UNL     1      -5.433   2.424 -32.797  1.00  0.00     0.205 A 
HETATM   11  O   UNL     1      -6.080   3.460 -32.665  1.00  0.00    -0.286 OA
HETATM   12  H   UNL     1      -3.371  -0.836 -32.965  1.00  0.00     0.167 HD
ENDROOT
BRANCH   9  13
HETATM   13  C   UNL     1      -3.165   3.542 -32.029  1.00  0.00     0.261 C 
HETATM   14  N   UNL     1      -3.522   4.760 -32.577  1.00  0.00    -0.322 N 
HETATM   15  H   UNL     1      -4.390   4.762 -33.116  1.00  0.00     0.169 HD
HETATM   16  O   UNL     1      -2.330   3.383 -31.145  1.00  0.00    -0.267 OA
BRANCH  14  17
HETATM   17  C   UNL     1      -3.098   6.025 -32.101  1.00  0.00     0.050 A 
HETATM   18  C   UNL     1      -3.727   6.808 -31.114  1.00  0.00     0.058 A 
HETATM   19  C   UNL     1      -3.267   8.116 -30.870  1.00  0.00     0.019 A 
HETATM   20  C   UNL     1      -2.162   8.626 -31.550  1.00  0.00     0.001 A 
HETATM   21  C   UNL     1      -1.488   7.826 -32.465  1.00  0.00     0.002 A 
HETATM   22  C   UNL     1      -1.948   6.535 -32.732  1.00  0.00     0.030 A 
BRANCH  18  23
HETATM   23  C   UNL     1      -4.757   6.324 -30.155  1.00  0.00     0.251 C 
HETATM   24  N   UNL     1      -4.325   6.008 -28.895  1.00  0.00    -0.366 N 
HETATM   25  H   UNL     1      -3.348   5.986 -28.646  1.00  0.00     0.159 HD
HETATM   26  H   UNL     1      -5.014   5.650 -28.249  1.00  0.00     0.159 HD
HETATM   27  O   UNL     1      -5.950   6.321 -30.431  1.00  0.00    -0.268 OA
ENDBRANCH  18  23
ENDBRANCH  14  17
ENDBRANCH   9  13
BRANCH   4  28
HETATM   28  C   UNL     1      -5.812  -2.359 -34.035  1.00  0.00     0.060 A 
HETATM   29  C   UNL     1      -4.550  -2.925 -33.827  1.00  0.00     0.031 A 
HETATM   30  C   UNL     1      -4.305  -4.252 -34.195  1.00  0.00     0.002 A 
HETATM   31  C   UNL     1      -5.313  -5.017 -34.778  1.00  0.00     0.000 A 
HETATM   32  C   UNL     1      -6.566  -4.455 -35.011  1.00  0.00     0.002 A 
HETATM   33  C   UNL     1      -6.814  -3.128 -34.651  1.00  0.00     0.031 A 
ENDBRANCH   4  28
TORSDOF 4
ENDMDL
MODEL 10
REMARK VINA RESULT:      -8.6      5.660      9.855
REMARK  4 active torsions:
REMARK  status: ('A' for Active; 'I' for Inactive)
REMARK    1  A    between atoms: N_4  and  C_5 
REMARK    2  A    between atoms: C_15  and  C_16 
REMARK       I    between atoms: C_16  and  N_17 
REMARK    3  A    between atoms: N_17  and  C_18 
REMARK    4  A    between atoms: C_19  and  C_20 
REMARK       I    between atoms: C_20  and  N_21 
ROOT
HETATM    1  C   UNL     1      -6.325   1.483 -29.972  1.00  0.00     0.073 C 
HETATM    2  C   UNL     1      -6.817   0.810 -31.199  1.00  0.00     0.069 A 
HETATM    3  N   UNL     1      -6.063  -0.115 -31.807  1.00  0.00    -0.170 NA
HETATM    4  N   UNL     1      -6.808  -0.561 -32.865  1.00  0.00    -0.216 N 
HETATM    5  C   UNL     1      -7.971   0.188 -32.975  1.00  0.00     0.145 A 
HETATM    6  C   UNL     1      -8.009   1.050 -31.903  1.00  0.00     0.087 A 
HETATM    7  N   UNL     1      -8.911   0.201 -33.951  1.00  0.00    -0.349 N 
HETATM    8  C   UNL     1      -9.937   1.127 -33.859  1.00  0.00     0.111 A 
HETATM    9  C   UNL     1     -10.104   1.997 -32.838  1.00  0.00     0.098 A 
HETATM   10  C   UNL     1      -9.093   1.993 -31.724  1.00  0.00     0.205 A 
HETATM   11  O   UNL     1      -9.176   2.761 -30.769  1.00  0.00    -0.286 OA
HETATM   12  H   UNL     1      -8.777  -0.227 -34.867  1.00  0.00     0.167 HD
ENDROOT
BRANCH   9  13
HETATM   13  C   UNL     1     -11.244   2.962 -32.912  1.00  0.00     0.261 C 
HETATM   14  N   UNL     1     -12.139   2.884 -31.861  1.00  0.00    -0.322 N 
HETATM   15  H   UNL     1     -11.836   2.317 -31.066  1.00  0.00     0.169 HD
HETATM   16  O   UNL     1     -11.290   3.786 -33.819  1.00  0.00    -0.267 OA
BRANCH  14  17
HETATM   17  C   UNL     1     -13.153   3.833 -31.580  1.00  0.00     0.050 A 
HETATM   18  C   UNL     1     -14.516   3.735 -31.919  1.00  0.00     0.058 A 
HETATM   19  C   UNL     1     -15.363   4.840 -31.710  1.00  0.00     0.019 A 
HETATM   20  C   UNL     1     -14.884   6.008 -31.118  1.00  0.00     0.001 A 
HETATM   21  C   UNL     1     -13.560   6.078 -30.707  1.00  0.00     0.002 A 
HETATM   22  C   UNL     1     -12.704   4.996 -30.928  1.00  0.00     0.030 A 
BRANCH  18  23
HETATM   23  C   UNL     1     -15.215   2.490 -32.339  1.00  0.00     0.251 C 
HETATM   24  N   UNL     1     -16.561   2.429 -32.101  1.00  0.00    -0.366 N 
HETATM   25  H   UNL     1     -17.049   3.131 -31.566  1.00  0.00     0.159 HD
HETATM   26  H   UNL     1     -17.035   1.575 -32.355  1.00  0.00     0.159 HD
HETATM   27  O   UNL     1     -14.647   1.609 -32.974  1.00  0.00    -0.268 OA
ENDBRANCH  18  23
ENDBRANCH  14  17
ENDBRANCH   9  13
BRANCH   4  28
HETATM   28  C   UNL     1      -6.341  -1.649 -33.655  1.00  0.00     0.060 A 
HETATM   29  C   UNL     1      -7.217  -2.588 -34.211  1.00  0.00     0.031 A 
HETATM   30  C   UNL     1      -6.719  -3.640 -34.986  1.00  0.00     0.002 A 
HETATM   31  C   UNL     1      -5.348  -3.764 -35.205  1.00  0.00     0.000 A 
HETATM   32  C   UNL     1      -4.467  -2.848 -34.636  1.00  0.00     0.002 A 
HETATM   33  C   UNL     1      -4.958  -1.799 -33.855  1.00  0.00     0.031 A 
ENDBRANCH   4  28
TORSDOF 4
ENDMDL
