MODEL 1
REMARK VINA RESULT:      -9.5      0.000      0.000
REMARK  5 active torsions:
REMARK  status: ('A' for Active; 'I' for Inactive)
REMARK    1  A    between atoms: C_4  and  C_5 
REMARK       I    between atoms: C_5  and  N_6 
REMARK    2  A    between atoms: N_6  and  C_7 
REMARK    3  A    between atoms: C_7  and  C_8 
REMARK       I    between atoms: C_8  and  N_9 
REMARK    4  A    between atoms: N_9  and  C_10 
REMARK    5  A    between atoms: C_13  and  C_14 
ROOT
HETATM    1  C   UNL     1      -6.636   4.094 -33.892  1.00  0.00     0.241 C 
HETATM    2  N   UNL     1      -5.319   3.823 -33.604  1.00  0.00    -0.304 N 
HETATM    3  O   UNL     1      -7.138   5.204 -34.053  1.00  0.00    -0.271 OA
HETATM    4  H   UNL     1      -5.052   2.880 -33.345  1.00  0.00     0.171 HD
ENDROOT
BRANCH   2   5
HETATM    5  C   UNL     1      -4.359   4.783 -33.487  1.00  0.00     0.173 A 
HETATM    6  S   UNL     1      -3.627   5.205 -34.971  1.00  0.00    -0.061 SA
HETATM    7  C   UNL     1      -2.606   6.299 -34.130  1.00  0.00     0.086 A 
HETATM    8  C   UNL     1      -2.895   6.265 -32.780  1.00  0.00     0.078 A 
HETATM    9  N   UNL     1      -3.921   5.404 -32.424  1.00  0.00    -0.223 NA
BRANCH   8  10
HETATM   10  C   UNL     1      -2.191   6.965 -31.700  1.00  0.00     0.021 A 
HETATM   11  C   UNL     1      -1.168   6.455 -30.840  1.00  0.00     0.004 A 
HETATM   12  C   UNL     1      -0.865   7.476 -29.931  1.00  0.00     0.043 A 
HETATM   13  C   UNL     1      -0.452   5.242 -30.726  1.00  0.00     0.014 A 
HETATM   14  C   UNL     1       0.083   7.333 -28.909  1.00  0.00     0.030 A 
HETATM   15  N   UNL     1      -1.646   8.562 -30.256  1.00  0.00    -0.364 N 
HETATM   16  C   UNL     1       0.759   6.115 -28.813  1.00  0.00     0.002 A 
HETATM   17  C   UNL     1       0.502   5.085 -29.712  1.00  0.00     0.001 A 
HETATM   18  H   UNL     1      -1.630   9.447 -29.769  1.00  0.00     0.165 HD
HETATM   19  C   UNL     1      -2.438   8.270 -31.326  1.00  0.00     0.103 A 
ENDBRANCH   8  10
ENDBRANCH   2   5
BRANCH   1  20
HETATM   20  C   UNL     1      -7.538   2.848 -33.845  1.00  0.00     0.226 C 
BRANCH  20  21
HETATM   21  N   UNL     1      -6.875   1.562 -33.641  1.00  0.00    -0.348 N 
HETATM   22  C   UNL     1      -7.226   0.440 -34.352  1.00  0.00     0.252 C 
HETATM   23  O   UNL     1      -8.256   0.392 -35.017  1.00  0.00    -0.268 OA
HETATM   24  H   UNL     1      -6.117   1.523 -32.972  1.00  0.00     0.163 HD
BRANCH  22  25
HETATM   25  C   UNL     1      -6.361  -0.758 -34.208  1.00  0.00     0.033 A 
HETATM   26  C   UNL     1      -5.240  -0.663 -33.374  1.00  0.00     0.023 A 
HETATM   27  C   UNL     1      -4.400  -1.765 -33.189  1.00  0.00    -0.061 A 
HETATM   28  C   UNL     1      -3.176  -1.660 -32.326  1.00  0.00     0.048 C 
HETATM   29  C   UNL     1      -4.696  -2.964 -33.850  1.00  0.00     0.013 A 
HETATM   30  C   UNL     1      -5.832  -3.081 -34.665  1.00  0.00    -0.061 A 
HETATM   31  C   UNL     1      -6.661  -1.966 -34.849  1.00  0.00     0.023 A 
HETATM   32  C   UNL     1      -6.130  -4.384 -35.346  1.00  0.00     0.048 C 
ENDBRANCH  22  25
ENDBRANCH  20  21
ENDBRANCH   1  20
TORSDOF 5
ENDMDL
MODEL 2
REMARK VINA RESULT:      -9.5      1.451      2.054
REMARK  5 active torsions:
REMARK  status: ('A' for Active; 'I' for Inactive)
REMARK    1  A    between atoms: C_4  and  C_5 
REMARK       I    between atoms: C_5  and  N_6 
REMARK    2  A    between atoms: N_6  and  C_7 
REMARK    3  A    between atoms: C_7  and  C_8 
REMARK       I    between atoms: C_8  and  N_9 
REMARK    4  A    between atoms: N_9  and  C_10 
REMARK    5  A    between atoms: C_13  and  C_14 
ROOT
HETATM    1  C   UNL     1      -5.454   4.037 -33.032  1.00  0.00     0.241 C 
HETATM    2  N   UNL     1      -4.181   3.520 -33.074  1.00  0.00    -0.304 N 
HETATM    3  O   UNL     1      -5.775   5.167 -32.671  1.00  0.00    -0.271 OA
HETATM    4  H   UNL     1      -4.054   2.529 -33.246  1.00  0.00     0.171 HD
ENDROOT
BRANCH   2   5
HETATM    5  C   UNL     1      -3.067   4.230 -32.740  1.00  0.00     0.173 A 
HETATM    6  S   UNL     1      -2.284   4.947 -34.079  1.00  0.00    -0.061 SA
HETATM    7  C   UNL     1      -1.080   5.558 -33.019  1.00  0.00     0.086 A 
HETATM    8  C   UNL     1      -1.359   5.172 -31.722  1.00  0.00     0.078 A 
HETATM    9  N   UNL     1      -2.518   4.426 -31.572  1.00  0.00    -0.223 NA
BRANCH   8  10
HETATM   10  C   UNL     1      -0.535   5.394 -30.529  1.00  0.00     0.021 A 
HETATM   11  C   UNL     1      -0.498   6.549 -29.687  1.00  0.00     0.004 A 
HETATM   12  C   UNL     1       0.493   6.311 -28.726  1.00  0.00     0.043 A 
HETATM   13  C   UNL     1      -1.195   7.776 -29.619  1.00  0.00     0.014 A 
HETATM   14  C   UNL     1       0.836   7.241 -27.735  1.00  0.00     0.030 A 
HETATM   15  N   UNL     1       1.000   5.054 -28.961  1.00  0.00    -0.364 N 
HETATM   16  C   UNL     1       0.139   8.451 -27.708  1.00  0.00     0.002 A 
HETATM   17  C   UNL     1      -0.867   8.715 -28.631  1.00  0.00     0.001 A 
HETATM   18  H   UNL     1       1.727   4.616 -28.411  1.00  0.00     0.165 HD
HETATM   19  C   UNL     1       0.381   4.488 -30.036  1.00  0.00     0.103 A 
ENDBRANCH   8  10
ENDBRANCH   2   5
BRANCH   1  20
HETATM   20  C   UNL     1      -6.545   2.994 -33.336  1.00  0.00     0.226 C 
BRANCH  20  21
HETATM   21  N   UNL     1      -6.164   1.589 -33.218  1.00  0.00    -0.348 N 
HETATM   22  C   UNL     1      -6.406   0.681 -34.221  1.00  0.00     0.252 C 
HETATM   23  O   UNL     1      -7.157   0.938 -35.157  1.00  0.00    -0.268 OA
HETATM   24  H   UNL     1      -5.681   1.300 -32.377  1.00  0.00     0.163 HD
BRANCH  22  25
HETATM   25  C   UNL     1      -5.805  -0.668 -34.080  1.00  0.00     0.033 A 
HETATM   26  C   UNL     1      -4.762  -0.831 -33.159  1.00  0.00     0.023 A 
HETATM   27  C   UNL     1      -4.170  -2.084 -32.975  1.00  0.00    -0.061 A 
HETATM   28  C   UNL     1      -3.027  -2.257 -32.017  1.00  0.00     0.048 C 
HETATM   29  C   UNL     1      -4.635  -3.173 -33.723  1.00  0.00     0.013 A 
HETATM   30  C   UNL     1      -5.698  -3.029 -34.626  1.00  0.00    -0.061 A 
HETATM   31  C   UNL     1      -6.277  -1.767 -34.809  1.00  0.00     0.023 A 
HETATM   32  C   UNL     1      -6.183  -4.220 -35.401  1.00  0.00     0.048 C 
ENDBRANCH  22  25
ENDBRANCH  20  21
ENDBRANCH   1  20
TORSDOF 5
ENDMDL
MODEL 3
REMARK VINA RESULT:      -9.3      1.507      2.637
REMARK  5 active torsions:
REMARK  status: ('A' for Active; 'I' for Inactive)
REMARK    1  A    between atoms: C_4  and  C_5 
REMARK       I    between atoms: C_5  and  N_6 
REMARK    2  A    between atoms: N_6  and  C_7 
REMARK    3  A    between atoms: C_7  and  C_8 
REMARK       I    between atoms: C_8  and  N_9 
REMARK    4  A    between atoms: N_9  and  C_10 
REMARK    5  A    between atoms: C_13  and  C_14 
ROOT
HETATM    1  C   UNL     1      -5.308   3.888 -32.993  1.00  0.00     0.241 C 
HETATM    2  N   UNL     1      -3.998   3.506 -33.160  1.00  0.00    -0.304 N 
HETATM    3  O   UNL     1      -5.709   4.920 -32.461  1.00  0.00    -0.271 OA
HETATM    4  H   UNL     1      -3.792   2.566 -33.478  1.00  0.00     0.171 HD
ENDROOT
BRANCH   2   5
HETATM    5  C   UNL     1      -2.935   4.266 -32.771  1.00  0.00     0.173 A 
HETATM    6  S   UNL     1      -2.218   5.145 -34.047  1.00  0.00    -0.061 SA
HETATM    7  C   UNL     1      -1.053   5.753 -32.943  1.00  0.00     0.086 A 
HETATM    8  C   UNL     1      -1.293   5.243 -31.682  1.00  0.00     0.078 A 
HETATM    9  N   UNL     1      -2.393   4.404 -31.591  1.00  0.00    -0.223 NA
BRANCH   8  10
HETATM   10  C   UNL     1      -0.477   5.426 -30.477  1.00  0.00     0.021 A 
HETATM   11  C   UNL     1      -0.415   6.570 -29.621  1.00  0.00     0.004 A 
HETATM   12  C   UNL     1       0.556   6.291 -28.651  1.00  0.00     0.043 A 
HETATM   13  C   UNL     1      -1.075   7.817 -29.546  1.00  0.00     0.014 A 
HETATM   14  C   UNL     1       0.915   7.198 -27.645  1.00  0.00     0.030 A 
HETATM   15  N   UNL     1       1.028   5.021 -28.894  1.00  0.00    -0.364 N 
HETATM   16  C   UNL     1       0.256   8.428 -27.612  1.00  0.00     0.002 A 
HETATM   17  C   UNL     1      -0.730   8.733 -28.544  1.00  0.00     0.001 A 
HETATM   18  H   UNL     1       1.734   4.554 -28.342  1.00  0.00     0.165 HD
HETATM   19  C   UNL     1       0.405   4.486 -29.983  1.00  0.00     0.103 A 
ENDBRANCH   8  10
ENDBRANCH   2   5
BRANCH   1  20
HETATM   20  C   UNL     1      -6.316   2.798 -33.402  1.00  0.00     0.226 C 
BRANCH  20  21
HETATM   21  N   UNL     1      -5.888   1.412 -33.239  1.00  0.00    -0.348 N 
HETATM   22  C   UNL     1      -6.415   0.392 -33.996  1.00  0.00     0.252 C 
HETATM   23  O   UNL     1      -7.427   0.547 -34.673  1.00  0.00    -0.268 OA
HETATM   24  H   UNL     1      -5.160   1.218 -32.564  1.00  0.00     0.163 HD
BRANCH  22  25
HETATM   25  C   UNL     1      -5.772  -0.941 -33.888  1.00  0.00     0.033 A 
HETATM   26  C   UNL     1      -6.230  -1.962 -34.731  1.00  0.00     0.023 A 
HETATM   27  C   UNL     1      -5.649  -3.233 -34.682  1.00  0.00    -0.061 A 
HETATM   28  C   UNL     1      -6.159  -4.342 -35.556  1.00  0.00     0.048 C 
HETATM   29  C   UNL     1      -4.604  -3.470 -33.780  1.00  0.00     0.013 A 
HETATM   30  C   UNL     1      -4.117  -2.448 -32.952  1.00  0.00    -0.061 A 
HETATM   31  C   UNL     1      -4.714  -1.181 -33.003  1.00  0.00     0.023 A 
HETATM   32  C   UNL     1      -2.986  -2.730 -32.007  1.00  0.00     0.048 C 
ENDBRANCH  22  25
ENDBRANCH  20  21
ENDBRANCH   1  20
TORSDOF 5
ENDMDL
MODEL 4
REMARK VINA RESULT:      -9.3      2.916     10.254
REMARK  5 active torsions:
REMARK  status: ('A' for Active; 'I' for Inactive)
REMARK    1  A    between atoms: C_4  and  C_5 
REMARK       I    between atoms: C_5  and  N_6 
REMARK    2  A    between atoms: N_6  and  C_7 
REMARK    3  A    between atoms: C_7  and  C_8 
REMARK       I    between atoms: C_8  and  N_9 
REMARK    4  A    between atoms: N_9  and  C_10 
REMARK    5  A    between atoms: C_13  and  C_14 
ROOT
HETATM    1  C   UNL     1      -2.147   4.506 -32.086  1.00  0.00     0.241 C 
HETATM    2  N   UNL     1      -2.710   3.543 -31.282  1.00  0.00    -0.304 N 
HETATM    3  O   UNL     1      -2.565   4.888 -33.176  1.00  0.00    -0.271 OA
HETATM    4  H   UNL     1      -2.195   3.206 -30.476  1.00  0.00     0.171 HD
ENDROOT
BRANCH   2   5
HETATM    5  C   UNL     1      -3.866   2.888 -31.586  1.00  0.00     0.173 A 
HETATM    6  S   UNL     1      -5.157   3.249 -30.527  1.00  0.00    -0.061 SA
HETATM    7  C   UNL     1      -6.147   2.148 -31.396  1.00  0.00     0.086 A 
HETATM    8  C   UNL     1      -5.424   1.584 -32.429  1.00  0.00     0.078 A 
HETATM    9  N   UNL     1      -4.117   2.035 -32.541  1.00  0.00    -0.223 NA
BRANCH   8  10
HETATM   10  C   UNL     1      -5.858   0.525 -33.346  1.00  0.00     0.021 A 
HETATM   11  C   UNL     1      -5.304  -0.785 -33.502  1.00  0.00     0.004 A 
HETATM   12  C   UNL     1      -6.013  -1.397 -34.544  1.00  0.00     0.043 A 
HETATM   13  C   UNL     1      -4.284  -1.535 -32.876  1.00  0.00     0.014 A 
HETATM   14  C   UNL     1      -5.732  -2.690 -35.004  1.00  0.00     0.030 A 
HETATM   15  N   UNL     1      -6.972  -0.505 -34.968  1.00  0.00    -0.364 N 
HETATM   16  C   UNL     1      -4.705  -3.396 -34.375  1.00  0.00     0.002 A 
HETATM   17  C   UNL     1      -3.993  -2.832 -33.321  1.00  0.00     0.001 A 
HETATM   18  H   UNL     1      -7.637  -0.685 -35.707  1.00  0.00     0.165 HD
HETATM   19  C   UNL     1      -6.896   0.649 -34.245  1.00  0.00     0.103 A 
ENDBRANCH   8  10
ENDBRANCH   2   5
BRANCH   1  20
HETATM   20  C   UNL     1      -0.780   5.000 -31.577  1.00  0.00     0.226 C 
BRANCH  20  21
HETATM   21  N   UNL     1      -0.796   6.024 -30.536  1.00  0.00    -0.348 N 
HETATM   22  C   UNL     1       0.114   6.031 -29.506  1.00  0.00     0.252 C 
HETATM   23  O   UNL     1       0.830   5.063 -29.270  1.00  0.00    -0.268 OA
HETATM   24  H   UNL     1      -1.488   6.759 -30.607  1.00  0.00     0.163 HD
BRANCH  22  25
HETATM   25  C   UNL     1       0.132   7.221 -28.619  1.00  0.00     0.033 A 
HETATM   26  C   UNL     1       1.117   7.285 -27.625  1.00  0.00     0.023 A 
HETATM   27  C   UNL     1       1.189   8.391 -26.772  1.00  0.00    -0.061 A 
HETATM   28  C   UNL     1       2.218   8.449 -25.680  1.00  0.00     0.048 C 
HETATM   29  C   UNL     1       0.265   9.432 -26.926  1.00  0.00     0.013 A 
HETATM   30  C   UNL     1      -0.707   9.393 -27.937  1.00  0.00    -0.061 A 
HETATM   31  C   UNL     1      -0.776   8.275 -28.780  1.00  0.00     0.023 A 
HETATM   32  C   UNL     1      -1.673  10.531 -28.086  1.00  0.00     0.048 C 
ENDBRANCH  22  25
ENDBRANCH  20  21
ENDBRANCH   1  20
TORSDOF 5
ENDMDL
MODEL 5
REMARK VINA RESULT:      -9.2      2.847     10.168
REMARK  5 active torsions:
REMARK  status: ('A' for Active; 'I' for Inactive)
REMARK    1  A    between atoms: C_4  and  C_5 
REMARK       I    between atoms: C_5  and  N_6 
REMARK    2  A    between atoms: N_6  and  C_7 
REMARK    3  A    between atoms: C_7  and  C_8 
REMARK       I    between atoms: C_8  and  N_9 
REMARK    4  A    between atoms: N_9  and  C_10 
REMARK    5  A    between atoms: C_13  and  C_14 
ROOT
HETATM    1  C   UNL     1      -2.252   5.115 -33.015  1.00  0.00     0.241 C 
HETATM    2  N   UNL     1      -2.319   4.275 -31.928  1.00  0.00    -0.304 N 
HETATM    3  O   UNL     1      -2.864   4.995 -34.073  1.00  0.00    -0.271 OA
HETATM    4  H   UNL     1      -1.655   4.391 -31.170  1.00  0.00     0.171 HD
ENDROOT
BRANCH   2   5
HETATM    5  C   UNL     1      -3.128   3.181 -31.869  1.00  0.00     0.173 A 
HETATM    6  S   UNL     1      -4.555   3.432 -30.964  1.00  0.00    -0.061 SA
HETATM    7  C   UNL     1      -4.998   1.798 -31.252  1.00  0.00     0.086 A 
HETATM    8  C   UNL     1      -4.029   1.179 -32.016  1.00  0.00     0.078 A 
HETATM    9  N   UNL     1      -2.967   1.992 -32.383  1.00  0.00    -0.223 NA
BRANCH   8  10
HETATM   10  C   UNL     1      -3.965  -0.235 -32.400  1.00  0.00     0.021 A 
HETATM   11  C   UNL     1      -4.808  -0.937 -33.319  1.00  0.00     0.004 A 
HETATM   12  C   UNL     1      -4.398  -2.275 -33.295  1.00  0.00     0.043 A 
HETATM   13  C   UNL     1      -5.875  -0.594 -34.179  1.00  0.00     0.014 A 
HETATM   14  C   UNL     1      -5.015  -3.278 -34.055  1.00  0.00     0.030 A 
HETATM   15  N   UNL     1      -3.333  -2.364 -32.429  1.00  0.00    -0.364 N 
HETATM   16  C   UNL     1      -6.078  -2.908 -34.881  1.00  0.00     0.002 A 
HETATM   17  C   UNL     1      -6.500  -1.584 -34.949  1.00  0.00     0.001 A 
HETATM   18  H   UNL     1      -2.829  -3.216 -32.222  1.00  0.00     0.165 HD
HETATM   19  C   UNL     1      -3.056  -1.140 -31.894  1.00  0.00     0.103 A 
ENDBRANCH   8  10
ENDBRANCH   2   5
BRANCH   1  20
HETATM   20  C   UNL     1      -1.170   6.202 -32.878  1.00  0.00     0.226 C 
BRANCH  20  21
HETATM   21  N   UNL     1      -1.145   6.951 -31.625  1.00  0.00    -0.348 N 
HETATM   22  C   UNL     1      -0.260   6.655 -30.615  1.00  0.00     0.252 C 
HETATM   23  O   UNL     1       0.386   5.612 -30.609  1.00  0.00    -0.268 OA
HETATM   24  H   UNL     1      -1.786   7.727 -31.526  1.00  0.00     0.163 HD
BRANCH  22  25
HETATM   25  C   UNL     1      -0.187   7.598 -29.472  1.00  0.00     0.033 A 
HETATM   26  C   UNL     1      -1.230   8.520 -29.313  1.00  0.00     0.023 A 
HETATM   27  C   UNL     1      -1.220   9.422 -28.244  1.00  0.00    -0.061 A 
HETATM   28  C   UNL     1      -2.315  10.437 -28.089  1.00  0.00     0.048 C 
HETATM   29  C   UNL     1      -0.154   9.389 -27.336  1.00  0.00     0.013 A 
HETATM   30  C   UNL     1       0.880   8.451 -27.468  1.00  0.00    -0.061 A 
HETATM   31  C   UNL     1       0.864   7.559 -28.548  1.00  0.00     0.023 A 
HETATM   32  C   UNL     1       2.000   8.431 -26.468  1.00  0.00     0.048 C 
ENDBRANCH  22  25
ENDBRANCH  20  21
ENDBRANCH   1  20
TORSDOF 5
ENDMDL
MODEL 6
REMARK VINA RESULT:      -9.1      2.521      3.291
REMARK  5 active torsions:
REMARK  status: ('A' for Active; 'I' for Inactive)
REMARK    1  A    between atoms: C_4  and  C_5 
REMARK       I    between atoms: C_5  and  N_6 
REMARK    2  A    between atoms: N_6  and  C_7 
REMARK    3  A    between atoms: C_7  and  C_8 
REMARK       I    between atoms: C_8  and  N_9 
REMARK    4  A    between atoms: N_9  and  C_10 
REMARK    5  A    between atoms: C_13  and  C_14 
ROOT
HETATM    1  C   UNL     1      -9.097   2.482 -31.955  1.00  0.00     0.241 C 
HETATM    2  N   UNL     1      -8.439   3.177 -32.941  1.00  0.00    -0.304 N 
HETATM    3  O   UNL     1      -9.171   2.786 -30.767  1.00  0.00    -0.271 OA
HETATM    4  H   UNL     1      -8.321   2.751 -33.854  1.00  0.00     0.171 HD
ENDROOT
BRANCH   2   5
HETATM    5  C   UNL     1      -7.788   4.355 -32.728  1.00  0.00     0.173 A 
HETATM    6  S   UNL     1      -8.824   5.713 -32.684  1.00  0.00    -0.061 SA
HETATM    7  C   UNL     1      -7.454   6.722 -32.459  1.00  0.00     0.086 A 
HETATM    8  C   UNL     1      -6.306   5.954 -32.434  1.00  0.00     0.078 A 
HETATM    9  N   UNL     1      -6.514   4.590 -32.569  1.00  0.00    -0.223 NA
BRANCH   8  10
HETATM   10  C   UNL     1      -4.919   6.426 -32.366  1.00  0.00     0.021 A 
HETATM   11  C   UNL     1      -3.831   6.089 -33.230  1.00  0.00     0.004 A 
HETATM   12  C   UNL     1      -2.698   6.734 -32.717  1.00  0.00     0.043 A 
HETATM   13  C   UNL     1      -3.668   5.313 -34.400  1.00  0.00     0.014 A 
HETATM   14  C   UNL     1      -1.425   6.616 -33.290  1.00  0.00     0.030 A 
HETATM   15  N   UNL     1      -3.099   7.455 -31.615  1.00  0.00    -0.364 N 
HETATM   16  C   UNL     1      -1.297   5.826 -34.435  1.00  0.00     0.002 A 
HETATM   17  C   UNL     1      -2.403   5.188 -34.988  1.00  0.00     0.001 A 
HETATM   18  H   UNL     1      -2.488   8.027 -31.049  1.00  0.00     0.165 HD
HETATM   19  C   UNL     1      -4.436   7.287 -31.402  1.00  0.00     0.103 A 
ENDBRANCH   8  10
ENDBRANCH   2   5
BRANCH   1  20
HETATM   20  C   UNL     1      -9.642   1.122 -32.430  1.00  0.00     0.226 C 
BRANCH  20  21
HETATM   21  N   UNL     1      -8.659   0.075 -32.694  1.00  0.00    -0.348 N 
HETATM   22  C   UNL     1      -8.026  -0.041 -33.909  1.00  0.00     0.252 C 
HETATM   23  O   UNL     1      -8.415   0.568 -34.901  1.00  0.00    -0.268 OA
HETATM   24  H   UNL     1      -8.429  -0.558 -31.940  1.00  0.00     0.163 HD
BRANCH  22  25
HETATM   25  C   UNL     1      -6.908  -1.012 -34.006  1.00  0.00     0.033 A 
HETATM   26  C   UNL     1      -5.689  -0.673 -33.405  1.00  0.00     0.023 A 
HETATM   27  C   UNL     1      -4.607  -1.558 -33.453  1.00  0.00    -0.061 A 
HETATM   28  C   UNL     1      -3.286  -1.186 -32.844  1.00  0.00     0.048 C 
HETATM   29  C   UNL     1      -4.760  -2.786 -34.108  1.00  0.00     0.013 A 
HETATM   30  C   UNL     1      -5.985  -3.149 -34.688  1.00  0.00    -0.061 A 
HETATM   31  C   UNL     1      -7.059  -2.250 -34.642  1.00  0.00     0.023 A 
HETATM   32  C   UNL     1      -6.122  -4.479 -35.369  1.00  0.00     0.048 C 
ENDBRANCH  22  25
ENDBRANCH  20  21
ENDBRANCH   1  20
TORSDOF 5
ENDMDL
MODEL 7
REMARK VINA RESULT:      -9.0      2.025      9.260
REMARK  5 active torsions:
REMARK  status: ('A' for Active; 'I' for Inactive)
REMARK    1  A    between atoms: C_4  and  C_5 
REMARK       I    between atoms: C_5  and  N_6 
REMARK    2  A    between atoms: N_6  and  C_7 
REMARK    3  A    between atoms: C_7  and  C_8 
REMARK       I    between atoms: C_8  and  N_9 
REMARK    4  A    between atoms: N_9  and  C_10 
REMARK    5  A    between atoms: C_13  and  C_14 
ROOT
HETATM    1  C   UNL     1      -6.005   4.575 -33.254  1.00  0.00     0.241 C 
HETATM    2  N   UNL     1      -5.764   3.597 -32.320  1.00  0.00    -0.304 N 
HETATM    3  O   UNL     1      -6.452   4.414 -34.386  1.00  0.00    -0.271 OA
HETATM    4  H   UNL     1      -5.254   3.832 -31.475  1.00  0.00     0.171 HD
ENDROOT
BRANCH   2   5
HETATM    5  C   UNL     1      -6.030   2.276 -32.524  1.00  0.00     0.173 A 
HETATM    6  S   UNL     1      -7.662   1.854 -32.249  1.00  0.00    -0.061 SA
HETATM    7  C   UNL     1      -7.277   0.220 -32.609  1.00  0.00     0.086 A 
HETATM    8  C   UNL     1      -5.934   0.112 -32.913  1.00  0.00     0.078 A 
HETATM    9  N   UNL     1      -5.230   1.307 -32.881  1.00  0.00    -0.223 NA
BRANCH   8  10
HETATM   10  C   UNL     1      -5.176  -1.115 -33.176  1.00  0.00     0.021 A 
HETATM   11  C   UNL     1      -5.607  -2.281 -33.883  1.00  0.00     0.004 A 
HETATM   12  C   UNL     1      -4.557  -3.205 -33.809  1.00  0.00     0.043 A 
HETATM   13  C   UNL     1      -6.769  -2.667 -34.590  1.00  0.00     0.014 A 
HETATM   14  C   UNL     1      -4.625  -4.487 -34.370  1.00  0.00     0.030 A 
HETATM   15  N   UNL     1      -3.529  -2.604 -33.119  1.00  0.00    -0.364 N 
HETATM   16  C   UNL     1      -5.794  -4.842 -35.045  1.00  0.00     0.002 A 
HETATM   17  C   UNL     1      -6.850  -3.944 -35.160  1.00  0.00     0.001 A 
HETATM   18  H   UNL     1      -2.638  -3.039 -32.921  1.00  0.00     0.165 HD
HETATM   19  C   UNL     1      -3.885  -1.342 -32.744  1.00  0.00     0.103 A 
ENDBRANCH   8  10
ENDBRANCH   2   5
BRANCH   1  20
HETATM   20  C   UNL     1      -5.501   5.965 -32.823  1.00  0.00     0.226 C 
BRANCH  20  21
HETATM   21  N   UNL     1      -4.292   6.002 -32.005  1.00  0.00    -0.348 N 
HETATM   22  C   UNL     1      -3.036   6.035 -32.560  1.00  0.00     0.252 C 
HETATM   23  O   UNL     1      -2.849   5.798 -33.750  1.00  0.00    -0.268 OA
HETATM   24  H   UNL     1      -4.403   6.033 -30.999  1.00  0.00     0.163 HD
BRANCH  22  25
HETATM   25  C   UNL     1      -1.891   6.270 -31.646  1.00  0.00     0.033 A 
HETATM   26  C   UNL     1      -1.986   7.325 -30.730  1.00  0.00     0.023 A 
HETATM   27  C   UNL     1      -0.943   7.581 -29.835  1.00  0.00    -0.061 A 
HETATM   28  C   UNL     1      -1.022   8.734 -28.877  1.00  0.00     0.048 C 
HETATM   29  C   UNL     1       0.197   6.767 -29.867  1.00  0.00     0.013 A 
HETATM   30  C   UNL     1       0.291   5.689 -30.759  1.00  0.00    -0.061 A 
HETATM   31  C   UNL     1      -0.757   5.448 -31.657  1.00  0.00     0.023 A 
HETATM   32  C   UNL     1       1.519   4.826 -30.757  1.00  0.00     0.048 C 
ENDBRANCH  22  25
ENDBRANCH  20  21
ENDBRANCH   1  20
TORSDOF 5
ENDMDL
MODEL 8
REMARK VINA RESULT:      -8.9      2.871     10.360
REMARK  5 active torsions:
REMARK  status: ('A' for Active; 'I' for Inactive)
REMARK    1  A    between atoms: C_4  and  C_5 
REMARK       I    between atoms: C_5  and  N_6 
REMARK    2  A    between atoms: N_6  and  C_7 
REMARK    3  A    between atoms: C_7  and  C_8 
REMARK       I    between atoms: C_8  and  N_9 
REMARK    4  A    between atoms: N_9  and  C_10 
REMARK    5  A    between atoms: C_13  and  C_14 
ROOT
HETATM    1  C   UNL     1      -3.319   3.636 -31.756  1.00  0.00     0.241 C 
HETATM    2  N   UNL     1      -4.506   3.337 -32.382  1.00  0.00    -0.304 N 
HETATM    3  O   UNL     1      -2.563   2.843 -31.200  1.00  0.00    -0.271 OA
HETATM    4  H   UNL     1      -5.117   4.093 -32.674  1.00  0.00     0.171 HD
ENDROOT
BRANCH   2   5
HETATM    5  C   UNL     1      -4.999   2.073 -32.501  1.00  0.00     0.173 A 
HETATM    6  S   UNL     1      -6.649   1.938 -32.080  1.00  0.00    -0.061 SA
HETATM    7  C   UNL     1      -6.566   0.251 -32.389  1.00  0.00     0.086 A 
HETATM    8  C   UNL     1      -5.289  -0.089 -32.790  1.00  0.00     0.078 A 
HETATM    9  N   UNL     1      -4.401   0.973 -32.872  1.00  0.00    -0.223 NA
BRANCH   8  10
HETATM   10  C   UNL     1      -4.766  -1.434 -33.053  1.00  0.00     0.021 A 
HETATM   11  C   UNL     1      -5.351  -2.466 -33.852  1.00  0.00     0.004 A 
HETATM   12  C   UNL     1      -4.514  -3.583 -33.737  1.00  0.00     0.043 A 
HETATM   13  C   UNL     1      -6.496  -2.587 -34.671  1.00  0.00     0.014 A 
HETATM   14  C   UNL     1      -4.780  -4.806 -34.367  1.00  0.00     0.030 A 
HETATM   15  N   UNL     1      -3.456  -3.223 -32.934  1.00  0.00    -0.364 N 
HETATM   16  C   UNL     1      -5.930  -4.896 -35.154  1.00  0.00     0.002 A 
HETATM   17  C   UNL     1      -6.774  -3.802 -35.311  1.00  0.00     0.001 A 
HETATM   18  H   UNL     1      -2.689  -3.834 -32.686  1.00  0.00     0.165 HD
HETATM   19  C   UNL     1      -3.590  -1.928 -32.527  1.00  0.00     0.103 A 
ENDBRANCH   8  10
ENDBRANCH   2   5
BRANCH   1  20
HETATM   20  C   UNL     1      -3.052   5.148 -31.648  1.00  0.00     0.226 C 
BRANCH  20  21
HETATM   21  N   UNL     1      -2.463   5.626 -30.400  1.00  0.00    -0.348 N 
HETATM   22  C   UNL     1      -1.611   6.704 -30.361  1.00  0.00     0.252 C 
HETATM   23  O   UNL     1      -1.116   7.173 -31.381  1.00  0.00    -0.268 OA
HETATM   24  H   UNL     1      -2.723   5.154 -29.544  1.00  0.00     0.163 HD
BRANCH  22  25
HETATM   25  C   UNL     1      -1.228   7.224 -29.025  1.00  0.00     0.033 A 
HETATM   26  C   UNL     1       0.047   7.785 -28.879  1.00  0.00     0.023 A 
HETATM   27  C   UNL     1       0.454   8.304 -27.646  1.00  0.00    -0.061 A 
HETATM   28  C   UNL     1       1.833   8.872 -27.472  1.00  0.00     0.048 C 
HETATM   29  C   UNL     1      -0.431   8.256 -26.561  1.00  0.00     0.013 A 
HETATM   30  C   UNL     1      -1.721   7.724 -26.703  1.00  0.00    -0.061 A 
HETATM   31  C   UNL     1      -2.114   7.199 -27.941  1.00  0.00     0.023 A 
HETATM   32  C   UNL     1      -2.651   7.703 -25.526  1.00  0.00     0.048 C 
ENDBRANCH  22  25
ENDBRANCH  20  21
ENDBRANCH   1  20
TORSDOF 5
ENDMDL
MODEL 9
REMARK VINA RESULT:      -8.9      1.429      2.287
REMARK  5 active torsions:
REMARK  status: ('A' for Active; 'I' for Inactive)
REMARK    1  A    between atoms: C_4  and  C_5 
REMARK       I    between atoms: C_5  and  N_6 
REMARK    2  A    between atoms: N_6  and  C_7 
REMARK    3  A    between atoms: C_7  and  C_8 
REMARK       I    between atoms: C_8  and  N_9 
REMARK    4  A    between atoms: N_9  and  C_10 
REMARK    5  A    between atoms: C_13  and  C_14 
ROOT
HETATM    1  C   UNL     1      -4.941   3.701 -32.902  1.00  0.00     0.241 C 
HETATM    2  N   UNL     1      -4.704   4.821 -33.663  1.00  0.00    -0.304 N 
HETATM    3  O   UNL     1      -4.397   3.408 -31.840  1.00  0.00    -0.271 OA
HETATM    4  H   UNL     1      -5.103   4.882 -34.593  1.00  0.00     0.171 HD
ENDROOT
BRANCH   2   5
HETATM    5  C   UNL     1      -3.828   5.803 -33.309  1.00  0.00     0.173 A 
HETATM    6  S   UNL     1      -2.556   6.023 -34.428  1.00  0.00    -0.061 SA
HETATM    7  C   UNL     1      -1.901   7.240 -33.410  1.00  0.00     0.086 A 
HETATM    8  C   UNL     1      -2.697   7.392 -32.291  1.00  0.00     0.078 A 
HETATM    9  N   UNL     1      -3.815   6.573 -32.254  1.00  0.00    -0.223 NA
BRANCH   8  10
HETATM   10  C   UNL     1      -2.444   8.248 -31.127  1.00  0.00     0.021 A 
HETATM   11  C   UNL     1      -1.396   8.132 -30.160  1.00  0.00     0.004 A 
HETATM   12  C   UNL     1      -1.619   9.135 -29.208  1.00  0.00     0.043 A 
HETATM   13  C   UNL     1      -0.272   7.295 -29.979  1.00  0.00     0.014 A 
HETATM   14  C   UNL     1      -0.802   9.316 -28.084  1.00  0.00     0.030 A 
HETATM   15  N   UNL     1      -2.730   9.842 -29.607  1.00  0.00    -0.364 N 
HETATM   16  C   UNL     1       0.290   8.460 -27.926  1.00  0.00     0.002 A 
HETATM   17  C   UNL     1       0.557   7.467 -28.863  1.00  0.00     0.001 A 
HETATM   18  H   UNL     1      -3.117  10.632 -29.110  1.00  0.00     0.165 HD
HETATM   19  C   UNL     1      -3.227   9.325 -30.767  1.00  0.00     0.103 A 
ENDBRANCH   8  10
ENDBRANCH   2   5
BRANCH   1  20
HETATM   20  C   UNL     1      -5.879   2.689 -33.584  1.00  0.00     0.226 C 
BRANCH  20  21
HETATM   21  N   UNL     1      -5.576   1.274 -33.389  1.00  0.00    -0.348 N 
HETATM   22  C   UNL     1      -6.105   0.297 -34.197  1.00  0.00     0.252 C 
HETATM   23  O   UNL     1      -7.034   0.527 -34.966  1.00  0.00    -0.268 OA
HETATM   24  H   UNL     1      -4.932   1.027 -32.649  1.00  0.00     0.163 HD
BRANCH  22  25
HETATM   25  C   UNL     1      -5.579  -1.081 -34.036  1.00  0.00     0.033 A 
HETATM   26  C   UNL     1      -6.106  -2.086 -34.857  1.00  0.00     0.023 A 
HETATM   27  C   UNL     1      -5.635  -3.400 -34.758  1.00  0.00    -0.061 A 
HETATM   28  C   UNL     1      -6.222  -4.489 -35.608  1.00  0.00     0.048 C 
HETATM   29  C   UNL     1      -4.630  -3.694 -33.829  1.00  0.00     0.013 A 
HETATM   30  C   UNL     1      -4.073  -2.691 -33.023  1.00  0.00    -0.061 A 
HETATM   31  C   UNL     1      -4.559  -1.380 -33.124  1.00  0.00     0.023 A 
HETATM   32  C   UNL     1      -2.985  -3.036 -32.048  1.00  0.00     0.048 C 
ENDBRANCH  22  25
ENDBRANCH  20  21
ENDBRANCH   1  20
TORSDOF 5
ENDMDL
MODEL 10
REMARK VINA RESULT:      -8.9      1.830      2.182
REMARK  5 active torsions:
REMARK  status: ('A' for Active; 'I' for Inactive)
REMARK    1  A    between atoms: C_4  and  C_5 
REMARK       I    between atoms: C_5  and  N_6 
REMARK    2  A    between atoms: N_6  and  C_7 
REMARK    3  A    between atoms: C_7  and  C_8 
REMARK       I    between atoms: C_8  and  N_9 
REMARK    4  A    between atoms: N_9  and  C_10 
REMARK    5  A    between atoms: C_13  and  C_14 
ROOT
HETATM    1  C   UNL     1      -7.532   2.719 -31.491  1.00  0.00     0.241 C 
HETATM    2  N   UNL     1      -6.805   3.328 -32.486  1.00  0.00    -0.304 N 
HETATM    3  O   UNL     1      -7.435   2.920 -30.283  1.00  0.00    -0.271 OA
HETATM    4  H   UNL     1      -6.867   2.973 -33.434  1.00  0.00     0.171 HD
ENDROOT
BRANCH   2   5
HETATM    5  C   UNL     1      -5.872   4.294 -32.255  1.00  0.00     0.173 A 
HETATM    6  S   UNL     1      -6.478   5.883 -32.407  1.00  0.00    -0.061 SA
HETATM    7  C   UNL     1      -4.909   6.490 -32.068  1.00  0.00     0.086 A 
HETATM    8  C   UNL     1      -4.035   5.440 -31.864  1.00  0.00     0.078 A 
HETATM    9  N   UNL     1      -4.607   4.180 -31.953  1.00  0.00    -0.223 NA
BRANCH   8  10
HETATM   10  C   UNL     1      -2.586   5.515 -31.651  1.00  0.00     0.021 A 
HETATM   11  C   UNL     1      -1.880   6.269 -30.661  1.00  0.00     0.004 A 
HETATM   12  C   UNL     1      -0.515   6.070 -30.906  1.00  0.00     0.043 A 
HETATM   13  C   UNL     1      -2.235   7.098 -29.574  1.00  0.00     0.014 A 
HETATM   14  C   UNL     1       0.495   6.676 -30.148  1.00  0.00     0.030 A 
HETATM   15  N   UNL     1      -0.410   5.206 -31.972  1.00  0.00    -0.364 N 
HETATM   16  C   UNL     1       0.108   7.504 -29.092  1.00  0.00     0.002 A 
HETATM   17  C   UNL     1      -1.237   7.709 -28.803  1.00  0.00     0.001 A 
HETATM   18  H   UNL     1       0.462   4.878 -32.363  1.00  0.00     0.165 HD
HETATM   19  C   UNL     1      -1.650   4.855 -32.420  1.00  0.00     0.103 A 
ENDBRANCH   8  10
ENDBRANCH   2   5
BRANCH   1  20
HETATM   20  C   UNL     1      -8.427   1.577 -32.004  1.00  0.00     0.226 C 
BRANCH  20  21
HETATM   21  N   UNL     1      -7.762   0.325 -32.356  1.00  0.00    -0.348 N 
HETATM   22  C   UNL     1      -7.140   0.145 -33.568  1.00  0.00     0.252 C 
HETATM   23  O   UNL     1      -7.308   0.923 -34.502  1.00  0.00    -0.268 OA
HETATM   24  H   UNL     1      -7.744  -0.411 -31.662  1.00  0.00     0.163 HD
BRANCH  22  25
HETATM   25  C   UNL     1      -6.330  -1.086 -33.744  1.00  0.00     0.033 A 
HETATM   26  C   UNL     1      -5.151  -1.209 -32.998  1.00  0.00     0.023 A 
HETATM   27  C   UNL     1      -4.357  -2.355 -33.112  1.00  0.00    -0.061 A 
HETATM   28  C   UNL     1      -3.073  -2.477 -32.345  1.00  0.00     0.048 C 
HETATM   29  C   UNL     1      -4.759  -3.377 -33.982  1.00  0.00     0.013 A 
HETATM   30  C   UNL     1      -5.954  -3.278 -34.711  1.00  0.00    -0.061 A 
HETATM   31  C   UNL     1      -6.735  -2.121 -34.595  1.00  0.00     0.023 A 
HETATM   32  C   UNL     1      -6.364  -4.398 -35.622  1.00  0.00     0.048 C 
ENDBRANCH  22  25
ENDBRANCH  20  21
ENDBRANCH   1  20
TORSDOF 5
ENDMDL
