MODEL 1
REMARK VINA RESULT:      -8.5      0.000      0.000
REMARK  4 active torsions:
REMARK  status: ('A' for Active; 'I' for Inactive)
REMARK    1  A    between atoms: C_2  and  N_3 
REMARK    2  A    between atoms: C_2  and  C_14 
REMARK    3  A    between atoms: N_3  and  C_6 
REMARK    4  A    between atoms: C_6  and  C_7 
ROOT
HETATM    1  C   UNL     1      -6.415   2.294 -33.715  1.00  0.00     0.048 C 
HETATM    2  C   UNL     1      -7.013   1.165 -34.541  1.00  0.00     0.251 C 
ENDROOT
BRANCH   2   3
HETATM    3  N   UNL     1      -8.445   0.939 -34.117  1.00  0.00    -0.060 N 
HETATM    4  H   UNL     1      -8.842   0.257 -34.786  1.00  0.00     0.278 HD
HETATM    5  H   UNL     1      -8.459   0.404 -33.237  1.00  0.00     0.278 HD
BRANCH   3   6
HETATM    6  C   UNL     1      -9.331   2.122 -34.031  1.00  0.00     0.271 C 
BRANCH   6   7
HETATM    7  C   UNL     1     -10.774   1.723 -34.165  1.00  0.00    -0.033 A 
HETATM    8  C   UNL     1     -11.661   2.503 -34.926  1.00  0.00     0.010 A 
HETATM    9  C   UNL     1     -13.010   2.148 -35.024  1.00  0.00     0.024 A 
HETATM   10  C   UNL     1     -13.480   1.017 -34.362  1.00  0.00     0.034 A 
HETATM   11 CL   UNL     1     -15.138   0.583 -34.484  1.00  0.00    -0.084 Cl
HETATM   12  C   UNL     1     -12.613   0.237 -33.600  1.00  0.00     0.024 A 
HETATM   13  C   UNL     1     -11.265   0.589 -33.498  1.00  0.00     0.010 A 
ENDBRANCH   6   7
ENDBRANCH   3   6
ENDBRANCH   2   3
BRANCH   2  14
HETATM   14  C   UNL     1      -6.233  -0.145 -34.345  1.00  0.00     0.138 A 
HETATM   15  N   UNL     1      -6.751  -1.237 -34.815  1.00  0.00    -0.232 NA
HETATM   16  C   UNL     1      -6.033  -2.436 -34.624  1.00  0.00     0.074 A 
HETATM   17  C   UNL     1      -4.799  -2.476 -33.966  1.00  0.00     0.061 A 
HETATM   18  C   UNL     1      -6.571  -3.632 -35.102  1.00  0.00     0.032 A 
HETATM   19  C   UNL     1      -4.256  -1.202 -33.471  1.00  0.00     0.259 A 
HETATM   20  C   UNL     1      -4.106  -3.676 -33.781  1.00  0.00     0.019 A 
HETATM   21  O   UNL     1      -3.184  -1.115 -32.888  1.00  0.00    -0.267 OA
HETATM   22  N   UNL     1      -5.032  -0.092 -33.700  1.00  0.00    -0.309 N 
HETATM   23  H   UNL     1      -4.624   0.765 -33.344  1.00  0.00     0.170 HD
HETATM   24  C   UNL     1      -4.659  -4.861 -34.263  1.00  0.00     0.001 A 
HETATM   25  C   UNL     1      -5.888  -4.840 -34.922  1.00  0.00     0.002 A 
ENDBRANCH   2  14
TORSDOF 4
ENDMDL
MODEL 2
REMARK VINA RESULT:      -8.4      5.015      8.025
REMARK  4 active torsions:
REMARK  status: ('A' for Active; 'I' for Inactive)
REMARK    1  A    between atoms: C_2  and  N_3 
REMARK    2  A    between atoms: C_2  and  C_14 
REMARK    3  A    between atoms: N_3  and  C_6 
REMARK    4  A    between atoms: C_6  and  C_7 
ROOT
HETATM    1  C   UNL     1      -3.247   0.927 -31.190  1.00  0.00     0.048 C 
HETATM    2  C   UNL     1      -4.210   1.977 -31.726  1.00  0.00     0.251 C 
ENDROOT
BRANCH   2   3
HETATM    3  N   UNL     1      -4.895   1.443 -32.962  1.00  0.00    -0.060 N 
HETATM    4  H   UNL     1      -5.075   2.260 -33.571  1.00  0.00     0.278 HD
HETATM    5  H   UNL     1      -4.217   0.908 -33.522  1.00  0.00     0.278 HD
BRANCH   3   6
HETATM    6  C   UNL     1      -6.149   0.679 -32.777  1.00  0.00     0.271 C 
BRANCH   6   7
HETATM    7  C   UNL     1      -6.068  -0.660 -33.456  1.00  0.00    -0.033 A 
HETATM    8  C   UNL     1      -7.237  -1.317 -33.876  1.00  0.00     0.010 A 
HETATM    9  C   UNL     1      -7.162  -2.577 -34.479  1.00  0.00     0.024 A 
HETATM   10  C   UNL     1      -5.923  -3.187 -34.662  1.00  0.00     0.034 A 
HETATM   11 CL   UNL     1      -5.834  -4.734 -35.403  1.00  0.00    -0.084 Cl
HETATM   12  C   UNL     1      -4.757  -2.548 -34.246  1.00  0.00     0.024 A 
HETATM   13  C   UNL     1      -4.828  -1.291 -33.641  1.00  0.00     0.010 A 
ENDBRANCH   6   7
ENDBRANCH   3   6
ENDBRANCH   2   3
BRANCH   2  14
HETATM   14  C   UNL     1      -3.472   3.273 -32.098  1.00  0.00     0.138 A 
HETATM   15  N   UNL     1      -2.430   3.601 -31.398  1.00  0.00    -0.232 NA
HETATM   16  C   UNL     1      -1.762   4.796 -31.741  1.00  0.00     0.074 A 
HETATM   17  C   UNL     1      -2.178   5.612 -32.799  1.00  0.00     0.061 A 
HETATM   18  C   UNL     1      -0.648   5.186 -30.997  1.00  0.00     0.032 A 
HETATM   19  C   UNL     1      -3.356   5.177 -33.565  1.00  0.00     0.259 A 
HETATM   20  C   UNL     1      -1.507   6.795 -33.118  1.00  0.00     0.019 A 
HETATM   21  O   UNL     1      -3.804   5.806 -34.513  1.00  0.00    -0.267 OA
HETATM   22  N   UNL     1      -3.939   4.005 -33.150  1.00  0.00    -0.309 N 
HETATM   23  H   UNL     1      -4.747   3.739 -33.702  1.00  0.00     0.170 HD
HETATM   24  C   UNL     1      -0.397   7.172 -32.364  1.00  0.00     0.001 A 
HETATM   25  C   UNL     1       0.032   6.370 -31.306  1.00  0.00     0.002 A 
ENDBRANCH   2  14
TORSDOF 4
ENDMDL
MODEL 3
REMARK VINA RESULT:      -8.3      5.127      7.255
REMARK  4 active torsions:
REMARK  status: ('A' for Active; 'I' for Inactive)
REMARK    1  A    between atoms: C_2  and  N_3 
REMARK    2  A    between atoms: C_2  and  C_14 
REMARK    3  A    between atoms: N_3  and  C_6 
REMARK    4  A    between atoms: C_6  and  C_7 
ROOT
HETATM    1  C   UNL     1      -3.108   0.496 -31.208  1.00  0.00     0.048 C 
HETATM    2  C   UNL     1      -3.726   0.931 -32.529  1.00  0.00     0.251 C 
ENDROOT
BRANCH   2   3
HETATM    3  N   UNL     1      -4.673   2.082 -32.282  1.00  0.00    -0.060 N 
HETATM    4  H   UNL     1      -5.629   1.700 -32.393  1.00  0.00     0.278 HD
HETATM    5  H   UNL     1      -4.658   2.326 -31.282  1.00  0.00     0.278 HD
BRANCH   3   6
HETATM    6  C   UNL     1      -4.522   3.290 -33.125  1.00  0.00     0.271 C 
BRANCH   6   7
HETATM    7  C   UNL     1      -3.311   4.081 -32.717  1.00  0.00    -0.033 A 
HETATM    8  C   UNL     1      -3.137   4.478 -31.380  1.00  0.00     0.010 A 
HETATM    9  C   UNL     1      -2.026   5.242 -31.009  1.00  0.00     0.024 A 
HETATM   10  C   UNL     1      -1.087   5.615 -31.967  1.00  0.00     0.034 A 
HETATM   11 CL   UNL     1       0.277   6.553 -31.508  1.00  0.00    -0.084 Cl
HETATM   12  C   UNL     1      -1.250   5.232 -33.297  1.00  0.00     0.024 A 
HETATM   13  C   UNL     1      -2.360   4.471 -33.673  1.00  0.00     0.010 A 
ENDBRANCH   6   7
ENDBRANCH   3   6
ENDBRANCH   2   3
BRANCH   2  14
HETATM   14  C   UNL     1      -4.511  -0.217 -33.183  1.00  0.00     0.138 A 
HETATM   15  N   UNL     1      -3.969  -1.395 -33.195  1.00  0.00    -0.232 NA
HETATM   16  C   UNL     1      -4.692  -2.442 -33.804  1.00  0.00     0.074 A 
HETATM   17  C   UNL     1      -5.956  -2.250 -34.373  1.00  0.00     0.061 A 
HETATM   18  C   UNL     1      -4.129  -3.718 -33.848  1.00  0.00     0.032 A 
HETATM   19  C   UNL     1      -6.525  -0.894 -34.313  1.00  0.00     0.259 A 
HETATM   20  C   UNL     1      -6.654  -3.298 -34.977  1.00  0.00     0.019 A 
HETATM   21  O   UNL     1      -7.623  -0.611 -34.770  1.00  0.00    -0.267 OA
HETATM   22  N   UNL     1      -5.741   0.057 -33.706  1.00  0.00    -0.309 N 
HETATM   23  H   UNL     1      -6.167   0.976 -33.685  1.00  0.00     0.170 HD
HETATM   24  C   UNL     1      -6.077  -4.566 -35.015  1.00  0.00     0.001 A 
HETATM   25  C   UNL     1      -4.818  -4.776 -34.452  1.00  0.00     0.002 A 
ENDBRANCH   2  14
TORSDOF 4
ENDMDL
MODEL 4
REMARK VINA RESULT:      -8.2      4.117      7.069
REMARK  4 active torsions:
REMARK  status: ('A' for Active; 'I' for Inactive)
REMARK    1  A    between atoms: C_2  and  N_3 
REMARK    2  A    between atoms: C_2  and  C_14 
REMARK    3  A    between atoms: N_3  and  C_6 
REMARK    4  A    between atoms: C_6  and  C_7 
ROOT
HETATM    1  C   UNL     1      -8.117   2.334 -31.137  1.00  0.00     0.048 C 
HETATM    2  C   UNL     1      -7.522   2.002 -32.498  1.00  0.00     0.251 C 
ENDROOT
BRANCH   2   3
HETATM    3  N   UNL     1      -7.433   0.502 -32.652  1.00  0.00    -0.060 N 
HETATM    4  H   UNL     1      -6.641   0.195 -32.061  1.00  0.00     0.278 HD
HETATM    5  H   UNL     1      -8.234   0.063 -32.176  1.00  0.00     0.278 HD
BRANCH   3   6
HETATM    6  C   UNL     1      -7.268  -0.041 -34.020  1.00  0.00     0.271 C 
BRANCH   6   7
HETATM    7  C   UNL     1      -6.324  -1.210 -34.023  1.00  0.00    -0.033 A 
HETATM    8  C   UNL     1      -5.078  -1.122 -33.379  1.00  0.00     0.010 A 
HETATM    9  C   UNL     1      -4.188  -2.199 -33.410  1.00  0.00     0.024 A 
HETATM   10  C   UNL     1      -4.534  -3.368 -34.085  1.00  0.00     0.034 A 
HETATM   11 CL   UNL     1      -3.438  -4.690 -34.121  1.00  0.00    -0.084 Cl
HETATM   12  C   UNL     1      -5.763  -3.467 -34.732  1.00  0.00     0.024 A 
HETATM   13  C   UNL     1      -6.655  -2.392 -34.706  1.00  0.00     0.010 A 
ENDBRANCH   6   7
ENDBRANCH   3   6
ENDBRANCH   2   3
BRANCH   2  14
HETATM   14  C   UNL     1      -6.111   2.593 -32.650  1.00  0.00     0.138 A 
HETATM   15  N   UNL     1      -5.935   3.525 -33.535  1.00  0.00    -0.232 NA
HETATM   16  C   UNL     1      -4.636   4.057 -33.673  1.00  0.00     0.074 A 
HETATM   17  C   UNL     1      -3.559   3.624 -32.892  1.00  0.00     0.061 A 
HETATM   18  C   UNL     1      -4.409   5.049 -34.629  1.00  0.00     0.032 A 
HETATM   19  C   UNL     1      -3.827   2.577 -31.894  1.00  0.00     0.259 A 
HETATM   20  C   UNL     1      -2.278   4.159 -33.050  1.00  0.00     0.019 A 
HETATM   21  O   UNL     1      -2.965   2.127 -31.152  1.00  0.00    -0.267 OA
HETATM   22  N   UNL     1      -5.121   2.119 -31.840  1.00  0.00    -0.309 N 
HETATM   23  H   UNL     1      -5.264   1.399 -31.142  1.00  0.00     0.170 HD
HETATM   24  C   UNL     1      -2.068   5.148 -34.009  1.00  0.00     0.001 A 
HETATM   25  C   UNL     1      -3.130   5.593 -34.797  1.00  0.00     0.002 A 
ENDBRANCH   2  14
TORSDOF 4
ENDMDL
MODEL 5
REMARK VINA RESULT:      -8.2      3.832      5.880
REMARK  4 active torsions:
REMARK  status: ('A' for Active; 'I' for Inactive)
REMARK    1  A    between atoms: C_2  and  N_3 
REMARK    2  A    between atoms: C_2  and  C_14 
REMARK    3  A    between atoms: N_3  and  C_6 
REMARK    4  A    between atoms: C_6  and  C_7 
ROOT
HETATM    1  C   UNL     1      -8.850   1.028 -33.698  1.00  0.00     0.048 C 
HETATM    2  C   UNL     1      -7.441   1.204 -33.150  1.00  0.00     0.251 C 
ENDROOT
BRANCH   2   3
HETATM    3  N   UNL     1      -6.787   2.387 -33.825  1.00  0.00    -0.060 N 
HETATM    4  H   UNL     1      -5.982   2.010 -34.355  1.00  0.00     0.278 HD
HETATM    5  H   UNL     1      -7.397   2.727 -34.582  1.00  0.00     0.278 HD
BRANCH   3   6
HETATM    6  C   UNL     1      -6.334   3.505 -32.967  1.00  0.00     0.271 C 
BRANCH   6   7
HETATM    7  C   UNL     1      -4.999   4.024 -33.422  1.00  0.00    -0.033 A 
HETATM    8  C   UNL     1      -4.907   4.865 -34.544  1.00  0.00     0.010 A 
HETATM    9  C   UNL     1      -3.661   5.322 -34.986  1.00  0.00     0.024 A 
HETATM   10  C   UNL     1      -2.503   4.940 -34.313  1.00  0.00     0.034 A 
HETATM   11 CL   UNL     1      -0.974   5.502 -34.858  1.00  0.00    -0.084 Cl
HETATM   12  C   UNL     1      -2.579   4.103 -33.202  1.00  0.00     0.024 A 
HETATM   13  C   UNL     1      -3.821   3.642 -32.759  1.00  0.00     0.010 A 
ENDBRANCH   6   7
ENDBRANCH   3   6
ENDBRANCH   2   3
BRANCH   2  14
HETATM   14  C   UNL     1      -6.582  -0.043 -33.408  1.00  0.00     0.138 A 
HETATM   15  N   UNL     1      -7.160  -1.083 -33.924  1.00  0.00    -0.232 NA
HETATM   16  C   UNL     1      -6.366  -2.227 -34.151  1.00  0.00     0.074 A 
HETATM   17  C   UNL     1      -4.999  -2.265 -33.852  1.00  0.00     0.061 A 
HETATM   18  C   UNL     1      -6.961  -3.369 -34.689  1.00  0.00     0.032 A 
HETATM   19  C   UNL     1      -4.398  -1.048 -33.285  1.00  0.00     0.259 A 
HETATM   20  C   UNL     1      -4.231  -3.410 -34.078  1.00  0.00     0.019 A 
HETATM   21  O   UNL     1      -3.214  -0.963 -32.992  1.00  0.00    -0.267 OA
HETATM   22  N   UNL     1      -5.255   0.010 -33.096  1.00  0.00    -0.309 N 
HETATM   23  H   UNL     1      -4.804   0.828 -32.703  1.00  0.00     0.170 HD
HETATM   24  C   UNL     1      -4.842  -4.542 -34.614  1.00  0.00     0.001 A 
HETATM   25  C   UNL     1      -6.203  -4.523 -34.920  1.00  0.00     0.002 A 
ENDBRANCH   2  14
TORSDOF 4
ENDMDL
MODEL 6
REMARK VINA RESULT:      -8.2      4.638      7.861
REMARK  4 active torsions:
REMARK  status: ('A' for Active; 'I' for Inactive)
REMARK    1  A    between atoms: C_2  and  N_3 
REMARK    2  A    between atoms: C_2  and  C_14 
REMARK    3  A    between atoms: N_3  and  C_6 
REMARK    4  A    between atoms: C_6  and  C_7 
ROOT
HETATM    1  C   UNL     1      -5.433   2.624 -30.395  1.00  0.00     0.048 C 
HETATM    2  C   UNL     1      -5.829   3.035 -31.806  1.00  0.00     0.251 C 
ENDROOT
BRANCH   2   3
HETATM    3  N   UNL     1      -5.963   1.801 -32.666  1.00  0.00    -0.060 N 
HETATM    4  H   UNL     1      -6.861   1.359 -32.404  1.00  0.00     0.278 HD
HETATM    5  H   UNL     1      -6.143   2.083 -33.640  1.00  0.00     0.278 HD
BRANCH   3   6
HETATM    6  C   UNL     1      -4.879   0.795 -32.599  1.00  0.00     0.271 C 
BRANCH   6   7
HETATM    7  C   UNL     1      -5.297  -0.490 -33.258  1.00  0.00    -0.033 A 
HETATM    8  C   UNL     1      -4.332  -1.424 -33.672  1.00  0.00     0.010 A 
HETATM    9  C   UNL     1      -4.720  -2.604 -34.315  1.00  0.00     0.024 A 
HETATM   10  C   UNL     1      -6.070  -2.855 -34.550  1.00  0.00     0.034 A 
HETATM   11 CL   UNL     1      -6.544  -4.306 -35.339  1.00  0.00    -0.084 Cl
HETATM   12  C   UNL     1      -7.036  -1.936 -34.149  1.00  0.00     0.024 A 
HETATM   13  C   UNL     1      -6.653  -0.754 -33.509  1.00  0.00     0.010 A 
ENDBRANCH   6   7
ENDBRANCH   3   6
ENDBRANCH   2   3
BRANCH   2  14
HETATM   14  C   UNL     1      -4.773   3.958 -32.435  1.00  0.00     0.138 A 
HETATM   15  N   UNL     1      -3.814   4.391 -31.676  1.00  0.00    -0.232 NA
HETATM   16  C   UNL     1      -2.854   5.244 -32.260  1.00  0.00     0.074 A 
HETATM   17  C   UNL     1      -2.900   5.617 -33.607  1.00  0.00     0.061 A 
HETATM   18  C   UNL     1      -1.819   5.741 -31.466  1.00  0.00     0.032 A 
HETATM   19  C   UNL     1      -4.003   5.080 -34.420  1.00  0.00     0.259 A 
HETATM   20  C   UNL     1      -1.943   6.469 -34.165  1.00  0.00     0.019 A 
HETATM   21  O   UNL     1      -4.140   5.332 -35.608  1.00  0.00    -0.267 OA
HETATM   22  N   UNL     1      -4.889   4.264 -33.760  1.00  0.00    -0.309 N 
HETATM   23  H   UNL     1      -5.633   3.915 -34.352  1.00  0.00     0.170 HD
HETATM   24  C   UNL     1      -0.917   6.958 -33.358  1.00  0.00     0.001 A 
HETATM   25  C   UNL     1      -0.854   6.595 -32.012  1.00  0.00     0.002 A 
ENDBRANCH   2  14
TORSDOF 4
ENDMDL
MODEL 7
REMARK VINA RESULT:      -8.1      3.266      7.257
REMARK  4 active torsions:
REMARK  status: ('A' for Active; 'I' for Inactive)
REMARK    1  A    between atoms: C_2  and  N_3 
REMARK    2  A    between atoms: C_2  and  C_14 
REMARK    3  A    between atoms: N_3  and  C_6 
REMARK    4  A    between atoms: C_6  and  C_7 
ROOT
HETATM    1  C   UNL     1      -7.434   2.821 -30.989  1.00  0.00     0.048 C 
HETATM    2  C   UNL     1      -7.607   1.506 -31.735  1.00  0.00     0.251 C 
ENDROOT
BRANCH   2   3
HETATM    3  N   UNL     1      -6.440   1.308 -32.674  1.00  0.00    -0.060 N 
HETATM    4  H   UNL     1      -6.847   1.089 -33.601  1.00  0.00     0.278 HD
HETATM    5  H   UNL     1      -5.988   2.215 -32.852  1.00  0.00     0.278 HD
BRANCH   3   6
HETATM    6  C   UNL     1      -5.439   0.277 -32.319  1.00  0.00     0.271 C 
BRANCH   6   7
HETATM    7  C   UNL     1      -5.595  -0.944 -33.181  1.00  0.00    -0.033 A 
HETATM    8  C   UNL     1      -6.846  -1.275 -33.728  1.00  0.00     0.010 A 
HETATM    9  C   UNL     1      -6.997  -2.428 -34.503  1.00  0.00     0.024 A 
HETATM   10  C   UNL     1      -5.902  -3.257 -34.735  1.00  0.00     0.034 A 
HETATM   11 CL   UNL     1      -6.090  -4.674 -35.689  1.00  0.00    -0.084 Cl
HETATM   12  C   UNL     1      -4.657  -2.944 -34.196  1.00  0.00     0.024 A 
HETATM   13  C   UNL     1      -4.502  -1.794 -33.418  1.00  0.00     0.010 A 
ENDBRANCH   6   7
ENDBRANCH   3   6
ENDBRANCH   2   3
BRANCH   2  14
HETATM   14  C   UNL     1      -8.904   1.498 -32.559  1.00  0.00     0.138 A 
HETATM   15  N   UNL     1      -9.136   2.509 -33.339  1.00  0.00    -0.232 NA
HETATM   16  C   UNL     1     -10.332   2.497 -34.086  1.00  0.00     0.074 A 
HETATM   17  C   UNL     1     -11.250   1.443 -34.020  1.00  0.00     0.061 A 
HETATM   18  C   UNL     1     -10.620   3.578 -34.920  1.00  0.00     0.032 A 
HETATM   19  C   UNL     1     -10.922   0.317 -33.131  1.00  0.00     0.259 A 
HETATM   20  C   UNL     1     -12.433   1.453 -34.763  1.00  0.00     0.019 A 
HETATM   21  O   UNL     1     -11.644  -0.660 -32.999  1.00  0.00    -0.267 OA
HETATM   22  N   UNL     1      -9.739   0.425 -32.441  1.00  0.00    -0.309 N 
HETATM   23  H   UNL     1      -9.549  -0.369 -31.841  1.00  0.00     0.170 HD
HETATM   24  C   UNL     1     -12.706   2.541 -35.590  1.00  0.00     0.001 A 
HETATM   25  C   UNL     1     -11.802   3.601 -35.669  1.00  0.00     0.002 A 
ENDBRANCH   2  14
TORSDOF 4
ENDMDL
MODEL 8
REMARK VINA RESULT:      -8.1      4.825      6.599
REMARK  4 active torsions:
REMARK  status: ('A' for Active; 'I' for Inactive)
REMARK    1  A    between atoms: C_2  and  N_3 
REMARK    2  A    between atoms: C_2  and  C_14 
REMARK    3  A    between atoms: N_3  and  C_6 
REMARK    4  A    between atoms: C_6  and  C_7 
ROOT
HETATM    1  C   UNL     1      -7.268   2.334 -30.370  1.00  0.00     0.048 C 
HETATM    2  C   UNL     1      -5.901   1.754 -30.034  1.00  0.00     0.251 C 
ENDROOT
BRANCH   2   3
HETATM    3  N   UNL     1      -4.868   2.855 -30.074  1.00  0.00    -0.060 N 
HETATM    4  H   UNL     1      -4.637   3.072 -29.089  1.00  0.00     0.278 HD
HETATM    5  H   UNL     1      -3.977   2.473 -30.421  1.00  0.00     0.278 HD
BRANCH   3   6
HETATM    6  C   UNL     1      -5.221   4.104 -30.786  1.00  0.00     0.271 C 
BRANCH   6   7
HETATM    7  C   UNL     1      -4.202   4.426 -31.843  1.00  0.00    -0.033 A 
HETATM    8  C   UNL     1      -4.609   4.857 -33.118  1.00  0.00     0.010 A 
HETATM    9  C   UNL     1      -3.662   5.125 -34.110  1.00  0.00     0.024 A 
HETATM   10  C   UNL     1      -2.306   4.962 -33.838  1.00  0.00     0.034 A 
HETATM   11 CL   UNL     1      -1.144   5.292 -35.059  1.00  0.00    -0.084 Cl
HETATM   12  C   UNL     1      -1.888   4.531 -32.581  1.00  0.00     0.024 A 
HETATM   13  C   UNL     1      -2.832   4.259 -31.587  1.00  0.00     0.010 A 
ENDBRANCH   6   7
ENDBRANCH   3   6
ENDBRANCH   2   3
BRANCH   2  14
HETATM   14  C   UNL     1      -5.494   0.665 -31.039  1.00  0.00     0.138 A 
HETATM   15  N   UNL     1      -6.392   0.245 -31.877  1.00  0.00    -0.232 NA
HETATM   16  C   UNL     1      -6.013  -0.760 -32.792  1.00  0.00     0.074 A 
HETATM   17  C   UNL     1      -4.721  -1.296 -32.826  1.00  0.00     0.061 A 
HETATM   18  C   UNL     1      -6.960  -1.245 -33.695  1.00  0.00     0.032 A 
HETATM   19  C   UNL     1      -3.744  -0.767 -31.862  1.00  0.00     0.259 A 
HETATM   20  C   UNL     1      -4.367  -2.296 -33.736  1.00  0.00     0.019 A 
HETATM   21  O   UNL     1      -2.586  -1.155 -31.805  1.00  0.00    -0.267 OA
HETATM   22  N   UNL     1      -4.211   0.204 -31.010  1.00  0.00    -0.309 N 
HETATM   23  H   UNL     1      -3.509   0.543 -30.362  1.00  0.00     0.170 HD
HETATM   24  C   UNL     1      -5.325  -2.772 -34.629  1.00  0.00     0.001 A 
HETATM   25  C   UNL     1      -6.618  -2.248 -34.610  1.00  0.00     0.002 A 
ENDBRANCH   2  14
TORSDOF 4
ENDMDL
MODEL 9
REMARK VINA RESULT:      -8.0      5.471      7.987
REMARK  4 active torsions:
REMARK  status: ('A' for Active; 'I' for Inactive)
REMARK    1  A    between atoms: C_2  and  N_3 
REMARK    2  A    between atoms: C_2  and  C_14 
REMARK    3  A    between atoms: N_3  and  C_6 
REMARK    4  A    between atoms: C_6  and  C_7 
ROOT
HETATM    1  C   UNL     1      -5.932   5.033 -33.790  1.00  0.00     0.048 C 
HETATM    2  C   UNL     1      -4.684   4.161 -33.794  1.00  0.00     0.251 C 
ENDROOT
BRANCH   2   3
HETATM    3  N   UNL     1      -4.900   2.975 -32.885  1.00  0.00    -0.060 N 
HETATM    4  H   UNL     1      -4.281   2.223 -33.236  1.00  0.00     0.278 HD
HETATM    5  H   UNL     1      -4.490   3.173 -31.962  1.00  0.00     0.278 HD
BRANCH   3   6
HETATM    6  C   UNL     1      -6.280   2.454 -32.750  1.00  0.00     0.271 C 
BRANCH   6   7
HETATM    7  C   UNL     1      -6.386   1.063 -33.308  1.00  0.00    -0.033 A 
HETATM    8  C   UNL     1      -7.055   0.832 -34.523  1.00  0.00     0.010 A 
HETATM    9  C   UNL     1      -7.181  -0.467 -35.025  1.00  0.00     0.024 A 
HETATM   10  C   UNL     1      -6.644  -1.540 -34.318  1.00  0.00     0.034 A 
HETATM   11 CL   UNL     1      -6.801  -3.135 -34.937  1.00  0.00    -0.084 Cl
HETATM   12  C   UNL     1      -5.983  -1.326 -33.111  1.00  0.00     0.024 A 
HETATM   13  C   UNL     1      -5.857  -0.030 -32.604  1.00  0.00     0.010 A 
ENDBRANCH   6   7
ENDBRANCH   3   6
ENDBRANCH   2   3
BRANCH   2  14
HETATM   14  C   UNL     1      -3.457   4.941 -33.296  1.00  0.00     0.138 A 
HETATM   15  N   UNL     1      -2.806   4.465 -32.279  1.00  0.00    -0.232 NA
HETATM   16  C   UNL     1      -1.686   5.190 -31.822  1.00  0.00     0.074 A 
HETATM   17  C   UNL     1      -1.259   6.376 -32.430  1.00  0.00     0.061 A 
HETATM   18  C   UNL     1      -0.975   4.715 -30.719  1.00  0.00     0.032 A 
HETATM   19  C   UNL     1      -2.028   6.855 -33.590  1.00  0.00     0.259 A 
HETATM   20  C   UNL     1      -0.150   7.084 -31.959  1.00  0.00     0.019 A 
HETATM   21  O   UNL     1      -1.744   7.873 -34.204  1.00  0.00    -0.267 OA
HETATM   22  N   UNL     1      -3.105   6.083 -33.953  1.00  0.00    -0.309 N 
HETATM   23  H   UNL     1      -3.608   6.446 -34.754  1.00  0.00     0.170 HD
HETATM   24  C   UNL     1       0.547   6.596 -30.855  1.00  0.00     0.001 A 
HETATM   25  C   UNL     1       0.137   5.415 -30.237  1.00  0.00     0.002 A 
ENDBRANCH   2  14
TORSDOF 4
ENDMDL
MODEL 10
REMARK VINA RESULT:      -7.9      3.191      6.807
REMARK  4 active torsions:
REMARK  status: ('A' for Active; 'I' for Inactive)
REMARK    1  A    between atoms: C_2  and  N_3 
REMARK    2  A    between atoms: C_2  and  C_14 
REMARK    3  A    between atoms: N_3  and  C_6 
REMARK    4  A    between atoms: C_6  and  C_7 
ROOT
HETATM    1  C   UNL     1      -5.007   2.797 -30.881  1.00  0.00     0.048 C 
HETATM    2  C   UNL     1      -6.116   1.755 -30.901  1.00  0.00     0.251 C 
ENDROOT
BRANCH   2   3
HETATM    3  N   UNL     1      -5.540   0.421 -31.317  1.00  0.00    -0.060 N 
HETATM    4  H   UNL     1      -4.912   0.124 -30.550  1.00  0.00     0.278 HD
HETATM    5  H   UNL     1      -6.278  -0.296 -31.275  1.00  0.00     0.278 HD
BRANCH   3   6
HETATM    6  C   UNL     1      -4.812   0.357 -32.604  1.00  0.00     0.271 C 
BRANCH   6   7
HETATM    7  C   UNL     1      -5.202  -0.868 -33.382  1.00  0.00    -0.033 A 
HETATM    8  C   UNL     1      -6.513  -1.018 -33.865  1.00  0.00     0.010 A 
HETATM    9  C   UNL     1      -6.883  -2.173 -34.560  1.00  0.00     0.024 A 
HETATM   10  C   UNL     1      -5.950  -3.185 -34.774  1.00  0.00     0.034 A 
HETATM   11 CL   UNL     1      -6.407  -4.603 -35.628  1.00  0.00    -0.084 Cl
HETATM   12  C   UNL     1      -4.648  -3.052 -34.296  1.00  0.00     0.024 A 
HETATM   13  C   UNL     1      -4.275  -1.900 -33.598  1.00  0.00     0.010 A 
ENDBRANCH   6   7
ENDBRANCH   3   6
ENDBRANCH   2   3
BRANCH   2  14
HETATM   14  C   UNL     1      -7.225   2.139 -31.893  1.00  0.00     0.138 A 
HETATM   15  N   UNL     1      -8.255   1.355 -31.986  1.00  0.00    -0.232 NA
HETATM   16  C   UNL     1      -9.266   1.711 -32.904  1.00  0.00     0.074 A 
HETATM   17  C   UNL     1      -9.193   2.865 -33.692  1.00  0.00     0.061 A 
HETATM   18  C   UNL     1     -10.379   0.880 -33.041  1.00  0.00     0.032 A 
HETATM   19  C   UNL     1      -8.008   3.721 -33.528  1.00  0.00     0.259 A 
HETATM   20  C   UNL     1     -10.202   3.196 -34.601  1.00  0.00     0.019 A 
HETATM   21  O   UNL     1      -7.842   4.756 -34.157  1.00  0.00    -0.267 OA
HETATM   22  N   UNL     1      -7.078   3.287 -32.615  1.00  0.00    -0.309 N 
HETATM   23  H   UNL     1      -6.278   3.902 -32.532  1.00  0.00     0.170 HD
HETATM   24  C   UNL     1     -11.306   2.354 -34.726  1.00  0.00     0.001 A 
HETATM   25  C   UNL     1     -11.395   1.200 -33.948  1.00  0.00     0.002 A 
ENDBRANCH   2  14
TORSDOF 4
ENDMDL
