MODEL 1
REMARK VINA RESULT:     -10.0      0.000      0.000
REMARK  9 active torsions:
REMARK  status: ('A' for Active; 'I' for Inactive)
REMARK    1  A    between atoms: C_2  and  O_3 
REMARK    2  A    between atoms: O_3  and  C_4 
REMARK    3  A    between atoms: C_4  and  C_5 
REMARK    4  A    between atoms: C_8  and  N_9 
REMARK       I    between atoms: N_9  and  C_10 
REMARK    5  A    between atoms: C_10  and  C_11 
REMARK    6  A    between atoms: C_11  and  C_12 
REMARK    7  A    between atoms: N_13  and  C_14 
REMARK    8  A    between atoms: C_14  and  C_15 
REMARK    9  A    between atoms: N_23  and  C_24 
ROOT
HETATM    1  C   UNL     1      -8.709   1.569 -32.182  1.00  0.00     0.191 C 
HETATM    2  N   UNL     1      -9.205   1.278 -33.514  1.00  0.00    -0.315 N 
HETATM    3  C   UNL     1      -8.378   0.384 -34.187  1.00  0.00     0.333 C 
HETATM    4  O   UNL     1      -8.494   0.164 -35.384  1.00  0.00    -0.246 OA
HETATM    5  N   UNL     1      -7.452  -0.118 -33.296  1.00  0.00    -0.232 N 
HETATM    6  C   UNL     1      -7.640   0.480 -32.065  1.00  0.00     0.256 C 
HETATM    7  O   UNL     1      -7.049   0.276 -31.010  1.00  0.00    -0.270 OA
ENDROOT
BRANCH   1   8
HETATM    8  C   UNL     1      -7.999   2.907 -32.003  1.00  0.00     0.138 C 
BRANCH   8   9
HETATM    9  C   UNL     1      -7.709   3.226 -30.567  1.00  0.00     0.224 C 
HETATM   10  N   UNL     1      -6.470   3.425 -30.057  1.00  0.00    -0.327 N 
HETATM   11  H   UNL     1      -6.544   3.502 -29.047  1.00  0.00     0.169 HD
HETATM   12  O   UNL     1      -8.651   3.275 -29.763  1.00  0.00    -0.273 OA
BRANCH  10  13
HETATM   13  C   UNL     1      -5.181   3.650 -30.567  1.00  0.00     0.034 A 
HETATM   14  C   UNL     1      -4.326   2.694 -31.108  1.00  0.00     0.030 A 
HETATM   15  C   UNL     1      -3.115   3.085 -31.709  1.00  0.00     0.020 A 
HETATM   16  C   UNL     1      -2.746   4.435 -31.775  1.00  0.00     0.039 A 
HETATM   17  C   UNL     1      -3.572   5.389 -31.183  1.00  0.00     0.020 A 
HETATM   18  C   UNL     1      -4.775   4.995 -30.586  1.00  0.00     0.030 A 
BRANCH  16  19
HETATM   19  C   UNL     1      -1.511   4.809 -32.521  1.00  0.00     0.293 C 
HETATM   20  O   UNL     1      -0.501   5.240 -31.986  1.00  0.00    -0.259 OA
BRANCH  19  21
HETATM   21  O   UNL     1      -1.662   4.524 -33.840  1.00  0.00    -0.318 OA
BRANCH  21  22
HETATM   22  C   UNL     1      -2.148   5.590 -34.668  1.00  0.00     0.174 C 
HETATM   23  C   UNL     1      -3.565   5.308 -35.125  1.00  0.00     0.034 C 
ENDBRANCH  21  22
ENDBRANCH  19  21
ENDBRANCH  16  19
ENDBRANCH  10  13
ENDBRANCH   8   9
ENDBRANCH   1   8
BRANCH   2  24
HETATM   24  C   UNL     1     -10.180   2.082 -34.241  1.00  0.00     0.168 C 
BRANCH  24  25
HETATM   25  C   UNL     1     -11.568   1.510 -34.301  1.00  0.00    -0.023 A 
HETATM   26  C   UNL     1     -12.581   2.108 -35.042  1.00  0.00     0.125 A 
HETATM   27  N   UNL     1     -13.852   1.649 -35.101  1.00  0.00    -0.273 NA
HETATM   28  C   UNL     1     -14.143   0.563 -34.355  1.00  0.00     0.116 A 
HETATM   29  C   UNL     1     -13.219  -0.090 -33.557  1.00  0.00     0.020 A 
HETATM   30  C   UNL     1     -11.917   0.397 -33.529  1.00  0.00     0.012 A 
ENDBRANCH  24  25
ENDBRANCH   2  24
BRANCH   5  31
HETATM   31  C   UNL     1      -6.430  -1.062 -33.626  1.00  0.00     0.047 A 
HETATM   32  C   UNL     1      -6.733  -2.287 -34.251  1.00  0.00     0.037 A 
HETATM   33  C   UNL     1      -5.736  -3.204 -34.632  1.00  0.00    -0.060 A 
HETATM   34  C   UNL     1      -6.103  -4.507 -35.281  1.00  0.00     0.048 C 
HETATM   35  C   UNL     1      -4.402  -2.908 -34.359  1.00  0.00     0.007 A 
HETATM   36  C   UNL     1      -4.074  -1.712 -33.728  1.00  0.00     0.003 A 
HETATM   37  C   UNL     1      -5.076  -0.803 -33.365  1.00  0.00     0.030 A 
ENDBRANCH   5  31
TORSDOF 9
ENDMDL
MODEL 2
REMARK VINA RESULT:      -9.3      2.620      8.236
REMARK  9 active torsions:
REMARK  status: ('A' for Active; 'I' for Inactive)
REMARK    1  A    between atoms: C_2  and  O_3 
REMARK    2  A    between atoms: O_3  and  C_4 
REMARK    3  A    between atoms: C_4  and  C_5 
REMARK    4  A    between atoms: C_8  and  N_9 
REMARK       I    between atoms: N_9  and  C_10 
REMARK    5  A    between atoms: C_10  and  C_11 
REMARK    6  A    between atoms: C_11  and  C_12 
REMARK    7  A    between atoms: N_13  and  C_14 
REMARK    8  A    between atoms: C_14  and  C_15 
REMARK    9  A    between atoms: N_23  and  C_24 
ROOT
HETATM    1  C   UNL     1      -6.321   1.965 -33.457  1.00  0.00     0.191 C 
HETATM    2  N   UNL     1      -5.489   1.510 -32.359  1.00  0.00    -0.315 N 
HETATM    3  C   UNL     1      -5.299   0.132 -32.395  1.00  0.00     0.333 C 
HETATM    4  O   UNL     1      -4.808  -0.482 -31.459  1.00  0.00    -0.246 OA
HETATM    5  N   UNL     1      -5.786  -0.350 -33.593  1.00  0.00    -0.232 N 
HETATM    6  C   UNL     1      -6.336   0.694 -34.310  1.00  0.00     0.256 C 
HETATM    7  O   UNL     1      -6.832   0.683 -35.431  1.00  0.00    -0.270 OA
ENDROOT
BRANCH   1   8
HETATM    8  C   UNL     1      -7.773   2.286 -33.116  1.00  0.00     0.138 C 
BRANCH   8   9
HETATM    9  C   UNL     1      -8.285   3.503 -33.828  1.00  0.00     0.224 C 
HETATM   10  N   UNL     1      -9.583   3.719 -34.148  1.00  0.00    -0.327 N 
HETATM   11  H   UNL     1      -9.640   4.550 -34.729  1.00  0.00     0.169 HD
HETATM   12  O   UNL     1      -7.475   4.364 -34.196  1.00  0.00    -0.273 OA
BRANCH  10  13
HETATM   13  C   UNL     1     -10.825   3.164 -33.801  1.00  0.00     0.034 A 
HETATM   14  C   UNL     1     -11.737   3.680 -32.885  1.00  0.00     0.030 A 
HETATM   15  C   UNL     1     -13.006   3.090 -32.738  1.00  0.00     0.020 A 
HETATM   16  C   UNL     1     -13.378   1.979 -33.505  1.00  0.00     0.039 A 
HETATM   17  C   UNL     1     -12.447   1.424 -34.382  1.00  0.00     0.020 A 
HETATM   18  C   UNL     1     -11.186   2.013 -34.524  1.00  0.00     0.030 A 
BRANCH  16  19
HETATM   19  C   UNL     1     -14.771   1.460 -33.395  1.00  0.00     0.293 C 
HETATM   20  O   UNL     1     -15.296   0.747 -34.236  1.00  0.00    -0.259 OA
BRANCH  19  21
HETATM   21  O   UNL     1     -15.312   1.833 -32.208  1.00  0.00    -0.318 OA
BRANCH  21  22
HETATM   22  C   UNL     1     -16.613   2.437 -32.264  1.00  0.00     0.174 C 
HETATM   23  C   UNL     1     -16.528   3.918 -31.954  1.00  0.00     0.034 C 
ENDBRANCH  21  22
ENDBRANCH  19  21
ENDBRANCH  16  19
ENDBRANCH  10  13
ENDBRANCH   8   9
ENDBRANCH   1   8
BRANCH   2  24
HETATM   24  C   UNL     1      -5.211   2.269 -31.146  1.00  0.00     0.168 C 
BRANCH  24  25
HETATM   25  C   UNL     1      -4.271   3.429 -31.313  1.00  0.00    -0.023 A 
HETATM   26  C   UNL     1      -4.632   4.727 -30.972  1.00  0.00     0.125 A 
HETATM   27  N   UNL     1      -3.833   5.806 -31.135  1.00  0.00    -0.273 NA
HETATM   28  C   UNL     1      -2.628   5.592 -31.703  1.00  0.00     0.116 A 
HETATM   29  C   UNL     1      -2.182   4.346 -32.109  1.00  0.00     0.020 A 
HETATM   30  C   UNL     1      -3.020   3.253 -31.914  1.00  0.00     0.012 A 
ENDBRANCH  24  25
ENDBRANCH   2  24
BRANCH   5  31
HETATM   31  C   UNL     1      -5.771  -1.725 -33.986  1.00  0.00     0.047 A 
HETATM   32  C   UNL     1      -4.613  -2.515 -33.854  1.00  0.00     0.037 A 
HETATM   33  C   UNL     1      -4.594  -3.882 -34.185  1.00  0.00    -0.060 A 
HETATM   34  C   UNL     1      -3.334  -4.686 -34.046  1.00  0.00     0.048 C 
HETATM   35  C   UNL     1      -5.752  -4.475 -34.687  1.00  0.00     0.007 A 
HETATM   36  C   UNL     1      -6.907  -3.715 -34.842  1.00  0.00     0.003 A 
HETATM   37  C   UNL     1      -6.914  -2.357 -34.497  1.00  0.00     0.030 A 
ENDBRANCH   5  31
TORSDOF 9
ENDMDL
MODEL 3
REMARK VINA RESULT:      -9.1      3.061      5.529
REMARK  9 active torsions:
REMARK  status: ('A' for Active; 'I' for Inactive)
REMARK    1  A    between atoms: C_2  and  O_3 
REMARK    2  A    between atoms: O_3  and  C_4 
REMARK    3  A    between atoms: C_4  and  C_5 
REMARK    4  A    between atoms: C_8  and  N_9 
REMARK       I    between atoms: N_9  and  C_10 
REMARK    5  A    between atoms: C_10  and  C_11 
REMARK    6  A    between atoms: C_11  and  C_12 
REMARK    7  A    between atoms: N_13  and  C_14 
REMARK    8  A    between atoms: C_14  and  C_15 
REMARK    9  A    between atoms: N_23  and  C_24 
ROOT
HETATM    1  C   UNL     1      -8.343   1.508 -32.002  1.00  0.00     0.191 C 
HETATM    2  N   UNL     1      -8.837   1.399 -33.362  1.00  0.00    -0.315 N 
HETATM    3  C   UNL     1      -8.107   0.473 -34.101  1.00  0.00     0.333 C 
HETATM    4  O   UNL     1      -8.219   0.374 -35.314  1.00  0.00    -0.246 OA
HETATM    5  N   UNL     1      -7.271  -0.215 -33.245  1.00  0.00    -0.232 N 
HETATM    6  C   UNL     1      -7.415   0.292 -31.969  1.00  0.00     0.256 C 
HETATM    7  O   UNL     1      -6.880  -0.075 -30.928  1.00  0.00    -0.270 OA
ENDROOT
BRANCH   1   8
HETATM    8  C   UNL     1      -7.481   2.729 -31.693  1.00  0.00     0.138 C 
BRANCH   8   9
HETATM    9  C   UNL     1      -7.821   3.366 -30.379  1.00  0.00     0.224 C 
HETATM   10  N   UNL     1      -8.835   4.242 -30.186  1.00  0.00    -0.327 N 
HETATM   11  H   UNL     1      -8.770   4.611 -29.242  1.00  0.00     0.169 HD
HETATM   12  O   UNL     1      -7.109   3.120 -29.395  1.00  0.00    -0.273 OA
BRANCH  10  13
HETATM   13  C   UNL     1      -9.967   4.665 -30.901  1.00  0.00     0.034 A 
HETATM   14  C   UNL     1     -10.002   5.629 -31.904  1.00  0.00     0.030 A 
HETATM   15  C   UNL     1     -11.185   5.853 -32.632  1.00  0.00     0.020 A 
HETATM   16  C   UNL     1     -12.346   5.117 -32.364  1.00  0.00     0.039 A 
HETATM   17  C   UNL     1     -12.332   4.191 -31.322  1.00  0.00     0.020 A 
HETATM   18  C   UNL     1     -11.153   3.972 -30.601  1.00  0.00     0.030 A 
BRANCH  16  19
HETATM   19  C   UNL     1     -13.540   5.311 -33.236  1.00  0.00     0.293 C 
HETATM   20  O   UNL     1     -14.688   5.130 -32.863  1.00  0.00    -0.259 OA
BRANCH  19  21
HETATM   21  O   UNL     1     -13.155   5.784 -34.449  1.00  0.00    -0.318 OA
BRANCH  21  22
HETATM   22  C   UNL     1     -14.077   6.665 -35.107  1.00  0.00     0.174 C 
HETATM   23  C   UNL     1     -13.786   6.730 -36.593  1.00  0.00     0.034 C 
ENDBRANCH  21  22
ENDBRANCH  19  21
ENDBRANCH  16  19
ENDBRANCH  10  13
ENDBRANCH   8   9
ENDBRANCH   1   8
BRANCH   2  24
HETATM   24  C   UNL     1      -9.690   2.376 -34.026  1.00  0.00     0.168 C 
BRANCH  24  25
HETATM   25  C   UNL     1     -11.113   1.947 -34.242  1.00  0.00    -0.023 A 
HETATM   26  C   UNL     1     -11.952   2.597 -35.140  1.00  0.00     0.125 A 
HETATM   27  N   UNL     1     -13.248   2.268 -35.344  1.00  0.00    -0.273 NA
HETATM   28  C   UNL     1     -13.749   1.267 -34.590  1.00  0.00     0.116 A 
HETATM   29  C   UNL     1     -13.011   0.576 -33.645  1.00  0.00     0.020 A 
HETATM   30  C   UNL     1     -11.677   0.926 -33.469  1.00  0.00     0.012 A 
ENDBRANCH  24  25
ENDBRANCH   2  24
BRANCH   5  31
HETATM   31  C   UNL     1      -6.362  -1.245 -33.644  1.00  0.00     0.047 A 
HETATM   32  C   UNL     1      -6.812  -2.414 -34.288  1.00  0.00     0.037 A 
HETATM   33  C   UNL     1      -5.927  -3.412 -34.736  1.00  0.00    -0.060 A 
HETATM   34  C   UNL     1      -6.448  -4.652 -35.403  1.00  0.00     0.048 C 
HETATM   35  C   UNL     1      -4.560  -3.257 -34.515  1.00  0.00     0.007 A 
HETATM   36  C   UNL     1      -4.089  -2.119 -33.867  1.00  0.00     0.003 A 
HETATM   37  C   UNL     1      -4.980  -1.128 -33.437  1.00  0.00     0.030 A 
ENDBRANCH   5  31
TORSDOF 9
ENDMDL
MODEL 4
REMARK VINA RESULT:      -9.0      2.340      7.872
REMARK  9 active torsions:
REMARK  status: ('A' for Active; 'I' for Inactive)
REMARK    1  A    between atoms: C_2  and  O_3 
REMARK    2  A    between atoms: O_3  and  C_4 
REMARK    3  A    between atoms: C_4  and  C_5 
REMARK    4  A    between atoms: C_8  and  N_9 
REMARK       I    between atoms: N_9  and  C_10 
REMARK    5  A    between atoms: C_10  and  C_11 
REMARK    6  A    between atoms: C_11  and  C_12 
REMARK    7  A    between atoms: N_13  and  C_14 
REMARK    8  A    between atoms: C_14  and  C_15 
REMARK    9  A    between atoms: N_23  and  C_24 
ROOT
HETATM    1  C   UNL     1      -5.439   2.848 -32.710  1.00  0.00     0.191 C 
HETATM    2  N   UNL     1      -4.157   2.283 -32.333  1.00  0.00    -0.315 N 
HETATM    3  C   UNL     1      -4.102   0.917 -32.594  1.00  0.00     0.333 C 
HETATM    4  O   UNL     1      -3.201   0.209 -32.168  1.00  0.00    -0.246 OA
HETATM    5  N   UNL     1      -5.212   0.562 -33.333  1.00  0.00    -0.232 N 
HETATM    6  C   UNL     1      -6.011   1.674 -33.509  1.00  0.00     0.256 C 
HETATM    7  O   UNL     1      -7.058   1.780 -34.139  1.00  0.00    -0.270 OA
ENDROOT
BRANCH   1   8
HETATM    8  C   UNL     1      -6.416   3.125 -31.572  1.00  0.00     0.138 C 
BRANCH   8   9
HETATM    9  C   UNL     1      -6.870   1.878 -30.875  1.00  0.00     0.224 C 
HETATM   10  N   UNL     1      -8.125   1.372 -30.938  1.00  0.00    -0.327 N 
HETATM   11  H   UNL     1      -8.196   0.599 -30.284  1.00  0.00     0.169 HD
HETATM   12  O   UNL     1      -6.067   1.273 -30.150  1.00  0.00    -0.273 OA
BRANCH  10  13
HETATM   13  C   UNL     1      -9.267   1.576 -31.728  1.00  0.00     0.034 A 
HETATM   14  C   UNL     1      -9.934   2.782 -31.927  1.00  0.00     0.030 A 
HETATM   15  C   UNL     1     -10.987   2.866 -32.858  1.00  0.00     0.020 A 
HETATM   16  C   UNL     1     -11.384   1.746 -33.599  1.00  0.00     0.039 A 
HETATM   17  C   UNL     1     -10.757   0.523 -33.362  1.00  0.00     0.020 A 
HETATM   18  C   UNL     1      -9.712   0.445 -32.435  1.00  0.00     0.030 A 
BRANCH  16  19
HETATM   19  C   UNL     1     -12.425   1.911 -34.652  1.00  0.00     0.293 C 
HETATM   20  O   UNL     1     -12.308   1.491 -35.793  1.00  0.00    -0.259 OA
BRANCH  19  21
HETATM   21  O   UNL     1     -13.523   2.515 -34.128  1.00  0.00    -0.318 OA
BRANCH  21  22
HETATM   22  C   UNL     1     -14.426   1.669 -33.402  1.00  0.00     0.174 C 
HETATM   23  C   UNL     1     -15.031   0.623 -34.318  1.00  0.00     0.034 C 
ENDBRANCH  21  22
ENDBRANCH  19  21
ENDBRANCH  16  19
ENDBRANCH  10  13
ENDBRANCH   8   9
ENDBRANCH   1   8
BRANCH   2  24
HETATM   24  C   UNL     1      -3.194   2.910 -31.437  1.00  0.00     0.168 C 
BRANCH  24  25
HETATM   25  C   UNL     1      -2.439   4.072 -32.016  1.00  0.00    -0.023 A 
HETATM   26  C   UNL     1      -1.945   5.100 -31.222  1.00  0.00     0.125 A 
HETATM   27  N   UNL     1      -1.288   6.182 -31.701  1.00  0.00    -0.273 NA
HETATM   28  C   UNL     1      -1.149   6.267 -33.040  1.00  0.00     0.116 A 
HETATM   29  C   UNL     1      -1.630   5.317 -33.923  1.00  0.00     0.020 A 
HETATM   30  C   UNL     1      -2.288   4.208 -33.400  1.00  0.00     0.012 A 
ENDBRANCH  24  25
ENDBRANCH   2  24
BRANCH   5  31
HETATM   31  C   UNL     1      -5.503  -0.763 -33.784  1.00  0.00     0.047 A 
HETATM   32  C   UNL     1      -4.529  -1.781 -33.755  1.00  0.00     0.037 A 
HETATM   33  C   UNL     1      -4.813  -3.103 -34.144  1.00  0.00    -0.060 A 
HETATM   34  C   UNL     1      -3.742  -4.155 -34.116  1.00  0.00     0.048 C 
HETATM   35  C   UNL     1      -6.091  -3.417 -34.601  1.00  0.00     0.007 A 
HETATM   36  C   UNL     1      -7.069  -2.428 -34.654  1.00  0.00     0.003 A 
HETATM   37  C   UNL     1      -6.776  -1.119 -34.253  1.00  0.00     0.030 A 
ENDBRANCH   5  31
TORSDOF 9
ENDMDL
MODEL 5
REMARK VINA RESULT:      -9.0      3.104      5.253
REMARK  9 active torsions:
REMARK  status: ('A' for Active; 'I' for Inactive)
REMARK    1  A    between atoms: C_2  and  O_3 
REMARK    2  A    between atoms: O_3  and  C_4 
REMARK    3  A    between atoms: C_4  and  C_5 
REMARK    4  A    between atoms: C_8  and  N_9 
REMARK       I    between atoms: N_9  and  C_10 
REMARK    5  A    between atoms: C_10  and  C_11 
REMARK    6  A    between atoms: C_11  and  C_12 
REMARK    7  A    between atoms: N_13  and  C_14 
REMARK    8  A    between atoms: C_14  and  C_15 
REMARK    9  A    between atoms: N_23  and  C_24 
ROOT
HETATM    1  C   UNL     1      -6.388   1.694 -32.636  1.00  0.00     0.191 C 
HETATM    2  N   UNL     1      -4.943   1.583 -32.715  1.00  0.00    -0.315 N 
HETATM    3  C   UNL     1      -4.547   0.303 -33.091  1.00  0.00     0.333 C 
HETATM    4  O   UNL     1      -3.384  -0.066 -33.020  1.00  0.00    -0.246 OA
HETATM    5  N   UNL     1      -5.663  -0.408 -33.483  1.00  0.00    -0.232 N 
HETATM    6  C   UNL     1      -6.783   0.381 -33.316  1.00  0.00     0.256 C 
HETATM    7  O   UNL     1      -7.952   0.129 -33.586  1.00  0.00    -0.270 OA
ENDROOT
BRANCH   1   8
HETATM    8  C   UNL     1      -6.992   1.666 -31.235  1.00  0.00     0.138 C 
BRANCH   8   9
HETATM    9  C   UNL     1      -8.086   2.674 -31.050  1.00  0.00     0.224 C 
HETATM   10  N   UNL     1      -7.890   3.968 -30.702  1.00  0.00    -0.327 N 
HETATM   11  H   UNL     1      -8.794   4.397 -30.526  1.00  0.00     0.169 HD
HETATM   12  O   UNL     1      -9.263   2.309 -31.178  1.00  0.00    -0.273 OA
BRANCH  10  13
HETATM   13  C   UNL     1      -6.802   4.853 -30.635  1.00  0.00     0.034 A 
HETATM   14  C   UNL     1      -5.705   4.752 -29.784  1.00  0.00     0.030 A 
HETATM   15  C   UNL     1      -4.618   5.637 -29.921  1.00  0.00     0.020 A 
HETATM   16  C   UNL     1      -4.617   6.629 -30.909  1.00  0.00     0.039 A 
HETATM   17  C   UNL     1      -5.739   6.769 -31.725  1.00  0.00     0.020 A 
HETATM   18  C   UNL     1      -6.817   5.889 -31.585  1.00  0.00     0.030 A 
BRANCH  16  19
HETATM   19  C   UNL     1      -3.397   7.466 -31.089  1.00  0.00     0.293 C 
HETATM   20  O   UNL     1      -3.364   8.480 -31.769  1.00  0.00    -0.259 OA
BRANCH  19  21
HETATM   21  O   UNL     1      -2.383   6.976 -30.330  1.00  0.00    -0.318 OA
BRANCH  21  22
HETATM   22  C   UNL     1      -1.152   7.713 -30.364  1.00  0.00     0.174 C 
HETATM   23  C   UNL     1      -0.066   6.907 -31.049  1.00  0.00     0.034 C 
ENDBRANCH  21  22
ENDBRANCH  19  21
ENDBRANCH  16  19
ENDBRANCH  10  13
ENDBRANCH   8   9
ENDBRANCH   1   8
BRANCH   2  24
HETATM   24  C   UNL     1      -3.995   2.508 -32.107  1.00  0.00     0.168 C 
BRANCH  24  25
HETATM   25  C   UNL     1      -3.629   3.698 -32.946  1.00  0.00    -0.023 A 
HETATM   26  C   UNL     1      -4.509   4.249 -33.870  1.00  0.00     0.125 A 
HETATM   27  N   UNL     1      -4.212   5.299 -34.670  1.00  0.00    -0.273 NA
HETATM   28  C   UNL     1      -2.964   5.803 -34.576  1.00  0.00     0.116 A 
HETATM   29  C   UNL     1      -2.001   5.310 -33.714  1.00  0.00     0.020 A 
HETATM   30  C   UNL     1      -2.340   4.240 -32.893  1.00  0.00     0.012 A 
ENDBRANCH  24  25
ENDBRANCH   2  24
BRANCH   5  31
HETATM   31  C   UNL     1      -5.649  -1.766 -33.932  1.00  0.00     0.047 A 
HETATM   32  C   UNL     1      -4.541  -2.605 -33.705  1.00  0.00     0.037 A 
HETATM   33  C   UNL     1      -4.532  -3.958 -34.091  1.00  0.00    -0.060 A 
HETATM   34  C   UNL     1      -3.323  -4.815 -33.847  1.00  0.00     0.048 C 
HETATM   35  C   UNL     1      -5.644  -4.486 -34.745  1.00  0.00     0.007 A 
HETATM   36  C   UNL     1      -6.748  -3.676 -34.995  1.00  0.00     0.003 A 
HETATM   37  C   UNL     1      -6.747  -2.334 -34.595  1.00  0.00     0.030 A 
ENDBRANCH   5  31
TORSDOF 9
ENDMDL
MODEL 6
REMARK VINA RESULT:      -8.7      3.633      6.918
REMARK  9 active torsions:
REMARK  status: ('A' for Active; 'I' for Inactive)
REMARK    1  A    between atoms: C_2  and  O_3 
REMARK    2  A    between atoms: O_3  and  C_4 
REMARK    3  A    between atoms: C_4  and  C_5 
REMARK    4  A    between atoms: C_8  and  N_9 
REMARK       I    between atoms: N_9  and  C_10 
REMARK    5  A    between atoms: C_10  and  C_11 
REMARK    6  A    between atoms: C_11  and  C_12 
REMARK    7  A    between atoms: N_13  and  C_14 
REMARK    8  A    between atoms: C_14  and  C_15 
REMARK    9  A    between atoms: N_23  and  C_24 
ROOT
HETATM    1  C   UNL     1      -4.184   4.885 -31.955  1.00  0.00     0.191 C 
HETATM    2  N   UNL     1      -5.275   4.580 -31.048  1.00  0.00    -0.315 N 
HETATM    3  C   UNL     1      -5.726   3.273 -31.208  1.00  0.00     0.333 C 
HETATM    4  O   UNL     1      -6.762   2.875 -30.696  1.00  0.00    -0.246 OA
HETATM    5  N   UNL     1      -4.850   2.601 -32.035  1.00  0.00    -0.232 N 
HETATM    6  C   UNL     1      -3.864   3.474 -32.453  1.00  0.00     0.256 C 
HETATM    7  O   UNL     1      -2.886   3.252 -33.159  1.00  0.00    -0.270 OA
ENDROOT
BRANCH   1   8
HETATM    8  C   UNL     1      -4.541   5.717 -33.184  1.00  0.00     0.138 C 
BRANCH   8   9
HETATM    9  C   UNL     1      -3.385   5.896 -34.123  1.00  0.00     0.224 C 
HETATM   10  N   UNL     1      -2.176   6.393 -33.770  1.00  0.00    -0.327 N 
HETATM   11  H   UNL     1      -1.621   6.523 -34.611  1.00  0.00     0.169 HD
HETATM   12  O   UNL     1      -3.539   5.615 -35.319  1.00  0.00    -0.273 OA
BRANCH  10  13
HETATM   13  C   UNL     1      -1.493   6.660 -32.573  1.00  0.00     0.034 A 
HETATM   14  C   UNL     1      -1.735   7.715 -31.698  1.00  0.00     0.030 A 
HETATM   15  C   UNL     1      -1.063   7.780 -30.462  1.00  0.00     0.020 A 
HETATM   16  C   UNL     1      -0.142   6.792 -30.090  1.00  0.00     0.039 A 
HETATM   17  C   UNL     1       0.145   5.765 -30.988  1.00  0.00     0.020 A 
HETATM   18  C   UNL     1      -0.525   5.705 -32.215  1.00  0.00     0.030 A 
BRANCH  16  19
HETATM   19  C   UNL     1       0.457   6.844 -28.726  1.00  0.00     0.293 C 
HETATM   20  O   UNL     1       0.421   5.915 -27.935  1.00  0.00    -0.259 OA
BRANCH  19  21
HETATM   21  O   UNL     1       1.100   8.026 -28.547  1.00  0.00    -0.318 OA
BRANCH  21  22
HETATM   22  C   UNL     1       0.851   8.702 -27.305  1.00  0.00     0.174 C 
HETATM   23  C   UNL     1       2.041   8.568 -26.377  1.00  0.00     0.034 C 
ENDBRANCH  21  22
ENDBRANCH  19  21
ENDBRANCH  16  19
ENDBRANCH  10  13
ENDBRANCH   8   9
ENDBRANCH   1   8
BRANCH   2  24
HETATM   24  C   UNL     1      -6.087   5.568 -30.350  1.00  0.00     0.168 C 
BRANCH  24  25
HETATM   25  C   UNL     1      -5.456   6.173 -29.128  1.00  0.00    -0.023 A 
HETATM   26  C   UNL     1      -5.691   5.675 -27.852  1.00  0.00     0.125 A 
HETATM   27  N   UNL     1      -5.173   6.206 -26.721  1.00  0.00    -0.273 NA
HETATM   28  C   UNL     1      -4.412   7.311 -26.860  1.00  0.00     0.116 A 
HETATM   29  C   UNL     1      -4.140   7.907 -28.079  1.00  0.00     0.020 A 
HETATM   30  C   UNL     1      -4.676   7.330 -29.225  1.00  0.00     0.012 A 
ENDBRANCH  24  25
ENDBRANCH   2  24
BRANCH   5  31
HETATM   31  C   UNL     1      -4.988   1.235 -32.433  1.00  0.00     0.047 A 
HETATM   32  C   UNL     1      -5.885   0.851 -33.449  1.00  0.00     0.037 A 
HETATM   33  C   UNL     1      -5.996  -0.480 -33.891  1.00  0.00    -0.060 A 
HETATM   34  C   UNL     1      -6.978  -0.850 -34.964  1.00  0.00     0.048 C 
HETATM   35  C   UNL     1      -5.212  -1.462 -33.288  1.00  0.00     0.007 A 
HETATM   36  C   UNL     1      -4.328  -1.115 -32.272  1.00  0.00     0.003 A 
HETATM   37  C   UNL     1      -4.220   0.216 -31.850  1.00  0.00     0.030 A 
ENDBRANCH   5  31
TORSDOF 9
ENDMDL
MODEL 7
REMARK VINA RESULT:      -8.5      3.022      6.536
REMARK  9 active torsions:
REMARK  status: ('A' for Active; 'I' for Inactive)
REMARK    1  A    between atoms: C_2  and  O_3 
REMARK    2  A    between atoms: O_3  and  C_4 
REMARK    3  A    between atoms: C_4  and  C_5 
REMARK    4  A    between atoms: C_8  and  N_9 
REMARK       I    between atoms: N_9  and  C_10 
REMARK    5  A    between atoms: C_10  and  C_11 
REMARK    6  A    between atoms: C_11  and  C_12 
REMARK    7  A    between atoms: N_13  and  C_14 
REMARK    8  A    between atoms: C_14  and  C_15 
REMARK    9  A    between atoms: N_23  and  C_24 
ROOT
HETATM    1  C   UNL     1      -5.957   3.398 -33.760  1.00  0.00     0.191 C 
HETATM    2  N   UNL     1      -6.175   2.151 -33.050  1.00  0.00    -0.315 N 
HETATM    3  C   UNL     1      -7.398   2.144 -32.388  1.00  0.00     0.333 C 
HETATM    4  O   UNL     1      -7.690   1.286 -31.568  1.00  0.00    -0.246 OA
HETATM    5  N   UNL     1      -8.124   3.247 -32.789  1.00  0.00    -0.232 N 
HETATM    6  C   UNL     1      -7.363   3.994 -33.665  1.00  0.00     0.256 C 
HETATM    7  O   UNL     1      -7.665   5.018 -34.270  1.00  0.00    -0.270 OA
ENDROOT
BRANCH   1   8
HETATM    8  C   UNL     1      -5.009   4.394 -33.100  1.00  0.00     0.138 C 
BRANCH   8   9
HETATM    9  C   UNL     1      -4.167   5.142 -34.090  1.00  0.00     0.224 C 
HETATM   10  N   UNL     1      -3.086   5.894 -33.770  1.00  0.00    -0.327 N 
HETATM   11  H   UNL     1      -2.775   6.386 -34.603  1.00  0.00     0.169 HD
HETATM   12  O   UNL     1      -4.489   5.120 -35.286  1.00  0.00    -0.273 OA
BRANCH  10  13
HETATM   13  C   UNL     1      -2.262   6.068 -32.647  1.00  0.00     0.034 A 
HETATM   14  C   UNL     1      -2.469   6.958 -31.597  1.00  0.00     0.030 A 
HETATM   15  C   UNL     1      -1.632   6.928 -30.466  1.00  0.00     0.020 A 
HETATM   16  C   UNL     1      -0.579   6.009 -30.373  1.00  0.00     0.039 A 
HETATM   17  C   UNL     1      -0.333   5.155 -31.448  1.00  0.00     0.020 A 
HETATM   18  C   UNL     1      -1.167   5.189 -32.570  1.00  0.00     0.030 A 
BRANCH  16  19
HETATM   19  C   UNL     1       0.208   5.940 -29.109  1.00  0.00     0.293 C 
HETATM   20  O   UNL     1       1.020   5.062 -28.864  1.00  0.00    -0.259 OA
BRANCH  19  21
HETATM   21  O   UNL     1      -0.061   7.023 -28.336  1.00  0.00    -0.318 OA
BRANCH  21  22
HETATM   22  C   UNL     1       0.355   6.943 -26.965  1.00  0.00     0.174 C 
HETATM   23  C   UNL     1       1.592   7.788 -26.732  1.00  0.00     0.034 C 
ENDBRANCH  21  22
ENDBRANCH  19  21
ENDBRANCH  16  19
ENDBRANCH  10  13
ENDBRANCH   8   9
ENDBRANCH   1   8
BRANCH   2  24
HETATM   24  C   UNL     1      -5.136   1.189 -32.706  1.00  0.00     0.168 C 
BRANCH  24  25
HETATM   25  C   UNL     1      -5.252  -0.151 -33.376  1.00  0.00    -0.023 A 
HETATM   26  C   UNL     1      -4.284  -1.137 -33.228  1.00  0.00     0.125 A 
HETATM   27  N   UNL     1      -4.329  -2.344 -33.837  1.00  0.00    -0.273 NA
HETATM   28  C   UNL     1      -5.368  -2.570 -34.666  1.00  0.00     0.116 A 
HETATM   29  C   UNL     1      -6.369  -1.646 -34.910  1.00  0.00     0.020 A 
HETATM   30  C   UNL     1      -6.304  -0.419 -34.258  1.00  0.00     0.012 A 
ENDBRANCH  24  25
ENDBRANCH   2  24
BRANCH   5  31
HETATM   31  C   UNL     1      -9.433   3.579 -32.316  1.00  0.00     0.047 A 
HETATM   32  C   UNL     1     -10.590   3.178 -33.010  1.00  0.00     0.037 A 
HETATM   33  C   UNL     1     -11.885   3.449 -32.532  1.00  0.00    -0.060 A 
HETATM   34  C   UNL     1     -13.094   3.020 -33.312  1.00  0.00     0.048 C 
HETATM   35  C   UNL     1     -12.035   4.161 -31.343  1.00  0.00     0.007 A 
HETATM   36  C   UNL     1     -10.909   4.583 -30.643  1.00  0.00     0.003 A 
HETATM   37  C   UNL     1      -9.625   4.296 -31.126  1.00  0.00     0.030 A 
ENDBRANCH   5  31
TORSDOF 9
ENDMDL
MODEL 8
REMARK VINA RESULT:      -8.4      2.602      7.734
REMARK  9 active torsions:
REMARK  status: ('A' for Active; 'I' for Inactive)
REMARK    1  A    between atoms: C_2  and  O_3 
REMARK    2  A    between atoms: O_3  and  C_4 
REMARK    3  A    between atoms: C_4  and  C_5 
REMARK    4  A    between atoms: C_8  and  N_9 
REMARK       I    between atoms: N_9  and  C_10 
REMARK    5  A    between atoms: C_10  and  C_11 
REMARK    6  A    between atoms: C_11  and  C_12 
REMARK    7  A    between atoms: N_13  and  C_14 
REMARK    8  A    between atoms: C_14  and  C_15 
REMARK    9  A    between atoms: N_23  and  C_24 
ROOT
HETATM    1  C   UNL     1      -4.983   2.591 -32.093  1.00  0.00     0.191 C 
HETATM    2  N   UNL     1      -5.668   3.808 -31.700  1.00  0.00    -0.315 N 
HETATM    3  C   UNL     1      -4.772   4.837 -31.429  1.00  0.00     0.333 C 
HETATM    4  O   UNL     1      -5.119   5.877 -30.887  1.00  0.00    -0.246 OA
HETATM    5  N   UNL     1      -3.512   4.443 -31.828  1.00  0.00    -0.232 N 
HETATM    6  C   UNL     1      -3.574   3.149 -32.307  1.00  0.00     0.256 C 
HETATM    7  O   UNL     1      -2.681   2.461 -32.789  1.00  0.00    -0.270 OA
ENDROOT
BRANCH   1   8
HETATM    8  C   UNL     1      -4.871   1.504 -31.028  1.00  0.00     0.138 C 
BRANCH   8   9
HETATM    9  C   UNL     1      -4.938   0.119 -31.597  1.00  0.00     0.224 C 
HETATM   10  N   UNL     1      -6.057  -0.454 -32.101  1.00  0.00    -0.327 N 
HETATM   11  H   UNL     1      -5.859  -1.429 -32.305  1.00  0.00     0.169 HD
HETATM   12  O   UNL     1      -3.919  -0.585 -31.578  1.00  0.00    -0.273 OA
BRANCH  10  13
HETATM   13  C   UNL     1      -7.335  -0.024 -32.493  1.00  0.00     0.034 A 
HETATM   14  C   UNL     1      -8.368   0.382 -31.653  1.00  0.00     0.030 A 
HETATM   15  C   UNL     1      -9.551   0.921 -32.192  1.00  0.00     0.020 A 
HETATM   16  C   UNL     1      -9.715   1.060 -33.576  1.00  0.00     0.039 A 
HETATM   17  C   UNL     1      -8.706   0.602 -34.423  1.00  0.00     0.020 A 
HETATM   18  C   UNL     1      -7.532   0.066 -33.883  1.00  0.00     0.030 A 
BRANCH  16  19
HETATM   19  C   UNL     1     -10.936   1.739 -34.093  1.00  0.00     0.293 C 
HETATM   20  O   UNL     1     -10.930   2.521 -35.031  1.00  0.00    -0.259 OA
BRANCH  19  21
HETATM   21  O   UNL     1     -12.031   1.297 -33.423  1.00  0.00    -0.318 OA
BRANCH  21  22
HETATM   22  C   UNL     1     -13.275   1.934 -33.750  1.00  0.00     0.174 C 
HETATM   23  C   UNL     1     -14.245   0.935 -34.347  1.00  0.00     0.034 C 
ENDBRANCH  21  22
ENDBRANCH  19  21
ENDBRANCH  16  19
ENDBRANCH  10  13
ENDBRANCH   8   9
ENDBRANCH   1   8
BRANCH   2  24
HETATM   24  C   UNL     1      -7.050   3.882 -31.240  1.00  0.00     0.168 C 
BRANCH  24  25
HETATM   25  C   UNL     1      -8.034   4.412 -32.244  1.00  0.00    -0.023 A 
HETATM   26  C   UNL     1      -7.658   4.750 -33.539  1.00  0.00     0.125 A 
HETATM   27  N   UNL     1      -8.501   5.261 -34.466  1.00  0.00    -0.273 NA
HETATM   28  C   UNL     1      -9.773   5.484 -34.076  1.00  0.00     0.116 A 
HETATM   29  C   UNL     1     -10.244   5.215 -32.803  1.00  0.00     0.020 A 
HETATM   30  C   UNL     1      -9.358   4.676 -31.876  1.00  0.00     0.012 A 
ENDBRANCH  24  25
ENDBRANCH   2  24
BRANCH   5  31
HETATM   31  C   UNL     1      -2.329   5.238 -31.702  1.00  0.00     0.047 A 
HETATM   32  C   UNL     1      -1.326   4.922 -30.766  1.00  0.00     0.037 A 
HETATM   33  C   UNL     1      -0.133   5.661 -30.665  1.00  0.00    -0.060 A 
HETATM   34  C   UNL     1       0.904   5.302 -29.641  1.00  0.00     0.048 C 
HETATM   35  C   UNL     1       0.058   6.760 -31.501  1.00  0.00     0.007 A 
HETATM   36  C   UNL     1      -0.923   7.104 -32.426  1.00  0.00     0.003 A 
HETATM   37  C   UNL     1      -2.101   6.353 -32.523  1.00  0.00     0.030 A 
ENDBRANCH   5  31
TORSDOF 9
ENDMDL
MODEL 9
REMARK VINA RESULT:      -8.3      3.116      4.522
REMARK  9 active torsions:
REMARK  status: ('A' for Active; 'I' for Inactive)
REMARK    1  A    between atoms: C_2  and  O_3 
REMARK    2  A    between atoms: O_3  and  C_4 
REMARK    3  A    between atoms: C_4  and  C_5 
REMARK    4  A    between atoms: C_8  and  N_9 
REMARK       I    between atoms: N_9  and  C_10 
REMARK    5  A    between atoms: C_10  and  C_11 
REMARK    6  A    between atoms: C_11  and  C_12 
REMARK    7  A    between atoms: N_13  and  C_14 
REMARK    8  A    between atoms: C_14  and  C_15 
REMARK    9  A    between atoms: N_23  and  C_24 
ROOT
HETATM    1  C   UNL     1      -5.942   3.021 -32.317  1.00  0.00     0.191 C 
HETATM    2  N   UNL     1      -6.987   2.256 -31.663  1.00  0.00    -0.315 N 
HETATM    3  C   UNL     1      -6.768   0.887 -31.775  1.00  0.00     0.333 C 
HETATM    4  O   UNL     1      -7.623   0.064 -31.479  1.00  0.00    -0.246 OA
HETATM    5  N   UNL     1      -5.505   0.682 -32.292  1.00  0.00    -0.232 N 
HETATM    6  C   UNL     1      -4.924   1.905 -32.562  1.00  0.00     0.256 C 
HETATM    7  O   UNL     1      -3.800   2.147 -32.989  1.00  0.00    -0.270 OA
ENDROOT
BRANCH   1   8
HETATM    8  C   UNL     1      -6.289   3.610 -33.681  1.00  0.00     0.138 C 
BRANCH   8   9
HETATM    9  C   UNL     1      -6.689   5.054 -33.609  1.00  0.00     0.224 C 
HETATM   10  N   UNL     1      -5.954   6.028 -33.022  1.00  0.00    -0.327 N 
HETATM   11  H   UNL     1      -6.503   6.882 -33.005  1.00  0.00     0.169 HD
HETATM   12  O   UNL     1      -7.784   5.394 -34.076  1.00  0.00    -0.273 OA
BRANCH  10  13
HETATM   13  C   UNL     1      -4.639   6.170 -32.551  1.00  0.00     0.034 A 
HETATM   14  C   UNL     1      -4.251   6.407 -31.235  1.00  0.00     0.030 A 
HETATM   15  C   UNL     1      -2.888   6.389 -30.883  1.00  0.00     0.020 A 
HETATM   16  C   UNL     1      -1.900   6.135 -31.842  1.00  0.00     0.039 A 
HETATM   17  C   UNL     1      -2.281   5.955 -33.171  1.00  0.00     0.020 A 
HETATM   18  C   UNL     1      -3.636   5.974 -33.516  1.00  0.00     0.030 A 
BRANCH  16  19
HETATM   19  C   UNL     1      -0.481   6.014 -31.400  1.00  0.00     0.293 C 
HETATM   20  O   UNL     1       0.385   6.831 -31.672  1.00  0.00    -0.259 OA
BRANCH  19  21
HETATM   21  O   UNL     1      -0.335   4.924 -30.604  1.00  0.00    -0.318 OA
BRANCH  21  22
HETATM   22  C   UNL     1       0.840   4.892 -29.782  1.00  0.00     0.174 C 
HETATM   23  C   UNL     1       0.610   5.652 -28.491  1.00  0.00     0.034 C 
ENDBRANCH  21  22
ENDBRANCH  19  21
ENDBRANCH  16  19
ENDBRANCH  10  13
ENDBRANCH   8   9
ENDBRANCH   1   8
BRANCH   2  24
HETATM   24  C   UNL     1      -8.298   2.773 -31.292  1.00  0.00     0.168 C 
BRANCH  24  25
HETATM   25  C   UNL     1      -8.285   4.005 -30.433  1.00  0.00    -0.023 A 
HETATM   26  C   UNL     1      -7.438   4.132 -29.338  1.00  0.00     0.125 A 
HETATM   27  N   UNL     1      -7.414   5.207 -28.517  1.00  0.00    -0.273 NA
HETATM   28  C   UNL     1      -8.301   6.190 -28.772  1.00  0.00     0.116 A 
HETATM   29  C   UNL     1      -9.209   6.151 -29.816  1.00  0.00     0.020 A 
HETATM   30  C   UNL     1      -9.201   5.040 -30.652  1.00  0.00     0.012 A 
ENDBRANCH  24  25
ENDBRANCH   2  24
BRANCH   5  31
HETATM   31  C   UNL     1      -4.928  -0.601 -32.554  1.00  0.00     0.047 A 
HETATM   32  C   UNL     1      -5.341  -1.383 -33.650  1.00  0.00     0.037 A 
HETATM   33  C   UNL     1      -4.747  -2.621 -33.955  1.00  0.00    -0.060 A 
HETATM   34  C   UNL     1      -5.228  -3.433 -35.123  1.00  0.00     0.048 C 
HETATM   35  C   UNL     1      -3.734  -3.110 -33.132  1.00  0.00     0.007 A 
HETATM   36  C   UNL     1      -3.317  -2.366 -32.033  1.00  0.00     0.003 A 
HETATM   37  C   UNL     1      -3.909  -1.128 -31.748  1.00  0.00     0.030 A 
ENDBRANCH   5  31
TORSDOF 9
ENDMDL
MODEL 10
REMARK VINA RESULT:      -8.3      1.725      5.774
REMARK  9 active torsions:
REMARK  status: ('A' for Active; 'I' for Inactive)
REMARK    1  A    between atoms: C_2  and  O_3 
REMARK    2  A    between atoms: O_3  and  C_4 
REMARK    3  A    between atoms: C_4  and  C_5 
REMARK    4  A    between atoms: C_8  and  N_9 
REMARK       I    between atoms: N_9  and  C_10 
REMARK    5  A    between atoms: C_10  and  C_11 
REMARK    6  A    between atoms: C_11  and  C_12 
REMARK    7  A    between atoms: N_13  and  C_14 
REMARK    8  A    between atoms: C_14  and  C_15 
REMARK    9  A    between atoms: N_23  and  C_24 
ROOT
HETATM    1  C   UNL     1      -8.262   2.469 -33.887  1.00  0.00     0.191 C 
HETATM    2  N   UNL     1      -8.292   1.233 -33.128  1.00  0.00    -0.315 N 
HETATM    3  C   UNL     1      -9.593   0.858 -32.807  1.00  0.00     0.333 C 
HETATM    4  O   UNL     1      -9.835  -0.030 -32.003  1.00  0.00    -0.246 OA
HETATM    5  N   UNL     1     -10.469   1.669 -33.498  1.00  0.00    -0.232 N 
HETATM    6  C   UNL     1      -9.749   2.597 -34.223  1.00  0.00     0.256 C 
HETATM    7  O   UNL     1     -10.158   3.462 -34.992  1.00  0.00    -0.270 OA
ENDROOT
BRANCH   1   8
HETATM    8  C   UNL     1      -7.873   3.726 -33.116  1.00  0.00     0.138 C 
BRANCH   8   9
HETATM    9  C   UNL     1      -7.753   3.492 -31.640  1.00  0.00     0.224 C 
HETATM   10  N   UNL     1      -6.582   3.369 -30.971  1.00  0.00    -0.327 N 
HETATM   11  H   UNL     1      -6.782   3.096 -30.014  1.00  0.00     0.169 HD
HETATM   12  O   UNL     1      -8.787   3.356 -30.971  1.00  0.00    -0.273 OA
BRANCH  10  13
HETATM   13  C   UNL     1      -5.226   3.621 -31.235  1.00  0.00     0.034 A 
HETATM   14  C   UNL     1      -4.337   2.772 -31.889  1.00  0.00     0.030 A 
HETATM   15  C   UNL     1      -3.039   3.213 -32.207  1.00  0.00     0.020 A 
HETATM   16  C   UNL     1      -2.615   4.506 -31.876  1.00  0.00     0.039 A 
HETATM   17  C   UNL     1      -3.483   5.339 -31.170  1.00  0.00     0.020 A 
HETATM   18  C   UNL     1      -4.772   4.896 -30.856  1.00  0.00     0.030 A 
BRANCH  16  19
HETATM   19  C   UNL     1      -1.273   4.965 -32.334  1.00  0.00     0.293 C 
HETATM   20  O   UNL     1      -1.087   5.587 -33.368  1.00  0.00    -0.259 OA
BRANCH  19  21
HETATM   21  O   UNL     1      -0.335   4.656 -31.402  1.00  0.00    -0.318 OA
BRANCH  21  22
HETATM   22  C   UNL     1       0.344   5.765 -30.795  1.00  0.00     0.174 C 
HETATM   23  C   UNL     1       0.324   5.641 -29.284  1.00  0.00     0.034 C 
ENDBRANCH  21  22
ENDBRANCH  19  21
ENDBRANCH  16  19
ENDBRANCH  10  13
ENDBRANCH   8   9
ENDBRANCH   1   8
BRANCH   2  24
HETATM   24  C   UNL     1      -7.155   0.651 -32.426  1.00  0.00     0.168 C 
BRANCH  24  25
HETATM   25  C   UNL     1      -6.485  -0.497 -33.125  1.00  0.00    -0.023 A 
HETATM   26  C   UNL     1      -5.167  -0.852 -32.866  1.00  0.00     0.125 A 
HETATM   27  N   UNL     1      -4.512  -1.856 -33.494  1.00  0.00    -0.273 NA
HETATM   28  C   UNL     1      -5.189  -2.517 -34.456  1.00  0.00     0.116 A 
HETATM   29  C   UNL     1      -6.493  -2.225 -34.815  1.00  0.00     0.020 A 
HETATM   30  C   UNL     1      -7.145  -1.198 -34.141  1.00  0.00     0.012 A 
ENDBRANCH  24  25
ENDBRANCH   2  24
BRANCH   5  31
HETATM   31  C   UNL     1     -11.895   1.586 -33.418  1.00  0.00     0.047 A 
HETATM   32  C   UNL     1     -12.659   2.601 -32.811  1.00  0.00     0.037 A 
HETATM   33  C   UNL     1     -14.064   2.563 -32.771  1.00  0.00    -0.060 A 
HETATM   34  C   UNL     1     -14.841   3.657 -32.098  1.00  0.00     0.048 C 
HETATM   35  C   UNL     1     -14.729   1.471 -33.325  1.00  0.00     0.007 A 
HETATM   36  C   UNL     1     -14.000   0.445 -33.918  1.00  0.00     0.003 A 
HETATM   37  C   UNL     1     -12.601   0.502 -33.961  1.00  0.00     0.030 A 
ENDBRANCH   5  31
TORSDOF 9
ENDMDL
