MODEL 1
REMARK VINA RESULT:      -9.4      0.000      0.000
REMARK  6 active torsions:
REMARK  status: ('A' for Active; 'I' for Inactive)
REMARK    1  A    between atoms: C_5  and  C_6 
REMARK    2  A    between atoms: C_6  and  N_7 
REMARK    3  A    between atoms: C_9  and  C_10 
REMARK    4  A    between atoms: C_17  and  C_18 
REMARK       I    between atoms: C_18  and  N_19 
REMARK    5  A    between atoms: N_19  and  C_20 
REMARK    6  A    between atoms: C_23  and  O_24 
ROOT
HETATM    1  N   UNL     1      -7.096   1.902 -31.198  1.00  0.00    -0.275 N 
HETATM    2  N   UNL     1      -6.907   0.683 -31.730  1.00  0.00    -0.171 NA
HETATM    3  C   UNL     1      -5.580   0.591 -31.943  1.00  0.00     0.104 A 
HETATM    4  C   UNL     1      -4.937   1.831 -31.621  1.00  0.00     0.080 A 
HETATM    5  C   UNL     1      -5.944   2.614 -31.085  1.00  0.00     0.132 A 
ENDROOT
BRANCH   4   6
HETATM    6  C   UNL     1      -3.574   2.316 -31.787  1.00  0.00     0.255 C 
HETATM    7  N   UNL     1      -3.445   3.377 -32.651  1.00  0.00    -0.352 N 
HETATM    8  H   UNL     1      -4.304   3.742 -33.044  1.00  0.00     0.163 HD
HETATM    9  O   UNL     1      -2.655   1.860 -31.120  1.00  0.00    -0.268 OA
BRANCH   7  10
HETATM   10  C   UNL     1      -2.262   4.217 -32.837  1.00  0.00     0.084 C 
HETATM   11  C   UNL     1      -2.078   4.668 -34.293  1.00  0.00     0.028 C 
HETATM   12  C   UNL     1      -2.733   6.006 -34.631  1.00  0.00     0.034 C 
HETATM   13  C   UNL     1      -2.353   7.094 -33.633  1.00  0.00     0.118 C 
HETATM   14  C   UNL     1      -2.679   6.698 -32.197  1.00  0.00     0.034 C 
HETATM   15  C   UNL     1      -2.096   5.339 -31.804  1.00  0.00     0.028 C 
BRANCH  13  16
HETATM   16  O   UNL     1      -0.951   7.349 -33.728  1.00  0.00    -0.396 OA
HETATM   17  H   UNL     1      -0.746   8.059 -33.096  1.00  0.00     0.210 HD
ENDBRANCH  13  16
ENDBRANCH   7  10
ENDBRANCH   4   6
BRANCH   3  18
HETATM   18  C   UNL     1      -5.027  -0.672 -32.457  1.00  0.00    -0.005 A 
HETATM   19  C   UNL     1      -5.573  -1.248 -33.615  1.00  0.00     0.014 A 
HETATM   20  C   UNL     1      -5.087  -2.457 -34.120  1.00  0.00     0.007 A 
HETATM   21  C   UNL     1      -4.042  -3.123 -33.473  1.00  0.00    -0.062 A 
HETATM   22  C   UNL     1      -3.520  -4.413 -34.032  1.00  0.00     0.048 C 
HETATM   23  C   UNL     1      -3.494  -2.559 -32.317  1.00  0.00     0.007 A 
HETATM   24  C   UNL     1      -3.992  -1.353 -31.805  1.00  0.00     0.014 A 
ENDBRANCH   3  18
BRANCH   1  25
HETATM   25  C   UNL     1      -8.448   2.405 -30.990  1.00  0.00     0.189 C 
BRANCH  25  26
HETATM   26  C   UNL     1      -9.345   2.211 -32.186  1.00  0.00    -0.038 A 
HETATM   27  C   UNL     1      -9.943   0.968 -32.434  1.00  0.00     0.009 A 
HETATM   28  C   UNL     1     -10.837   0.808 -33.496  1.00  0.00     0.007 A 
HETATM   29  C   UNL     1     -11.142   1.883 -34.337  1.00  0.00    -0.062 A 
HETATM   30  C   UNL     1     -12.145   1.729 -35.442  1.00  0.00     0.048 C 
HETATM   31  C   UNL     1     -10.547   3.124 -34.093  1.00  0.00     0.007 A 
HETATM   32  C   UNL     1      -9.654   3.287 -33.031  1.00  0.00     0.009 A 
ENDBRANCH  25  26
ENDBRANCH   1  25
TORSDOF 6
ENDMDL
MODEL 2
REMARK VINA RESULT:      -9.3      2.229      3.169
REMARK  6 active torsions:
REMARK  status: ('A' for Active; 'I' for Inactive)
REMARK    1  A    between atoms: C_5  and  C_6 
REMARK    2  A    between atoms: C_6  and  N_7 
REMARK    3  A    between atoms: C_9  and  C_10 
REMARK    4  A    between atoms: C_17  and  C_18 
REMARK       I    between atoms: C_18  and  N_19 
REMARK    5  A    between atoms: N_19  and  C_20 
REMARK    6  A    between atoms: C_23  and  O_24 
ROOT
HETATM    1  N   UNL     1      -9.233   1.502 -33.874  1.00  0.00    -0.275 N 
HETATM    2  N   UNL     1      -8.578   0.444 -34.380  1.00  0.00    -0.171 NA
HETATM    3  C   UNL     1      -7.560   0.217 -33.528  1.00  0.00     0.104 A 
HETATM    4  C   UNL     1      -7.527   1.228 -32.511  1.00  0.00     0.080 A 
HETATM    5  C   UNL     1      -8.661   1.987 -32.741  1.00  0.00     0.132 A 
ENDROOT
BRANCH   4   6
HETATM    6  C   UNL     1      -6.583   1.536 -31.446  1.00  0.00     0.255 C 
HETATM    7  N   UNL     1      -5.537   2.343 -31.825  1.00  0.00    -0.352 N 
HETATM    8  H   UNL     1      -5.552   2.679 -32.780  1.00  0.00     0.163 HD
HETATM    9  O   UNL     1      -6.787   1.173 -30.296  1.00  0.00    -0.268 OA
BRANCH   7  10
HETATM   10  C   UNL     1      -4.577   3.005 -30.941  1.00  0.00     0.084 C 
HETATM   11  C   UNL     1      -3.127   2.856 -31.422  1.00  0.00     0.028 C 
HETATM   12  C   UNL     1      -2.641   3.985 -32.330  1.00  0.00     0.034 C 
HETATM   13  C   UNL     1      -2.915   5.359 -31.730  1.00  0.00     0.118 C 
HETATM   14  C   UNL     1      -4.388   5.556 -31.392  1.00  0.00     0.034 C 
HETATM   15  C   UNL     1      -4.960   4.432 -30.524  1.00  0.00     0.028 C 
BRANCH  13  16
HETATM   16  O   UNL     1      -2.150   5.508 -30.532  1.00  0.00    -0.396 OA
HETATM   17  H   UNL     1      -2.257   6.429 -30.238  1.00  0.00     0.210 HD
ENDBRANCH  13  16
ENDBRANCH   7  10
ENDBRANCH   4   6
BRANCH   3  18
HETATM   18  C   UNL     1      -6.682  -0.940 -33.759  1.00  0.00    -0.005 A 
HETATM   19  C   UNL     1      -5.339  -0.885 -33.350  1.00  0.00     0.014 A 
HETATM   20  C   UNL     1      -4.470  -1.956 -33.573  1.00  0.00     0.007 A 
HETATM   21  C   UNL     1      -4.924  -3.111 -34.216  1.00  0.00    -0.062 A 
HETATM   22  C   UNL     1      -3.986  -4.261 -34.436  1.00  0.00     0.048 C 
HETATM   23  C   UNL     1      -6.259  -3.175 -34.629  1.00  0.00     0.007 A 
HETATM   24  C   UNL     1      -7.125  -2.093 -34.417  1.00  0.00     0.014 A 
ENDBRANCH   3  18
BRANCH   1  25
HETATM   25  C   UNL     1     -10.307   2.126 -34.637  1.00  0.00     0.189 C 
BRANCH  25  26
HETATM   26  C   UNL     1     -11.641   2.074 -33.937  1.00  0.00    -0.038 A 
HETATM   27  C   UNL     1     -12.105   3.176 -33.206  1.00  0.00     0.009 A 
HETATM   28  C   UNL     1     -13.375   3.160 -32.623  1.00  0.00     0.007 A 
HETATM   29  C   UNL     1     -14.201   2.038 -32.749  1.00  0.00    -0.062 A 
HETATM   30  C   UNL     1     -15.586   2.040 -32.174  1.00  0.00     0.048 C 
HETATM   31  C   UNL     1     -13.741   0.937 -33.478  1.00  0.00     0.007 A 
HETATM   32  C   UNL     1     -12.473   0.952 -34.063  1.00  0.00     0.009 A 
ENDBRANCH  25  26
ENDBRANCH   1  25
TORSDOF 6
ENDMDL
MODEL 3
REMARK VINA RESULT:      -9.3      2.272      7.326
REMARK  6 active torsions:
REMARK  status: ('A' for Active; 'I' for Inactive)
REMARK    1  A    between atoms: C_5  and  C_6 
REMARK    2  A    between atoms: C_6  and  N_7 
REMARK    3  A    between atoms: C_9  and  C_10 
REMARK    4  A    between atoms: C_17  and  C_18 
REMARK       I    between atoms: C_18  and  N_19 
REMARK    5  A    between atoms: N_19  and  C_20 
REMARK    6  A    between atoms: C_23  and  O_24 
ROOT
HETATM    1  N   UNL     1      -3.520  -0.068 -31.774  1.00  0.00    -0.275 N 
HETATM    2  N   UNL     1      -2.850   1.015 -32.200  1.00  0.00    -0.171 NA
HETATM    3  C   UNL     1      -3.696   2.048 -32.017  1.00  0.00     0.104 A 
HETATM    4  C   UNL     1      -4.967   1.575 -31.552  1.00  0.00     0.080 A 
HETATM    5  C   UNL     1      -4.778   0.219 -31.348  1.00  0.00     0.132 A 
ENDROOT
BRANCH   4   6
HETATM    6  C   UNL     1      -6.250   2.228 -31.328  1.00  0.00     0.255 C 
HETATM    7  N   UNL     1      -7.306   1.658 -31.997  1.00  0.00    -0.352 N 
HETATM    8  H   UNL     1      -7.100   0.824 -32.533  1.00  0.00     0.163 HD
HETATM    9  O   UNL     1      -6.360   3.144 -30.524  1.00  0.00    -0.268 OA
BRANCH   7  10
HETATM   10  C   UNL     1      -8.727   1.938 -31.791  1.00  0.00     0.084 C 
HETATM   11  C   UNL     1      -9.255   3.042 -32.718  1.00  0.00     0.028 C 
HETATM   12  C   UNL     1      -9.836   2.537 -34.038  1.00  0.00     0.034 C 
HETATM   13  C   UNL     1     -10.853   1.422 -33.824  1.00  0.00     0.118 C 
HETATM   14  C   UNL     1     -10.273   0.259 -33.028  1.00  0.00     0.034 C 
HETATM   15  C   UNL     1      -9.626   0.697 -31.712  1.00  0.00     0.028 C 
BRANCH  13  16
HETATM   16  O   UNL     1     -11.978   1.944 -33.115  1.00  0.00    -0.396 OA
HETATM   17  H   UNL     1     -12.699   2.050 -33.760  1.00  0.00     0.210 HD
ENDBRANCH  13  16
ENDBRANCH   7  10
ENDBRANCH   4   6
BRANCH   3  18
HETATM   18  C   UNL     1      -3.232   3.411 -32.320  1.00  0.00    -0.005 A 
HETATM   19  C   UNL     1      -3.787   4.107 -33.406  1.00  0.00     0.014 A 
HETATM   20  C   UNL     1      -3.355   5.395 -33.738  1.00  0.00     0.007 A 
HETATM   21  C   UNL     1      -2.352   6.017 -32.988  1.00  0.00    -0.062 A 
HETATM   22  C   UNL     1      -1.907   7.405 -33.343  1.00  0.00     0.048 C 
HETATM   23  C   UNL     1      -1.792   5.330 -31.906  1.00  0.00     0.007 A 
HETATM   24  C   UNL     1      -2.217   4.034 -31.585  1.00  0.00     0.014 A 
ENDBRANCH   3  18
BRANCH   1  25
HETATM   25  C   UNL     1      -2.958  -1.398 -31.977  1.00  0.00     0.189 C 
BRANCH  25  26
HETATM   26  C   UNL     1      -3.747  -2.234 -32.952  1.00  0.00    -0.038 A 
HETATM   27  C   UNL     1      -3.543  -3.618 -33.030  1.00  0.00     0.009 A 
HETATM   28  C   UNL     1      -4.330  -4.407 -33.875  1.00  0.00     0.007 A 
HETATM   29  C   UNL     1      -5.326  -3.826 -34.666  1.00  0.00    -0.062 A 
HETATM   30  C   UNL     1      -6.209  -4.675 -35.530  1.00  0.00     0.048 C 
HETATM   31  C   UNL     1      -5.532  -2.444 -34.589  1.00  0.00     0.007 A 
HETATM   32  C   UNL     1      -4.749  -1.655 -33.744  1.00  0.00     0.009 A 
ENDBRANCH  25  26
ENDBRANCH   1  25
TORSDOF 6
ENDMDL
MODEL 4
REMARK VINA RESULT:      -9.2      2.017      6.010
REMARK  6 active torsions:
REMARK  status: ('A' for Active; 'I' for Inactive)
REMARK    1  A    between atoms: C_5  and  C_6 
REMARK    2  A    between atoms: C_6  and  N_7 
REMARK    3  A    between atoms: C_9  and  C_10 
REMARK    4  A    between atoms: C_17  and  C_18 
REMARK       I    between atoms: C_18  and  N_19 
REMARK    5  A    between atoms: N_19  and  C_20 
REMARK    6  A    between atoms: C_23  and  O_24 
ROOT
HETATM    1  N   UNL     1      -6.193   0.783 -32.427  1.00  0.00    -0.275 N 
HETATM    2  N   UNL     1      -7.421   1.073 -31.968  1.00  0.00    -0.171 NA
HETATM    3  C   UNL     1      -7.651   2.344 -32.352  1.00  0.00     0.104 A 
HETATM    4  C   UNL     1      -6.488   2.891 -32.986  1.00  0.00     0.080 A 
HETATM    5  C   UNL     1      -5.606   1.828 -33.069  1.00  0.00     0.132 A 
ENDROOT
BRANCH   4   6
HETATM    6  C   UNL     1      -6.147   4.226 -33.458  1.00  0.00     0.255 C 
HETATM    7  N   UNL     1      -4.893   4.658 -33.099  1.00  0.00    -0.352 N 
HETATM    8  H   UNL     1      -4.320   3.995 -32.591  1.00  0.00     0.163 HD
HETATM    9  O   UNL     1      -6.901   4.846 -34.196  1.00  0.00    -0.268 OA
BRANCH   7  10
HETATM   10  C   UNL     1      -4.191   5.833 -33.613  1.00  0.00     0.084 C 
HETATM   11  C   UNL     1      -3.460   6.616 -32.513  1.00  0.00     0.028 C 
HETATM   12  C   UNL     1      -2.008   6.194 -32.293  1.00  0.00     0.034 C 
HETATM   13  C   UNL     1      -1.221   6.156 -33.598  1.00  0.00     0.118 C 
HETATM   14  C   UNL     1      -1.877   5.255 -34.639  1.00  0.00     0.034 C 
HETATM   15  C   UNL     1      -3.352   5.586 -34.874  1.00  0.00     0.028 C 
BRANCH  13  16
HETATM   16  O   UNL     1      -1.133   7.478 -34.132  1.00  0.00    -0.396 OA
HETATM   17  H   UNL     1      -0.695   8.029 -33.460  1.00  0.00     0.210 HD
ENDBRANCH  13  16
ENDBRANCH   7  10
ENDBRANCH   4   6
BRANCH   3  18
HETATM   18  C   UNL     1      -8.961   2.949 -32.065  1.00  0.00    -0.005 A 
HETATM   19  C   UNL     1      -9.311   3.251 -30.740  1.00  0.00     0.014 A 
HETATM   20  C   UNL     1     -10.556   3.805 -30.428  1.00  0.00     0.007 A 
HETATM   21  C   UNL     1     -11.484   4.068 -31.439  1.00  0.00    -0.062 A 
HETATM   22  C   UNL     1     -12.811   4.677 -31.094  1.00  0.00     0.048 C 
HETATM   23  C   UNL     1     -11.146   3.768 -32.762  1.00  0.00     0.007 A 
HETATM   24  C   UNL     1      -9.903   3.199 -33.071  1.00  0.00     0.014 A 
ENDBRANCH   3  18
BRANCH   1  25
HETATM   25  C   UNL     1      -5.551  -0.471 -32.050  1.00  0.00     0.189 C 
BRANCH  25  26
HETATM   26  C   UNL     1      -5.655  -1.535 -33.112  1.00  0.00    -0.038 A 
HETATM   27  C   UNL     1      -4.530  -2.284 -33.482  1.00  0.00     0.009 A 
HETATM   28  C   UNL     1      -4.641  -3.324 -34.409  1.00  0.00     0.007 A 
HETATM   29  C   UNL     1      -5.876  -3.628 -34.992  1.00  0.00    -0.062 A 
HETATM   30  C   UNL     1      -6.009  -4.780 -35.943  1.00  0.00     0.048 C 
HETATM   31  C   UNL     1      -7.000  -2.883 -34.625  1.00  0.00     0.007 A 
HETATM   32  C   UNL     1      -6.892  -1.844 -33.697  1.00  0.00     0.009 A 
ENDBRANCH  25  26
ENDBRANCH   1  25
TORSDOF 6
ENDMDL
MODEL 5
REMARK VINA RESULT:      -9.1      2.903      7.040
REMARK  6 active torsions:
REMARK  status: ('A' for Active; 'I' for Inactive)
REMARK    1  A    between atoms: C_5  and  C_6 
REMARK    2  A    between atoms: C_6  and  N_7 
REMARK    3  A    between atoms: C_9  and  C_10 
REMARK    4  A    between atoms: C_17  and  C_18 
REMARK       I    between atoms: C_18  and  N_19 
REMARK    5  A    between atoms: N_19  and  C_20 
REMARK    6  A    between atoms: C_23  and  O_24 
ROOT
HETATM    1  N   UNL     1      -5.355   2.410 -31.560  1.00  0.00    -0.275 N 
HETATM    2  N   UNL     1      -5.033   1.237 -32.130  1.00  0.00    -0.171 NA
HETATM    3  C   UNL     1      -6.207   0.685 -32.492  1.00  0.00     0.104 A 
HETATM    4  C   UNL     1      -7.299   1.499 -32.044  1.00  0.00     0.080 A 
HETATM    5  C   UNL     1      -6.696   2.626 -31.512  1.00  0.00     0.132 A 
ENDROOT
BRANCH   4   6
HETATM    6  C   UNL     1      -8.744   1.314 -32.045  1.00  0.00     0.255 C 
HETATM    7  N   UNL     1      -9.448   2.306 -32.685  1.00  0.00    -0.352 N 
HETATM    8  H   UNL     1      -8.898   3.031 -33.128  1.00  0.00     0.163 HD
HETATM    9  O   UNL     1      -9.250   0.296 -31.593  1.00  0.00    -0.268 OA
BRANCH   7  10
HETATM   10  C   UNL     1     -10.864   2.279 -33.049  1.00  0.00     0.084 C 
HETATM   11  C   UNL     1     -11.672   3.394 -32.373  1.00  0.00     0.028 C 
HETATM   12  C   UNL     1     -11.778   4.684 -33.186  1.00  0.00     0.034 C 
HETATM   13  C   UNL     1     -12.236   4.420 -34.616  1.00  0.00     0.118 C 
HETATM   14  C   UNL     1     -11.336   3.420 -35.333  1.00  0.00     0.034 C 
HETATM   15  C   UNL     1     -11.142   2.120 -34.551  1.00  0.00     0.028 C 
BRANCH  13  16
HETATM   16  O   UNL     1     -13.567   3.901 -34.594  1.00  0.00    -0.396 OA
HETATM   17  H   UNL     1     -14.152   4.627 -34.318  1.00  0.00     0.210 HD
ENDBRANCH  13  16
ENDBRANCH   7  10
ENDBRANCH   4   6
BRANCH   3  18
HETATM   18  C   UNL     1      -6.199  -0.591 -33.223  1.00  0.00    -0.005 A 
HETATM   19  C   UNL     1      -5.021  -1.353 -33.277  1.00  0.00     0.014 A 
HETATM   20  C   UNL     1      -4.970  -2.559 -33.981  1.00  0.00     0.007 A 
HETATM   21  C   UNL     1      -6.102  -3.032 -34.653  1.00  0.00    -0.062 A 
HETATM   22  C   UNL     1      -6.040  -4.336 -35.392  1.00  0.00     0.048 C 
HETATM   23  C   UNL     1      -7.279  -2.279 -34.608  1.00  0.00     0.007 A 
HETATM   24  C   UNL     1      -7.323  -1.062 -33.912  1.00  0.00     0.014 A 
ENDBRANCH   3  18
BRANCH   1  25
HETATM   25  C   UNL     1      -4.326   3.206 -30.901  1.00  0.00     0.189 C 
BRANCH  25  26
HETATM   26  C   UNL     1      -3.452   3.963 -31.866  1.00  0.00    -0.038 A 
HETATM   27  C   UNL     1      -2.140   4.312 -31.516  1.00  0.00     0.009 A 
HETATM   28  C   UNL     1      -1.301   4.944 -32.438  1.00  0.00     0.007 A 
HETATM   29  C   UNL     1      -1.760   5.249 -33.724  1.00  0.00    -0.062 A 
HETATM   30  C   UNL     1      -0.845   5.874 -34.734  1.00  0.00     0.048 C 
HETATM   31  C   UNL     1      -3.068   4.902 -34.077  1.00  0.00     0.007 A 
HETATM   32  C   UNL     1      -3.907   4.269 -33.157  1.00  0.00     0.009 A 
ENDBRANCH  25  26
ENDBRANCH   1  25
TORSDOF 6
ENDMDL
MODEL 6
REMARK VINA RESULT:      -9.0      1.513      2.123
REMARK  6 active torsions:
REMARK  status: ('A' for Active; 'I' for Inactive)
REMARK    1  A    between atoms: C_5  and  C_6 
REMARK    2  A    between atoms: C_6  and  N_7 
REMARK    3  A    between atoms: C_9  and  C_10 
REMARK    4  A    between atoms: C_17  and  C_18 
REMARK       I    between atoms: C_18  and  N_19 
REMARK    5  A    between atoms: N_19  and  C_20 
REMARK    6  A    between atoms: C_23  and  O_24 
ROOT
HETATM    1  N   UNL     1      -8.243   2.895 -33.804  1.00  0.00    -0.275 N 
HETATM    2  N   UNL     1      -7.919   1.653 -34.199  1.00  0.00    -0.171 NA
HETATM    3  C   UNL     1      -6.718   1.406 -33.641  1.00  0.00     0.104 A 
HETATM    4  C   UNL     1      -6.237   2.571 -32.958  1.00  0.00     0.080 A 
HETATM    5  C   UNL     1      -7.283   3.474 -33.035  1.00  0.00     0.132 A 
ENDROOT
BRANCH   4   6
HETATM    6  C   UNL     1      -4.971   2.895 -32.314  1.00  0.00     0.255 C 
HETATM    7  N   UNL     1      -4.129   3.676 -33.068  1.00  0.00    -0.352 N 
HETATM    8  H   UNL     1      -4.487   3.986 -33.964  1.00  0.00     0.163 HD
HETATM    9  O   UNL     1      -4.749   2.567 -31.157  1.00  0.00    -0.268 OA
BRANCH   7  10
HETATM   10  C   UNL     1      -2.914   4.349 -32.611  1.00  0.00     0.084 C 
HETATM   11  C   UNL     1      -1.906   4.588 -33.744  1.00  0.00     0.028 C 
HETATM   12  C   UNL     1      -2.050   5.938 -34.446  1.00  0.00     0.034 C 
HETATM   13  C   UNL     1      -2.094   7.095 -33.454  1.00  0.00     0.118 C 
HETATM   14  C   UNL     1      -3.199   6.922 -32.418  1.00  0.00     0.034 C 
HETATM   15  C   UNL     1      -3.149   5.567 -31.708  1.00  0.00     0.028 C 
BRANCH  13  16
HETATM   16  O   UNL     1      -0.841   7.177 -32.773  1.00  0.00    -0.396 OA
HETATM   17  H   UNL     1      -0.818   6.450 -32.127  1.00  0.00     0.210 HD
ENDBRANCH  13  16
ENDBRANCH   7  10
ENDBRANCH   4   6
BRANCH   3  18
HETATM   18  C   UNL     1      -6.108   0.079 -33.820  1.00  0.00    -0.005 A 
HETATM   19  C   UNL     1      -4.899  -0.222 -33.172  1.00  0.00     0.014 A 
HETATM   20  C   UNL     1      -4.280  -1.464 -33.336  1.00  0.00     0.007 A 
HETATM   21  C   UNL     1      -4.856  -2.436 -34.159  1.00  0.00    -0.062 A 
HETATM   22  C   UNL     1      -4.190  -3.771 -34.316  1.00  0.00     0.048 C 
HETATM   23  C   UNL     1      -6.058  -2.144 -34.811  1.00  0.00     0.007 A 
HETATM   24  C   UNL     1      -6.670  -0.893 -34.656  1.00  0.00     0.014 A 
ENDBRANCH   3  18
BRANCH   1  25
HETATM   25  C   UNL     1      -9.419   3.553 -34.360  1.00  0.00     0.189 C 
BRANCH  25  26
HETATM   26  C   UNL     1     -10.642   2.671 -34.374  1.00  0.00    -0.038 A 
HETATM   27  C   UNL     1     -10.727   1.559 -33.524  1.00  0.00     0.009 A 
HETATM   28  C   UNL     1     -11.891   0.787 -33.478  1.00  0.00     0.007 A 
HETATM   29  C   UNL     1     -12.987   1.104 -34.287  1.00  0.00    -0.062 A 
HETATM   30  C   UNL     1     -14.258   0.312 -34.197  1.00  0.00     0.048 C 
HETATM   31  C   UNL     1     -12.905   2.213 -35.135  1.00  0.00     0.007 A 
HETATM   32  C   UNL     1     -11.744   2.987 -35.181  1.00  0.00     0.009 A 
ENDBRANCH  25  26
ENDBRANCH   1  25
TORSDOF 6
ENDMDL
MODEL 7
REMARK VINA RESULT:      -9.0      3.130      7.765
REMARK  6 active torsions:
REMARK  status: ('A' for Active; 'I' for Inactive)
REMARK    1  A    between atoms: C_5  and  C_6 
REMARK    2  A    between atoms: C_6  and  N_7 
REMARK    3  A    between atoms: C_9  and  C_10 
REMARK    4  A    between atoms: C_17  and  C_18 
REMARK       I    between atoms: C_18  and  N_19 
REMARK    5  A    between atoms: N_19  and  C_20 
REMARK    6  A    between atoms: C_23  and  O_24 
ROOT
HETATM    1  N   UNL     1      -5.772   4.503 -33.918  1.00  0.00    -0.275 N 
HETATM    2  N   UNL     1      -5.403   3.237 -34.175  1.00  0.00    -0.171 NA
HETATM    3  C   UNL     1      -6.449   2.479 -33.793  1.00  0.00     0.104 A 
HETATM    4  C   UNL     1      -7.462   3.295 -33.189  1.00  0.00     0.080 A 
HETATM    5  C   UNL     1      -7.007   4.591 -33.356  1.00  0.00     0.132 A 
ENDROOT
BRANCH   4   6
HETATM    6  C   UNL     1      -8.706   2.987 -32.498  1.00  0.00     0.255 C 
HETATM    7  N   UNL     1      -9.808   2.903 -33.314  1.00  0.00    -0.352 N 
HETATM    8  H   UNL     1      -9.641   3.014 -34.307  1.00  0.00     0.163 HD
HETATM    9  O   UNL     1      -8.717   2.729 -31.302  1.00  0.00    -0.268 OA
BRANCH   7  10
HETATM   10  C   UNL     1     -11.128   2.386 -32.953  1.00  0.00     0.084 C 
HETATM   11  C   UNL     1     -12.207   3.478 -32.930  1.00  0.00     0.028 C 
HETATM   12  C   UNL     1     -12.952   3.662 -34.251  1.00  0.00     0.034 C 
HETATM   13  C   UNL     1     -13.476   2.339 -34.799  1.00  0.00     0.118 C 
HETATM   14  C   UNL     1     -12.369   1.304 -34.961  1.00  0.00     0.034 C 
HETATM   15  C   UNL     1     -11.544   1.105 -33.688  1.00  0.00     0.028 C 
BRANCH  13  16
HETATM   16  O   UNL     1     -14.459   1.817 -33.904  1.00  0.00    -0.396 OA
HETATM   17  H   UNL     1     -15.056   2.550 -33.675  1.00  0.00     0.210 HD
ENDBRANCH  13  16
ENDBRANCH   7  10
ENDBRANCH   4   6
BRANCH   3  18
HETATM   18  C   UNL     1      -6.395   1.026 -34.016  1.00  0.00    -0.005 A 
HETATM   19  C   UNL     1      -7.311   0.424 -34.894  1.00  0.00     0.014 A 
HETATM   20  C   UNL     1      -7.304  -0.956 -35.113  1.00  0.00     0.007 A 
HETATM   21  C   UNL     1      -6.378  -1.770 -34.454  1.00  0.00    -0.062 A 
HETATM   22  C   UNL     1      -6.370  -3.249 -34.708  1.00  0.00     0.048 C 
HETATM   23  C   UNL     1      -5.464  -1.181 -33.575  1.00  0.00     0.007 A 
HETATM   24  C   UNL     1      -5.482   0.202 -33.346  1.00  0.00     0.014 A 
ENDBRANCH   3  18
BRANCH   1  25
HETATM   25  C   UNL     1      -4.807   5.586 -34.061  1.00  0.00     0.189 C 
BRANCH  25  26
HETATM   26  C   UNL     1      -3.564   5.389 -33.232  1.00  0.00    -0.038 A 
HETATM   27  C   UNL     1      -2.312   5.253 -33.847  1.00  0.00     0.009 A 
HETATM   28  C   UNL     1      -1.149   5.151 -33.078  1.00  0.00     0.007 A 
HETATM   29  C   UNL     1      -1.216   5.170 -31.681  1.00  0.00    -0.062 A 
HETATM   30  C   UNL     1       0.034   5.118 -30.855  1.00  0.00     0.048 C 
HETATM   31  C   UNL     1      -2.464   5.306 -31.065  1.00  0.00     0.007 A 
HETATM   32  C   UNL     1      -3.627   5.411 -31.831  1.00  0.00     0.009 A 
ENDBRANCH  25  26
ENDBRANCH   1  25
TORSDOF 6
ENDMDL
MODEL 8
REMARK VINA RESULT:      -9.0      2.509      7.626
REMARK  6 active torsions:
REMARK  status: ('A' for Active; 'I' for Inactive)
REMARK    1  A    between atoms: C_5  and  C_6 
REMARK    2  A    between atoms: C_6  and  N_7 
REMARK    3  A    between atoms: C_9  and  C_10 
REMARK    4  A    between atoms: C_17  and  C_18 
REMARK       I    between atoms: C_18  and  N_19 
REMARK    5  A    between atoms: N_19  and  C_20 
REMARK    6  A    between atoms: C_23  and  O_24 
ROOT
HETATM    1  N   UNL     1      -3.550   4.415 -32.651  1.00  0.00    -0.275 N 
HETATM    2  N   UNL     1      -3.096   3.152 -32.709  1.00  0.00    -0.171 NA
HETATM    3  C   UNL     1      -4.130   2.385 -32.312  1.00  0.00     0.104 A 
HETATM    4  C   UNL     1      -5.231   3.208 -31.902  1.00  0.00     0.080 A 
HETATM    5  C   UNL     1      -4.831   4.498 -32.204  1.00  0.00     0.132 A 
ENDROOT
BRANCH   4   6
HETATM    6  C   UNL     1      -6.512   2.914 -31.275  1.00  0.00     0.255 C 
HETATM    7  N   UNL     1      -7.569   2.824 -32.148  1.00  0.00    -0.352 N 
HETATM    8  H   UNL     1      -7.348   2.920 -33.131  1.00  0.00     0.163 HD
HETATM    9  O   UNL     1      -6.589   2.673 -30.078  1.00  0.00    -0.268 OA
BRANCH   7  10
HETATM   10  C   UNL     1      -8.909   2.317 -31.852  1.00  0.00     0.084 C 
HETATM   11  C   UNL     1     -10.015   3.114 -32.558  1.00  0.00     0.028 C 
HETATM   12  C   UNL     1     -10.417   2.566 -33.926  1.00  0.00     0.034 C 
HETATM   13  C   UNL     1     -10.720   1.073 -33.876  1.00  0.00     0.118 C 
HETATM   14  C   UNL     1      -9.555   0.268 -33.310  1.00  0.00     0.034 C 
HETATM   15  C   UNL     1      -9.063   0.793 -31.960  1.00  0.00     0.028 C 
BRANCH  13  16
HETATM   16  O   UNL     1     -11.866   0.854 -33.052  1.00  0.00    -0.396 OA
HETATM   17  H   UNL     1     -11.901  -0.098 -32.858  1.00  0.00     0.210 HD
ENDBRANCH  13  16
ENDBRANCH   7  10
ENDBRANCH   4   6
BRANCH   3  18
HETATM   18  C   UNL     1      -3.982   0.922 -32.335  1.00  0.00    -0.005 A 
HETATM   19  C   UNL     1      -2.966   0.315 -31.579  1.00  0.00     0.014 A 
HETATM   20  C   UNL     1      -2.782  -1.070 -31.593  1.00  0.00     0.007 A 
HETATM   21  C   UNL     1      -3.612  -1.884 -32.371  1.00  0.00    -0.062 A 
HETATM   22  C   UNL     1      -3.414  -3.371 -32.367  1.00  0.00     0.048 C 
HETATM   23  C   UNL     1      -4.624  -1.288 -33.129  1.00  0.00     0.007 A 
HETATM   24  C   UNL     1      -4.798   0.102 -33.124  1.00  0.00     0.014 A 
ENDBRANCH   3  18
BRANCH   1  25
HETATM   25  C   UNL     1      -2.633   5.529 -32.862  1.00  0.00     0.189 C 
BRANCH  25  26
HETATM   26  C   UNL     1      -1.744   5.799 -31.676  1.00  0.00    -0.038 A 
HETATM   27  C   UNL     1      -2.216   6.546 -30.587  1.00  0.00     0.009 A 
HETATM   28  C   UNL     1      -1.422   6.730 -29.452  1.00  0.00     0.007 A 
HETATM   29  C   UNL     1      -0.136   6.183 -29.388  1.00  0.00    -0.062 A 
HETATM   30  C   UNL     1       0.696   6.331 -28.149  1.00  0.00     0.048 C 
HETATM   31  C   UNL     1       0.338   5.438 -30.472  1.00  0.00     0.007 A 
HETATM   32  C   UNL     1      -0.455   5.250 -31.606  1.00  0.00     0.009 A 
ENDBRANCH  25  26
ENDBRANCH   1  25
TORSDOF 6
ENDMDL
MODEL 9
REMARK VINA RESULT:      -8.9      3.022      7.989
REMARK  6 active torsions:
REMARK  status: ('A' for Active; 'I' for Inactive)
REMARK    1  A    between atoms: C_5  and  C_6 
REMARK    2  A    between atoms: C_6  and  N_7 
REMARK    3  A    between atoms: C_9  and  C_10 
REMARK    4  A    between atoms: C_17  and  C_18 
REMARK       I    between atoms: C_18  and  N_19 
REMARK    5  A    between atoms: N_19  and  C_20 
REMARK    6  A    between atoms: C_23  and  O_24 
ROOT
HETATM    1  N   UNL     1      -2.103   4.968 -31.886  1.00  0.00    -0.275 N 
HETATM    2  N   UNL     1      -2.307   3.723 -32.347  1.00  0.00    -0.171 NA
HETATM    3  C   UNL     1      -3.575   3.423 -32.007  1.00  0.00     0.104 A 
HETATM    4  C   UNL     1      -4.145   4.481 -31.225  1.00  0.00     0.080 A 
HETATM    5  C   UNL     1      -3.183   5.476 -31.235  1.00  0.00     0.132 A 
ENDROOT
BRANCH   4   6
HETATM    6  C   UNL     1      -5.402   4.617 -30.502  1.00  0.00     0.255 C 
HETATM    7  N   UNL     1      -6.523   4.612 -31.297  1.00  0.00    -0.352 N 
HETATM    8  H   UNL     1      -6.370   4.466 -32.288  1.00  0.00     0.163 HD
HETATM    9  O   UNL     1      -5.429   4.633 -29.279  1.00  0.00    -0.268 OA
BRANCH   7  10
HETATM   10  C   UNL     1      -7.912   4.496 -30.853  1.00  0.00     0.084 C 
HETATM   11  C   UNL     1      -8.903   5.150 -31.825  1.00  0.00     0.028 C 
HETATM   12  C   UNL     1      -9.462   4.208 -32.891  1.00  0.00     0.034 C 
HETATM   13  C   UNL     1     -10.008   2.920 -32.284  1.00  0.00     0.118 C 
HETATM   14  C   UNL     1      -8.967   2.196 -31.437  1.00  0.00     0.034 C 
HETATM   15  C   UNL     1      -8.325   3.095 -30.379  1.00  0.00     0.028 C 
BRANCH  13  16
HETATM   16  O   UNL     1     -11.130   3.231 -31.457  1.00  0.00    -0.396 OA
HETATM   17  H   UNL     1     -10.783   3.638 -30.644  1.00  0.00     0.210 HD
ENDBRANCH  13  16
ENDBRANCH   7  10
ENDBRANCH   4   6
BRANCH   3  18
HETATM   18  C   UNL     1      -4.143   2.136 -32.438  1.00  0.00    -0.005 A 
HETATM   19  C   UNL     1      -5.392   2.109 -33.081  1.00  0.00     0.014 A 
HETATM   20  C   UNL     1      -5.972   0.904 -33.485  1.00  0.00     0.007 A 
HETATM   21  C   UNL     1      -5.316  -0.308 -33.251  1.00  0.00    -0.062 A 
HETATM   22  C   UNL     1      -5.942  -1.595 -33.702  1.00  0.00     0.048 C 
HETATM   23  C   UNL     1      -4.074  -0.292 -32.608  1.00  0.00     0.007 A 
HETATM   24  C   UNL     1      -3.500   0.917 -32.192  1.00  0.00     0.014 A 
ENDBRANCH   3  18
BRANCH   1  25
HETATM   25  C   UNL     1      -0.770   5.555 -31.939  1.00  0.00     0.189 C 
BRANCH  25  26
HETATM   26  C   UNL     1      -0.274   6.025 -30.596  1.00  0.00    -0.038 A 
HETATM   27  C   UNL     1       0.257   5.113 -29.674  1.00  0.00     0.009 A 
HETATM   28  C   UNL     1       0.791   5.557 -28.460  1.00  0.00     0.007 A 
HETATM   29  C   UNL     1       0.793   6.919 -28.140  1.00  0.00    -0.062 A 
HETATM   30  C   UNL     1       1.416   7.403 -26.865  1.00  0.00     0.048 C 
HETATM   31  C   UNL     1       0.263   7.831 -29.058  1.00  0.00     0.007 A 
HETATM   32  C   UNL     1      -0.269   7.390 -30.272  1.00  0.00     0.009 A 
ENDBRANCH  25  26
ENDBRANCH   1  25
TORSDOF 6
ENDMDL
MODEL 10
REMARK VINA RESULT:      -8.7      2.030      2.926
REMARK  6 active torsions:
REMARK  status: ('A' for Active; 'I' for Inactive)
REMARK    1  A    between atoms: C_5  and  C_6 
REMARK    2  A    between atoms: C_6  and  N_7 
REMARK    3  A    between atoms: C_9  and  C_10 
REMARK    4  A    between atoms: C_17  and  C_18 
REMARK       I    between atoms: C_18  and  N_19 
REMARK    5  A    between atoms: N_19  and  C_20 
REMARK    6  A    between atoms: C_23  and  O_24 
ROOT
HETATM    1  N   UNL     1      -7.317   2.502 -30.683  1.00  0.00    -0.275 N 
HETATM    2  N   UNL     1      -7.455   1.426 -31.476  1.00  0.00    -0.171 NA
HETATM    3  C   UNL     1      -6.215   1.157 -31.927  1.00  0.00     0.104 A 
HETATM    4  C   UNL     1      -5.292   2.157 -31.475  1.00  0.00     0.080 A 
HETATM    5  C   UNL     1      -6.037   2.957 -30.626  1.00  0.00     0.132 A 
ENDROOT
BRANCH   4   6
HETATM    6  C   UNL     1      -3.891   2.423 -31.770  1.00  0.00     0.255 C 
HETATM    7  N   UNL     1      -3.675   3.490 -32.609  1.00  0.00    -0.352 N 
HETATM    8  H   UNL     1      -4.497   4.008 -32.896  1.00  0.00     0.163 HD
HETATM    9  O   UNL     1      -2.999   1.793 -31.219  1.00  0.00    -0.268 OA
BRANCH   7  10
HETATM   10  C   UNL     1      -2.394   4.135 -32.894  1.00  0.00     0.084 C 
HETATM   11  C   UNL     1      -2.269   4.586 -34.356  1.00  0.00     0.028 C 
HETATM   12  C   UNL     1      -2.728   6.019 -34.619  1.00  0.00     0.034 C 
HETATM   13  C   UNL     1      -2.093   7.009 -33.650  1.00  0.00     0.118 C 
HETATM   14  C   UNL     1      -2.350   6.635 -32.194  1.00  0.00     0.034 C 
HETATM   15  C   UNL     1      -1.960   5.192 -31.869  1.00  0.00     0.028 C 
BRANCH  13  16
HETATM   16  O   UNL     1      -0.681   7.040 -33.869  1.00  0.00    -0.396 OA
HETATM   17  H   UNL     1      -0.529   6.766 -34.790  1.00  0.00     0.210 HD
ENDBRANCH  13  16
ENDBRANCH   7  10
ENDBRANCH   4   6
BRANCH   3  18
HETATM   18  C   UNL     1      -6.006  -0.028 -32.774  1.00  0.00    -0.005 A 
HETATM   19  C   UNL     1      -6.992  -0.400 -33.702  1.00  0.00     0.014 A 
HETATM   20  C   UNL     1      -6.838  -1.532 -34.507  1.00  0.00     0.007 A 
HETATM   21  C   UNL     1      -5.691  -2.323 -34.400  1.00  0.00    -0.062 A 
HETATM   22  C   UNL     1      -5.530  -3.527 -35.280  1.00  0.00     0.048 C 
HETATM   23  C   UNL     1      -4.704  -1.962 -33.477  1.00  0.00     0.007 A 
HETATM   24  C   UNL     1      -4.867  -0.834 -32.660  1.00  0.00     0.014 A 
ENDBRANCH   3  18
BRANCH   1  25
HETATM   25  C   UNL     1      -8.497   3.170 -30.149  1.00  0.00     0.189 C 
BRANCH  25  26
HETATM   26  C   UNL     1      -8.608   4.611 -30.574  1.00  0.00    -0.038 A 
HETATM   27  C   UNL     1      -8.848   4.941 -31.914  1.00  0.00     0.009 A 
HETATM   28  C   UNL     1      -9.031   6.273 -32.298  1.00  0.00     0.007 A 
HETATM   29  C   UNL     1      -8.966   7.301 -31.351  1.00  0.00    -0.062 A 
HETATM   30  C   UNL     1      -9.218   8.724 -31.749  1.00  0.00     0.048 C 
HETATM   31  C   UNL     1      -8.726   6.974 -30.012  1.00  0.00     0.007 A 
HETATM   32  C   UNL     1      -8.546   5.644 -29.627  1.00  0.00     0.009 A 
ENDBRANCH  25  26
ENDBRANCH   1  25
TORSDOF 6
ENDMDL
