MODEL 1
REMARK VINA RESULT:      -8.9      0.000      0.000
REMARK  10 active torsions:
REMARK  status: ('A' for Active; 'I' for Inactive)
REMARK    1  A    between atoms: O_2  and  C_3 
REMARK    2  A    between atoms: C_4  and  O_5 
REMARK    3  A    between atoms: O_5  and  C_6 
REMARK    4  A    between atoms: C_6  and  C_7 
REMARK    5  A    between atoms: C_16  and  C_17 
REMARK       I    between atoms: C_17  and  N_18 
REMARK    6  A    between atoms: N_18  and  C_19 
REMARK    7  A    between atoms: C_19  and  N_20 
REMARK    8  A    between atoms: N_20  and  C_21 
REMARK    9  A    between atoms: C_24  and  C_25 
REMARK   10  A    between atoms: C_25  and  N_26 
ROOT
HETATM    1  C   UNL     1      -9.341   3.818 -32.688  1.00  0.00     0.257 C 
HETATM    2  N   UNL     1     -10.028   3.418 -33.829  1.00  0.00    -0.299 N 
HETATM    3  O   UNL     1      -9.839   3.946 -31.578  1.00  0.00    -0.267 OA
HETATM    4  H   UNL     1      -9.615   3.707 -34.702  1.00  0.00     0.171 HD
ENDROOT
BRANCH   2   5
HETATM    5  C   UNL     1     -10.799   2.285 -33.985  1.00  0.00     0.179 C 
HETATM    6  S   UNL     1     -12.383   2.083 -33.500  1.00  0.00    -0.040 SA
BRANCH   5   7
HETATM    7  N   UNL     1     -10.140   1.180 -34.471  1.00  0.00    -0.333 N 
HETATM    8  H   UNL     1     -10.641   0.728 -35.233  1.00  0.00     0.168 HD
BRANCH   7   9
HETATM    9  C   UNL     1      -8.859   0.671 -34.179  1.00  0.00     0.034 A 
HETATM   10  C   UNL     1      -7.958   0.532 -35.238  1.00  0.00     0.030 A 
HETATM   11  C   UNL     1      -6.653   0.066 -35.020  1.00  0.00     0.011 A 
HETATM   12  C   UNL     1      -6.206  -0.236 -33.728  1.00  0.00    -0.032 A 
HETATM   13  C   UNL     1      -7.115  -0.067 -32.667  1.00  0.00     0.011 A 
HETATM   14  C   UNL     1      -8.426   0.376 -32.889  1.00  0.00     0.030 A 
BRANCH  12  15
HETATM   15  C   UNL     1      -4.811  -0.708 -33.379  1.00  0.00     0.273 C 
BRANCH  15  16
HETATM   16  N   UNL     1      -4.606  -2.199 -33.188  1.00  0.00    -0.067 N 
HETATM   17  H   UNL     1      -5.409  -2.536 -32.644  1.00  0.00     0.280 HD
HETATM   18  C   UNL     1      -4.549  -2.948 -34.503  1.00  0.00     0.235 C 
HETATM   19  C   UNL     1      -4.487  -4.443 -34.224  1.00  0.00     0.028 C 
HETATM   20  C   UNL     1      -3.295  -4.800 -33.344  1.00  0.00     0.003 C 
HETATM   21  C   UNL     1      -3.288  -3.974 -32.063  1.00  0.00     0.028 C 
HETATM   22  C   UNL     1      -3.376  -2.482 -32.350  1.00  0.00     0.235 C 
ENDBRANCH  15  16
ENDBRANCH  12  15
ENDBRANCH   7   9
ENDBRANCH   5   7
ENDBRANCH   2   5
BRANCH   1  23
HETATM   23  C   UNL     1      -7.966   4.320 -32.957  1.00  0.00     0.035 A 
HETATM   24  C   UNL     1      -7.143   3.662 -33.884  1.00  0.00     0.020 A 
HETATM   25  C   UNL     1      -5.901   4.203 -34.215  1.00  0.00     0.040 A 
HETATM   26  C   UNL     1      -5.470   5.383 -33.608  1.00  0.00     0.102 A 
HETATM   27  C   UNL     1      -6.282   6.024 -32.666  1.00  0.00     0.102 A 
HETATM   28  C   UNL     1      -7.517   5.477 -32.314  1.00  0.00     0.056 A 
BRANCH  26  29
HETATM   29  O   UNL     1      -4.310   5.913 -34.095  1.00  0.00    -0.344 OA
BRANCH  29  30
HETATM   30  C   UNL     1      -3.240   4.968 -34.179  1.00  0.00     0.214 C 
BRANCH  30  31
HETATM   31  C   UNL     1      -2.201   5.448 -33.192  1.00  0.00    -0.034 A 
HETATM   32  C   UNL     1      -1.967   4.721 -32.013  1.00  0.00     0.011 A 
HETATM   33  C   UNL     1      -1.074   5.197 -31.051  1.00  0.00     0.024 A 
HETATM   34  C   UNL     1      -0.412   6.404 -31.262  1.00  0.00     0.034 A 
HETATM   35 CL   UNL     1       0.667   7.005 -30.064  1.00  0.00    -0.084 Cl
HETATM   36  C   UNL     1      -0.629   7.134 -32.428  1.00  0.00     0.024 A 
HETATM   37  C   UNL     1      -1.524   6.659 -33.391  1.00  0.00     0.011 A 
ENDBRANCH  30  31
ENDBRANCH  29  30
ENDBRANCH  26  29
BRANCH  27  38
HETATM   38  O   UNL     1      -5.896   7.181 -32.046  1.00  0.00    -0.353 OA
HETATM   39  C   UNL     1      -6.812   7.520 -31.003  1.00  0.00     0.210 C 
ENDBRANCH  27  38
ENDBRANCH   1  23
TORSDOF 10
ENDMDL
MODEL 2
REMARK VINA RESULT:      -8.8      1.708      2.400
REMARK  10 active torsions:
REMARK  status: ('A' for Active; 'I' for Inactive)
REMARK    1  A    between atoms: O_2  and  C_3 
REMARK    2  A    between atoms: C_4  and  O_5 
REMARK    3  A    between atoms: O_5  and  C_6 
REMARK    4  A    between atoms: C_6  and  C_7 
REMARK    5  A    between atoms: C_16  and  C_17 
REMARK       I    between atoms: C_17  and  N_18 
REMARK    6  A    between atoms: N_18  and  C_19 
REMARK    7  A    between atoms: C_19  and  N_20 
REMARK    8  A    between atoms: N_20  and  C_21 
REMARK    9  A    between atoms: C_24  and  C_25 
REMARK   10  A    between atoms: C_25  and  N_26 
ROOT
HETATM    1  C   UNL     1      -7.741   4.521 -31.567  1.00  0.00     0.257 C 
HETATM    2  N   UNL     1      -8.872   4.531 -32.377  1.00  0.00    -0.299 N 
HETATM    3  O   UNL     1      -7.737   4.748 -30.365  1.00  0.00    -0.267 OA
HETATM    4  H   UNL     1      -8.697   4.699 -33.356  1.00  0.00     0.171 HD
ENDROOT
BRANCH   2   5
HETATM    5  C   UNL     1     -10.043   3.827 -32.186  1.00  0.00     0.179 C 
HETATM    6  S   UNL     1     -11.458   4.410 -31.521  1.00  0.00    -0.040 SA
BRANCH   5   7
HETATM    7  N   UNL     1      -9.975   2.480 -32.452  1.00  0.00    -0.333 N 
HETATM    8  H   UNL     1     -10.894   2.044 -32.505  1.00  0.00     0.168 HD
BRANCH   7   9
HETATM    9  C   UNL     1      -8.877   1.662 -32.785  1.00  0.00     0.034 A 
HETATM   10  C   UNL     1      -8.375   1.746 -34.086  1.00  0.00     0.030 A 
HETATM   11  C   UNL     1      -7.263   0.989 -34.482  1.00  0.00     0.011 A 
HETATM   12  C   UNL     1      -6.600   0.157 -33.570  1.00  0.00    -0.032 A 
HETATM   13  C   UNL     1      -7.100   0.102 -32.256  1.00  0.00     0.011 A 
HETATM   14  C   UNL     1      -8.227   0.840 -31.868  1.00  0.00     0.030 A 
BRANCH  12  15
HETATM   15  C   UNL     1      -5.372  -0.670 -33.881  1.00  0.00     0.273 C 
BRANCH  15  16
HETATM   16  N   UNL     1      -5.534  -2.178 -33.907  1.00  0.00    -0.067 N 
HETATM   17  H   UNL     1      -5.733  -2.466 -32.942  1.00  0.00     0.280 HD
HETATM   18  C   UNL     1      -6.673  -2.623 -34.801  1.00  0.00     0.235 C 
HETATM   19  C   UNL     1      -6.861  -4.127 -34.661  1.00  0.00     0.028 C 
HETATM   20  C   UNL     1      -5.581  -4.885 -34.994  1.00  0.00     0.003 C 
HETATM   21  C   UNL     1      -4.405  -4.371 -34.171  1.00  0.00     0.028 C 
HETATM   22  C   UNL     1      -4.240  -2.863 -34.297  1.00  0.00     0.235 C 
ENDBRANCH  15  16
ENDBRANCH  12  15
ENDBRANCH   7   9
ENDBRANCH   5   7
ENDBRANCH   2   5
BRANCH   1  23
HETATM   23  C   UNL     1      -6.460   4.441 -32.321  1.00  0.00     0.035 A 
HETATM   24  C   UNL     1      -6.241   5.271 -33.431  1.00  0.00     0.020 A 
HETATM   25  C   UNL     1      -4.998   5.271 -34.061  1.00  0.00     0.040 A 
HETATM   26  C   UNL     1      -3.983   4.431 -33.603  1.00  0.00     0.102 A 
HETATM   27  C   UNL     1      -4.212   3.586 -32.512  1.00  0.00     0.102 A 
HETATM   28  C   UNL     1      -5.461   3.565 -31.889  1.00  0.00     0.056 A 
BRANCH  26  29
HETATM   29  O   UNL     1      -2.761   4.600 -34.188  1.00  0.00    -0.344 OA
BRANCH  29  30
HETATM   30  C   UNL     1      -2.363   5.969 -34.296  1.00  0.00     0.214 C 
BRANCH  30  31
HETATM   31  C   UNL     1      -1.681   6.295 -32.987  1.00  0.00    -0.034 A 
HETATM   32  C   UNL     1      -1.934   7.522 -32.352  1.00  0.00     0.011 A 
HETATM   33  C   UNL     1      -1.245   7.874 -31.189  1.00  0.00     0.024 A 
HETATM   34  C   UNL     1      -0.298   7.002 -30.657  1.00  0.00     0.034 A 
HETATM   35 CL   UNL     1       0.571   7.449 -29.241  1.00  0.00    -0.084 Cl
HETATM   36  C   UNL     1      -0.040   5.780 -31.272  1.00  0.00     0.024 A 
HETATM   37  C   UNL     1      -0.727   5.427 -32.437  1.00  0.00     0.011 A 
ENDBRANCH  30  31
ENDBRANCH  29  30
ENDBRANCH  26  29
BRANCH  27  38
HETATM   38  O   UNL     1      -3.245   2.745 -32.032  1.00  0.00    -0.353 OA
HETATM   39  C   UNL     1      -3.828   1.715 -31.233  1.00  0.00     0.210 C 
ENDBRANCH  27  38
ENDBRANCH   1  23
TORSDOF 10
ENDMDL
MODEL 3
REMARK VINA RESULT:      -8.8      2.105      3.038
REMARK  10 active torsions:
REMARK  status: ('A' for Active; 'I' for Inactive)
REMARK    1  A    between atoms: O_2  and  C_3 
REMARK    2  A    between atoms: C_4  and  O_5 
REMARK    3  A    between atoms: O_5  and  C_6 
REMARK    4  A    between atoms: C_6  and  C_7 
REMARK    5  A    between atoms: C_16  and  C_17 
REMARK       I    between atoms: C_17  and  N_18 
REMARK    6  A    between atoms: N_18  and  C_19 
REMARK    7  A    between atoms: C_19  and  N_20 
REMARK    8  A    between atoms: N_20  and  C_21 
REMARK    9  A    between atoms: C_24  and  C_25 
REMARK   10  A    between atoms: C_25  and  N_26 
ROOT
HETATM    1  C   UNL     1     -10.676   4.241 -32.023  1.00  0.00     0.257 C 
HETATM    2  N   UNL     1     -11.214   3.813 -33.232  1.00  0.00    -0.299 N 
HETATM    3  O   UNL     1     -11.264   4.229 -30.951  1.00  0.00    -0.267 OA
HETATM    4  H   UNL     1     -10.789   4.211 -34.056  1.00  0.00     0.171 HD
ENDROOT
BRANCH   2   5
HETATM    5  C   UNL     1     -11.793   2.590 -33.502  1.00  0.00     0.179 C 
HETATM    6  S   UNL     1     -13.229   2.325 -34.310  1.00  0.00    -0.040 SA
BRANCH   5   7
HETATM    7  N   UNL     1     -11.179   1.502 -32.926  1.00  0.00    -0.333 N 
HETATM    8  H   UNL     1     -11.798   0.988 -32.304  1.00  0.00     0.168 HD
BRANCH   7   9
HETATM    9  C   UNL     1      -9.912   0.932 -33.158  1.00  0.00     0.034 A 
HETATM   10  C   UNL     1      -9.450   0.890 -34.475  1.00  0.00     0.030 A 
HETATM   11  C   UNL     1      -8.184   0.369 -34.781  1.00  0.00     0.011 A 
HETATM   12  C   UNL     1      -7.332  -0.088 -33.767  1.00  0.00    -0.032 A 
HETATM   13  C   UNL     1      -7.800  -0.017 -32.442  1.00  0.00     0.011 A 
HETATM   14  C   UNL     1      -9.075   0.481 -32.141  1.00  0.00     0.030 A 
BRANCH  12  15
HETATM   15  C   UNL     1      -5.937  -0.632 -33.983  1.00  0.00     0.273 C 
BRANCH  15  16
HETATM   16  N   UNL     1      -5.754  -2.136 -33.906  1.00  0.00    -0.067 N 
HETATM   17  H   UNL     1      -5.990  -2.409 -32.944  1.00  0.00     0.280 HD
HETATM   18  C   UNL     1      -6.658  -2.879 -34.867  1.00  0.00     0.235 C 
HETATM   19  C   UNL     1      -6.520  -4.376 -34.628  1.00  0.00     0.028 C 
HETATM   20  C   UNL     1      -5.074  -4.836 -34.776  1.00  0.00     0.003 C 
HETATM   21  C   UNL     1      -4.142  -4.021 -33.887  1.00  0.00     0.028 C 
HETATM   22  C   UNL     1      -4.305  -2.525 -34.115  1.00  0.00     0.235 C 
ENDBRANCH  15  16
ENDBRANCH  12  15
ENDBRANCH   7   9
ENDBRANCH   5   7
ENDBRANCH   2   5
BRANCH   1  23
HETATM   23  C   UNL     1      -9.376   4.954 -32.160  1.00  0.00     0.035 A 
HETATM   24  C   UNL     1      -8.999   5.922 -31.217  1.00  0.00     0.020 A 
HETATM   25  C   UNL     1      -7.733   6.502 -31.288  1.00  0.00     0.040 A 
HETATM   26  C   UNL     1      -6.854   6.137 -32.308  1.00  0.00     0.102 A 
HETATM   27  C   UNL     1      -7.242   5.190 -33.261  1.00  0.00     0.102 A 
HETATM   28  C   UNL     1      -8.516   4.620 -33.209  1.00  0.00     0.056 A 
BRANCH  26  29
HETATM   29  O   UNL     1      -5.592   6.648 -32.217  1.00  0.00    -0.344 OA
BRANCH  29  30
HETATM   30  C   UNL     1      -4.950   6.366 -30.970  1.00  0.00     0.214 C 
BRANCH  30  31
HETATM   31  C   UNL     1      -4.490   4.930 -31.069  1.00  0.00    -0.034 A 
HETATM   32  C   UNL     1      -3.404   4.598 -31.896  1.00  0.00     0.011 A 
HETATM   33  C   UNL     1      -3.023   3.265 -32.065  1.00  0.00     0.024 A 
HETATM   34  C   UNL     1      -3.727   2.257 -31.411  1.00  0.00     0.034 A 
HETATM   35 CL   UNL     1      -3.277   0.613 -31.643  1.00  0.00    -0.084 Cl
HETATM   36  C   UNL     1      -4.803   2.571 -30.584  1.00  0.00     0.024 A 
HETATM   37  C   UNL     1      -5.187   3.904 -30.414  1.00  0.00     0.011 A 
ENDBRANCH  30  31
ENDBRANCH  29  30
ENDBRANCH  26  29
BRANCH  27  38
HETATM   38  O   UNL     1      -6.412   4.805 -34.279  1.00  0.00    -0.353 OA
HETATM   39  C   UNL     1      -6.088   3.418 -34.164  1.00  0.00     0.210 C 
ENDBRANCH  27  38
ENDBRANCH   1  23
TORSDOF 10
ENDMDL
MODEL 4
REMARK VINA RESULT:      -8.7      5.290     10.055
REMARK  10 active torsions:
REMARK  status: ('A' for Active; 'I' for Inactive)
REMARK    1  A    between atoms: O_2  and  C_3 
REMARK    2  A    between atoms: C_4  and  O_5 
REMARK    3  A    between atoms: O_5  and  C_6 
REMARK    4  A    between atoms: C_6  and  C_7 
REMARK    5  A    between atoms: C_16  and  C_17 
REMARK       I    between atoms: C_17  and  N_18 
REMARK    6  A    between atoms: N_18  and  C_19 
REMARK    7  A    between atoms: C_19  and  N_20 
REMARK    8  A    between atoms: N_20  and  C_21 
REMARK    9  A    between atoms: C_24  and  C_25 
REMARK   10  A    between atoms: C_25  and  N_26 
ROOT
HETATM    1  C   UNL     1      -3.759   4.519 -31.824  1.00  0.00     0.257 C 
HETATM    2  N   UNL     1      -2.469   4.171 -32.213  1.00  0.00    -0.299 N 
HETATM    3  O   UNL     1      -4.038   5.436 -31.064  1.00  0.00    -0.267 OA
HETATM    4  H   UNL     1      -2.356   3.216 -32.516  1.00  0.00     0.171 HD
ENDROOT
BRANCH   2   5
HETATM    5  C   UNL     1      -1.513   4.995 -32.769  1.00  0.00     0.179 C 
HETATM    6  S   UNL     1      -1.549   5.676 -34.292  1.00  0.00    -0.040 SA
BRANCH   5   7
HETATM    7  N   UNL     1      -0.363   5.153 -32.031  1.00  0.00    -0.333 N 
HETATM    8  H   UNL     1       0.465   4.818 -32.520  1.00  0.00     0.168 HD
BRANCH   7   9
HETATM    9  C   UNL     1      -0.141   5.805 -30.802  1.00  0.00     0.034 A 
HETATM   10  C   UNL     1      -0.617   7.110 -30.664  1.00  0.00     0.030 A 
HETATM   11  C   UNL     1      -0.465   7.812 -29.459  1.00  0.00     0.011 A 
HETATM   12  C   UNL     1       0.135   7.206 -28.347  1.00  0.00    -0.032 A 
HETATM   13  C   UNL     1       0.587   5.881 -28.492  1.00  0.00     0.011 A 
HETATM   14  C   UNL     1       0.456   5.190 -29.704  1.00  0.00     0.030 A 
BRANCH  12  15
HETATM   15  C   UNL     1       0.314   7.857 -26.993  1.00  0.00     0.273 C 
BRANCH  15  16
HETATM   16  N   UNL     1      -0.934   8.338 -26.278  1.00  0.00    -0.067 N 
HETATM   17  H   UNL     1      -1.417   8.969 -26.928  1.00  0.00     0.280 HD
HETATM   18  C   UNL     1      -1.864   7.201 -25.910  1.00  0.00     0.235 C 
HETATM   19  C   UNL     1      -3.150   7.774 -25.331  1.00  0.00     0.028 C 
HETATM   20  C   UNL     1      -2.873   8.663 -24.123  1.00  0.00     0.003 C 
HETATM   21  C   UNL     1      -1.856   9.748 -24.457  1.00  0.00     0.028 C 
HETATM   22  C   UNL     1      -0.584   9.168 -25.060  1.00  0.00     0.235 C 
ENDBRANCH  15  16
ENDBRANCH  12  15
ENDBRANCH   7   9
ENDBRANCH   5   7
ENDBRANCH   2   5
BRANCH   1  23
HETATM   23  C   UNL     1      -4.796   3.529 -32.221  1.00  0.00     0.035 A 
HETATM   24  C   UNL     1      -5.479   3.672 -33.439  1.00  0.00     0.020 A 
HETATM   25  C   UNL     1      -6.366   2.681 -33.857  1.00  0.00     0.040 A 
HETATM   26  C   UNL     1      -6.590   1.562 -33.054  1.00  0.00     0.102 A 
HETATM   27  C   UNL     1      -5.928   1.434 -31.829  1.00  0.00     0.102 A 
HETATM   28  C   UNL     1      -5.054   2.433 -31.394  1.00  0.00     0.056 A 
BRANCH  26  29
HETATM   29  O   UNL     1      -7.362   0.580 -33.605  1.00  0.00    -0.344 OA
BRANCH  29  30
HETATM   30  C   UNL     1      -6.878   0.112 -34.867  1.00  0.00     0.214 C 
BRANCH  30  31
HETATM   31  C   UNL     1      -6.242  -1.229 -34.583  1.00  0.00    -0.034 A 
HETATM   32  C   UNL     1      -4.953  -1.289 -34.027  1.00  0.00     0.011 A 
HETATM   33  C   UNL     1      -4.318  -2.519 -33.841  1.00  0.00     0.024 A 
HETATM   34  C   UNL     1      -4.967  -3.694 -34.211  1.00  0.00     0.034 A 
HETATM   35 CL   UNL     1      -4.173  -5.207 -34.009  1.00  0.00    -0.084 Cl
HETATM   36  C   UNL     1      -6.246  -3.651 -34.759  1.00  0.00     0.024 A 
HETATM   37  C   UNL     1      -6.883  -2.421 -34.948  1.00  0.00     0.011 A 
ENDBRANCH  30  31
ENDBRANCH  29  30
ENDBRANCH  26  29
BRANCH  27  38
HETATM   38  O   UNL     1      -6.121   0.355 -31.011  1.00  0.00    -0.353 OA
HETATM   39  C   UNL     1      -5.879   0.709 -29.648  1.00  0.00     0.210 C 
ENDBRANCH  27  38
ENDBRANCH   1  23
TORSDOF 10
ENDMDL
MODEL 5
REMARK VINA RESULT:      -8.7      4.328      7.630
REMARK  10 active torsions:
REMARK  status: ('A' for Active; 'I' for Inactive)
REMARK    1  A    between atoms: O_2  and  C_3 
REMARK    2  A    between atoms: C_4  and  O_5 
REMARK    3  A    between atoms: O_5  and  C_6 
REMARK    4  A    between atoms: C_6  and  C_7 
REMARK    5  A    between atoms: C_16  and  C_17 
REMARK       I    between atoms: C_17  and  N_18 
REMARK    6  A    between atoms: N_18  and  C_19 
REMARK    7  A    between atoms: C_19  and  N_20 
REMARK    8  A    between atoms: N_20  and  C_21 
REMARK    9  A    between atoms: C_24  and  C_25 
REMARK   10  A    between atoms: C_25  and  N_26 
ROOT
HETATM    1  C   UNL     1      -5.098   5.222 -34.045  1.00  0.00     0.257 C 
HETATM    2  N   UNL     1      -4.827   6.053 -32.962  1.00  0.00    -0.299 N 
HETATM    3  O   UNL     1      -4.493   5.235 -35.107  1.00  0.00    -0.267 OA
HETATM    4  H   UNL     1      -5.599   6.198 -32.329  1.00  0.00     0.171 HD
ENDROOT
BRANCH   2   5
HETATM    5  C   UNL     1      -3.615   6.234 -32.331  1.00  0.00     0.179 C 
HETATM    6  S   UNL     1      -2.554   7.502 -32.556  1.00  0.00    -0.040 SA
BRANCH   5   7
HETATM    7  N   UNL     1      -3.195   5.189 -31.541  1.00  0.00    -0.333 N 
HETATM    8  H   UNL     1      -2.564   5.487 -30.800  1.00  0.00     0.168 HD
BRANCH   7   9
HETATM    9  C   UNL     1      -3.593   3.838 -31.516  1.00  0.00     0.034 A 
HETATM   10  C   UNL     1      -4.662   3.491 -30.686  1.00  0.00     0.030 A 
HETATM   11  C   UNL     1      -5.138   2.173 -30.634  1.00  0.00     0.011 A 
HETATM   12  C   UNL     1      -4.578   1.175 -31.443  1.00  0.00    -0.032 A 
HETATM   13  C   UNL     1      -3.519   1.543 -32.292  1.00  0.00     0.011 A 
HETATM   14  C   UNL     1      -3.029   2.856 -32.326  1.00  0.00     0.030 A 
BRANCH  12  15
HETATM   15  C   UNL     1      -5.040  -0.265 -31.491  1.00  0.00     0.273 C 
BRANCH  15  16
HETATM   16  N   UNL     1      -5.188  -0.905 -32.858  1.00  0.00    -0.067 N 
HETATM   17  H   UNL     1      -4.855  -0.214 -33.541  1.00  0.00     0.280 HD
HETATM   18  C   UNL     1      -4.369  -2.171 -32.996  1.00  0.00     0.235 C 
HETATM   19  C   UNL     1      -4.457  -2.671 -34.431  1.00  0.00     0.028 C 
HETATM   20  C   UNL     1      -5.902  -2.909 -34.854  1.00  0.00     0.003 C 
HETATM   21  C   UNL     1      -6.758  -1.670 -34.620  1.00  0.00     0.028 C 
HETATM   22  C   UNL     1      -6.644  -1.163 -33.190  1.00  0.00     0.235 C 
ENDBRANCH  15  16
ENDBRANCH  12  15
ENDBRANCH   7   9
ENDBRANCH   5   7
ENDBRANCH   2   5
BRANCH   1  23
HETATM   23  C   UNL     1      -6.362   4.447 -33.908  1.00  0.00     0.035 A 
HETATM   24  C   UNL     1      -6.368   3.061 -34.126  1.00  0.00     0.020 A 
HETATM   25  C   UNL     1      -7.529   2.327 -33.886  1.00  0.00     0.040 A 
HETATM   26  C   UNL     1      -8.686   2.973 -33.452  1.00  0.00     0.102 A 
HETATM   27  C   UNL     1      -8.685   4.359 -33.260  1.00  0.00     0.102 A 
HETATM   28  C   UNL     1      -7.533   5.104 -33.519  1.00  0.00     0.056 A 
BRANCH  26  29
HETATM   29  O   UNL     1      -9.728   2.161 -33.107  1.00  0.00    -0.344 OA
BRANCH  29  30
HETATM   30  C   UNL     1     -10.535   1.764 -34.218  1.00  0.00     0.214 C 
BRANCH  30  31
HETATM   31  C   UNL     1     -11.961   1.819 -33.721  1.00  0.00    -0.034 A 
HETATM   32  C   UNL     1     -12.810   0.715 -33.904  1.00  0.00     0.011 A 
HETATM   33  C   UNL     1     -14.153   0.784 -33.529  1.00  0.00     0.024 A 
HETATM   34  C   UNL     1     -14.655   1.957 -32.970  1.00  0.00     0.034 A 
HETATM   35 CL   UNL     1     -16.317   2.051 -32.535  1.00  0.00    -0.084 Cl
HETATM   36  C   UNL     1     -13.825   3.058 -32.777  1.00  0.00     0.024 A 
HETATM   37  C   UNL     1     -12.480   2.992 -33.154  1.00  0.00     0.011 A 
ENDBRANCH  30  31
ENDBRANCH  29  30
ENDBRANCH  26  29
BRANCH  27  38
HETATM   38  O   UNL     1      -9.799   5.032 -32.838  1.00  0.00    -0.353 OA
HETATM   39  C   UNL     1      -9.839   5.089 -31.411  1.00  0.00     0.210 C 
ENDBRANCH  27  38
ENDBRANCH   1  23
TORSDOF 10
ENDMDL
MODEL 6
REMARK VINA RESULT:      -8.5      6.782     11.558
REMARK  10 active torsions:
REMARK  status: ('A' for Active; 'I' for Inactive)
REMARK    1  A    between atoms: O_2  and  C_3 
REMARK    2  A    between atoms: C_4  and  O_5 
REMARK    3  A    between atoms: O_5  and  C_6 
REMARK    4  A    between atoms: C_6  and  C_7 
REMARK    5  A    between atoms: C_16  and  C_17 
REMARK       I    between atoms: C_17  and  N_18 
REMARK    6  A    between atoms: N_18  and  C_19 
REMARK    7  A    between atoms: C_19  and  N_20 
REMARK    8  A    between atoms: N_20  and  C_21 
REMARK    9  A    between atoms: C_24  and  C_25 
REMARK   10  A    between atoms: C_25  and  N_26 
ROOT
HETATM    1  C   UNL     1      -2.715   6.180 -31.167  1.00  0.00     0.257 C 
HETATM    2  N   UNL     1      -1.948   5.699 -30.111  1.00  0.00    -0.299 N 
HETATM    3  O   UNL     1      -2.959   7.360 -31.375  1.00  0.00    -0.267 OA
HETATM    4  H   UNL     1      -2.133   4.743 -29.847  1.00  0.00     0.171 HD
ENDROOT
BRANCH   2   5
HETATM    5  C   UNL     1      -0.668   6.080 -29.766  1.00  0.00     0.179 C 
HETATM    6  S   UNL     1       0.675   5.093 -29.678  1.00  0.00    -0.040 SA
BRANCH   5   7
HETATM    7  N   UNL     1      -0.532   7.376 -29.328  1.00  0.00    -0.333 N 
HETATM    8  H   UNL     1      -0.950   8.051 -29.965  1.00  0.00     0.168 HD
BRANCH   7   9
HETATM    9  C   UNL     1      -0.039   7.889 -28.112  1.00  0.00     0.034 A 
HETATM   10  C   UNL     1       1.301   8.281 -28.067  1.00  0.00     0.030 A 
HETATM   11  C   UNL     1       1.855   8.833 -26.903  1.00  0.00     0.011 A 
HETATM   12  C   UNL     1       1.067   9.042 -25.764  1.00  0.00    -0.032 A 
HETATM   13  C   UNL     1      -0.288   8.667 -25.830  1.00  0.00     0.011 A 
HETATM   14  C   UNL     1      -0.833   8.093 -26.986  1.00  0.00     0.030 A 
BRANCH  12  15
HETATM   15  C   UNL     1       1.553   9.663 -24.472  1.00  0.00     0.273 C 
BRANCH  15  16
HETATM   16  N   UNL     1       2.760   9.032 -23.805  1.00  0.00    -0.067 N 
HETATM   17  H   UNL     1       2.867   8.098 -24.219  1.00  0.00     0.280 HD
HETATM   18  C   UNL     1       4.030   9.824 -24.038  1.00  0.00     0.235 C 
HETATM   19  C   UNL     1       5.212   9.055 -23.464  1.00  0.00     0.028 C 
HETATM   20  C   UNL     1       5.020   8.759 -21.980  1.00  0.00     0.003 C 
HETATM   21  C   UNL     1       3.693   8.054 -21.725  1.00  0.00     0.028 C 
HETATM   22  C   UNL     1       2.520   8.816 -22.325  1.00  0.00     0.235 C 
ENDBRANCH  15  16
ENDBRANCH  12  15
ENDBRANCH   7   9
ENDBRANCH   5   7
ENDBRANCH   2   5
BRANCH   1  23
HETATM   23  C   UNL     1      -3.435   5.119 -31.922  1.00  0.00     0.035 A 
HETATM   24  C   UNL     1      -3.142   3.766 -31.693  1.00  0.00     0.020 A 
HETATM   25  C   UNL     1      -3.899   2.777 -32.319  1.00  0.00     0.040 A 
HETATM   26  C   UNL     1      -4.930   3.133 -33.188  1.00  0.00     0.102 A 
HETATM   27  C   UNL     1      -5.204   4.482 -33.434  1.00  0.00     0.102 A 
HETATM   28  C   UNL     1      -4.437   5.478 -32.827  1.00  0.00     0.056 A 
BRANCH  26  29
HETATM   29  O   UNL     1      -5.706   2.106 -33.643  1.00  0.00    -0.344 OA
BRANCH  29  30
HETATM   30  C   UNL     1      -6.016   1.136 -32.639  1.00  0.00     0.214 C 
BRANCH  30  31
HETATM   31  C   UNL     1      -6.001  -0.198 -33.350  1.00  0.00    -0.034 A 
HETATM   32  C   UNL     1      -7.211  -0.797 -33.739  1.00  0.00     0.011 A 
HETATM   33  C   UNL     1      -7.219  -2.068 -34.317  1.00  0.00     0.024 A 
HETATM   34  C   UNL     1      -6.018  -2.748 -34.507  1.00  0.00     0.034 A 
HETATM   35 CL   UNL     1      -6.031  -4.326 -35.192  1.00  0.00    -0.084 Cl
HETATM   36  C   UNL     1      -4.811  -2.165 -34.131  1.00  0.00     0.024 A 
HETATM   37  C   UNL     1      -4.801  -0.894 -33.550  1.00  0.00     0.011 A 
ENDBRANCH  30  31
ENDBRANCH  29  30
ENDBRANCH  26  29
BRANCH  27  38
HETATM   38  O   UNL     1      -6.205   4.874 -34.281  1.00  0.00    -0.353 OA
HETATM   39  C   UNL     1      -7.427   5.053 -33.564  1.00  0.00     0.210 C 
ENDBRANCH  27  38
ENDBRANCH   1  23
TORSDOF 10
ENDMDL
MODEL 7
REMARK VINA RESULT:      -8.4      4.166      7.785
REMARK  10 active torsions:
REMARK  status: ('A' for Active; 'I' for Inactive)
REMARK    1  A    between atoms: O_2  and  C_3 
REMARK    2  A    between atoms: C_4  and  O_5 
REMARK    3  A    between atoms: O_5  and  C_6 
REMARK    4  A    between atoms: C_6  and  C_7 
REMARK    5  A    between atoms: C_16  and  C_17 
REMARK       I    between atoms: C_17  and  N_18 
REMARK    6  A    between atoms: N_18  and  C_19 
REMARK    7  A    between atoms: C_19  and  N_20 
REMARK    8  A    between atoms: N_20  and  C_21 
REMARK    9  A    between atoms: C_24  and  C_25 
REMARK   10  A    between atoms: C_25  and  N_26 
ROOT
HETATM    1  C   UNL     1      -3.164   6.033 -31.321  1.00  0.00     0.257 C 
HETATM    2  N   UNL     1      -4.040   7.078 -31.595  1.00  0.00    -0.299 N 
HETATM    3  O   UNL     1      -2.018   6.167 -30.916  1.00  0.00    -0.267 OA
HETATM    4  H   UNL     1      -4.776   6.860 -32.249  1.00  0.00     0.171 HD
ENDROOT
BRANCH   2   5
HETATM    5  C   UNL     1      -4.401   8.107 -30.751  1.00  0.00     0.179 C 
HETATM    6  S   UNL     1      -3.526   9.494 -30.439  1.00  0.00    -0.040 SA
BRANCH   5   7
HETATM    7  N   UNL     1      -5.534   7.891 -30.001  1.00  0.00    -0.333 N 
HETATM    8  H   UNL     1      -5.750   8.671 -29.383  1.00  0.00     0.168 HD
BRANCH   7   9
HETATM    9  C   UNL     1      -6.484   6.853 -30.050  1.00  0.00     0.034 A 
HETATM   10  C   UNL     1      -7.562   6.999 -30.926  1.00  0.00     0.030 A 
HETATM   11  C   UNL     1      -8.530   5.992 -31.056  1.00  0.00     0.011 A 
HETATM   12  C   UNL     1      -8.420   4.794 -30.338  1.00  0.00    -0.032 A 
HETATM   13  C   UNL     1      -7.316   4.649 -29.478  1.00  0.00     0.011 A 
HETATM   14  C   UNL     1      -6.363   5.666 -29.331  1.00  0.00     0.030 A 
BRANCH  12  15
HETATM   15  C   UNL     1      -9.385   3.632 -30.432  1.00  0.00     0.273 C 
BRANCH  15  16
HETATM   16  N   UNL     1      -9.348   2.794 -31.695  1.00  0.00    -0.067 N 
HETATM   17  H   UNL     1      -8.580   3.164 -32.268  1.00  0.00     0.280 HD
HETATM   18  C   UNL     1      -9.091   1.329 -31.411  1.00  0.00     0.235 C 
HETATM   19  C   UNL     1      -8.926   0.585 -32.728  1.00  0.00     0.028 C 
HETATM   20  C   UNL     1     -10.145   0.758 -33.627  1.00  0.00     0.003 C 
HETATM   21  C   UNL     1     -10.474   2.232 -33.834  1.00  0.00     0.028 C 
HETATM   22  C   UNL     1     -10.612   2.974 -32.512  1.00  0.00     0.235 C 
ENDBRANCH  15  16
ENDBRANCH  12  15
ENDBRANCH   7   9
ENDBRANCH   5   7
ENDBRANCH   2   5
BRANCH   1  23
HETATM   23  C   UNL     1      -3.646   4.704 -31.787  1.00  0.00     0.035 A 
HETATM   24  C   UNL     1      -2.863   3.558 -31.585  1.00  0.00     0.020 A 
HETATM   25  C   UNL     1      -3.371   2.303 -31.920  1.00  0.00     0.040 A 
HETATM   26  C   UNL     1      -4.645   2.192 -32.477  1.00  0.00     0.102 A 
HETATM   27  C   UNL     1      -5.414   3.339 -32.701  1.00  0.00     0.102 A 
HETATM   28  C   UNL     1      -4.904   4.601 -32.387  1.00  0.00     0.056 A 
BRANCH  26  29
HETATM   29  O   UNL     1      -5.114   0.921 -32.641  1.00  0.00    -0.344 OA
BRANCH  29  30
HETATM   30  C   UNL     1      -4.085  -0.040 -32.894  1.00  0.00     0.214 C 
BRANCH  30  31
HETATM   31  C   UNL     1      -4.786  -1.228 -33.512  1.00  0.00    -0.034 A 
HETATM   32  C   UNL     1      -4.094  -2.437 -33.684  1.00  0.00     0.011 A 
HETATM   33  C   UNL     1      -4.700  -3.515 -34.333  1.00  0.00     0.024 A 
HETATM   34  C   UNL     1      -6.001  -3.389 -34.813  1.00  0.00     0.034 A 
HETATM   35 CL   UNL     1      -6.737  -4.707 -35.638  1.00  0.00    -0.084 Cl
HETATM   36  C   UNL     1      -6.703  -2.198 -34.645  1.00  0.00     0.024 A 
HETATM   37  C   UNL     1      -6.097  -1.117 -33.998  1.00  0.00     0.011 A 
ENDBRANCH  30  31
ENDBRANCH  29  30
ENDBRANCH  26  29
BRANCH  27  38
HETATM   38  O   UNL     1      -6.667   3.275 -33.246  1.00  0.00    -0.353 OA
HETATM   39  C   UNL     1      -6.994   4.504 -33.897  1.00  0.00     0.210 C 
ENDBRANCH  27  38
ENDBRANCH   1  23
TORSDOF 10
ENDMDL
MODEL 8
REMARK VINA RESULT:      -8.2      2.140      2.878
REMARK  10 active torsions:
REMARK  status: ('A' for Active; 'I' for Inactive)
REMARK    1  A    between atoms: O_2  and  C_3 
REMARK    2  A    between atoms: C_4  and  O_5 
REMARK    3  A    between atoms: O_5  and  C_6 
REMARK    4  A    between atoms: C_6  and  C_7 
REMARK    5  A    between atoms: C_16  and  C_17 
REMARK       I    between atoms: C_17  and  N_18 
REMARK    6  A    between atoms: N_18  and  C_19 
REMARK    7  A    between atoms: C_19  and  N_20 
REMARK    8  A    between atoms: N_20  and  C_21 
REMARK    9  A    between atoms: C_24  and  C_25 
REMARK   10  A    between atoms: C_25  and  N_26 
ROOT
HETATM    1  C   UNL     1     -11.210   3.957 -31.033  1.00  0.00     0.257 C 
HETATM    2  N   UNL     1     -11.422   3.872 -32.406  1.00  0.00    -0.299 N 
HETATM    3  O   UNL     1     -12.093   4.061 -30.193  1.00  0.00    -0.267 OA
HETATM    4  H   UNL     1     -10.643   4.161 -32.978  1.00  0.00     0.171 HD
ENDROOT
BRANCH   2   5
HETATM    5  C   UNL     1     -12.236   2.980 -33.072  1.00  0.00     0.179 C 
HETATM    6  S   UNL     1     -13.898   2.880 -32.968  1.00  0.00    -0.040 SA
BRANCH   5   7
HETATM    7  N   UNL     1     -11.585   2.001 -33.786  1.00  0.00    -0.333 N 
HETATM    8  H   UNL     1     -12.101   1.710 -34.613  1.00  0.00     0.168 HD
BRANCH   7   9
HETATM    9  C   UNL     1     -10.298   1.451 -33.628  1.00  0.00     0.034 A 
HETATM   10  C   UNL     1      -9.248   2.041 -34.336  1.00  0.00     0.030 A 
HETATM   11  C   UNL     1      -7.933   1.572 -34.204  1.00  0.00     0.011 A 
HETATM   12  C   UNL     1      -7.630   0.522 -33.328  1.00  0.00    -0.032 A 
HETATM   13  C   UNL     1      -8.693  -0.047 -32.602  1.00  0.00     0.011 A 
HETATM   14  C   UNL     1     -10.010   0.407 -32.753  1.00  0.00     0.030 A 
BRANCH  12  15
HETATM   15  C   UNL     1      -6.245  -0.035 -33.083  1.00  0.00     0.273 C 
BRANCH  15  16
HETATM   16  N   UNL     1      -6.003  -1.488 -33.440  1.00  0.00    -0.067 N 
HETATM   17  H   UNL     1      -6.215  -2.035 -32.597  1.00  0.00     0.280 HD
HETATM   18  C   UNL     1      -6.890  -1.962 -34.572  1.00  0.00     0.235 C 
HETATM   19  C   UNL     1      -6.690  -3.458 -34.772  1.00  0.00     0.028 C 
HETATM   20  C   UNL     1      -5.230  -3.796 -35.049  1.00  0.00     0.003 C 
HETATM   21  C   UNL     1      -4.318  -3.232 -33.966  1.00  0.00     0.028 C 
HETATM   22  C   UNL     1      -4.542  -1.741 -33.755  1.00  0.00     0.235 C 
ENDBRANCH  15  16
ENDBRANCH  12  15
ENDBRANCH   7   9
ENDBRANCH   5   7
ENDBRANCH   2   5
BRANCH   1  23
HETATM   23  C   UNL     1      -9.784   4.150 -30.654  1.00  0.00     0.035 A 
HETATM   24  C   UNL     1      -8.936   3.043 -30.505  1.00  0.00     0.020 A 
HETATM   25  C   UNL     1      -7.577   3.238 -30.262  1.00  0.00     0.040 A 
HETATM   26  C   UNL     1      -7.068   4.531 -30.144  1.00  0.00     0.102 A 
HETATM   27  C   UNL     1      -7.920   5.633 -30.268  1.00  0.00     0.102 A 
HETATM   28  C   UNL     1      -9.286   5.446 -30.490  1.00  0.00     0.056 A 
BRANCH  26  29
HETATM   29  O   UNL     1      -5.710   4.629 -30.049  1.00  0.00    -0.344 OA
BRANCH  29  30
HETATM   30  C   UNL     1      -5.017   3.485 -30.553  1.00  0.00     0.214 C 
BRANCH  30  31
HETATM   31  C   UNL     1      -4.109   4.011 -31.641  1.00  0.00    -0.034 A 
HETATM   32  C   UNL     1      -4.633   4.300 -32.911  1.00  0.00     0.011 A 
HETATM   33  C   UNL     1      -3.792   4.702 -33.951  1.00  0.00     0.024 A 
HETATM   34  C   UNL     1      -2.422   4.816 -33.726  1.00  0.00     0.034 A 
HETATM   35 CL   UNL     1      -1.382   5.284 -35.014  1.00  0.00    -0.084 Cl
HETATM   36  C   UNL     1      -1.888   4.538 -32.470  1.00  0.00     0.024 A 
HETATM   37  C   UNL     1      -2.728   4.133 -31.429  1.00  0.00     0.011 A 
ENDBRANCH  30  31
ENDBRANCH  29  30
ENDBRANCH  26  29
BRANCH  27  38
HETATM   38  O   UNL     1      -7.462   6.918 -30.157  1.00  0.00    -0.353 OA
HETATM   39  C   UNL     1      -8.156   7.777 -31.064  1.00  0.00     0.210 C 
ENDBRANCH  27  38
ENDBRANCH   1  23
TORSDOF 10
ENDMDL
MODEL 9
REMARK VINA RESULT:      -8.2      6.359     11.453
REMARK  10 active torsions:
REMARK  status: ('A' for Active; 'I' for Inactive)
REMARK    1  A    between atoms: O_2  and  C_3 
REMARK    2  A    between atoms: C_4  and  O_5 
REMARK    3  A    between atoms: O_5  and  C_6 
REMARK    4  A    between atoms: C_6  and  C_7 
REMARK    5  A    between atoms: C_16  and  C_17 
REMARK       I    between atoms: C_17  and  N_18 
REMARK    6  A    between atoms: N_18  and  C_19 
REMARK    7  A    between atoms: C_19  and  N_20 
REMARK    8  A    between atoms: N_20  and  C_21 
REMARK    9  A    between atoms: C_24  and  C_25 
REMARK   10  A    between atoms: C_25  and  N_26 
ROOT
HETATM    1  C   UNL     1      -1.743   4.917 -32.183  1.00  0.00     0.257 C 
HETATM    2  N   UNL     1      -1.549   5.258 -30.848  1.00  0.00    -0.299 N 
HETATM    3  O   UNL     1      -1.166   5.433 -33.130  1.00  0.00    -0.267 OA
HETATM    4  H   UNL     1      -2.319   5.043 -30.234  1.00  0.00     0.171 HD
ENDROOT
BRANCH   2   5
HETATM    5  C   UNL     1      -0.352   5.303 -30.164  1.00  0.00     0.179 C 
HETATM    6  S   UNL     1       1.127   4.752 -30.706  1.00  0.00    -0.040 SA
BRANCH   5   7
HETATM    7  N   UNL     1      -0.431   5.725 -28.857  1.00  0.00    -0.333 N 
HETATM    8  H   UNL     1      -0.640   4.966 -28.212  1.00  0.00     0.168 HD
BRANCH   7   9
HETATM    9  C   UNL     1      -0.147   6.977 -28.276  1.00  0.00     0.034 A 
HETATM   10  C   UNL     1       1.061   7.114 -27.588  1.00  0.00     0.030 A 
HETATM   11  C   UNL     1       1.431   8.339 -27.013  1.00  0.00     0.011 A 
HETATM   12  C   UNL     1       0.615   9.470 -27.148  1.00  0.00    -0.032 A 
HETATM   13  C   UNL     1      -0.587   9.324 -27.866  1.00  0.00     0.011 A 
HETATM   14  C   UNL     1      -0.966   8.094 -28.419  1.00  0.00     0.030 A 
BRANCH  12  15
HETATM   15  C   UNL     1       0.935  10.843 -26.601  1.00  0.00     0.273 C 
BRANCH  15  16
HETATM   16  N   UNL     1       0.730  11.070 -25.116  1.00  0.00    -0.067 N 
HETATM   17  H   UNL     1       0.582  12.079 -24.993  1.00  0.00     0.280 HD
HETATM   18  C   UNL     1      -0.473  10.324 -24.577  1.00  0.00     0.235 C 
HETATM   19  C   UNL     1      -0.694  10.715 -23.123  1.00  0.00     0.028 C 
HETATM   20  C   UNL     1       0.541  10.438 -22.274  1.00  0.00     0.003 C 
HETATM   21  C   UNL     1       1.779  11.100 -22.868  1.00  0.00     0.028 C 
HETATM   22  C   UNL     1       1.978  10.724 -24.329  1.00  0.00     0.235 C 
ENDBRANCH  15  16
ENDBRANCH  12  15
ENDBRANCH   7   9
ENDBRANCH   5   7
ENDBRANCH   2   5
BRANCH   1  23
HETATM   23  C   UNL     1      -2.905   4.015 -32.412  1.00  0.00     0.035 A 
HETATM   24  C   UNL     1      -3.011   2.807 -31.706  1.00  0.00     0.020 A 
HETATM   25  C   UNL     1      -4.156   2.024 -31.841  1.00  0.00     0.040 A 
HETATM   26  C   UNL     1      -5.183   2.430 -32.693  1.00  0.00     0.102 A 
HETATM   27  C   UNL     1      -5.064   3.622 -33.415  1.00  0.00     0.102 A 
HETATM   28  C   UNL     1      -3.911   4.401 -33.301  1.00  0.00     0.056 A 
BRANCH  26  29
HETATM   29  O   UNL     1      -6.321   1.677 -32.654  1.00  0.00    -0.344 OA
BRANCH  29  30
HETATM   30  C   UNL     1      -6.226   0.541 -31.791  1.00  0.00     0.214 C 
BRANCH  30  31
HETATM   31  C   UNL     1      -6.144  -0.657 -32.708  1.00  0.00    -0.034 A 
HETATM   32  C   UNL     1      -4.925  -1.336 -32.865  1.00  0.00     0.011 A 
HETATM   33  C   UNL     1      -4.812  -2.389 -33.775  1.00  0.00     0.024 A 
HETATM   34  C   UNL     1      -5.916  -2.767 -34.534  1.00  0.00     0.034 A 
HETATM   35 CL   UNL     1      -5.769  -4.045 -35.677  1.00  0.00    -0.084 Cl
HETATM   36  C   UNL     1      -7.133  -2.106 -34.387  1.00  0.00     0.024 A 
HETATM   37  C   UNL     1      -7.248  -1.051 -33.478  1.00  0.00     0.011 A 
ENDBRANCH  30  31
ENDBRANCH  29  30
ENDBRANCH  26  29
BRANCH  27  38
HETATM   38  O   UNL     1      -6.047   4.056 -34.262  1.00  0.00    -0.353 OA
HETATM   39  C   UNL     1      -6.779   5.130 -33.672  1.00  0.00     0.210 C 
ENDBRANCH  27  38
ENDBRANCH   1  23
TORSDOF 10
ENDMDL
MODEL 10
REMARK VINA RESULT:      -8.1      1.347      2.185
REMARK  10 active torsions:
REMARK  status: ('A' for Active; 'I' for Inactive)
REMARK    1  A    between atoms: O_2  and  C_3 
REMARK    2  A    between atoms: C_4  and  O_5 
REMARK    3  A    between atoms: O_5  and  C_6 
REMARK    4  A    between atoms: C_6  and  C_7 
REMARK    5  A    between atoms: C_16  and  C_17 
REMARK       I    between atoms: C_17  and  N_18 
REMARK    6  A    between atoms: N_18  and  C_19 
REMARK    7  A    between atoms: C_19  and  N_20 
REMARK    8  A    between atoms: N_20  and  C_21 
REMARK    9  A    between atoms: C_24  and  C_25 
REMARK   10  A    between atoms: C_25  and  N_26 
ROOT
HETATM    1  C   UNL     1     -10.316   4.252 -32.688  1.00  0.00     0.257 C 
HETATM    2  N   UNL     1     -10.869   3.615 -33.795  1.00  0.00    -0.299 N 
HETATM    3  O   UNL     1     -10.946   4.632 -31.711  1.00  0.00    -0.267 OA
HETATM    4  H   UNL     1     -10.335   3.696 -34.647  1.00  0.00     0.171 HD
ENDROOT
BRANCH   2   5
HETATM    5  C   UNL     1     -11.662   2.487 -33.800  1.00  0.00     0.179 C 
HETATM    6  S   UNL     1     -13.283   2.411 -34.187  1.00  0.00    -0.040 SA
BRANCH   5   7
HETATM    7  N   UNL     1     -11.074   1.345 -33.307  1.00  0.00    -0.333 N 
HETATM    8  H   UNL     1     -11.719   0.775 -32.764  1.00  0.00     0.168 HD
BRANCH   7   9
HETATM    9  C   UNL     1      -9.798   0.795 -33.538  1.00  0.00     0.034 A 
HETATM   10  C   UNL     1      -9.186   0.108 -32.487  1.00  0.00     0.030 A 
HETATM   11  C   UNL     1      -7.932  -0.498 -32.652  1.00  0.00     0.011 A 
HETATM   12  C   UNL     1      -7.276  -0.464 -33.890  1.00  0.00    -0.032 A 
HETATM   13  C   UNL     1      -7.915   0.209 -34.948  1.00  0.00     0.011 A 
HETATM   14  C   UNL     1      -9.157   0.835 -34.774  1.00  0.00     0.030 A 
BRANCH  12  15
HETATM   15  C   UNL     1      -5.943  -1.115 -34.185  1.00  0.00     0.273 C 
BRANCH  15  16
HETATM   16  N   UNL     1      -4.723  -0.565 -33.471  1.00  0.00    -0.067 N 
HETATM   17  H   UNL     1      -4.009  -0.407 -34.193  1.00  0.00     0.280 HD
HETATM   18  C   UNL     1      -5.007   0.744 -32.765  1.00  0.00     0.235 C 
HETATM   19  C   UNL     1      -3.708   1.299 -32.199  1.00  0.00     0.028 C 
HETATM   20  C   UNL     1      -3.037   0.307 -31.256  1.00  0.00     0.003 C 
HETATM   21  C   UNL     1      -2.842  -1.047 -31.928  1.00  0.00     0.028 C 
HETATM   22  C   UNL     1      -4.141  -1.583 -32.513  1.00  0.00     0.235 C 
ENDBRANCH  15  16
ENDBRANCH  12  15
ENDBRANCH   7   9
ENDBRANCH   5   7
ENDBRANCH   2   5
BRANCH   1  23
HETATM   23  C   UNL     1      -8.897   4.662 -32.874  1.00  0.00     0.035 A 
HETATM   24  C   UNL     1      -8.017   3.849 -33.604  1.00  0.00     0.020 A 
HETATM   25  C   UNL     1      -6.723   4.293 -33.870  1.00  0.00     0.040 A 
HETATM   26  C   UNL     1      -6.298   5.533 -33.393  1.00  0.00     0.102 A 
HETATM   27  C   UNL     1      -7.169   6.331 -32.644  1.00  0.00     0.102 A 
HETATM   28  C   UNL     1      -8.460   5.883 -32.355  1.00  0.00     0.056 A 
BRANCH  26  29
HETATM   29  O   UNL     1      -5.070   5.946 -33.820  1.00  0.00    -0.344 OA
BRANCH  29  30
HETATM   30  C   UNL     1      -4.100   4.897 -33.874  1.00  0.00     0.214 C 
BRANCH  30  31
HETATM   31  C   UNL     1      -2.891   5.427 -33.137  1.00  0.00    -0.034 A 
HETATM   32  C   UNL     1      -2.475   6.754 -33.338  1.00  0.00     0.011 A 
HETATM   33  C   UNL     1      -1.311   7.232 -32.733  1.00  0.00     0.024 A 
HETATM   34  C   UNL     1      -0.555   6.385 -31.926  1.00  0.00     0.034 A 
HETATM   35 CL   UNL     1       0.895   6.964 -31.203  1.00  0.00    -0.084 Cl
HETATM   36  C   UNL     1      -0.957   5.069 -31.712  1.00  0.00     0.024 A 
HETATM   37  C   UNL     1      -2.122   4.588 -32.319  1.00  0.00     0.011 A 
ENDBRANCH  30  31
ENDBRANCH  29  30
ENDBRANCH  26  29
BRANCH  27  38
HETATM   38  O   UNL     1      -6.793   7.552 -32.155  1.00  0.00    -0.353 OA
HETATM   39  C   UNL     1      -6.964   7.598 -30.737  1.00  0.00     0.210 C 
ENDBRANCH  27  38
ENDBRANCH   1  23
TORSDOF 10
ENDMDL
