MODEL 1
REMARK VINA RESULT:      -7.7      0.000      0.000
REMARK  2 active torsions:
REMARK  status: ('A' for Active; 'I' for Inactive)
REMARK    1  A    between atoms: C_6  and  N_7 
REMARK       I    between atoms: N_7  and  C_8 
REMARK       I    between atoms: C_8  and  N_9 
REMARK    2  A    between atoms: N_9  and  C_10 
ROOT
HETATM    1  N   UNL     1      -4.195   3.489 -31.593  1.00  0.00    -0.306 N 
HETATM    2  C   UNL     1      -4.602   2.191 -31.546  1.00  0.00     0.321 C 
HETATM    3  N   UNL     1      -4.396   1.410 -32.638  1.00  0.00    -0.338 N 
HETATM    4  O   UNL     1      -5.020   1.730 -30.485  1.00  0.00    -0.247 OA
HETATM    5  H   UNL     1      -4.122   3.865 -30.654  1.00  0.00     0.171 HD
HETATM    6  H   UNL     1      -4.346   1.886 -33.528  1.00  0.00     0.164 HD
ENDROOT
BRANCH   3   7
HETATM    7  C   UNL     1      -4.669  -0.018 -32.686  1.00  0.00     0.089 C 
HETATM    8  C   UNL     1      -5.616  -0.377 -33.846  1.00  0.00     0.058 C 
HETATM    9  C   UNL     1      -5.901  -1.862 -33.811  1.00  0.00     0.190 C 
HETATM   10  N   UNL     1      -4.594  -2.603 -33.924  1.00  0.00    -0.067 N 
HETATM   11  C   UNL     1      -6.675  -2.448 -34.972  1.00  0.00     0.035 C 
HETATM   12  H   UNL     1      -4.103  -2.242 -34.758  1.00  0.00     0.280 HD
HETATM   13  C   UNL     1      -3.694  -2.367 -32.753  1.00  0.00     0.237 C 
HETATM   14  C   UNL     1      -4.964  -4.031 -34.235  1.00  0.00     0.235 C 
HETATM   15  C   UNL     1      -3.389  -0.874 -32.679  1.00  0.00     0.053 C 
HETATM   16  C   UNL     1      -6.357  -3.937 -34.860  1.00  0.00     0.030 C 
ENDBRANCH   3   7
BRANCH   1  17
HETATM   17  C   UNL     1      -3.631   4.275 -32.624  1.00  0.00     0.077 A 
HETATM   18  C   UNL     1      -4.286   4.895 -33.693  1.00  0.00     0.152 A 
HETATM   19  N   UNL     1      -3.667   5.580 -34.685  1.00  0.00    -0.247 NA
HETATM   20 CL   UNL     1      -6.000   5.026 -33.827  1.00  0.00    -0.060 Cl
HETATM   21  C   UNL     1      -2.328   5.703 -34.596  1.00  0.00     0.118 A 
HETATM   22  C   UNL     1      -1.584   5.192 -33.549  1.00  0.00     0.022 A 
HETATM   23  C   UNL     1      -2.248   4.483 -32.549  1.00  0.00     0.034 A 
ENDBRANCH   1  17
TORSDOF 2
ENDMDL
MODEL 2
REMARK VINA RESULT:      -7.3      2.008      7.250
REMARK  2 active torsions:
REMARK  status: ('A' for Active; 'I' for Inactive)
REMARK    1  A    between atoms: C_6  and  N_7 
REMARK       I    between atoms: N_7  and  C_8 
REMARK       I    between atoms: C_8  and  N_9 
REMARK    2  A    between atoms: N_9  and  C_10 
ROOT
HETATM    1  N   UNL     1      -6.238   0.225 -31.841  1.00  0.00    -0.306 N 
HETATM    2  C   UNL     1      -5.788   1.499 -31.679  1.00  0.00     0.321 C 
HETATM    3  N   UNL     1      -4.922   1.999 -32.598  1.00  0.00    -0.338 N 
HETATM    4  O   UNL     1      -6.271   2.200 -30.792  1.00  0.00    -0.247 OA
HETATM    5  H   UNL     1      -7.080   0.081 -31.294  1.00  0.00     0.171 HD
HETATM    6  H   UNL     1      -4.351   1.327 -33.090  1.00  0.00     0.164 HD
ENDROOT
BRANCH   3   7
HETATM    7  C   UNL     1      -4.454   3.377 -32.617  1.00  0.00     0.089 C 
HETATM    8  C   UNL     1      -2.920   3.458 -32.518  1.00  0.00     0.058 C 
HETATM    9  C   UNL     1      -2.501   4.911 -32.491  1.00  0.00     0.190 C 
HETATM   10  N   UNL     1      -3.003   5.577 -33.745  1.00  0.00    -0.067 N 
HETATM   11  C   UNL     1      -1.019   5.209 -32.570  1.00  0.00     0.035 C 
HETATM   12  H   UNL     1      -2.680   5.014 -34.548  1.00  0.00     0.280 HD
HETATM   13  C   UNL     1      -4.497   5.619 -33.818  1.00  0.00     0.237 C 
HETATM   14  C   UNL     1      -2.271   6.892 -33.827  1.00  0.00     0.235 C 
HETATM   15  C   UNL     1      -5.016   4.185 -33.802  1.00  0.00     0.053 C 
HETATM   16  C   UNL     1      -1.002   6.673 -33.001  1.00  0.00     0.030 C 
ENDBRANCH   3   7
BRANCH   1  17
HETATM   17  C   UNL     1      -5.927  -0.784 -32.781  1.00  0.00     0.077 A 
HETATM   18  C   UNL     1      -4.717  -1.468 -32.944  1.00  0.00     0.152 A 
HETATM   19  N   UNL     1      -4.471  -2.380 -33.915  1.00  0.00    -0.247 NA
HETATM   20 CL   UNL     1      -3.403  -1.378 -31.831  1.00  0.00    -0.060 Cl
HETATM   21  C   UNL     1      -5.488  -2.673 -34.748  1.00  0.00     0.118 A 
HETATM   22  C   UNL     1      -6.747  -2.112 -34.638  1.00  0.00     0.022 A 
HETATM   23  C   UNL     1      -6.967  -1.168 -33.636  1.00  0.00     0.034 A 
ENDBRANCH   1  17
TORSDOF 2
ENDMDL
MODEL 3
REMARK VINA RESULT:      -7.2      2.109      7.160
REMARK  2 active torsions:
REMARK  status: ('A' for Active; 'I' for Inactive)
REMARK    1  A    between atoms: C_6  and  N_7 
REMARK       I    between atoms: N_7  and  C_8 
REMARK       I    between atoms: C_8  and  N_9 
REMARK    2  A    between atoms: N_9  and  C_10 
ROOT
HETATM    1  N   UNL     1      -3.913  -0.636 -31.888  1.00  0.00    -0.306 N 
HETATM    2  C   UNL     1      -3.269   0.540 -31.652  1.00  0.00     0.321 C 
HETATM    3  N   UNL     1      -3.758   1.670 -32.229  1.00  0.00    -0.338 N 
HETATM    4  O   UNL     1      -2.356   0.573 -30.830  1.00  0.00    -0.247 OA
HETATM    5  H   UNL     1      -3.654  -1.320 -31.186  1.00  0.00     0.171 HD
HETATM    6  H   UNL     1      -4.277   1.548 -33.086  1.00  0.00     0.164 HD
ENDROOT
BRANCH   3   7
HETATM    7  C   UNL     1      -3.246   3.007 -31.971  1.00  0.00     0.089 C 
HETATM    8  C   UNL     1      -2.665   3.649 -33.244  1.00  0.00     0.058 C 
HETATM    9  C   UNL     1      -2.106   5.012 -32.900  1.00  0.00     0.190 C 
HETATM   10  N   UNL     1      -3.214   5.852 -32.322  1.00  0.00    -0.067 N 
HETATM   11  C   UNL     1      -1.642   5.882 -34.048  1.00  0.00     0.035 C 
HETATM   12  H   UNL     1      -4.004   5.827 -32.987  1.00  0.00     0.280 HD
HETATM   13  C   UNL     1      -3.725   5.318 -31.021  1.00  0.00     0.237 C 
HETATM   14  C   UNL     1      -2.697   7.268 -32.332  1.00  0.00     0.235 C 
HETATM   15  C   UNL     1      -4.270   3.914 -31.263  1.00  0.00     0.053 C 
HETATM   16  C   UNL     1      -1.618   7.272 -33.417  1.00  0.00     0.030 C 
ENDBRANCH   3   7
BRANCH   1  17
HETATM   17  C   UNL     1      -5.009  -0.974 -32.713  1.00  0.00     0.077 A 
HETATM   18  C   UNL     1      -6.353  -0.619 -32.551  1.00  0.00     0.152 A 
HETATM   19  N   UNL     1      -7.363  -1.038 -33.350  1.00  0.00    -0.247 NA
HETATM   20 CL   UNL     1      -6.911   0.541 -31.404  1.00  0.00    -0.060 Cl
HETATM   21  C   UNL     1      -7.029  -1.813 -34.400  1.00  0.00     0.118 A 
HETATM   22  C   UNL     1      -5.727  -2.170 -34.698  1.00  0.00     0.022 A 
HETATM   23  C   UNL     1      -4.709  -1.733 -33.851  1.00  0.00     0.034 A 
ENDBRANCH   1  17
TORSDOF 2
ENDMDL
MODEL 4
REMARK VINA RESULT:      -6.9      3.930      4.782
REMARK  2 active torsions:
REMARK  status: ('A' for Active; 'I' for Inactive)
REMARK    1  A    between atoms: C_6  and  N_7 
REMARK       I    between atoms: N_7  and  C_8 
REMARK       I    between atoms: C_8  and  N_9 
REMARK    2  A    between atoms: N_9  and  C_10 
ROOT
HETATM    1  N   UNL     1      -9.892   2.155 -32.602  1.00  0.00    -0.306 N 
HETATM    2  C   UNL     1      -9.131   1.033 -32.484  1.00  0.00     0.321 C 
HETATM    3  N   UNL     1      -8.113   0.848 -33.365  1.00  0.00    -0.338 N 
HETATM    4  O   UNL     1      -9.296   0.292 -31.516  1.00  0.00    -0.247 OA
HETATM    5  H   UNL     1     -10.394   2.327 -31.738  1.00  0.00     0.171 HD
HETATM    6  H   UNL     1      -8.214   1.290 -34.267  1.00  0.00     0.164 HD
ENDROOT
BRANCH   3   7
HETATM    7  C   UNL     1      -7.149  -0.239 -33.285  1.00  0.00     0.089 C 
HETATM    8  C   UNL     1      -7.582  -1.447 -34.136  1.00  0.00     0.058 C 
HETATM    9  C   UNL     1      -6.568  -2.557 -33.970  1.00  0.00     0.190 C 
HETATM   10  N   UNL     1      -5.220  -2.042 -34.401  1.00  0.00    -0.067 N 
HETATM   11  C   UNL     1      -6.719  -3.773 -34.860  1.00  0.00     0.035 C 
HETATM   12  H   UNL     1      -5.326  -1.645 -35.348  1.00  0.00     0.280 HD
HETATM   13  C   UNL     1      -4.715  -0.942 -33.522  1.00  0.00     0.237 C 
HETATM   14  C   UNL     1      -4.348  -3.263 -34.548  1.00  0.00     0.235 C 
HETATM   15  C   UNL     1      -5.709   0.215 -33.588  1.00  0.00     0.053 C 
HETATM   16  C   UNL     1      -5.334  -4.409 -34.781  1.00  0.00     0.030 C 
ENDBRANCH   3   7
BRANCH   1  17
HETATM   17  C   UNL     1      -9.901   3.206 -33.547  1.00  0.00     0.077 A 
HETATM   18  C   UNL     1      -8.988   4.258 -33.677  1.00  0.00     0.152 A 
HETATM   19  N   UNL     1      -9.099   5.270 -34.570  1.00  0.00    -0.247 NA
HETATM   20 CL   UNL     1      -7.488   4.341 -32.830  1.00  0.00    -0.060 Cl
HETATM   21  C   UNL     1     -10.144   5.223 -35.419  1.00  0.00     0.118 A 
HETATM   22  C   UNL     1     -11.070   4.196 -35.429  1.00  0.00     0.022 A 
HETATM   23  C   UNL     1     -10.936   3.173 -34.490  1.00  0.00     0.034 A 
ENDBRANCH   1  17
TORSDOF 2
ENDMDL
MODEL 5
REMARK VINA RESULT:      -6.8      2.552      7.377
REMARK  2 active torsions:
REMARK  status: ('A' for Active; 'I' for Inactive)
REMARK    1  A    between atoms: C_6  and  N_7 
REMARK       I    between atoms: N_7  and  C_8 
REMARK       I    between atoms: C_8  and  N_9 
REMARK    2  A    between atoms: N_9  and  C_10 
ROOT
HETATM    1  N   UNL     1      -7.234   2.602 -34.096  1.00  0.00    -0.306 N 
HETATM    2  C   UNL     1      -6.503   3.721 -33.839  1.00  0.00     0.321 C 
HETATM    3  N   UNL     1      -5.232   3.569 -33.381  1.00  0.00    -0.338 N 
HETATM    4  O   UNL     1      -6.956   4.821 -34.148  1.00  0.00    -0.247 OA
HETATM    5  H   UNL     1      -8.016   2.830 -34.700  1.00  0.00     0.171 HD
HETATM    6  H   UNL     1      -5.034   2.717 -32.878  1.00  0.00     0.164 HD
ENDROOT
BRANCH   3   7
HETATM    7  C   UNL     1      -4.299   4.667 -33.179  1.00  0.00     0.089 C 
HETATM    8  C   UNL     1      -3.217   4.311 -32.143  1.00  0.00     0.058 C 
HETATM    9  C   UNL     1      -2.313   5.507 -31.941  1.00  0.00     0.190 C 
HETATM   10  N   UNL     1      -1.699   5.872 -33.266  1.00  0.00    -0.067 N 
HETATM   11  C   UNL     1      -1.079   5.307 -31.087  1.00  0.00     0.035 C 
HETATM   12  H   UNL     1      -1.264   5.019 -33.654  1.00  0.00     0.280 HD
HETATM   13  C   UNL     1      -2.713   6.335 -34.264  1.00  0.00     0.237 C 
HETATM   14  C   UNL     1      -0.568   6.814 -32.943  1.00  0.00     0.235 C 
HETATM   15  C   UNL     1      -3.706   5.200 -34.497  1.00  0.00     0.053 C 
HETATM   16  C   UNL     1      -0.206   6.491 -31.492  1.00  0.00     0.030 C 
ENDBRANCH   3   7
BRANCH   1  17
HETATM   17  C   UNL     1      -6.969   1.226 -33.912  1.00  0.00     0.077 A 
HETATM   18  C   UNL     1      -6.691   0.553 -32.718  1.00  0.00     0.152 A 
HETATM   19  N   UNL     1      -6.379  -0.762 -32.627  1.00  0.00    -0.247 NA
HETATM   20 CL   UNL     1      -6.862   1.258 -31.153  1.00  0.00    -0.060 Cl
HETATM   21  C   UNL     1      -6.388  -1.471 -33.773  1.00  0.00     0.118 A 
HETATM   22  C   UNL     1      -6.717  -0.927 -35.001  1.00  0.00     0.022 A 
HETATM   23  C   UNL     1      -7.022   0.432 -35.064  1.00  0.00     0.034 A 
ENDBRANCH   1  17
TORSDOF 2
ENDMDL
MODEL 6
REMARK VINA RESULT:      -6.7      3.633      7.415
REMARK  2 active torsions:
REMARK  status: ('A' for Active; 'I' for Inactive)
REMARK    1  A    between atoms: C_6  and  N_7 
REMARK       I    between atoms: N_7  and  C_8 
REMARK       I    between atoms: C_8  and  N_9 
REMARK    2  A    between atoms: N_9  and  C_10 
ROOT
HETATM    1  N   UNL     1      -3.917  -1.761 -33.671  1.00  0.00    -0.306 N 
HETATM    2  C   UNL     1      -4.177  -0.510 -33.203  1.00  0.00     0.321 C 
HETATM    3  N   UNL     1      -5.474  -0.132 -33.057  1.00  0.00    -0.338 N 
HETATM    4  O   UNL     1      -3.247   0.189 -32.804  1.00  0.00    -0.247 OA
HETATM    5  H   UNL     1      -2.963  -2.024 -33.449  1.00  0.00     0.171 HD
HETATM    6  H   UNL     1      -6.145  -0.591 -33.656  1.00  0.00     0.164 HD
ENDROOT
BRANCH   3   7
HETATM    7  C   UNL     1      -5.898   1.125 -32.459  1.00  0.00     0.089 C 
HETATM    8  C   UNL     1      -6.110   2.218 -33.522  1.00  0.00     0.058 C 
HETATM    9  C   UNL     1      -6.499   3.508 -32.834  1.00  0.00     0.190 C 
HETATM   10  N   UNL     1      -7.756   3.267 -32.041  1.00  0.00    -0.067 N 
HETATM   11  C   UNL     1      -6.920   4.665 -33.715  1.00  0.00     0.035 C 
HETATM   12  H   UNL     1      -8.453   2.852 -32.680  1.00  0.00     0.280 HD
HETATM   13  C   UNL     1      -7.556   2.294 -30.923  1.00  0.00     0.237 C 
HETATM   14  C   UNL     1      -8.275   4.636 -31.680  1.00  0.00     0.235 C 
HETATM   15  C   UNL     1      -7.111   0.963 -31.523  1.00  0.00     0.053 C 
HETATM   16  C   UNL     1      -7.673   5.563 -32.737  1.00  0.00     0.030 C 
ENDBRANCH   3   7
BRANCH   1  17
HETATM   17  C   UNL     1      -4.757  -2.798 -34.137  1.00  0.00     0.077 A 
HETATM   18  C   UNL     1      -4.485  -4.170 -34.192  1.00  0.00     0.152 A 
HETATM   19  N   UNL     1      -5.317  -5.101 -34.716  1.00  0.00    -0.247 NA
HETATM   20 CL   UNL     1      -3.116  -4.910 -33.450  1.00  0.00    -0.060 Cl
HETATM   21  C   UNL     1      -6.509  -4.666 -35.171  1.00  0.00     0.118 A 
HETATM   22  C   UNL     1      -6.913  -3.346 -35.105  1.00  0.00     0.022 A 
HETATM   23  C   UNL     1      -6.030  -2.408 -34.570  1.00  0.00     0.034 A 
ENDBRANCH   1  17
TORSDOF 2
ENDMDL
MODEL 7
REMARK VINA RESULT:      -6.7      4.363      7.459
REMARK  2 active torsions:
REMARK  status: ('A' for Active; 'I' for Inactive)
REMARK    1  A    between atoms: C_6  and  N_7 
REMARK       I    between atoms: N_7  and  C_8 
REMARK       I    between atoms: C_8  and  N_9 
REMARK    2  A    between atoms: N_9  and  C_10 
ROOT
HETATM    1  N   UNL     1      -4.953  -0.986 -34.033  1.00  0.00    -0.306 N 
HETATM    2  C   UNL     1      -5.994  -0.152 -33.760  1.00  0.00     0.321 C 
HETATM    3  N   UNL     1      -7.164  -0.699 -33.338  1.00  0.00    -0.338 N 
HETATM    4  O   UNL     1      -5.811   1.063 -33.774  1.00  0.00    -0.247 OA
HETATM    5  H   UNL     1      -4.082  -0.465 -34.036  1.00  0.00     0.171 HD
HETATM    6  H   UNL     1      -7.348  -1.648 -33.630  1.00  0.00     0.164 HD
ENDROOT
BRANCH   3   7
HETATM    7  C   UNL     1      -8.316   0.074 -32.898  1.00  0.00     0.089 C 
HETATM    8  C   UNL     1      -7.928   1.122 -31.840  1.00  0.00     0.058 C 
HETATM    9  C   UNL     1      -9.172   1.854 -31.389  1.00  0.00     0.190 C 
HETATM   10  N   UNL     1      -9.809   2.502 -32.590  1.00  0.00    -0.067 N 
HETATM   11  C   UNL     1      -8.984   3.046 -30.474  1.00  0.00     0.035 C 
HETATM   12  H   UNL     1      -9.082   3.064 -33.062  1.00  0.00     0.280 HD
HETATM   13  C   UNL     1     -10.303   1.504 -33.589  1.00  0.00     0.237 C 
HETATM   14  C   UNL     1     -10.812   3.482 -32.038  1.00  0.00     0.235 C 
HETATM   15  C   UNL     1      -9.113   0.679 -34.069  1.00  0.00     0.053 C 
HETATM   16  C   UNL     1     -10.309   3.787 -30.626  1.00  0.00     0.030 C 
ENDBRANCH   3   7
BRANCH   1  17
HETATM   17  C   UNL     1      -4.836  -2.395 -34.042  1.00  0.00     0.077 A 
HETATM   18  C   UNL     1      -3.977  -3.194 -33.280  1.00  0.00     0.152 A 
HETATM   19  N   UNL     1      -3.875  -4.540 -33.392  1.00  0.00    -0.247 NA
HETATM   20 CL   UNL     1      -3.031  -2.608 -31.963  1.00  0.00    -0.060 Cl
HETATM   21  C   UNL     1      -4.699  -5.143 -34.271  1.00  0.00     0.118 A 
HETATM   22  C   UNL     1      -5.636  -4.463 -35.026  1.00  0.00     0.022 A 
HETATM   23  C   UNL     1      -5.710  -3.076 -34.897  1.00  0.00     0.034 A 
ENDBRANCH   1  17
TORSDOF 2
ENDMDL
MODEL 8
REMARK VINA RESULT:      -6.6      5.489      6.986
REMARK  2 active torsions:
REMARK  status: ('A' for Active; 'I' for Inactive)
REMARK    1  A    between atoms: C_6  and  N_7 
REMARK       I    between atoms: N_7  and  C_8 
REMARK       I    between atoms: C_8  and  N_9 
REMARK    2  A    between atoms: N_9  and  C_10 
ROOT
HETATM    1  N   UNL     1      -6.396   2.478 -33.548  1.00  0.00    -0.306 N 
HETATM    2  C   UNL     1      -7.675   2.887 -33.768  1.00  0.00     0.321 C 
HETATM    3  N   UNL     1      -8.685   2.013 -33.514  1.00  0.00    -0.338 N 
HETATM    4  O   UNL     1      -7.890   4.061 -34.060  1.00  0.00    -0.247 OA
HETATM    5  H   UNL     1      -5.781   3.281 -33.477  1.00  0.00     0.171 HD
HETATM    6  H   UNL     1      -8.456   1.031 -33.578  1.00  0.00     0.164 HD
ENDROOT
BRANCH   3   7
HETATM    7  C   UNL     1     -10.098   2.351 -33.590  1.00  0.00     0.089 C 
HETATM    8  C   UNL     1     -10.965   1.110 -33.867  1.00  0.00     0.058 C 
HETATM    9  C   UNL     1     -12.413   1.534 -33.984  1.00  0.00     0.190 C 
HETATM   10  N   UNL     1     -12.819   2.208 -32.701  1.00  0.00    -0.067 N 
HETATM   11  C   UNL     1     -13.451   0.437 -34.086  1.00  0.00     0.035 C 
HETATM   12  H   UNL     1     -12.582   1.569 -31.924  1.00  0.00     0.280 HD
HETATM   13  C   UNL     1     -12.075   3.482 -32.457  1.00  0.00     0.237 C 
HETATM   14  C   UNL     1     -14.324   2.284 -32.742  1.00  0.00     0.235 C 
HETATM   15  C   UNL     1     -10.587   3.157 -32.372  1.00  0.00     0.053 C 
HETATM   16  C   UNL     1     -14.736   1.167 -33.703  1.00  0.00     0.030 C 
ENDBRANCH   3   7
BRANCH   1  17
HETATM   17  C   UNL     1      -5.846   1.236 -33.153  1.00  0.00     0.077 A 
HETATM   18  C   UNL     1      -6.029  -0.017 -33.748  1.00  0.00     0.152 A 
HETATM   19  N   UNL     1      -5.521  -1.178 -33.273  1.00  0.00    -0.247 NA
HETATM   20 CL   UNL     1      -6.796  -0.255 -35.274  1.00  0.00    -0.060 Cl
HETATM   21  C   UNL     1      -4.746  -1.100 -32.173  1.00  0.00     0.118 A 
HETATM   22  C   UNL     1      -4.439   0.092 -31.542  1.00  0.00     0.022 A 
HETATM   23  C   UNL     1      -4.986   1.270 -32.048  1.00  0.00     0.034 A 
ENDBRANCH   1  17
TORSDOF 2
ENDMDL
MODEL 9
REMARK VINA RESULT:      -6.5      2.670      7.347
REMARK  2 active torsions:
REMARK  status: ('A' for Active; 'I' for Inactive)
REMARK    1  A    between atoms: C_6  and  N_7 
REMARK       I    between atoms: N_7  and  C_8 
REMARK       I    between atoms: C_8  and  N_9 
REMARK    2  A    between atoms: N_9  and  C_10 
ROOT
HETATM    1  N   UNL     1      -3.486  -1.251 -32.163  1.00  0.00    -0.306 N 
HETATM    2  C   UNL     1      -3.133  -0.008 -31.734  1.00  0.00     0.321 C 
HETATM    3  N   UNL     1      -3.859   1.055 -32.168  1.00  0.00    -0.338 N 
HETATM    4  O   UNL     1      -2.263   0.106 -30.872  1.00  0.00    -0.247 OA
HETATM    5  H   UNL     1      -3.087  -1.956 -31.553  1.00  0.00     0.171 HD
HETATM    6  H   UNL     1      -4.324   0.948 -33.058  1.00  0.00     0.164 HD
ENDROOT
BRANCH   3   7
HETATM    7  C   UNL     1      -3.671   2.420 -31.701  1.00  0.00     0.089 C 
HETATM    8  C   UNL     1      -2.907   3.274 -32.729  1.00  0.00     0.058 C 
HETATM    9  C   UNL     1      -2.701   4.662 -32.164  1.00  0.00     0.190 C 
HETATM   10  N   UNL     1      -4.048   5.258 -31.854  1.00  0.00    -0.067 N 
HETATM   11  C   UNL     1      -2.119   5.709 -33.090  1.00  0.00     0.035 C 
HETATM   12  H   UNL     1      -4.626   5.183 -32.708  1.00  0.00     0.280 HD
HETATM   13  C   UNL     1      -4.772   4.518 -30.774  1.00  0.00     0.237 C 
HETATM   14  C   UNL     1      -3.801   6.729 -31.638  1.00  0.00     0.235 C 
HETATM   15  C   UNL     1      -4.984   3.081 -31.239  1.00  0.00     0.053 C 
HETATM   16  C   UNL     1      -2.500   7.011 -32.391  1.00  0.00     0.030 C 
ENDBRANCH   3   7
BRANCH   1  17
HETATM   17  C   UNL     1      -4.464  -1.701 -33.079  1.00  0.00     0.077 A 
HETATM   18  C   UNL     1      -4.491  -2.906 -33.789  1.00  0.00     0.152 A 
HETATM   19  N   UNL     1      -5.431  -3.241 -34.705  1.00  0.00    -0.247 NA
HETATM   20 CL   UNL     1      -3.421  -4.225 -33.489  1.00  0.00    -0.060 Cl
HETATM   21  C   UNL     1      -6.432  -2.360 -34.901  1.00  0.00     0.118 A 
HETATM   22  C   UNL     1      -6.545  -1.170 -34.207  1.00  0.00     0.022 A 
HETATM   23  C   UNL     1      -5.556  -0.848 -33.278  1.00  0.00     0.034 A 
ENDBRANCH   1  17
TORSDOF 2
ENDMDL
MODEL 10
REMARK VINA RESULT:      -6.3     15.590     16.826
REMARK  2 active torsions:
REMARK  status: ('A' for Active; 'I' for Inactive)
REMARK    1  A    between atoms: C_6  and  N_7 
REMARK       I    between atoms: N_7  and  C_8 
REMARK       I    between atoms: C_8  and  N_9 
REMARK    2  A    between atoms: N_9  and  C_10 
ROOT
HETATM    1  N   UNL     1      -1.998 -13.083 -37.493  1.00  0.00    -0.306 N 
HETATM    2  C   UNL     1      -3.218 -12.844 -38.045  1.00  0.00     0.321 C 
HETATM    3  N   UNL     1      -3.719 -13.754 -38.922  1.00  0.00    -0.338 N 
HETATM    4  O   UNL     1      -3.886 -11.894 -37.642  1.00  0.00    -0.247 OA
HETATM    5  H   UNL     1      -1.877 -12.520 -36.659  1.00  0.00     0.171 HD
HETATM    6  H   UNL     1      -3.044 -14.312 -39.425  1.00  0.00     0.164 HD
ENDROOT
BRANCH   3   7
HETATM    7  C   UNL     1      -5.055 -13.689 -39.495  1.00  0.00     0.089 C 
HETATM    8  C   UNL     1      -6.144 -13.812 -38.414  1.00  0.00     0.058 C 
HETATM    9  C   UNL     1      -7.504 -13.788 -39.076  1.00  0.00     0.190 C 
HETATM   10  N   UNL     1      -7.640 -12.499 -39.843  1.00  0.00    -0.067 N 
HETATM   11  C   UNL     1      -8.716 -13.725 -38.171  1.00  0.00     0.035 C 
HETATM   12  H   UNL     1      -7.425 -11.726 -39.193  1.00  0.00     0.280 HD
HETATM   13  C   UNL     1      -6.670 -12.398 -40.977  1.00  0.00     0.237 C 
HETATM   14  C   UNL     1      -9.106 -12.378 -40.174  1.00  0.00     0.235 C 
HETATM   15  C   UNL     1      -5.258 -12.462 -40.404  1.00  0.00     0.053 C 
HETATM   16  C   UNL     1      -9.807 -13.236 -39.120  1.00  0.00     0.030 C 
ENDBRANCH   3   7
BRANCH   1  17
HETATM   17  C   UNL     1      -1.041 -14.104 -37.700  1.00  0.00     0.077 A 
HETATM   18  C   UNL     1      -0.975 -15.361 -37.090  1.00  0.00     0.152 A 
HETATM   19  N   UNL     1       0.014 -16.265 -37.290  1.00  0.00    -0.247 NA
HETATM   20 CL   UNL     1      -2.231 -16.024 -36.113  1.00  0.00    -0.060 Cl
HETATM   21  C   UNL     1       0.972 -15.934 -38.178  1.00  0.00     0.118 A 
HETATM   22  C   UNL     1       0.971 -14.749 -38.891  1.00  0.00     0.022 A 
HETATM   23  C   UNL     1      -0.054 -13.834 -38.656  1.00  0.00     0.034 A 
ENDBRANCH   1  17
TORSDOF 2
ENDMDL
