MODEL 1
REMARK VINA RESULT:      -8.5      0.000      0.000
REMARK  4 active torsions:
REMARK  status: ('A' for Active; 'I' for Inactive)
REMARK    1  A    between atoms: C_6  and  C_7 
REMARK    2  A    between atoms: C_10  and  N_11 
REMARK       I    between atoms: N_11  and  C_12 
REMARK       I    between atoms: C_12  and  N_13 
REMARK    3  A    between atoms: N_13  and  C_14 
REMARK    4  A    between atoms: C_14  and  C_15 
ROOT
HETATM    1  N   UNL     1     -10.200   1.398 -34.667  1.00  0.00    -0.305 N 
HETATM    2  C   UNL     1      -9.409   1.004 -33.616  1.00  0.00     0.322 C 
HETATM    3  N   UNL     1      -8.143   0.539 -33.965  1.00  0.00    -0.334 N 
HETATM    4  C   UNL     1      -7.637   0.427 -35.327  1.00  0.00     0.155 C 
HETATM    5  O   UNL     1      -9.771   1.055 -32.443  1.00  0.00    -0.247 OA
HETATM    6  H   UNL     1      -9.765   1.498 -35.567  1.00  0.00     0.171 HD
ENDROOT
BRANCH   1   7
HETATM    7  C   UNL     1     -11.523   1.813 -34.606  1.00  0.00     0.092 A 
HETATM    8  C   UNL     1     -11.875   3.108 -34.946  1.00  0.00     0.053 A 
HETATM    9  C   UNL     1     -11.086   4.270 -35.418  1.00  0.00     0.072 C 
HETATM   10  N   UNL     1     -13.223   3.191 -34.757  1.00  0.00    -0.280 N 
HETATM   11  H   UNL     1     -13.829   3.994 -34.898  1.00  0.00     0.189 HD
HETATM   12  N   UNL     1     -13.780   2.055 -34.339  1.00  0.00    -0.171 NA
HETATM   13  C   UNL     1     -12.760   1.173 -34.271  1.00  0.00     0.147 A 
BRANCH  13  14
HETATM   14  C   UNL     1     -13.036  -0.264 -33.920  1.00  0.00     0.409 C 
HETATM   15  F   UNL     1     -12.082  -0.785 -33.086  1.00  0.00    -0.207 F 
HETATM   16  F   UNL     1     -14.208  -0.389 -33.230  1.00  0.00    -0.207 F 
ENDBRANCH  13  14
ENDBRANCH   1   7
BRANCH   3  17
HETATM   17  C   UNL     1      -7.357  -0.127 -32.924  1.00  0.00     0.165 C 
BRANCH  17  18
HETATM   18  C   UNL     1      -6.416  -1.165 -33.495  1.00  0.00    -0.039 A 
HETATM   19  C   UNL     1      -6.915  -2.282 -34.181  1.00  0.00     0.032 A 
HETATM   20  C   UNL     1      -6.039  -3.246 -34.683  1.00  0.00     0.034 A 
HETATM   21 CL   UNL     1      -6.668  -4.616 -35.514  1.00  0.00    -0.084 Cl
HETATM   22  C   UNL     1      -4.663  -3.112 -34.511  1.00  0.00     0.024 A 
HETATM   23  C   UNL     1      -4.158  -2.004 -33.832  1.00  0.00     0.002 A 
HETATM   24  C   UNL     1      -5.029  -1.037 -33.325  1.00  0.00     0.009 A 
ENDBRANCH  17  18
ENDBRANCH   3  17
TORSDOF 4
ENDMDL
MODEL 2
REMARK VINA RESULT:      -8.3      2.276      3.067
REMARK  4 active torsions:
REMARK  status: ('A' for Active; 'I' for Inactive)
REMARK    1  A    between atoms: C_6  and  C_7 
REMARK    2  A    between atoms: C_10  and  N_11 
REMARK       I    between atoms: N_11  and  C_12 
REMARK       I    between atoms: C_12  and  N_13 
REMARK    3  A    between atoms: N_13  and  C_14 
REMARK    4  A    between atoms: C_14  and  C_15 
ROOT
HETATM    1  N   UNL     1      -8.375   1.373 -32.160  1.00  0.00    -0.305 N 
HETATM    2  C   UNL     1      -7.644   0.860 -33.203  1.00  0.00     0.322 C 
HETATM    3  N   UNL     1      -6.595   0.017 -32.836  1.00  0.00    -0.334 N 
HETATM    4  C   UNL     1      -6.229  -0.317 -31.465  1.00  0.00     0.155 C 
HETATM    5  O   UNL     1      -7.882   1.107 -34.382  1.00  0.00    -0.247 OA
HETATM    6  H   UNL     1      -8.232   0.978 -31.249  1.00  0.00     0.171 HD
ENDROOT
BRANCH   1   7
HETATM    7  C   UNL     1      -9.407   2.299 -32.242  1.00  0.00     0.092 A 
HETATM    8  C   UNL     1      -9.264   3.568 -31.710  1.00  0.00     0.053 A 
HETATM    9  C   UNL     1      -8.144   4.241 -31.009  1.00  0.00     0.072 C 
HETATM   10  N   UNL     1     -10.447   4.205 -31.936  1.00  0.00    -0.280 N 
HETATM   11  H   UNL     1     -10.712   5.151 -31.676  1.00  0.00     0.189 HD
HETATM   12  N   UNL     1     -11.344   3.463 -32.585  1.00  0.00    -0.171 NA
HETATM   13  C   UNL     1     -10.717   2.290 -32.821  1.00  0.00     0.147 A 
BRANCH  13  14
HETATM   14  C   UNL     1     -11.405   1.225 -33.631  1.00  0.00     0.409 C 
HETATM   15  F   UNL     1     -10.915   1.151 -34.909  1.00  0.00    -0.207 F 
HETATM   16  F   UNL     1     -11.192  -0.016 -33.103  1.00  0.00    -0.207 F 
ENDBRANCH  13  14
ENDBRANCH   1   7
BRANCH   3  17
HETATM   17  C   UNL     1      -5.631  -0.353 -33.874  1.00  0.00     0.165 C 
BRANCH  17  18
HETATM   18  C   UNL     1      -5.643  -1.838 -34.160  1.00  0.00    -0.039 A 
HETATM   19  C   UNL     1      -4.506  -2.623 -33.917  1.00  0.00     0.032 A 
HETATM   20  C   UNL     1      -4.519  -3.988 -34.208  1.00  0.00     0.034 A 
HETATM   21 CL   UNL     1      -3.112  -4.934 -33.913  1.00  0.00    -0.084 Cl
HETATM   22  C   UNL     1      -5.659  -4.588 -34.739  1.00  0.00     0.024 A 
HETATM   23  C   UNL     1      -6.795  -3.817 -34.983  1.00  0.00     0.002 A 
HETATM   24  C   UNL     1      -6.787  -2.450 -34.696  1.00  0.00     0.009 A 
ENDBRANCH  17  18
ENDBRANCH   3  17
TORSDOF 4
ENDMDL
MODEL 3
REMARK VINA RESULT:      -7.8      5.987      7.899
REMARK  4 active torsions:
REMARK  status: ('A' for Active; 'I' for Inactive)
REMARK    1  A    between atoms: C_6  and  C_7 
REMARK    2  A    between atoms: C_10  and  N_11 
REMARK       I    between atoms: N_11  and  C_12 
REMARK       I    between atoms: C_12  and  N_13 
REMARK    3  A    between atoms: N_13  and  C_14 
REMARK    4  A    between atoms: C_14  and  C_15 
ROOT
HETATM    1  N   UNL     1      -5.274  -0.289 -32.540  1.00  0.00    -0.305 N 
HETATM    2  C   UNL     1      -4.277   0.624 -32.297  1.00  0.00     0.322 C 
HETATM    3  N   UNL     1      -4.626   1.676 -31.452  1.00  0.00    -0.334 N 
HETATM    4  C   UNL     1      -5.942   1.870 -30.855  1.00  0.00     0.155 C 
HETATM    5  O   UNL     1      -3.149   0.536 -32.776  1.00  0.00    -0.247 OA
HETATM    6  H   UNL     1      -6.098  -0.244 -31.968  1.00  0.00     0.171 HD
ENDROOT
BRANCH   1   7
HETATM    7  C   UNL     1      -5.220  -1.372 -33.407  1.00  0.00     0.092 A 
HETATM    8  C   UNL     1      -6.049  -1.436 -34.513  1.00  0.00     0.053 A 
HETATM    9  C   UNL     1      -7.081  -0.515 -35.047  1.00  0.00     0.072 C 
HETATM   10  N   UNL     1      -5.763  -2.618 -35.129  1.00  0.00    -0.280 N 
HETATM   11  H   UNL     1      -6.181  -3.007 -35.969  1.00  0.00     0.189 HD
HETATM   12  N   UNL     1      -4.805  -3.322 -34.525  1.00  0.00    -0.171 NA
HETATM   13  C   UNL     1      -4.424  -2.560 -33.477  1.00  0.00     0.147 A 
BRANCH  13  14
HETATM   14  C   UNL     1      -3.276  -3.003 -32.611  1.00  0.00     0.409 C 
HETATM   15  F   UNL     1      -3.284  -2.386 -31.387  1.00  0.00    -0.207 F 
HETATM   16  F   UNL     1      -3.352  -4.337 -32.330  1.00  0.00    -0.207 F 
ENDBRANCH  13  14
ENDBRANCH   1   7
BRANCH   3  17
HETATM   17  C   UNL     1      -3.699   2.805 -31.360  1.00  0.00     0.165 C 
BRANCH  17  18
HETATM   18  C   UNL     1      -3.700   3.649 -32.615  1.00  0.00    -0.039 A 
HETATM   19  C   UNL     1      -2.496   4.106 -33.172  1.00  0.00     0.032 A 
HETATM   20  C   UNL     1      -2.510   4.904 -34.316  1.00  0.00     0.034 A 
HETATM   21 CL   UNL     1      -1.023   5.464 -34.980  1.00  0.00    -0.084 Cl
HETATM   22  C   UNL     1      -3.714   5.256 -34.921  1.00  0.00     0.024 A 
HETATM   23  C   UNL     1      -4.917   4.805 -34.376  1.00  0.00     0.002 A 
HETATM   24  C   UNL     1      -4.910   4.008 -33.229  1.00  0.00     0.009 A 
ENDBRANCH  17  18
ENDBRANCH   3  17
TORSDOF 4
ENDMDL
MODEL 4
REMARK VINA RESULT:      -7.8      1.802      1.984
REMARK  4 active torsions:
REMARK  status: ('A' for Active; 'I' for Inactive)
REMARK    1  A    between atoms: C_6  and  C_7 
REMARK    2  A    between atoms: C_10  and  N_11 
REMARK       I    between atoms: N_11  and  C_12 
REMARK       I    between atoms: C_12  and  N_13 
REMARK    3  A    between atoms: N_13  and  C_14 
REMARK    4  A    between atoms: C_14  and  C_15 
ROOT
HETATM    1  N   UNL     1     -10.113   1.790 -32.559  1.00  0.00    -0.305 N 
HETATM    2  C   UNL     1      -9.146   1.629 -33.520  1.00  0.00     0.322 C 
HETATM    3  N   UNL     1      -7.993   0.967 -33.099  1.00  0.00    -0.334 N 
HETATM    4  C   UNL     1      -7.754   0.477 -31.748  1.00  0.00     0.155 C 
HETATM    5  O   UNL     1      -9.268   2.028 -34.675  1.00  0.00    -0.247 OA
HETATM    6  H   UNL     1     -10.011   1.276 -31.702  1.00  0.00     0.171 HD
ENDROOT
BRANCH   1   7
HETATM    7  C   UNL     1     -11.309   2.485 -32.687  1.00  0.00     0.092 A 
HETATM    8  C   UNL     1     -11.458   3.744 -32.132  1.00  0.00     0.053 A 
HETATM    9  C   UNL     1     -10.539   4.616 -31.363  1.00  0.00     0.072 C 
HETATM   10  N   UNL     1     -12.734   4.129 -32.416  1.00  0.00    -0.280 N 
HETATM   11  H   UNL     1     -13.202   4.993 -32.161  1.00  0.00     0.189 HD
HETATM   12  N   UNL     1     -13.424   3.233 -33.123  1.00  0.00    -0.171 NA
HETATM   13  C   UNL     1     -12.556   2.220 -33.337  1.00  0.00     0.147 A 
BRANCH  13  14
HETATM   14  C   UNL     1     -12.966   1.055 -34.197  1.00  0.00     0.409 C 
HETATM   15  F   UNL     1     -12.410   1.115 -35.448  1.00  0.00    -0.207 F 
HETATM   16  F   UNL     1     -12.525  -0.126 -33.675  1.00  0.00    -0.207 F 
ENDBRANCH  13  14
ENDBRANCH   1   7
BRANCH   3  17
HETATM   17  C   UNL     1      -6.835   0.992 -33.995  1.00  0.00     0.165 C 
BRANCH  17  18
HETATM   18  C   UNL     1      -6.121  -0.340 -34.040  1.00  0.00    -0.039 A 
HETATM   19  C   UNL     1      -6.762  -1.479 -34.551  1.00  0.00     0.032 A 
HETATM   20  C   UNL     1      -6.102  -2.709 -34.566  1.00  0.00     0.034 A 
HETATM   21 CL   UNL     1      -6.907  -4.098 -35.187  1.00  0.00    -0.084 Cl
HETATM   22  C   UNL     1      -4.802  -2.822 -34.078  1.00  0.00     0.024 A 
HETATM   23  C   UNL     1      -4.156  -1.696 -33.569  1.00  0.00     0.002 A 
HETATM   24  C   UNL     1      -4.812  -0.462 -33.549  1.00  0.00     0.009 A 
ENDBRANCH  17  18
ENDBRANCH   3  17
TORSDOF 4
ENDMDL
MODEL 5
REMARK VINA RESULT:      -7.7      3.050      3.930
REMARK  4 active torsions:
REMARK  status: ('A' for Active; 'I' for Inactive)
REMARK    1  A    between atoms: C_6  and  C_7 
REMARK    2  A    between atoms: C_10  and  N_11 
REMARK       I    between atoms: N_11  and  C_12 
REMARK       I    between atoms: C_12  and  N_13 
REMARK    3  A    between atoms: N_13  and  C_14 
REMARK    4  A    between atoms: C_14  and  C_15 
ROOT
HETATM    1  N   UNL     1      -8.440   1.456 -32.400  1.00  0.00    -0.305 N 
HETATM    2  C   UNL     1      -7.638   0.921 -33.377  1.00  0.00     0.322 C 
HETATM    3  N   UNL     1      -6.648   0.051 -32.924  1.00  0.00    -0.334 N 
HETATM    4  C   UNL     1      -6.409  -0.293 -31.528  1.00  0.00     0.155 C 
HETATM    5  O   UNL     1      -7.768   1.174 -34.572  1.00  0.00    -0.247 OA
HETATM    6  H   UNL     1      -8.386   1.058 -31.480  1.00  0.00     0.171 HD
ENDROOT
BRANCH   1   7
HETATM    7  C   UNL     1      -9.435   2.410 -32.568  1.00  0.00     0.092 A 
HETATM    8  C   UNL     1     -10.675   2.059 -33.070  1.00  0.00     0.053 A 
HETATM    9  C   UNL     1     -11.250   0.764 -33.506  1.00  0.00     0.072 C 
HETATM   10  N   UNL     1     -11.397   3.213 -33.129  1.00  0.00    -0.280 N 
HETATM   11  H   UNL     1     -12.351   3.344 -33.454  1.00  0.00     0.189 HD
HETATM   12  N   UNL     1     -10.737   4.285 -32.691  1.00  0.00    -0.171 NA
HETATM   13  C   UNL     1      -9.532   3.814 -32.303  1.00  0.00     0.147 A 
BRANCH  13  14
HETATM   14  C   UNL     1      -8.540   4.743 -31.656  1.00  0.00     0.409 C 
HETATM   15  F   UNL     1      -8.793   4.921 -30.322  1.00  0.00    -0.207 F 
HETATM   16  F   UNL     1      -7.275   4.231 -31.706  1.00  0.00    -0.207 F 
ENDBRANCH  13  14
ENDBRANCH   1   7
BRANCH   3  17
HETATM   17  C   UNL     1      -5.610  -0.348 -33.877  1.00  0.00     0.165 C 
BRANCH  17  18
HETATM   18  C   UNL     1      -5.637  -1.833 -34.163  1.00  0.00    -0.039 A 
HETATM   19  C   UNL     1      -4.507  -2.628 -33.924  1.00  0.00     0.032 A 
HETATM   20  C   UNL     1      -4.535  -3.993 -34.215  1.00  0.00     0.034 A 
HETATM   21 CL   UNL     1      -3.136  -4.953 -33.925  1.00  0.00    -0.084 Cl
HETATM   22  C   UNL     1      -5.682  -4.582 -34.743  1.00  0.00     0.024 A 
HETATM   23  C   UNL     1      -6.811  -3.800 -34.983  1.00  0.00     0.002 A 
HETATM   24  C   UNL     1      -6.789  -2.433 -34.696  1.00  0.00     0.009 A 
ENDBRANCH  17  18
ENDBRANCH   3  17
TORSDOF 4
ENDMDL
MODEL 6
REMARK VINA RESULT:      -7.7      2.011      2.770
REMARK  4 active torsions:
REMARK  status: ('A' for Active; 'I' for Inactive)
REMARK    1  A    between atoms: C_6  and  C_7 
REMARK    2  A    between atoms: C_10  and  N_11 
REMARK       I    between atoms: N_11  and  C_12 
REMARK       I    between atoms: C_12  and  N_13 
REMARK    3  A    between atoms: N_13  and  C_14 
REMARK    4  A    between atoms: C_14  and  C_15 
ROOT
HETATM    1  N   UNL     1     -10.345   1.149 -33.271  1.00  0.00    -0.305 N 
HETATM    2  C   UNL     1      -9.111   1.079 -33.868  1.00  0.00     0.322 C 
HETATM    3  N   UNL     1      -8.068   0.675 -33.035  1.00  0.00    -0.334 N 
HETATM    4  C   UNL     1      -8.202   0.360 -31.618  1.00  0.00     0.155 C 
HETATM    5  O   UNL     1      -8.916   1.343 -35.052  1.00  0.00    -0.247 OA
HETATM    6  H   UNL     1     -10.447   0.742 -32.359  1.00  0.00     0.171 HD
ENDROOT
BRANCH   1   7
HETATM    7  C   UNL     1     -11.525   1.604 -33.845  1.00  0.00     0.092 A 
HETATM    8  C   UNL     1     -12.636   0.784 -33.923  1.00  0.00     0.053 A 
HETATM    9  C   UNL     1     -12.888  -0.608 -33.479  1.00  0.00     0.072 C 
HETATM   10  N   UNL     1     -13.599   1.516 -34.551  1.00  0.00    -0.280 N 
HETATM   11  H   UNL     1     -14.546   1.238 -34.790  1.00  0.00     0.189 HD
HETATM   12  N   UNL     1     -13.212   2.750 -34.876  1.00  0.00    -0.171 NA
HETATM   13  C   UNL     1     -11.945   2.847 -34.419  1.00  0.00     0.147 A 
BRANCH  13  14
HETATM   14  C   UNL     1     -11.210   4.156 -34.526  1.00  0.00     0.409 C 
HETATM   15  F   UNL     1     -10.345   4.350 -33.482  1.00  0.00    -0.207 F 
HETATM   16  F   UNL     1     -10.425   4.194 -35.642  1.00  0.00    -0.207 F 
ENDBRANCH  13  14
ENDBRANCH   1   7
BRANCH   3  17
HETATM   17  C   UNL     1      -6.702   0.825 -33.540  1.00  0.00     0.165 C 
BRANCH  17  18
HETATM   18  C   UNL     1      -6.022  -0.509 -33.750  1.00  0.00    -0.039 A 
HETATM   19  C   UNL     1      -6.703  -1.571 -34.365  1.00  0.00     0.032 A 
HETATM   20  C   UNL     1      -6.073  -2.805 -34.532  1.00  0.00     0.034 A 
HETATM   21 CL   UNL     1      -6.926  -4.100 -35.279  1.00  0.00    -0.084 Cl
HETATM   22  C   UNL     1      -4.765  -2.999 -34.094  1.00  0.00     0.024 A 
HETATM   23  C   UNL     1      -4.080  -1.949 -33.482  1.00  0.00     0.002 A 
HETATM   24  C   UNL     1      -4.704  -0.712 -33.310  1.00  0.00     0.009 A 
ENDBRANCH  17  18
ENDBRANCH   3  17
TORSDOF 4
ENDMDL
MODEL 7
REMARK VINA RESULT:      -7.7      4.859      5.988
REMARK  4 active torsions:
REMARK  status: ('A' for Active; 'I' for Inactive)
REMARK    1  A    between atoms: C_6  and  C_7 
REMARK    2  A    between atoms: C_10  and  N_11 
REMARK       I    between atoms: N_11  and  C_12 
REMARK       I    between atoms: C_12  and  N_13 
REMARK    3  A    between atoms: N_13  and  C_14 
REMARK    4  A    between atoms: C_14  and  C_15 
ROOT
HETATM    1  N   UNL     1      -6.629   3.471 -33.697  1.00  0.00    -0.305 N 
HETATM    2  C   UNL     1      -6.412   2.276 -33.058  1.00  0.00     0.322 C 
HETATM    3  N   UNL     1      -7.082   1.180 -33.601  1.00  0.00    -0.334 N 
HETATM    4  C   UNL     1      -7.981   1.231 -34.747  1.00  0.00     0.155 C 
HETATM    5  O   UNL     1      -5.681   2.156 -32.078  1.00  0.00    -0.247 OA
HETATM    6  H   UNL     1      -7.087   3.447 -34.591  1.00  0.00     0.171 HD
ENDROOT
BRANCH   1   7
HETATM    7  C   UNL     1      -6.160   4.720 -33.312  1.00  0.00     0.092 A 
HETATM    8  C   UNL     1      -6.863   5.492 -32.405  1.00  0.00     0.053 A 
HETATM    9  C   UNL     1      -8.128   5.266 -31.665  1.00  0.00     0.072 C 
HETATM   10  N   UNL     1      -6.153   6.647 -32.265  1.00  0.00    -0.280 N 
HETATM   11  H   UNL     1      -6.370   7.453 -31.686  1.00  0.00     0.189 HD
HETATM   12  N   UNL     1      -5.037   6.685 -32.993  1.00  0.00    -0.171 NA
HETATM   13  C   UNL     1      -4.995   5.492 -33.624  1.00  0.00     0.147 A 
BRANCH  13  14
HETATM   14  C   UNL     1      -3.804   5.139 -34.474  1.00  0.00     0.409 C 
HETATM   15  F   UNL     1      -4.132   5.018 -35.799  1.00  0.00    -0.207 F 
HETATM   16  F   UNL     1      -2.859   6.123 -34.437  1.00  0.00    -0.207 F 
ENDBRANCH  13  14
ENDBRANCH   1   7
BRANCH   3  17
HETATM   17  C   UNL     1      -7.095  -0.059 -32.821  1.00  0.00     0.165 C 
BRANCH  17  18
HETATM   18  C   UNL     1      -6.244  -1.139 -33.450  1.00  0.00    -0.039 A 
HETATM   19  C   UNL     1      -6.838  -2.206 -34.142  1.00  0.00     0.032 A 
HETATM   20  C   UNL     1      -6.044  -3.210 -34.698  1.00  0.00     0.034 A 
HETATM   21 CL   UNL     1      -6.789  -4.517 -35.535  1.00  0.00    -0.084 Cl
HETATM   22  C   UNL     1      -4.657  -3.167 -34.575  1.00  0.00     0.024 A 
HETATM   23  C   UNL     1      -4.058  -2.110 -33.890  1.00  0.00     0.002 A 
HETATM   24  C   UNL     1      -4.846  -1.103 -33.330  1.00  0.00     0.009 A 
ENDBRANCH  17  18
ENDBRANCH   3  17
TORSDOF 4
ENDMDL
MODEL 8
REMARK VINA RESULT:      -7.7      4.918      6.664
REMARK  4 active torsions:
REMARK  status: ('A' for Active; 'I' for Inactive)
REMARK    1  A    between atoms: C_6  and  C_7 
REMARK    2  A    between atoms: C_10  and  N_11 
REMARK       I    between atoms: N_11  and  C_12 
REMARK       I    between atoms: C_12  and  N_13 
REMARK    3  A    between atoms: N_13  and  C_14 
REMARK    4  A    between atoms: C_14  and  C_15 
ROOT
HETATM    1  N   UNL     1      -5.684   2.569 -30.972  1.00  0.00    -0.305 N 
HETATM    2  C   UNL     1      -6.354   2.093 -32.071  1.00  0.00     0.322 C 
HETATM    3  N   UNL     1      -6.868   0.804 -31.944  1.00  0.00    -0.334 N 
HETATM    4  C   UNL     1      -6.720  -0.044 -30.767  1.00  0.00     0.155 C 
HETATM    5  O   UNL     1      -6.506   2.742 -33.103  1.00  0.00    -0.247 OA
HETATM    6  H   UNL     1      -5.766   2.053 -30.114  1.00  0.00     0.171 HD
ENDROOT
BRANCH   1   7
HETATM    7  C   UNL     1      -5.005   3.776 -30.866  1.00  0.00     0.092 A 
HETATM    8  C   UNL     1      -5.496   4.798 -30.072  1.00  0.00     0.053 A 
HETATM    9  C   UNL     1      -6.698   4.909 -29.212  1.00  0.00     0.072 C 
HETATM   10  N   UNL     1      -4.619   5.832 -30.207  1.00  0.00    -0.280 N 
HETATM   11  H   UNL     1      -4.659   6.751 -29.777  1.00  0.00     0.189 HD
HETATM   12  N   UNL     1      -3.589   5.564 -31.010  1.00  0.00    -0.171 NA
HETATM   13  C   UNL     1      -3.780   4.287 -31.404  1.00  0.00     0.147 A 
BRANCH  13  14
HETATM   14  C   UNL     1      -2.745   3.605 -32.257  1.00  0.00     0.409 C 
HETATM   15  F   UNL     1      -3.175   2.390 -32.720  1.00  0.00    -0.207 F 
HETATM   16  F   UNL     1      -2.473   4.331 -33.381  1.00  0.00    -0.207 F 
ENDBRANCH  13  14
ENDBRANCH   1   7
BRANCH   3  17
HETATM   17  C   UNL     1      -7.363   0.150 -33.156  1.00  0.00     0.165 C 
BRANCH  17  18
HETATM   18  C   UNL     1      -6.426  -0.932 -33.645  1.00  0.00    -0.039 A 
HETATM   19  C   UNL     1      -6.929  -2.096 -34.247  1.00  0.00     0.032 A 
HETATM   20  C   UNL     1      -6.057  -3.099 -34.672  1.00  0.00     0.034 A 
HETATM   21 CL   UNL     1      -6.691  -4.525 -35.399  1.00  0.00    -0.084 Cl
HETATM   22  C   UNL     1      -4.681  -2.958 -34.509  1.00  0.00     0.024 A 
HETATM   23  C   UNL     1      -4.172  -1.804 -33.913  1.00  0.00     0.002 A 
HETATM   24  C   UNL     1      -5.039  -0.798 -33.483  1.00  0.00     0.009 A 
ENDBRANCH  17  18
ENDBRANCH   3  17
TORSDOF 4
ENDMDL
MODEL 9
REMARK VINA RESULT:      -7.6      3.876      7.474
REMARK  4 active torsions:
REMARK  status: ('A' for Active; 'I' for Inactive)
REMARK    1  A    between atoms: C_6  and  C_7 
REMARK    2  A    between atoms: C_10  and  N_11 
REMARK       I    between atoms: N_11  and  C_12 
REMARK       I    between atoms: C_12  and  N_13 
REMARK    3  A    between atoms: N_13  and  C_14 
REMARK    4  A    between atoms: C_14  and  C_15 
ROOT
HETATM    1  N   UNL     1      -5.451  -0.120 -33.589  1.00  0.00    -0.305 N 
HETATM    2  C   UNL     1      -6.632   0.256 -32.999  1.00  0.00     0.322 C 
HETATM    3  N   UNL     1      -7.088   1.529 -33.338  1.00  0.00    -0.334 N 
HETATM    4  C   UNL     1      -6.400   2.456 -34.228  1.00  0.00     0.155 C 
HETATM    5  O   UNL     1      -7.261  -0.464 -32.228  1.00  0.00    -0.247 OA
HETATM    6  H   UNL     1      -5.102   0.447 -34.341  1.00  0.00     0.171 HD
ENDROOT
BRANCH   1   7
HETATM    7  C   UNL     1      -4.737  -1.288 -33.356  1.00  0.00     0.092 A 
HETATM    8  C   UNL     1      -3.811  -1.360 -32.330  1.00  0.00     0.053 A 
HETATM    9  C   UNL     1      -3.367  -0.381 -31.311  1.00  0.00     0.072 C 
HETATM   10  N   UNL     1      -3.283  -2.615 -32.390  1.00  0.00    -0.280 N 
HETATM   11  H   UNL     1      -2.567  -3.025 -31.797  1.00  0.00     0.189 HD
HETATM   12  N   UNL     1      -3.798  -3.372 -33.359  1.00  0.00    -0.171 NA
HETATM   13  C   UNL     1      -4.727  -2.591 -33.951  1.00  0.00     0.147 A 
BRANCH  13  14
HETATM   14  C   UNL     1      -5.591  -3.157 -35.045  1.00  0.00     0.409 C 
HETATM   15  F   UNL     1      -5.483  -4.520 -35.137  1.00  0.00    -0.207 F 
HETATM   16  F   UNL     1      -6.914  -2.928 -34.801  1.00  0.00    -0.207 F 
ENDBRANCH  13  14
ENDBRANCH   1   7
BRANCH   3  17
HETATM   17  C   UNL     1      -8.194   2.082 -32.554  1.00  0.00     0.165 C 
BRANCH  17  18
HETATM   18  C   UNL     1      -9.528   1.903 -33.244  1.00  0.00    -0.039 A 
HETATM   19  C   UNL     1     -10.015   2.882 -34.124  1.00  0.00     0.032 A 
HETATM   20  C   UNL     1     -11.258   2.719 -34.737  1.00  0.00     0.034 A 
HETATM   21 CL   UNL     1     -11.845   3.934 -35.806  1.00  0.00    -0.084 Cl
HETATM   22  C   UNL     1     -12.029   1.586 -34.485  1.00  0.00     0.024 A 
HETATM   23  C   UNL     1     -11.554   0.608 -33.613  1.00  0.00     0.002 A 
HETATM   24  C   UNL     1     -10.311   0.766 -32.995  1.00  0.00     0.009 A 
ENDBRANCH  17  18
ENDBRANCH   3  17
TORSDOF 4
ENDMDL
MODEL 10
REMARK VINA RESULT:      -7.5      5.426      7.601
REMARK  4 active torsions:
REMARK  status: ('A' for Active; 'I' for Inactive)
REMARK    1  A    between atoms: C_6  and  C_7 
REMARK    2  A    between atoms: C_10  and  N_11 
REMARK       I    between atoms: N_11  and  C_12 
REMARK       I    between atoms: C_12  and  N_13 
REMARK    3  A    between atoms: N_13  and  C_14 
REMARK    4  A    between atoms: C_14  and  C_15 
ROOT
HETATM    1  N   UNL     1      -5.195  -0.250 -32.342  1.00  0.00    -0.305 N 
HETATM    2  C   UNL     1      -4.235   0.712 -32.154  1.00  0.00     0.322 C 
HETATM    3  N   UNL     1      -4.564   1.711 -31.239  1.00  0.00    -0.334 N 
HETATM    4  C   UNL     1      -5.827   1.803 -30.517  1.00  0.00     0.155 C 
HETATM    5  O   UNL     1      -3.153   0.711 -32.736  1.00  0.00    -0.247 OA
HETATM    6  H   UNL     1      -5.964  -0.277 -31.697  1.00  0.00     0.171 HD
ENDROOT
BRANCH   1   7
HETATM    7  C   UNL     1      -5.159  -1.297 -33.254  1.00  0.00     0.092 A 
HETATM    8  C   UNL     1      -4.256  -2.335 -33.105  1.00  0.00     0.053 A 
HETATM    9  C   UNL     1      -3.217  -2.621 -32.087  1.00  0.00     0.072 C 
HETATM   10  N   UNL     1      -4.466  -3.169 -34.162  1.00  0.00    -0.280 N 
HETATM   11  H   UNL     1      -3.981  -4.032 -34.388  1.00  0.00     0.189 HD
HETATM   12  N   UNL     1      -5.441  -2.770 -34.978  1.00  0.00    -0.171 NA
HETATM   13  C   UNL     1      -5.914  -1.634 -34.423  1.00  0.00     0.147 A 
BRANCH  13  14
HETATM   14  C   UNL     1      -7.105  -0.944 -35.032  1.00  0.00     0.409 C 
HETATM   15  F   UNL     1      -8.026  -0.572 -34.088  1.00  0.00    -0.207 F 
HETATM   16  F   UNL     1      -6.743   0.221 -35.645  1.00  0.00    -0.207 F 
ENDBRANCH  13  14
ENDBRANCH   1   7
BRANCH   3  17
HETATM   17  C   UNL     1      -3.699   2.891 -31.185  1.00  0.00     0.165 C 
BRANCH  17  18
HETATM   18  C   UNL     1      -3.744   3.690 -32.468  1.00  0.00    -0.039 A 
HETATM   19  C   UNL     1      -2.559   4.104 -33.095  1.00  0.00     0.032 A 
HETATM   20  C   UNL     1      -2.612   4.863 -34.266  1.00  0.00     0.034 A 
HETATM   21 CL   UNL     1      -1.149   5.371 -35.017  1.00  0.00    -0.084 Cl
HETATM   22  C   UNL     1      -3.837   5.216 -34.826  1.00  0.00     0.024 A 
HETATM   23  C   UNL     1      -5.021   4.808 -34.211  1.00  0.00     0.002 A 
HETATM   24  C   UNL     1      -4.975   4.051 -33.038  1.00  0.00     0.009 A 
ENDBRANCH  17  18
ENDBRANCH   3  17
TORSDOF 4
ENDMDL
