MODEL 1
REMARK VINA RESULT:      -9.3      0.000      0.000
REMARK  7 active torsions:
REMARK  status: ('A' for Active; 'I' for Inactive)
REMARK    1  A    between atoms: O_2  and  C_3 
REMARK    2  A    between atoms: C_6  and  C_7 
REMARK    3  A    between atoms: C_7  and  N_8 
REMARK    4  A    between atoms: C_7  and  C_23 
REMARK       I    between atoms: N_8  and  C_9 
REMARK    5  A    between atoms: C_9  and  C_10 
REMARK    6  A    between atoms: C_10  and  S_11 
REMARK    7  A    between atoms: S_11  and  C_12 
ROOT
HETATM    1  N   UNL     1      -6.166   1.254 -32.337  1.00  0.00    -0.348 N 
HETATM    2  C   UNL     1      -6.034   1.918 -31.139  1.00  0.00     0.228 C 
HETATM    3  O   UNL     1      -6.717   1.653 -30.152  1.00  0.00    -0.273 OA
HETATM    4  H   UNL     1      -5.564   1.515 -33.105  1.00  0.00     0.163 HD
ENDROOT
BRANCH   1   5
HETATM    5  C   UNL     1      -7.058   0.118 -32.486  1.00  0.00     0.151 C 
BRANCH   5   6
HETATM    6  C   UNL     1      -8.411   0.522 -33.064  1.00  0.00    -0.031 A 
HETATM    7  C   UNL     1      -9.613  -0.087 -32.676  1.00  0.00     0.012 A 
HETATM    8  C   UNL     1     -10.835   0.357 -33.190  1.00  0.00     0.037 A 
HETATM    9  C   UNL     1     -10.887   1.423 -34.089  1.00  0.00     0.068 A 
HETATM   10  C   UNL     1      -9.699   2.025 -34.499  1.00  0.00     0.037 A 
HETATM   11  C   UNL     1      -8.474   1.580 -33.988  1.00  0.00     0.012 A 
BRANCH   9  12
HETATM   12  O   UNL     1     -12.145   1.774 -34.498  1.00  0.00    -0.356 OA
HETATM   13  C   UNL     1     -13.183   0.847 -34.205  1.00  0.00     0.210 C 
ENDBRANCH   9  12
ENDBRANCH   5   6
BRANCH   5  14
HETATM   14  C   UNL     1      -6.401  -1.009 -33.277  1.00  0.00    -0.031 A 
HETATM   15  C   UNL     1      -5.011  -1.197 -33.191  1.00  0.00     0.009 A 
HETATM   16  C   UNL     1      -4.383  -2.229 -33.891  1.00  0.00     0.001 A 
HETATM   17  C   UNL     1      -5.134  -3.093 -34.683  1.00  0.00     0.000 A 
HETATM   18  C   UNL     1      -6.514  -2.924 -34.779  1.00  0.00     0.001 A 
HETATM   19  C   UNL     1      -7.144  -1.891 -34.083  1.00  0.00     0.009 A 
ENDBRANCH   5  14
ENDBRANCH   1   5
BRANCH   2  20
HETATM   20  C   UNL     1      -4.927   2.955 -31.075  1.00  0.00     0.185 C 
BRANCH  20  21
HETATM   21  S   UNL     1      -3.585   2.592 -32.252  1.00  0.00    -0.081 SA
BRANCH  21  22
HETATM   22  C   UNL     1      -3.391   4.157 -32.963  1.00  0.00     0.192 A 
HETATM   23  N   UNL     1      -2.450   5.077 -32.575  1.00  0.00    -0.311 N 
HETATM   24  C   UNL     1      -2.638   6.159 -33.408  1.00  0.00     0.130 A 
HETATM   25  C   UNL     1      -1.497   4.948 -31.492  1.00  0.00     0.133 C 
HETATM   26  C   UNL     1      -1.847   7.423 -33.409  1.00  0.00     0.081 C 
HETATM   27  N   UNL     1      -3.635   5.896 -34.230  1.00  0.00    -0.134 NA
HETATM   28  C   UNL     1      -1.474   7.905 -32.014  1.00  0.00     0.008 C 
HETATM   29  C   UNL     1      -0.259   7.189 -31.425  1.00  0.00     0.002 C 
HETATM   30  C   UNL     1      -0.178   5.687 -31.695  1.00  0.00     0.020 C 
HETATM   31  N   UNL     1      -4.108   4.643 -33.946  1.00  0.00    -0.123 NA
ENDBRANCH  21  22
ENDBRANCH  20  21
ENDBRANCH   2  20
TORSDOF 7
ENDMDL
MODEL 2
REMARK VINA RESULT:      -9.0      2.312      4.944
REMARK  7 active torsions:
REMARK  status: ('A' for Active; 'I' for Inactive)
REMARK    1  A    between atoms: O_2  and  C_3 
REMARK    2  A    between atoms: C_6  and  C_7 
REMARK    3  A    between atoms: C_7  and  N_8 
REMARK    4  A    between atoms: C_7  and  C_23 
REMARK       I    between atoms: N_8  and  C_9 
REMARK    5  A    between atoms: C_9  and  C_10 
REMARK    6  A    between atoms: C_10  and  S_11 
REMARK    7  A    between atoms: S_11  and  C_12 
ROOT
HETATM    1  N   UNL     1      -5.701   1.758 -32.765  1.00  0.00    -0.348 N 
HETATM    2  C   UNL     1      -5.547   3.123 -32.862  1.00  0.00     0.228 C 
HETATM    3  O   UNL     1      -5.883   3.762 -33.857  1.00  0.00    -0.273 OA
HETATM    4  H   UNL     1      -5.414   1.297 -31.914  1.00  0.00     0.163 HD
ENDROOT
BRANCH   1   5
HETATM    5  C   UNL     1      -6.370   0.990 -33.801  1.00  0.00     0.151 C 
BRANCH   5   6
HETATM    6  C   UNL     1      -5.749  -0.392 -33.982  1.00  0.00    -0.031 A 
HETATM    7  C   UNL     1      -4.614  -0.811 -33.273  1.00  0.00     0.012 A 
HETATM    8  C   UNL     1      -4.115  -2.108 -33.429  1.00  0.00     0.037 A 
HETATM    9  C   UNL     1      -4.742  -3.016 -34.282  1.00  0.00     0.068 A 
HETATM   10  C   UNL     1      -5.859  -2.608 -35.007  1.00  0.00     0.037 A 
HETATM   11  C   UNL     1      -6.358  -1.309 -34.855  1.00  0.00     0.012 A 
BRANCH   9  12
HETATM   12  O   UNL     1      -4.169  -4.258 -34.326  1.00  0.00    -0.356 OA
HETATM   13  C   UNL     1      -3.355  -4.615 -33.215  1.00  0.00     0.210 C 
ENDBRANCH   9  12
ENDBRANCH   5   6
BRANCH   5  14
HETATM   14  C   UNL     1      -7.875   0.925 -33.565  1.00  0.00    -0.031 A 
HETATM   15  C   UNL     1      -8.746   1.557 -34.470  1.00  0.00     0.009 A 
HETATM   16  C   UNL     1     -10.129   1.502 -34.290  1.00  0.00     0.001 A 
HETATM   17  C   UNL     1     -10.665   0.810 -33.207  1.00  0.00     0.000 A 
HETATM   18  C   UNL     1      -9.818   0.176 -32.301  1.00  0.00     0.001 A 
HETATM   19  C   UNL     1      -8.434   0.232 -32.477  1.00  0.00     0.009 A 
ENDBRANCH   5  14
ENDBRANCH   1   5
BRANCH   2  20
HETATM   20  C   UNL     1      -5.009   3.818 -31.624  1.00  0.00     0.185 C 
BRANCH  20  21
HETATM   21  S   UNL     1      -4.354   5.474 -32.002  1.00  0.00    -0.081 SA
BRANCH  21  22
HETATM   22  C   UNL     1      -2.709   5.254 -31.515  1.00  0.00     0.192 A 
HETATM   23  N   UNL     1      -2.063   6.027 -30.585  1.00  0.00    -0.311 N 
HETATM   24  C   UNL     1      -0.793   5.498 -30.494  1.00  0.00     0.130 A 
HETATM   25  C   UNL     1      -2.594   7.179 -29.885  1.00  0.00     0.133 C 
HETATM   26  C   UNL     1       0.301   5.970 -29.598  1.00  0.00     0.081 C 
HETATM   27  N   UNL     1      -0.695   4.481 -31.327  1.00  0.00    -0.134 NA
HETATM   28  C   UNL     1       0.364   7.486 -29.465  1.00  0.00     0.008 C 
HETATM   29  C   UNL     1      -0.648   8.055 -28.470  1.00  0.00     0.002 C 
HETATM   30  C   UNL     1      -2.031   7.407 -28.486  1.00  0.00     0.020 C 
HETATM   31  N   UNL     1      -1.895   4.333 -31.970  1.00  0.00    -0.123 NA
ENDBRANCH  21  22
ENDBRANCH  20  21
ENDBRANCH   2  20
TORSDOF 7
ENDMDL
MODEL 3
REMARK VINA RESULT:      -8.6      1.232      2.023
REMARK  7 active torsions:
REMARK  status: ('A' for Active; 'I' for Inactive)
REMARK    1  A    between atoms: O_2  and  C_3 
REMARK    2  A    between atoms: C_6  and  C_7 
REMARK    3  A    between atoms: C_7  and  N_8 
REMARK    4  A    between atoms: C_7  and  C_23 
REMARK       I    between atoms: N_8  and  C_9 
REMARK    5  A    between atoms: C_9  and  C_10 
REMARK    6  A    between atoms: C_10  and  S_11 
REMARK    7  A    between atoms: S_11  and  C_12 
ROOT
HETATM    1  N   UNL     1      -6.451   1.335 -31.936  1.00  0.00    -0.348 N 
HETATM    2  C   UNL     1      -5.953   1.552 -30.672  1.00  0.00     0.228 C 
HETATM    3  O   UNL     1      -6.229   0.832 -29.714  1.00  0.00    -0.273 OA
HETATM    4  H   UNL     1      -6.174   1.958 -32.680  1.00  0.00     0.163 HD
ENDROOT
BRANCH   1   5
HETATM    5  C   UNL     1      -7.264   0.171 -32.247  1.00  0.00     0.151 C 
BRANCH   5   6
HETATM    6  C   UNL     1      -8.588   0.554 -32.900  1.00  0.00    -0.031 A 
HETATM    7  C   UNL     1      -9.787  -0.123 -32.635  1.00  0.00     0.012 A 
HETATM    8  C   UNL     1     -10.988   0.301 -33.213  1.00  0.00     0.037 A 
HETATM    9  C   UNL     1     -11.022   1.413 -34.055  1.00  0.00     0.068 A 
HETATM   10  C   UNL     1      -9.835   2.084 -34.343  1.00  0.00     0.037 A 
HETATM   11  C   UNL     1      -8.631   1.659 -33.768  1.00  0.00     0.012 A 
BRANCH   9  12
HETATM   12  O   UNL     1     -12.261   1.737 -34.535  1.00  0.00    -0.356 OA
HETATM   13  C   UNL     1     -12.298   2.696 -35.586  1.00  0.00     0.210 C 
ENDBRANCH   9  12
ENDBRANCH   5   6
BRANCH   5  14
HETATM   14  C   UNL     1      -6.485  -0.851 -33.068  1.00  0.00    -0.031 A 
HETATM   15  C   UNL     1      -7.169  -1.673 -33.980  1.00  0.00     0.009 A 
HETATM   16  C   UNL     1      -6.482  -2.608 -34.757  1.00  0.00     0.001 A 
HETATM   17  C   UNL     1      -5.100  -2.733 -34.638  1.00  0.00     0.000 A 
HETATM   18  C   UNL     1      -4.405  -1.925 -33.741  1.00  0.00     0.001 A 
HETATM   19  C   UNL     1      -5.090  -0.992 -32.961  1.00  0.00     0.009 A 
ENDBRANCH   5  14
ENDBRANCH   1   5
BRANCH   2  20
HETATM   20  C   UNL     1      -4.963   2.695 -30.538  1.00  0.00     0.185 C 
BRANCH  20  21
HETATM   21  S   UNL     1      -4.516   3.402 -32.155  1.00  0.00    -0.081 SA
BRANCH  21  22
HETATM   22  C   UNL     1      -3.108   4.299 -31.702  1.00  0.00     0.192 A 
HETATM   23  N   UNL     1      -3.086   5.651 -31.475  1.00  0.00    -0.311 N 
HETATM   24  C   UNL     1      -1.784   5.939 -31.126  1.00  0.00     0.130 A 
HETATM   25  C   UNL     1      -4.190   6.579 -31.619  1.00  0.00     0.133 C 
HETATM   26  C   UNL     1      -1.241   7.277 -30.759  1.00  0.00     0.081 C 
HETATM   27  N   UNL     1      -1.080   4.824 -31.155  1.00  0.00    -0.134 NA
HETATM   28  C   UNL     1      -1.812   8.414 -31.595  1.00  0.00     0.008 C 
HETATM   29  C   UNL     1      -3.189   8.884 -31.126  1.00  0.00     0.002 C 
HETATM   30  C   UNL     1      -4.152   7.784 -30.684  1.00  0.00     0.020 C 
HETATM   31  N   UNL     1      -1.910   3.798 -31.520  1.00  0.00    -0.123 NA
ENDBRANCH  21  22
ENDBRANCH  20  21
ENDBRANCH   2  20
TORSDOF 7
ENDMDL
MODEL 4
REMARK VINA RESULT:      -8.6      1.357      1.995
REMARK  7 active torsions:
REMARK  status: ('A' for Active; 'I' for Inactive)
REMARK    1  A    between atoms: O_2  and  C_3 
REMARK    2  A    between atoms: C_6  and  C_7 
REMARK    3  A    between atoms: C_7  and  N_8 
REMARK    4  A    between atoms: C_7  and  C_23 
REMARK       I    between atoms: N_8  and  C_9 
REMARK    5  A    between atoms: C_9  and  C_10 
REMARK    6  A    between atoms: C_10  and  S_11 
REMARK    7  A    between atoms: S_11  and  C_12 
ROOT
HETATM    1  N   UNL     1      -6.398   1.337 -32.008  1.00  0.00    -0.348 N 
HETATM    2  C   UNL     1      -6.053   1.665 -30.717  1.00  0.00     0.228 C 
HETATM    3  O   UNL     1      -6.475   1.052 -29.738  1.00  0.00    -0.273 OA
HETATM    4  H   UNL     1      -6.006   1.876 -32.767  1.00  0.00     0.163 HD
ENDROOT
BRANCH   1   5
HETATM    5  C   UNL     1      -7.211   0.171 -32.308  1.00  0.00     0.151 C 
BRANCH   5   6
HETATM    6  C   UNL     1      -8.540   0.549 -32.954  1.00  0.00    -0.031 A 
HETATM    7  C   UNL     1      -9.747  -0.088 -32.632  1.00  0.00     0.012 A 
HETATM    8  C   UNL     1     -10.950   0.332 -33.208  1.00  0.00     0.037 A 
HETATM    9  C   UNL     1     -10.978   1.401 -34.104  1.00  0.00     0.068 A 
HETATM   10  C   UNL     1      -9.784   2.031 -34.449  1.00  0.00     0.037 A 
HETATM   11  C   UNL     1      -8.578   1.610 -33.876  1.00  0.00     0.012 A 
BRANCH   9  12
HETATM   12  O   UNL     1     -12.220   1.727 -34.576  1.00  0.00    -0.356 OA
HETATM   13  C   UNL     1     -12.420   3.090 -34.933  1.00  0.00     0.210 C 
ENDBRANCH   9  12
ENDBRANCH   5   6
BRANCH   5  14
HETATM   14  C   UNL     1      -6.436  -0.854 -33.129  1.00  0.00    -0.031 A 
HETATM   15  C   UNL     1      -5.044  -0.962 -32.968  1.00  0.00     0.009 A 
HETATM   16  C   UNL     1      -4.309  -1.902 -33.693  1.00  0.00     0.001 A 
HETATM   17  C   UNL     1      -4.953  -2.751 -34.588  1.00  0.00     0.000 A 
HETATM   18  C   UNL     1      -6.333  -2.661 -34.760  1.00  0.00     0.001 A 
HETATM   19  C   UNL     1      -7.070  -1.720 -34.038  1.00  0.00     0.009 A 
ENDBRANCH   5  14
ENDBRANCH   1   5
BRANCH   2  20
HETATM   20  C   UNL     1      -5.042   2.789 -30.567  1.00  0.00     0.185 C 
BRANCH  20  21
HETATM   21  S   UNL     1      -5.815   4.428 -30.743  1.00  0.00    -0.081 SA
BRANCH  21  22
HETATM   22  C   UNL     1      -4.403   5.387 -31.025  1.00  0.00     0.192 A 
HETATM   23  N   UNL     1      -3.698   5.406 -32.201  1.00  0.00    -0.311 N 
HETATM   24  C   UNL     1      -2.675   6.307 -31.994  1.00  0.00     0.130 A 
HETATM   25  C   UNL     1      -3.953   4.612 -33.386  1.00  0.00     0.133 C 
HETATM   26  C   UNL     1      -1.633   6.706 -32.983  1.00  0.00     0.081 C 
HETATM   27  N   UNL     1      -2.767   6.782 -30.768  1.00  0.00    -0.134 NA
HETATM   28  C   UNL     1      -1.136   5.549 -33.839  1.00  0.00     0.008 C 
HETATM   29  C   UNL     1      -2.062   5.210 -35.007  1.00  0.00     0.002 C 
HETATM   30  C   UNL     1      -3.559   5.269 -34.705  1.00  0.00     0.020 C 
HETATM   31  N   UNL     1      -3.848   6.201 -30.161  1.00  0.00    -0.123 NA
ENDBRANCH  21  22
ENDBRANCH  20  21
ENDBRANCH   2  20
TORSDOF 7
ENDMDL
MODEL 5
REMARK VINA RESULT:      -8.5      2.452      4.166
REMARK  7 active torsions:
REMARK  status: ('A' for Active; 'I' for Inactive)
REMARK    1  A    between atoms: O_2  and  C_3 
REMARK    2  A    between atoms: C_6  and  C_7 
REMARK    3  A    between atoms: C_7  and  N_8 
REMARK    4  A    between atoms: C_7  and  C_23 
REMARK       I    between atoms: N_8  and  C_9 
REMARK    5  A    between atoms: C_9  and  C_10 
REMARK    6  A    between atoms: C_10  and  S_11 
REMARK    7  A    between atoms: S_11  and  C_12 
ROOT
HETATM    1  N   UNL     1      -5.728   1.478 -33.068  1.00  0.00    -0.348 N 
HETATM    2  C   UNL     1      -5.031   2.103 -32.059  1.00  0.00     0.228 C 
HETATM    3  O   UNL     1      -5.177   1.817 -30.872  1.00  0.00    -0.273 OA
HETATM    4  H   UNL     1      -5.550   1.754 -34.023  1.00  0.00     0.163 HD
ENDROOT
BRANCH   1   5
HETATM    5  C   UNL     1      -6.618   0.361 -32.803  1.00  0.00     0.151 C 
BRANCH   5   6
HETATM    6  C   UNL     1      -8.058   0.667 -33.203  1.00  0.00    -0.031 A 
HETATM    7  C   UNL     1      -8.383   1.510 -34.275  1.00  0.00     0.012 A 
HETATM    8  C   UNL     1      -9.717   1.716 -34.642  1.00  0.00     0.037 A 
HETATM    9  C   UNL     1     -10.752   1.076 -33.958  1.00  0.00     0.068 A 
HETATM   10  C   UNL     1     -10.445   0.251 -32.878  1.00  0.00     0.037 A 
HETATM   11  C   UNL     1      -9.110   0.047 -32.508  1.00  0.00     0.012 A 
BRANCH   9  12
HETATM   12  O   UNL     1     -12.008   1.342 -34.430  1.00  0.00    -0.356 OA
HETATM   13  C   UNL     1     -12.186   2.599 -35.073  1.00  0.00     0.210 C 
ENDBRANCH   9  12
ENDBRANCH   5   6
BRANCH   5  14
HETATM   14  C   UNL     1      -6.101  -0.928 -33.433  1.00  0.00    -0.031 A 
HETATM   15  C   UNL     1      -6.958  -1.697 -34.238  1.00  0.00     0.009 A 
HETATM   16  C   UNL     1      -6.509  -2.874 -34.842  1.00  0.00     0.001 A 
HETATM   17  C   UNL     1      -5.196  -3.297 -34.654  1.00  0.00     0.000 A 
HETATM   18  C   UNL     1      -4.331  -2.545 -33.862  1.00  0.00     0.001 A 
HETATM   19  C   UNL     1      -4.778  -1.371 -33.254  1.00  0.00     0.009 A 
ENDBRANCH   5  14
ENDBRANCH   1   5
BRANCH   2  20
HETATM   20  C   UNL     1      -3.993   3.120 -32.503  1.00  0.00     0.185 C 
BRANCH  20  21
HETATM   21  S   UNL     1      -4.461   4.817 -32.039  1.00  0.00    -0.081 SA
BRANCH  21  22
HETATM   22  C   UNL     1      -6.031   4.894 -32.762  1.00  0.00     0.192 A 
HETATM   23  N   UNL     1      -7.212   4.816 -32.070  1.00  0.00    -0.311 N 
HETATM   24  C   UNL     1      -8.199   4.938 -33.024  1.00  0.00     0.130 A 
HETATM   25  C   UNL     1      -7.377   4.605 -30.646  1.00  0.00     0.133 C 
HETATM   26  C   UNL     1      -9.670   4.938 -32.781  1.00  0.00     0.081 C 
HETATM   27  N   UNL     1      -7.634   5.070 -34.208  1.00  0.00    -0.134 NA
HETATM   28  C   UNL     1     -10.107   3.947 -31.711  1.00  0.00     0.008 C 
HETATM   29  C   UNL     1      -9.909   4.462 -30.285  1.00  0.00     0.002 C 
HETATM   30  C   UNL     1      -8.620   5.244 -30.035  1.00  0.00     0.020 C 
HETATM   31  N   UNL     1      -6.274   5.038 -34.042  1.00  0.00    -0.123 NA
ENDBRANCH  21  22
ENDBRANCH  20  21
ENDBRANCH   2  20
TORSDOF 7
ENDMDL
MODEL 6
REMARK VINA RESULT:      -8.5      3.252      8.303
REMARK  7 active torsions:
REMARK  status: ('A' for Active; 'I' for Inactive)
REMARK    1  A    between atoms: O_2  and  C_3 
REMARK    2  A    between atoms: C_6  and  C_7 
REMARK    3  A    between atoms: C_7  and  N_8 
REMARK    4  A    between atoms: C_7  and  C_23 
REMARK       I    between atoms: N_8  and  C_9 
REMARK    5  A    between atoms: C_9  and  C_10 
REMARK    6  A    between atoms: C_10  and  S_11 
REMARK    7  A    between atoms: S_11  and  C_12 
ROOT
HETATM    1  N   UNL     1      -7.479   1.700 -32.210  1.00  0.00    -0.348 N 
HETATM    2  C   UNL     1      -7.978   2.307 -31.080  1.00  0.00     0.228 C 
HETATM    3  O   UNL     1      -7.305   2.485 -30.067  1.00  0.00    -0.273 OA
HETATM    4  H   UNL     1      -8.083   1.595 -33.012  1.00  0.00     0.163 HD
ENDROOT
BRANCH   1   5
HETATM    5  C   UNL     1      -6.081   1.316 -32.316  1.00  0.00     0.151 C 
BRANCH   5   6
HETATM    6  C   UNL     1      -5.894   0.054 -33.151  1.00  0.00    -0.031 A 
HETATM    7  C   UNL     1      -4.717  -0.707 -33.121  1.00  0.00     0.012 A 
HETATM    8  C   UNL     1      -4.613  -1.890 -33.860  1.00  0.00     0.037 A 
HETATM    9  C   UNL     1      -5.682  -2.345 -34.633  1.00  0.00     0.068 A 
HETATM   10  C   UNL     1      -6.851  -1.589 -34.689  1.00  0.00     0.037 A 
HETATM   11  C   UNL     1      -6.955  -0.403 -33.952  1.00  0.00     0.012 A 
BRANCH   9  12
HETATM   12  O   UNL     1      -5.460  -3.525 -35.288  1.00  0.00    -0.356 OA
HETATM   13  C   UNL     1      -6.522  -4.471 -35.257  1.00  0.00     0.210 C 
ENDBRANCH   9  12
ENDBRANCH   5   6
BRANCH   5  14
HETATM   14  C   UNL     1      -5.220   2.474 -32.810  1.00  0.00    -0.031 A 
HETATM   15  C   UNL     1      -5.762   3.404 -33.714  1.00  0.00     0.009 A 
HETATM   16  C   UNL     1      -5.004   4.483 -34.172  1.00  0.00     0.001 A 
HETATM   17  C   UNL     1      -3.694   4.652 -33.732  1.00  0.00     0.000 A 
HETATM   18  C   UNL     1      -3.140   3.742 -32.834  1.00  0.00     0.001 A 
HETATM   19  C   UNL     1      -3.895   2.660 -32.377  1.00  0.00     0.009 A 
ENDBRANCH   5  14
ENDBRANCH   1   5
BRANCH   2  20
HETATM   20  C   UNL     1      -9.401   2.828 -31.183  1.00  0.00     0.185 C 
BRANCH  20  21
HETATM   21  S   UNL     1      -9.799   3.392 -32.868  1.00  0.00    -0.081 SA
BRANCH  21  22
HETATM   22  C   UNL     1     -11.185   2.407 -33.185  1.00  0.00     0.192 A 
HETATM   23  N   UNL     1     -12.476   2.763 -32.891  1.00  0.00    -0.311 N 
HETATM   24  C   UNL     1     -13.250   1.706 -33.322  1.00  0.00     0.130 A 
HETATM   25  C   UNL     1     -12.920   3.972 -32.227  1.00  0.00     0.133 C 
HETATM   26  C   UNL     1     -14.735   1.609 -33.250  1.00  0.00     0.081 C 
HETATM   27  N   UNL     1     -12.460   0.781 -33.832  1.00  0.00    -0.134 NA
HETATM   28  C   UNL     1     -15.318   2.183 -31.966  1.00  0.00     0.008 C 
HETATM   29  C   UNL     1     -15.456   3.706 -31.985  1.00  0.00     0.002 C 
HETATM   30  C   UNL     1     -14.303   4.468 -32.637  1.00  0.00     0.020 C 
HETATM   31  N   UNL     1     -11.166   1.220 -33.741  1.00  0.00    -0.123 NA
ENDBRANCH  21  22
ENDBRANCH  20  21
ENDBRANCH   2  20
TORSDOF 7
ENDMDL
MODEL 7
REMARK VINA RESULT:      -8.5      2.124      4.623
REMARK  7 active torsions:
REMARK  status: ('A' for Active; 'I' for Inactive)
REMARK    1  A    between atoms: O_2  and  C_3 
REMARK    2  A    between atoms: C_6  and  C_7 
REMARK    3  A    between atoms: C_7  and  N_8 
REMARK    4  A    between atoms: C_7  and  C_23 
REMARK       I    between atoms: N_8  and  C_9 
REMARK    5  A    between atoms: C_9  and  C_10 
REMARK    6  A    between atoms: C_10  and  S_11 
REMARK    7  A    between atoms: S_11  and  C_12 
ROOT
HETATM    1  N   UNL     1      -6.530   1.976 -32.957  1.00  0.00    -0.348 N 
HETATM    2  C   UNL     1      -6.480   3.335 -33.165  1.00  0.00     0.228 C 
HETATM    3  O   UNL     1      -6.804   3.858 -34.230  1.00  0.00    -0.273 OA
HETATM    4  H   UNL     1      -6.261   1.613 -32.053  1.00  0.00     0.163 HD
ENDROOT
BRANCH   1   5
HETATM    5  C   UNL     1      -7.068   1.069 -33.957  1.00  0.00     0.151 C 
BRANCH   5   6
HETATM    6  C   UNL     1      -6.315  -0.257 -33.993  1.00  0.00    -0.031 A 
HETATM    7  C   UNL     1      -6.609  -1.270 -34.917  1.00  0.00     0.012 A 
HETATM    8  C   UNL     1      -5.853  -2.446 -34.951  1.00  0.00     0.037 A 
HETATM    9  C   UNL     1      -4.782  -2.631 -34.076  1.00  0.00     0.068 A 
HETATM   10  C   UNL     1      -4.490  -1.642 -33.139  1.00  0.00     0.037 A 
HETATM   11  C   UNL     1      -5.248  -0.465 -33.102  1.00  0.00     0.012 A 
BRANCH   9  12
HETATM   12  O   UNL     1      -4.110  -3.813 -34.227  1.00  0.00    -0.356 OA
HETATM   13  C   UNL     1      -3.406  -4.288 -33.086  1.00  0.00     0.210 C 
ENDBRANCH   9  12
ENDBRANCH   5   6
BRANCH   5  14
HETATM   14  C   UNL     1      -8.572   0.879 -33.788  1.00  0.00    -0.031 A 
HETATM   15  C   UNL     1      -9.051  -0.105 -32.906  1.00  0.00     0.009 A 
HETATM   16  C   UNL     1     -10.422  -0.292 -32.718  1.00  0.00     0.001 A 
HETATM   17  C   UNL     1     -11.335   0.504 -33.404  1.00  0.00     0.000 A 
HETATM   18  C   UNL     1     -10.879   1.486 -34.281  1.00  0.00     0.001 A 
HETATM   19  C   UNL     1      -9.509   1.673 -34.473  1.00  0.00     0.009 A 
ENDBRANCH   5  14
ENDBRANCH   1   5
BRANCH   2  20
HETATM   20  C   UNL     1      -6.080   4.175 -31.965  1.00  0.00     0.185 C 
BRANCH  20  21
HETATM   21  S   UNL     1      -5.966   5.944 -32.379  1.00  0.00    -0.081 SA
BRANCH  21  22
HETATM   22  C   UNL     1      -4.396   5.973 -33.104  1.00  0.00     0.192 A 
HETATM   23  N   UNL     1      -3.227   6.199 -32.423  1.00  0.00    -0.311 N 
HETATM   24  C   UNL     1      -2.232   6.117 -33.373  1.00  0.00     0.130 A 
HETATM   25  C   UNL     1      -3.083   6.503 -31.014  1.00  0.00     0.133 C 
HETATM   26  C   UNL     1      -0.768   6.267 -33.138  1.00  0.00     0.081 C 
HETATM   27  N   UNL     1      -2.783   5.867 -34.545  1.00  0.00    -0.134 NA
HETATM   28  C   UNL     1      -0.425   7.352 -32.126  1.00  0.00     0.008 C 
HETATM   29  C   UNL     1      -0.576   6.902 -30.673  1.00  0.00     0.002 C 
HETATM   30  C   UNL     1      -1.786   6.018 -30.374  1.00  0.00     0.020 C 
HETATM   31  N   UNL     1      -4.139   5.781 -34.375  1.00  0.00    -0.123 NA
ENDBRANCH  21  22
ENDBRANCH  20  21
ENDBRANCH   2  20
TORSDOF 7
ENDMDL
MODEL 8
REMARK VINA RESULT:      -8.4      2.654      5.544
REMARK  7 active torsions:
REMARK  status: ('A' for Active; 'I' for Inactive)
REMARK    1  A    between atoms: O_2  and  C_3 
REMARK    2  A    between atoms: C_6  and  C_7 
REMARK    3  A    between atoms: C_7  and  N_8 
REMARK    4  A    between atoms: C_7  and  C_23 
REMARK       I    between atoms: N_8  and  C_9 
REMARK    5  A    between atoms: C_9  and  C_10 
REMARK    6  A    between atoms: C_10  and  S_11 
REMARK    7  A    between atoms: S_11  and  C_12 
ROOT
HETATM    1  N   UNL     1      -9.205   2.793 -32.432  1.00  0.00    -0.348 N 
HETATM    2  C   UNL     1      -9.326   4.161 -32.339  1.00  0.00     0.228 C 
HETATM    3  O   UNL     1      -9.425   4.889 -33.324  1.00  0.00    -0.273 OA
HETATM    4  H   UNL     1      -9.139   2.252 -31.581  1.00  0.00     0.163 HD
ENDROOT
BRANCH   1   5
HETATM    5  C   UNL     1      -9.288   2.104 -33.708  1.00  0.00     0.151 C 
BRANCH   5   6
HETATM    6  C   UNL     1      -8.283   0.961 -33.810  1.00  0.00    -0.031 A 
HETATM    7  C   UNL     1      -7.958   0.344 -35.026  1.00  0.00     0.012 A 
HETATM    8  C   UNL     1      -6.988  -0.662 -35.079  1.00  0.00     0.037 A 
HETATM    9  C   UNL     1      -6.313  -1.064 -33.926  1.00  0.00     0.068 A 
HETATM   10  C   UNL     1      -6.639  -0.474 -32.707  1.00  0.00     0.037 A 
HETATM   11  C   UNL     1      -7.613   0.531 -32.651  1.00  0.00     0.012 A 
BRANCH   9  12
HETATM   12  O   UNL     1      -5.372  -2.039 -34.116  1.00  0.00    -0.356 OA
HETATM   13  C   UNL     1      -4.182  -1.925 -33.346  1.00  0.00     0.210 C 
ENDBRANCH   9  12
ENDBRANCH   5   6
BRANCH   5  14
HETATM   14  C   UNL     1     -10.713   1.654 -34.009  1.00  0.00    -0.031 A 
HETATM   15  C   UNL     1     -11.240   0.532 -33.346  1.00  0.00     0.009 A 
HETATM   16  C   UNL     1     -12.548   0.105 -33.588  1.00  0.00     0.001 A 
HETATM   17  C   UNL     1     -13.350   0.795 -34.493  1.00  0.00     0.000 A 
HETATM   18  C   UNL     1     -12.846   1.910 -35.158  1.00  0.00     0.001 A 
HETATM   19  C   UNL     1     -11.538   2.338 -34.920  1.00  0.00     0.009 A 
ENDBRANCH   5  14
ENDBRANCH   1   5
BRANCH   2  20
HETATM   20  C   UNL     1      -9.417   4.723 -30.931  1.00  0.00     0.185 C 
BRANCH  20  21
HETATM   21  S   UNL     1      -7.831   5.423 -30.373  1.00  0.00    -0.081 SA
BRANCH  21  22
HETATM   22  C   UNL     1      -6.873   3.983 -30.338  1.00  0.00     0.192 A 
HETATM   23  N   UNL     1      -5.635   3.858 -30.914  1.00  0.00    -0.311 N 
HETATM   24  C   UNL     1      -5.234   2.569 -30.632  1.00  0.00     0.130 A 
HETATM   25  C   UNL     1      -4.927   4.856 -31.689  1.00  0.00     0.133 C 
HETATM   26  C   UNL     1      -3.941   1.939 -31.022  1.00  0.00     0.081 C 
HETATM   27  N   UNL     1      -6.183   1.969 -29.941  1.00  0.00    -0.134 NA
HETATM   28  C   UNL     1      -3.471   2.332 -32.416  1.00  0.00     0.008 C 
HETATM   29  C   UNL     1      -2.781   3.695 -32.467  1.00  0.00     0.002 C 
HETATM   30  C   UNL     1      -3.406   4.788 -31.601  1.00  0.00     0.020 C 
HETATM   31  N   UNL     1      -7.212   2.856 -29.761  1.00  0.00    -0.123 NA
ENDBRANCH  21  22
ENDBRANCH  20  21
ENDBRANCH   2  20
TORSDOF 7
ENDMDL
MODEL 9
REMARK VINA RESULT:      -8.3      2.800      5.005
REMARK  7 active torsions:
REMARK  status: ('A' for Active; 'I' for Inactive)
REMARK    1  A    between atoms: O_2  and  C_3 
REMARK    2  A    between atoms: C_6  and  C_7 
REMARK    3  A    between atoms: C_7  and  N_8 
REMARK    4  A    between atoms: C_7  and  C_23 
REMARK       I    between atoms: N_8  and  C_9 
REMARK    5  A    between atoms: C_9  and  C_10 
REMARK    6  A    between atoms: C_10  and  S_11 
REMARK    7  A    between atoms: S_11  and  C_12 
ROOT
HETATM    1  N   UNL     1      -4.966   3.124 -33.413  1.00  0.00    -0.348 N 
HETATM    2  C   UNL     1      -4.781   4.425 -33.823  1.00  0.00     0.228 C 
HETATM    3  O   UNL     1      -5.642   5.061 -34.428  1.00  0.00    -0.273 OA
HETATM    4  H   UNL     1      -4.221   2.664 -32.910  1.00  0.00     0.163 HD
ENDROOT
BRANCH   1   5
HETATM    5  C   UNL     1      -6.238   2.443 -33.582  1.00  0.00     0.151 C 
BRANCH   5   6
HETATM    6  C   UNL     1      -6.061   0.949 -33.834  1.00  0.00    -0.031 A 
HETATM    7  C   UNL     1      -5.046   0.195 -33.229  1.00  0.00     0.012 A 
HETATM    8  C   UNL     1      -4.957  -1.184 -33.444  1.00  0.00     0.037 A 
HETATM    9  C   UNL     1      -5.884  -1.841 -34.255  1.00  0.00     0.068 A 
HETATM   10  C   UNL     1      -6.887  -1.101 -34.878  1.00  0.00     0.037 A 
HETATM   11  C   UNL     1      -6.974   0.280 -34.666  1.00  0.00     0.012 A 
BRANCH   9  12
HETATM   12  O   UNL     1      -5.702  -3.192 -34.364  1.00  0.00    -0.356 OA
HETATM   13  C   UNL     1      -6.788  -3.932 -34.907  1.00  0.00     0.210 C 
ENDBRANCH   9  12
ENDBRANCH   5   6
BRANCH   5  14
HETATM   14  C   UNL     1      -7.183   2.729 -32.420  1.00  0.00    -0.031 A 
HETATM   15  C   UNL     1      -6.672   2.805 -31.113  1.00  0.00     0.009 A 
HETATM   16  C   UNL     1      -7.509   3.080 -30.031  1.00  0.00     0.001 A 
HETATM   17  C   UNL     1      -8.870   3.290 -30.237  1.00  0.00     0.000 A 
HETATM   18  C   UNL     1      -9.395   3.222 -31.526  1.00  0.00     0.001 A 
HETATM   19  C   UNL     1      -8.560   2.943 -32.610  1.00  0.00     0.009 A 
ENDBRANCH   5  14
ENDBRANCH   1   5
BRANCH   2  20
HETATM   20  C   UNL     1      -3.471   5.070 -33.407  1.00  0.00     0.185 C 
BRANCH  20  21
HETATM   21  S   UNL     1      -3.650   6.061 -31.890  1.00  0.00    -0.081 SA
BRANCH  21  22
HETATM   22  C   UNL     1      -2.153   5.678 -31.113  1.00  0.00     0.192 A 
HETATM   23  N   UNL     1      -1.570   6.435 -30.130  1.00  0.00    -0.311 N 
HETATM   24  C   UNL     1      -0.416   5.761 -29.791  1.00  0.00     0.130 A 
HETATM   25  C   UNL     1      -2.047   7.696 -29.600  1.00  0.00     0.133 C 
HETATM   26  C   UNL     1       0.570   6.163 -28.747  1.00  0.00     0.081 C 
HETATM   27  N   UNL     1      -0.321   4.677 -30.536  1.00  0.00    -0.134 NA
HETATM   28  C   UNL     1       0.815   7.664 -28.692  1.00  0.00     0.008 C 
HETATM   29  C   UNL     1      -0.259   8.432 -27.921  1.00  0.00     0.002 C 
HETATM   30  C   UNL     1      -1.696   7.962 -28.140  1.00  0.00     0.020 C 
HETATM   31  N   UNL     1      -1.409   4.629 -31.367  1.00  0.00    -0.123 NA
ENDBRANCH  21  22
ENDBRANCH  20  21
ENDBRANCH   2  20
TORSDOF 7
ENDMDL
MODEL 10
REMARK VINA RESULT:      -8.3      3.122      9.598
REMARK  7 active torsions:
REMARK  status: ('A' for Active; 'I' for Inactive)
REMARK    1  A    between atoms: O_2  and  C_3 
REMARK    2  A    between atoms: C_6  and  C_7 
REMARK    3  A    between atoms: C_7  and  N_8 
REMARK    4  A    between atoms: C_7  and  C_23 
REMARK       I    between atoms: N_8  and  C_9 
REMARK    5  A    between atoms: C_9  and  C_10 
REMARK    6  A    between atoms: C_10  and  S_11 
REMARK    7  A    between atoms: S_11  and  C_12 
ROOT
HETATM    1  N   UNL     1      -3.538   5.439 -30.149  1.00  0.00    -0.348 N 
HETATM    2  C   UNL     1      -4.903   5.604 -30.207  1.00  0.00     0.228 C 
HETATM    3  O   UNL     1      -5.432   6.645 -30.592  1.00  0.00    -0.273 OA
HETATM    4  H   UNL     1      -3.170   4.553 -29.834  1.00  0.00     0.163 HD
ENDROOT
BRANCH   1   5
HETATM    5  C   UNL     1      -2.624   6.456 -30.639  1.00  0.00     0.151 C 
BRANCH   5   6
HETATM    6  C   UNL     1      -1.463   6.695 -29.680  1.00  0.00    -0.031 A 
HETATM    7  C   UNL     1      -1.428   7.776 -28.787  1.00  0.00     0.012 A 
HETATM    8  C   UNL     1      -0.370   7.923 -27.885  1.00  0.00     0.037 A 
HETATM    9  C   UNL     1       0.667   6.989 -27.844  1.00  0.00     0.068 A 
HETATM   10  C   UNL     1       0.656   5.921 -28.738  1.00  0.00     0.037 A 
HETATM   11  C   UNL     1      -0.402   5.775 -29.644  1.00  0.00     0.012 A 
BRANCH   9  12
HETATM   12  O   UNL     1       1.628   7.234 -26.901  1.00  0.00    -0.356 OA
HETATM   13  C   UNL     1       1.277   8.146 -25.868  1.00  0.00     0.210 C 
ENDBRANCH   9  12
ENDBRANCH   5   6
BRANCH   5  14
HETATM   14  C   UNL     1      -2.153   6.149 -32.057  1.00  0.00    -0.031 A 
HETATM   15  C   UNL     1      -2.391   4.876 -32.605  1.00  0.00     0.009 A 
HETATM   16  C   UNL     1      -1.986   4.569 -33.906  1.00  0.00     0.001 A 
HETATM   17  C   UNL     1      -1.342   5.530 -34.680  1.00  0.00     0.000 A 
HETATM   18  C   UNL     1      -1.100   6.798 -34.155  1.00  0.00     0.001 A 
HETATM   19  C   UNL     1      -1.501   7.106 -32.854  1.00  0.00     0.009 A 
ENDBRANCH   5  14
ENDBRANCH   1   5
BRANCH   2  20
HETATM   20  C   UNL     1      -5.734   4.386 -29.843  1.00  0.00     0.185 C 
BRANCH  20  21
HETATM   21  S   UNL     1      -5.106   2.872 -30.638  1.00  0.00    -0.081 SA
BRANCH  21  22
HETATM   22  C   UNL     1      -6.596   2.206 -31.212  1.00  0.00     0.192 A 
HETATM   23  N   UNL     1      -6.709   1.368 -32.291  1.00  0.00    -0.311 N 
HETATM   24  C   UNL     1      -8.052   1.070 -32.379  1.00  0.00     0.130 A 
HETATM   25  C   UNL     1      -5.646   0.930 -33.173  1.00  0.00     0.133 C 
HETATM   26  C   UNL     1      -8.697   0.173 -33.380  1.00  0.00     0.081 C 
HETATM   27  N   UNL     1      -8.692   1.703 -31.415  1.00  0.00    -0.134 NA
HETATM   28  C   UNL     1      -8.105   0.299 -34.777  1.00  0.00     0.008 C 
HETATM   29  C   UNL     1      -6.807  -0.486 -34.964  1.00  0.00     0.002 C 
HETATM   30  C   UNL     1      -5.837  -0.455 -33.784  1.00  0.00     0.020 C 
HETATM   31  N   UNL     1      -7.778   2.417 -30.687  1.00  0.00    -0.123 NA
ENDBRANCH  21  22
ENDBRANCH  20  21
ENDBRANCH   2  20
TORSDOF 7
ENDMDL
