MODEL 1
REMARK VINA RESULT:      -9.8      0.000      0.000
REMARK  6 active torsions:
REMARK  status: ('A' for Active; 'I' for Inactive)
REMARK    1  A    between atoms: C_4  and  N_5 
REMARK       I    between atoms: N_5  and  C_6 
REMARK       I    between atoms: C_6  and  N_16 
REMARK    2  A    between atoms: N_16  and  CA_17 
REMARK    3  A    between atoms: CA_17  and  C_18 
REMARK    4  A    between atoms: CA_17  and  CB_20 
REMARK    5  A    between atoms: C_18  and  O_19 
REMARK    6  A    between atoms: CB_20  and  CG_21 
ROOT
HETATM    1  N   UNK A   0      -3.625  -0.676 -32.407  1.00  0.00    -0.307 N 
HETATM    2  C   UNK A   0      -3.263   0.500 -31.839  1.00  0.00     0.321 C 
HETATM    3  O   UNK A   0      -2.445   0.502 -30.920  1.00  0.00    -0.247 OA
HETATM    4  H   UNK A   0      -3.032  -1.449 -32.108  1.00  0.00     0.170 HD
ATOM      5  N   TRP A   1      -3.801   1.643 -32.341  1.00  0.00    -0.336 N 
ATOM      6  H   TRP A   1      -4.004   1.620 -33.331  1.00  0.00     0.164 HD
ENDROOT
BRANCH   5   7
ATOM      7  CA  TRP A   1      -3.382   2.961 -31.844  1.00  0.00     0.114 C 
BRANCH   7   8
ATOM      8  C   TRP A   1      -4.589   3.659 -31.198  1.00  0.00     0.189 C 
BRANCH   8   9
ATOM      9  O   TRP A   1      -4.885   3.087 -29.922  1.00  0.00    -0.399 OA
ATOM     10  H   TRP A   1      -5.514   2.363 -30.087  1.00  0.00     0.209 HD
ENDBRANCH   8   9
ENDBRANCH   7   8
BRANCH   7  11
ATOM     11  CB  TRP A   1      -2.756   3.793 -32.983  1.00  0.00     0.068 C 
BRANCH  11  12
ATOM     12  CG  TRP A   1      -2.387   5.187 -32.571  1.00  0.00    -0.028 A 
ATOM     13  CD2 TRP A   1      -1.404   5.579 -31.606  1.00  0.00    -0.002 A 
ATOM     14  CE2 TRP A   1      -1.420   6.973 -31.537  1.00  0.00     0.042 A 
ATOM     15  CE3 TRP A   1      -0.501   4.877 -30.781  1.00  0.00     0.014 A 
ATOM     16  CZ2 TRP A   1      -0.581   7.700 -30.684  1.00  0.00     0.030 A 
ATOM     17  NE1 TRP A   1      -2.376   7.412 -32.423  1.00  0.00    -0.365 N 
ATOM     18  CH2 TRP A   1       0.304   6.979 -29.877  1.00  0.00     0.002 A 
ATOM     19  CZ3 TRP A   1       0.345   5.588 -29.923  1.00  0.00     0.001 A 
ATOM     20  HE1 TRP A   1      -2.613   8.382 -32.577  1.00  0.00     0.165 HD
ATOM     21  CD1 TRP A   1      -2.962   6.348 -33.050  1.00  0.00     0.096 A 
ENDBRANCH  11  12
ENDBRANCH   7  11
ENDBRANCH   5   7
BRANCH   1  22
HETATM   22  C   UNK A   0      -4.642  -1.082 -33.303  1.00  0.00     0.066 A 
HETATM   23  C   UNK A   0      -5.643  -0.233 -33.789  1.00  0.00     0.038 A 
HETATM   24  C   UNK A   0      -6.610  -0.709 -34.683  1.00  0.00    -0.059 A 
HETATM   25  C   UNK A   0      -7.693   0.195 -35.195  1.00  0.00     0.048 C 
HETATM   26  C   UNK A   0      -6.594  -2.059 -35.044  1.00  0.00     0.020 A 
HETATM   27  C   UNK A   0      -5.620  -2.927 -34.529  1.00  0.00    -0.005 A 
HETATM   28  C   UNK A   0      -4.630  -2.446 -33.647  1.00  0.00     0.093 A 
HETATM   29  C   UNK A   0      -5.605  -4.288 -34.867  1.00  0.00     0.015 A 
HETATM   30  N   UNK A   0      -3.683  -3.268 -33.133  1.00  0.00    -0.258 NA
HETATM   31  C   UNK A   0      -3.702  -4.572 -33.481  1.00  0.00     0.117 A 
HETATM   32  C   UNK A   0      -4.633  -5.126 -34.336  1.00  0.00     0.020 A 
ENDBRANCH   1  22
TORSDOF 6
ENDMDL
MODEL 2
REMARK VINA RESULT:      -9.3      1.966      3.366
REMARK  6 active torsions:
REMARK  status: ('A' for Active; 'I' for Inactive)
REMARK    1  A    between atoms: C_4  and  N_5 
REMARK       I    between atoms: N_5  and  C_6 
REMARK       I    between atoms: C_6  and  N_16 
REMARK    2  A    between atoms: N_16  and  CA_17 
REMARK    3  A    between atoms: CA_17  and  C_18 
REMARK    4  A    between atoms: CA_17  and  CB_20 
REMARK    5  A    between atoms: C_18  and  O_19 
REMARK    6  A    between atoms: CB_20  and  CG_21 
ROOT
HETATM    1  N   UNK A   0      -5.128   1.744 -31.319  1.00  0.00    -0.307 N 
HETATM    2  C   UNK A   0      -4.925   3.035 -31.678  1.00  0.00     0.321 C 
HETATM    3  O   UNK A   0      -5.317   3.938 -30.940  1.00  0.00    -0.247 OA
HETATM    4  H   UNK A   0      -5.453   1.657 -30.357  1.00  0.00     0.170 HD
ATOM      5  N   TRP A   1      -4.256   3.278 -32.836  1.00  0.00    -0.336 N 
ATOM      6  H   TRP A   1      -3.559   2.588 -33.079  1.00  0.00     0.164 HD
ENDROOT
BRANCH   5   7
ATOM      7  CA  TRP A   1      -3.911   4.648 -33.241  1.00  0.00     0.114 C 
BRANCH   7   8
ATOM      8  C   TRP A   1      -4.524   4.931 -34.621  1.00  0.00     0.189 C 
BRANCH   8   9
ATOM      9  O   TRP A   1      -3.625   5.691 -35.433  1.00  0.00    -0.399 OA
ATOM     10  H   TRP A   1      -3.038   5.047 -35.864  1.00  0.00     0.209 HD
ENDBRANCH   8   9
ENDBRANCH   7   8
BRANCH   7  11
ATOM     11  CB  TRP A   1      -2.381   4.848 -33.221  1.00  0.00     0.068 C 
BRANCH  11  12
ATOM     12  CG  TRP A   1      -1.944   6.033 -32.412  1.00  0.00    -0.028 A 
ATOM     13  CD2 TRP A   1      -1.072   6.039 -31.275  1.00  0.00    -0.002 A 
ATOM     14  CE2 TRP A   1      -0.966   7.360 -30.838  1.00  0.00     0.042 A 
ATOM     15  CE3 TRP A   1      -0.364   5.041 -30.574  1.00  0.00     0.014 A 
ATOM     16  CZ2 TRP A   1      -0.191   7.734 -29.734  1.00  0.00     0.030 A 
ATOM     17  NE1 TRP A   1      -1.743   8.127 -31.674  1.00  0.00    -0.365 N 
ATOM     18  CH2 TRP A   1       0.500   6.725 -29.057  1.00  0.00     0.002 A 
ATOM     19  CZ3 TRP A   1       0.417   5.397 -29.469  1.00  0.00     0.001 A 
ATOM     20  HE1 TRP A   1      -1.864   9.126 -31.588  1.00  0.00     0.165 HD
ATOM     21  CD1 TRP A   1      -2.333   7.341 -32.624  1.00  0.00     0.096 A 
ENDBRANCH  11  12
ENDBRANCH   7  11
ENDBRANCH   5   7
BRANCH   1  22
HETATM   22  C   UNK A   0      -5.012   0.496 -31.973  1.00  0.00     0.066 A 
HETATM   23  C   UNK A   0      -4.085  -0.492 -31.618  1.00  0.00     0.038 A 
HETATM   24  C   UNK A   0      -4.039  -1.709 -32.309  1.00  0.00    -0.059 A 
HETATM   25  C   UNK A   0      -3.038  -2.764 -31.940  1.00  0.00     0.048 C 
HETATM   26  C   UNK A   0      -4.898  -1.905 -33.394  1.00  0.00     0.020 A 
HETATM   27  C   UNK A   0      -5.801  -0.905 -33.784  1.00  0.00    -0.005 A 
HETATM   28  C   UNK A   0      -5.866   0.313 -33.075  1.00  0.00     0.093 A 
HETATM   29  C   UNK A   0      -6.653  -1.081 -34.884  1.00  0.00     0.015 A 
HETATM   30  N   UNK A   0      -6.726   1.296 -33.439  1.00  0.00    -0.258 NA
HETATM   31  C   UNK A   0      -7.530   1.089 -34.504  1.00  0.00     0.117 A 
HETATM   32  C   UNK A   0      -7.531  -0.070 -35.252  1.00  0.00     0.020 A 
ENDBRANCH   1  22
TORSDOF 6
ENDMDL
MODEL 3
REMARK VINA RESULT:      -9.3      2.034      3.089
REMARK  6 active torsions:
REMARK  status: ('A' for Active; 'I' for Inactive)
REMARK    1  A    between atoms: C_4  and  N_5 
REMARK       I    between atoms: N_5  and  C_6 
REMARK       I    between atoms: C_6  and  N_16 
REMARK    2  A    between atoms: N_16  and  CA_17 
REMARK    3  A    between atoms: CA_17  and  C_18 
REMARK    4  A    between atoms: CA_17  and  CB_20 
REMARK    5  A    between atoms: C_18  and  O_19 
REMARK    6  A    between atoms: CB_20  and  CG_21 
ROOT
HETATM    1  N   UNK A   0      -5.278   2.749 -31.942  1.00  0.00    -0.307 N 
HETATM    2  C   UNK A   0      -4.585   3.896 -32.142  1.00  0.00     0.321 C 
HETATM    3  O   UNK A   0      -4.747   4.844 -31.374  1.00  0.00    -0.247 OA
HETATM    4  H   UNK A   0      -5.757   2.739 -31.043  1.00  0.00     0.170 HD
ATOM      5  N   TRP A   1      -3.702   3.937 -33.175  1.00  0.00    -0.336 N 
ATOM      6  H   TRP A   1      -3.260   3.054 -33.394  1.00  0.00     0.164 HD
ENDROOT
BRANCH   5   7
ATOM      7  CA  TRP A   1      -2.843   5.108 -33.394  1.00  0.00     0.114 C 
BRANCH   7   8
ATOM      8  C   TRP A   1      -2.552   5.241 -34.898  1.00  0.00     0.189 C 
BRANCH   8   9
ATOM      9  O   TRP A   1      -3.740   5.577 -35.618  1.00  0.00    -0.399 OA
ATOM     10  H   TRP A   1      -4.058   6.417 -35.243  1.00  0.00     0.209 HD
ENDBRANCH   8   9
ENDBRANCH   7   8
BRANCH   7  11
ATOM     11  CB  TRP A   1      -1.555   5.000 -32.550  1.00  0.00     0.068 C 
BRANCH  11  12
ATOM     12  CG  TRP A   1      -1.345   6.165 -31.629  1.00  0.00    -0.028 A 
ATOM     13  CD2 TRP A   1      -0.568   6.196 -30.426  1.00  0.00    -0.002 A 
ATOM     14  CE2 TRP A   1      -0.676   7.481 -29.893  1.00  0.00     0.042 A 
ATOM     15  CE3 TRP A   1       0.216   5.247 -29.738  1.00  0.00     0.014 A 
ATOM     16  CZ2 TRP A   1      -0.042   7.866 -28.705  1.00  0.00     0.030 A 
ATOM     17  NE1 TRP A   1      -1.488   8.203 -30.736  1.00  0.00    -0.365 N 
ATOM     18  CH2 TRP A   1       0.729   6.906 -28.043  1.00  0.00     0.002 A 
ATOM     19  CZ3 TRP A   1       0.858   5.615 -28.550  1.00  0.00     0.001 A 
ATOM     20  HE1 TRP A   1      -1.750   9.168 -30.593  1.00  0.00     0.165 HD
ATOM     21  CD1 TRP A   1      -1.894   7.423 -31.783  1.00  0.00     0.096 A 
ENDBRANCH  11  12
ENDBRANCH   7  11
ENDBRANCH   5   7
BRANCH   1  22
HETATM   22  C   UNK A   0      -5.504   1.574 -32.696  1.00  0.00     0.066 A 
HETATM   23  C   UNK A   0      -6.550   1.421 -33.614  1.00  0.00     0.038 A 
HETATM   24  C   UNK A   0      -6.700   0.227 -34.331  1.00  0.00    -0.059 A 
HETATM   25  C   UNK A   0      -7.829   0.054 -35.305  1.00  0.00     0.048 C 
HETATM   26  C   UNK A   0      -5.821  -0.830 -34.081  1.00  0.00     0.020 A 
HETATM   27  C   UNK A   0      -4.796  -0.700 -33.133  1.00  0.00    -0.005 A 
HETATM   28  C   UNK A   0      -4.627   0.508 -32.426  1.00  0.00     0.093 A 
HETATM   29  C   UNK A   0      -3.920  -1.760 -32.857  1.00  0.00     0.015 A 
HETATM   30  N   UNK A   0      -3.646   0.654 -31.500  1.00  0.00    -0.258 NA
HETATM   31  C   UNK A   0      -2.824  -0.390 -31.262  1.00  0.00     0.117 A 
HETATM   32  C   UNK A   0      -2.919  -1.606 -31.907  1.00  0.00     0.020 A 
ENDBRANCH   1  22
TORSDOF 6
ENDMDL
MODEL 4
REMARK VINA RESULT:      -9.0      2.184      8.741
REMARK  6 active torsions:
REMARK  status: ('A' for Active; 'I' for Inactive)
REMARK    1  A    between atoms: C_4  and  N_5 
REMARK       I    between atoms: N_5  and  C_6 
REMARK       I    between atoms: C_6  and  N_16 
REMARK    2  A    between atoms: N_16  and  CA_17 
REMARK    3  A    between atoms: CA_17  and  C_18 
REMARK    4  A    between atoms: CA_17  and  CB_20 
REMARK    5  A    between atoms: C_18  and  O_19 
REMARK    6  A    between atoms: CB_20  and  CG_21 
ROOT
HETATM    1  N   UNK A   0      -5.265   5.503 -31.625  1.00  0.00    -0.307 N 
HETATM    2  C   UNK A   0      -5.907   4.313 -31.531  1.00  0.00     0.321 C 
HETATM    3  O   UNK A   0      -7.137   4.288 -31.518  1.00  0.00    -0.247 OA
HETATM    4  H   UNK A   0      -5.901   6.268 -31.848  1.00  0.00     0.170 HD
ATOM      5  N   TRP A   1      -5.154   3.183 -31.490  1.00  0.00    -0.336 N 
ATOM      6  H   TRP A   1      -4.285   3.230 -32.005  1.00  0.00     0.164 HD
ENDROOT
BRANCH   5   7
ATOM      7  CA  TRP A   1      -5.779   1.853 -31.489  1.00  0.00     0.114 C 
BRANCH   7   8
ATOM      8  C   TRP A   1      -5.788   1.306 -30.053  1.00  0.00     0.189 C 
BRANCH   8   9
ATOM      9  O   TRP A   1      -6.735   2.011 -29.245  1.00  0.00    -0.399 OA
ATOM     10  H   TRP A   1      -6.404   2.923 -29.172  1.00  0.00     0.209 HD
ENDBRANCH   8   9
ENDBRANCH   7   8
BRANCH   7  11
ATOM     11  CB  TRP A   1      -5.053   0.914 -32.475  1.00  0.00     0.068 C 
BRANCH  11  12
ATOM     12  CG  TRP A   1      -5.956  -0.105 -33.105  1.00  0.00    -0.028 A 
ATOM     13  CD2 TRP A   1      -5.589  -1.378 -33.648  1.00  0.00    -0.002 A 
ATOM     14  CE2 TRP A   1      -6.751  -1.972 -34.141  1.00  0.00     0.042 A 
ATOM     15  CE3 TRP A   1      -4.372  -2.081 -33.771  1.00  0.00     0.014 A 
ATOM     16  CZ2 TRP A   1      -6.760  -3.232 -34.752  1.00  0.00     0.030 A 
ATOM     17  NE1 TRP A   1      -7.785  -1.095 -33.908  1.00  0.00    -0.365 N 
ATOM     18  CH2 TRP A   1      -5.540  -3.907 -34.860  1.00  0.00     0.002 A 
ATOM     19  CZ3 TRP A   1      -4.363  -3.342 -34.377  1.00  0.00     0.001 A 
ATOM     20  HE1 TRP A   1      -8.747  -1.260 -34.170  1.00  0.00     0.165 HD
ATOM     21  CD1 TRP A   1      -7.319   0.028 -33.285  1.00  0.00     0.096 A 
ENDBRANCH  11  12
ENDBRANCH   7  11
ENDBRANCH   5   7
BRANCH   1  22
HETATM   22  C   UNK A   0      -3.926   5.931 -31.467  1.00  0.00     0.066 A 
HETATM   23  C   UNK A   0      -3.416   6.494 -30.292  1.00  0.00     0.038 A 
HETATM   24  C   UNK A   0      -2.073   6.884 -30.212  1.00  0.00    -0.059 A 
HETATM   25  C   UNK A   0      -1.527   7.501 -28.958  1.00  0.00     0.048 C 
HETATM   26  C   UNK A   0      -1.260   6.749 -31.340  1.00  0.00     0.020 A 
HETATM   27  C   UNK A   0      -1.773   6.224 -32.535  1.00  0.00    -0.005 A 
HETATM   28  C   UNK A   0      -3.119   5.809 -32.612  1.00  0.00     0.093 A 
HETATM   29  C   UNK A   0      -0.973   6.104 -33.681  1.00  0.00     0.015 A 
HETATM   30  N   UNK A   0      -3.637   5.305 -33.759  1.00  0.00    -0.258 NA
HETATM   31  C   UNK A   0      -2.836   5.206 -34.841  1.00  0.00     0.117 A 
HETATM   32  C   UNK A   0      -1.510   5.588 -34.853  1.00  0.00     0.020 A 
ENDBRANCH   1  22
TORSDOF 6
ENDMDL
MODEL 5
REMARK VINA RESULT:      -9.0      2.627      3.847
REMARK  6 active torsions:
REMARK  status: ('A' for Active; 'I' for Inactive)
REMARK    1  A    between atoms: C_4  and  N_5 
REMARK       I    between atoms: N_5  and  C_6 
REMARK       I    between atoms: C_6  and  N_16 
REMARK    2  A    between atoms: N_16  and  CA_17 
REMARK    3  A    between atoms: CA_17  and  C_18 
REMARK    4  A    between atoms: CA_17  and  CB_20 
REMARK    5  A    between atoms: C_18  and  O_19 
REMARK    6  A    between atoms: CB_20  and  CG_21 
ROOT
HETATM    1  N   UNK A   0      -7.433   0.476 -32.157  1.00  0.00    -0.307 N 
HETATM    2  C   UNK A   0      -7.663   1.793 -32.375  1.00  0.00     0.321 C 
HETATM    3  O   UNK A   0      -8.602   2.347 -31.804  1.00  0.00    -0.247 OA
HETATM    4  H   UNK A   0      -7.987   0.109 -31.384  1.00  0.00     0.170 HD
ATOM      5  N   TRP A   1      -6.814   2.462 -33.200  1.00  0.00    -0.336 N 
ATOM      6  H   TRP A   1      -5.860   2.128 -33.192  1.00  0.00     0.164 HD
ENDROOT
BRANCH   5   7
ATOM      7  CA  TRP A   1      -6.940   3.911 -33.405  1.00  0.00     0.114 C 
BRANCH   7   8
ATOM      8  C   TRP A   1      -8.289   4.205 -34.081  1.00  0.00     0.189 C 
BRANCH   8   9
ATOM      9  O   TRP A   1      -8.399   5.590 -34.419  1.00  0.00    -0.399 OA
ATOM     10  H   TRP A   1      -7.773   5.743 -35.148  1.00  0.00     0.209 HD
ENDBRANCH   8   9
ENDBRANCH   7   8
BRANCH   7  11
ATOM     11  CB  TRP A   1      -5.742   4.448 -34.217  1.00  0.00     0.068 C 
BRANCH  11  12
ATOM     12  CG  TRP A   1      -4.920   5.457 -33.472  1.00  0.00    -0.028 A 
ATOM     13  CD2 TRP A   1      -3.541   5.784 -33.683  1.00  0.00    -0.002 A 
ATOM     14  CE2 TRP A   1      -3.197   6.760 -32.747  1.00  0.00     0.042 A 
ATOM     15  CE3 TRP A   1      -2.551   5.338 -34.582  1.00  0.00     0.014 A 
ATOM     16  CZ2 TRP A   1      -1.912   7.312 -32.663  1.00  0.00     0.030 A 
ATOM     17  NE1 TRP A   1      -4.320   7.016 -31.996  1.00  0.00    -0.365 N 
ATOM     18  CH2 TRP A   1      -0.950   6.851 -33.566  1.00  0.00     0.002 A 
ATOM     19  CZ3 TRP A   1      -1.262   5.879 -34.513  1.00  0.00     0.001 A 
ATOM     20  HE1 TRP A   1      -4.361   7.677 -31.232  1.00  0.00     0.165 HD
ATOM     21  CD1 TRP A   1      -5.361   6.240 -32.423  1.00  0.00     0.096 A 
ENDBRANCH  11  12
ENDBRANCH   7  11
ENDBRANCH   5   7
BRANCH   1  22
HETATM   22  C   UNK A   0      -6.618  -0.509 -32.762  1.00  0.00     0.066 A 
HETATM   23  C   UNK A   0      -7.083  -1.452 -33.687  1.00  0.00     0.038 A 
HETATM   24  C   UNK A   0      -6.209  -2.390 -34.250  1.00  0.00    -0.059 A 
HETATM   25  C   UNK A   0      -6.708  -3.412 -35.230  1.00  0.00     0.048 C 
HETATM   26  C   UNK A   0      -4.874  -2.406 -33.839  1.00  0.00     0.020 A 
HETATM   27  C   UNK A   0      -4.408  -1.492 -32.883  1.00  0.00    -0.005 A 
HETATM   28  C   UNK A   0      -5.280  -0.531 -32.330  1.00  0.00     0.093 A 
HETATM   29  C   UNK A   0      -3.075  -1.510 -32.446  1.00  0.00     0.015 A 
HETATM   30  N   UNK A   0      -4.852   0.358 -31.400  1.00  0.00    -0.258 NA
HETATM   31  C   UNK A   0      -3.562   0.308 -31.004  1.00  0.00     0.117 A 
HETATM   32  C   UNK A   0      -2.644  -0.599 -31.492  1.00  0.00     0.020 A 
ENDBRANCH   1  22
TORSDOF 6
ENDMDL
MODEL 6
REMARK VINA RESULT:      -8.9      1.924      9.027
REMARK  6 active torsions:
REMARK  status: ('A' for Active; 'I' for Inactive)
REMARK    1  A    between atoms: C_4  and  N_5 
REMARK       I    between atoms: N_5  and  C_6 
REMARK       I    between atoms: C_6  and  N_16 
REMARK    2  A    between atoms: N_16  and  CA_17 
REMARK    3  A    between atoms: CA_17  and  C_18 
REMARK    4  A    between atoms: CA_17  and  CB_20 
REMARK    5  A    between atoms: C_18  and  O_19 
REMARK    6  A    between atoms: CB_20  and  CG_21 
ROOT
HETATM    1  N   UNK A   0      -4.939   4.904 -31.729  1.00  0.00    -0.307 N 
HETATM    2  C   UNK A   0      -5.459   3.688 -31.434  1.00  0.00     0.321 C 
HETATM    3  O   UNK A   0      -6.559   3.616 -30.887  1.00  0.00    -0.247 OA
HETATM    4  H   UNK A   0      -5.618   5.655 -31.608  1.00  0.00     0.170 HD
ATOM      5  N   TRP A   1      -4.750   2.586 -31.794  1.00  0.00    -0.336 N 
ATOM      6  H   TRP A   1      -4.195   2.690 -32.633  1.00  0.00     0.164 HD
ENDROOT
BRANCH   5   7
ATOM      7  CA  TRP A   1      -5.294   1.235 -31.598  1.00  0.00     0.114 C 
BRANCH   7   8
ATOM      8  C   TRP A   1      -5.069   0.813 -30.137  1.00  0.00     0.189 C 
BRANCH   8   9
ATOM      9  O   TRP A   1      -6.259   0.998 -29.365  1.00  0.00    -0.399 OA
ATOM     10  H   TRP A   1      -6.118   1.804 -28.838  1.00  0.00     0.209 HD
ENDBRANCH   8   9
ENDBRANCH   7   8
BRANCH   7  11
ATOM     11  CB  TRP A   1      -4.664   0.248 -32.603  1.00  0.00     0.068 C 
BRANCH  11  12
ATOM     12  CG  TRP A   1      -5.665  -0.654 -33.261  1.00  0.00    -0.028 A 
ATOM     13  CD2 TRP A   1      -5.450  -1.982 -33.754  1.00  0.00    -0.002 A 
ATOM     14  CE2 TRP A   1      -6.655  -2.424 -34.300  1.00  0.00     0.042 A 
ATOM     15  CE3 TRP A   1      -4.339  -2.849 -33.791  1.00  0.00     0.014 A 
ATOM     16  CZ2 TRP A   1      -6.806  -3.688 -34.883  1.00  0.00     0.030 A 
ATOM     17  NE1 TRP A   1      -7.567  -1.406 -34.147  1.00  0.00    -0.365 N 
ATOM     18  CH2 TRP A   1      -5.689  -4.528 -34.905  1.00  0.00     0.002 A 
ATOM     19  CZ3 TRP A   1      -4.472  -4.117 -34.368  1.00  0.00     0.001 A 
ATOM     20  HE1 TRP A   1      -8.527  -1.444 -34.461  1.00  0.00     0.165 HD
ATOM     21  CD1 TRP A   1      -6.984  -0.340 -33.523  1.00  0.00     0.096 A 
ENDBRANCH  11  12
ENDBRANCH   7  11
ENDBRANCH   5   7
BRANCH   1  22
HETATM   22  C   UNK A   0      -3.673   5.374 -32.148  1.00  0.00     0.066 A 
HETATM   23  C   UNK A   0      -3.088   5.059 -33.381  1.00  0.00     0.038 A 
HETATM   24  C   UNK A   0      -1.832   5.573 -33.727  1.00  0.00    -0.059 A 
HETATM   25  C   UNK A   0      -1.196   5.226 -35.041  1.00  0.00     0.048 C 
HETATM   26  C   UNK A   0      -1.146   6.366 -32.803  1.00  0.00     0.020 A 
HETATM   27  C   UNK A   0      -1.705   6.652 -31.549  1.00  0.00    -0.005 A 
HETATM   28  C   UNK A   0      -2.980   6.155 -31.206  1.00  0.00     0.093 A 
HETATM   29  C   UNK A   0      -1.018   7.428 -30.604  1.00  0.00     0.015 A 
HETATM   30  N   UNK A   0      -3.537   6.415 -29.997  1.00  0.00    -0.258 NA
HETATM   31  C   UNK A   0      -2.843   7.164 -29.115  1.00  0.00     0.117 A 
HETATM   32  C   UNK A   0      -1.593   7.689 -29.368  1.00  0.00     0.020 A 
ENDBRANCH   1  22
TORSDOF 6
ENDMDL
MODEL 7
REMARK VINA RESULT:      -8.9      4.354      7.176
REMARK  6 active torsions:
REMARK  status: ('A' for Active; 'I' for Inactive)
REMARK    1  A    between atoms: C_4  and  N_5 
REMARK       I    between atoms: N_5  and  C_6 
REMARK       I    between atoms: C_6  and  N_16 
REMARK    2  A    between atoms: N_16  and  CA_17 
REMARK    3  A    between atoms: CA_17  and  C_18 
REMARK    4  A    between atoms: CA_17  and  CB_20 
REMARK    5  A    between atoms: C_18  and  O_19 
REMARK    6  A    between atoms: CB_20  and  CG_21 
ROOT
HETATM    1  N   UNK A   0      -6.418   0.518 -34.580  1.00  0.00    -0.307 N 
HETATM    2  C   UNK A   0      -6.823   1.518 -33.760  1.00  0.00     0.321 C 
HETATM    3  O   UNK A   0      -6.985   2.649 -34.218  1.00  0.00    -0.247 OA
HETATM    4  H   UNK A   0      -6.451   0.787 -35.563  1.00  0.00     0.170 HD
ATOM      5  N   TRP A   1      -7.070   1.216 -32.458  1.00  0.00    -0.336 N 
ATOM      6  H   TRP A   1      -7.416   0.280 -32.295  1.00  0.00     0.164 HD
ENDROOT
BRANCH   5   7
ATOM      7  CA  TRP A   1      -7.607   2.223 -31.533  1.00  0.00     0.114 C 
BRANCH   7   8
ATOM      8  C   TRP A   1      -6.859   2.122 -30.194  1.00  0.00     0.189 C 
BRANCH   8   9
ATOM      9  O   TRP A   1      -7.462   2.964 -29.209  1.00  0.00    -0.399 OA
ATOM     10  H   TRP A   1      -8.137   3.489 -29.675  1.00  0.00     0.209 HD
ENDBRANCH   8   9
ENDBRANCH   7   8
BRANCH   7  11
ATOM     11  CB  TRP A   1      -9.132   2.052 -31.374  1.00  0.00     0.068 C 
BRANCH  11  12
ATOM     12  CG  TRP A   1      -9.931   2.896 -32.322  1.00  0.00    -0.028 A 
ATOM     13  CD2 TRP A   1     -10.916   2.455 -33.263  1.00  0.00    -0.002 A 
ATOM     14  CE2 TRP A   1     -11.380   3.583 -33.941  1.00  0.00     0.042 A 
ATOM     15  CE3 TRP A   1     -11.456   1.198 -33.605  1.00  0.00     0.014 A 
ATOM     16  CZ2 TRP A   1     -12.354   3.519 -34.945  1.00  0.00     0.030 A 
ATOM     17  NE1 TRP A   1     -10.703   4.667 -33.434  1.00  0.00    -0.365 N 
ATOM     18  CH2 TRP A   1     -12.872   2.261 -35.264  1.00  0.00     0.002 A 
ATOM     19  CZ3 TRP A   1     -12.432   1.116 -34.605  1.00  0.00     0.001 A 
ATOM     20  HE1 TRP A   1     -10.829   5.620 -33.746  1.00  0.00     0.165 HD
ATOM     21  CD1 TRP A   1      -9.831   4.267 -32.460  1.00  0.00     0.096 A 
ENDBRANCH  11  12
ENDBRANCH   7  11
ENDBRANCH   5   7
BRANCH   1  22
HETATM   22  C   UNK A   0      -5.946  -0.801 -34.388  1.00  0.00     0.066 A 
HETATM   23  C   UNK A   0      -6.533  -1.936 -34.962  1.00  0.00     0.038 A 
HETATM   24  C   UNK A   0      -5.998  -3.209 -34.731  1.00  0.00    -0.059 A 
HETATM   25  C   UNK A   0      -6.634  -4.428 -35.332  1.00  0.00     0.048 C 
HETATM   26  C   UNK A   0      -4.899  -3.339 -33.879  1.00  0.00     0.020 A 
HETATM   27  C   UNK A   0      -4.329  -2.213 -33.267  1.00  0.00    -0.005 A 
HETATM   28  C   UNK A   0      -4.851  -0.926 -33.515  1.00  0.00     0.093 A 
HETATM   29  C   UNK A   0      -3.239  -2.332 -32.392  1.00  0.00     0.015 A 
HETATM   30  N   UNK A   0      -4.320   0.176 -32.929  1.00  0.00    -0.258 NA
HETATM   31  C   UNK A   0      -3.272   0.020 -32.092  1.00  0.00     0.117 A 
HETATM   32  C   UNK A   0      -2.701  -1.200 -31.794  1.00  0.00     0.020 A 
ENDBRANCH   1  22
TORSDOF 6
ENDMDL
MODEL 8
REMARK VINA RESULT:      -8.8      4.919      8.879
REMARK  6 active torsions:
REMARK  status: ('A' for Active; 'I' for Inactive)
REMARK    1  A    between atoms: C_4  and  N_5 
REMARK       I    between atoms: N_5  and  C_6 
REMARK       I    between atoms: C_6  and  N_16 
REMARK    2  A    between atoms: N_16  and  CA_17 
REMARK    3  A    between atoms: CA_17  and  C_18 
REMARK    4  A    between atoms: CA_17  and  CB_20 
REMARK    5  A    between atoms: C_18  and  O_19 
REMARK    6  A    between atoms: CB_20  and  CG_21 
ROOT
HETATM    1  N   UNK A   0     -10.050   1.897 -34.603  1.00  0.00    -0.307 N 
HETATM    2  C   UNK A   0      -9.032   1.088 -34.222  1.00  0.00     0.321 C 
HETATM    3  O   UNK A   0      -8.546   0.302 -35.034  1.00  0.00    -0.247 OA
HETATM    4  H   UNK A   0     -10.200   1.881 -35.611  1.00  0.00     0.170 HD
ATOM      5  N   TRP A   1      -8.563   1.206 -32.951  1.00  0.00    -0.336 N 
ATOM      6  H   TRP A   1      -8.620   2.137 -32.561  1.00  0.00     0.164 HD
ENDROOT
BRANCH   5   7
ATOM      7  CA  TRP A   1      -7.398   0.435 -32.497  1.00  0.00     0.114 C 
BRANCH   7   8
ATOM      8  C   TRP A   1      -7.017   0.894 -31.080  1.00  0.00     0.189 C 
BRANCH   8   9
ATOM      9  O   TRP A   1      -6.820  -0.229 -30.217  1.00  0.00    -0.399 OA
ATOM     10  H   TRP A   1      -7.704  -0.492 -29.907  1.00  0.00     0.209 HD
ENDBRANCH   8   9
ENDBRANCH   7   8
BRANCH   7  11
ATOM     11  CB  TRP A   1      -6.232   0.576 -33.498  1.00  0.00     0.068 C 
BRANCH  11  12
ATOM     12  CG  TRP A   1      -5.312  -0.608 -33.513  1.00  0.00    -0.028 A 
ATOM     13  CD2 TRP A   1      -5.593  -1.925 -34.003  1.00  0.00    -0.002 A 
ATOM     14  CE2 TRP A   1      -4.451  -2.699 -33.796  1.00  0.00     0.042 A 
ATOM     15  CE3 TRP A   1      -6.717  -2.532 -34.601  1.00  0.00     0.014 A 
ATOM     16  CZ2 TRP A   1      -4.376  -4.051 -34.154  1.00  0.00     0.030 A 
ATOM     17  NE1 TRP A   1      -3.513  -1.888 -33.203  1.00  0.00    -0.365 N 
ATOM     18  CH2 TRP A   1      -5.503  -4.628 -34.745  1.00  0.00     0.002 A 
ATOM     19  CZ3 TRP A   1      -6.658  -3.881 -34.967  1.00  0.00     0.001 A 
ATOM     20  HE1 TRP A   1      -2.588  -2.187 -32.927  1.00  0.00     0.165 HD
ATOM     21  CD1 TRP A   1      -4.019  -0.630 -33.030  1.00  0.00     0.096 A 
ENDBRANCH  11  12
ENDBRANCH   7  11
ENDBRANCH   5   7
BRANCH   1  22
HETATM   22  C   UNK A   0     -10.960   2.742 -33.927  1.00  0.00     0.066 A 
HETATM   23  C   UNK A   0     -10.640   4.020 -33.451  1.00  0.00     0.038 A 
HETATM   24  C   UNK A   0     -11.602   4.800 -32.799  1.00  0.00    -0.059 A 
HETATM   25  C   UNK A   0     -11.258   6.164 -32.275  1.00  0.00     0.048 C 
HETATM   26  C   UNK A   0     -12.876   4.268 -32.585  1.00  0.00     0.020 A 
HETATM   27  C   UNK A   0     -13.195   2.973 -33.021  1.00  0.00    -0.005 A 
HETATM   28  C   UNK A   0     -12.234   2.192 -33.698  1.00  0.00     0.093 A 
HETATM   29  C   UNK A   0     -14.462   2.418 -32.793  1.00  0.00     0.015 A 
HETATM   30  N   UNK A   0     -12.518   0.936 -34.123  1.00  0.00    -0.258 NA
HETATM   31  C   UNK A   0     -13.749   0.437 -33.884  1.00  0.00     0.117 A 
HETATM   32  C   UNK A   0     -14.746   1.131 -33.229  1.00  0.00     0.020 A 
ENDBRANCH   1  22
TORSDOF 6
ENDMDL
MODEL 9
REMARK VINA RESULT:      -8.8      3.039      4.413
REMARK  6 active torsions:
REMARK  status: ('A' for Active; 'I' for Inactive)
REMARK    1  A    between atoms: C_4  and  N_5 
REMARK       I    between atoms: N_5  and  C_6 
REMARK       I    between atoms: C_6  and  N_16 
REMARK    2  A    between atoms: N_16  and  CA_17 
REMARK    3  A    between atoms: CA_17  and  C_18 
REMARK    4  A    between atoms: CA_17  and  CB_20 
REMARK    5  A    between atoms: C_18  and  O_19 
REMARK    6  A    between atoms: CB_20  and  CG_21 
ROOT
HETATM    1  N   UNK A   0      -7.565   0.167 -31.893  1.00  0.00    -0.307 N 
HETATM    2  C   UNK A   0      -8.223   1.340 -32.061  1.00  0.00     0.321 C 
HETATM    3  O   UNK A   0      -9.451   1.363 -31.983  1.00  0.00    -0.247 OA
HETATM    4  H   UNK A   0      -8.175  -0.571 -31.544  1.00  0.00     0.170 HD
ATOM      5  N   TRP A   1      -7.484   2.461 -32.276  1.00  0.00    -0.336 N 
ATOM      6  H   TRP A   1      -6.579   2.468 -31.827  1.00  0.00     0.164 HD
ENDROOT
BRANCH   5   7
ATOM      7  CA  TRP A   1      -8.119   3.783 -32.367  1.00  0.00     0.114 C 
BRANCH   7   8
ATOM      8  C   TRP A   1      -8.358   4.121 -33.848  1.00  0.00     0.189 C 
BRANCH   8   9
ATOM      9  O   TRP A   1      -9.498   3.422 -34.353  1.00  0.00    -0.399 OA
ATOM     10  H   TRP A   1     -10.218   4.075 -34.403  1.00  0.00     0.209 HD
ENDBRANCH   8   9
ENDBRANCH   7   8
BRANCH   7  11
ATOM     11  CB  TRP A   1      -7.261   4.845 -31.648  1.00  0.00     0.068 C 
BRANCH  11  12
ATOM     12  CG  TRP A   1      -5.802   4.502 -31.600  1.00  0.00    -0.028 A 
ATOM     13  CD2 TRP A   1      -4.833   4.666 -32.642  1.00  0.00    -0.002 A 
ATOM     14  CE2 TRP A   1      -3.614   4.195 -32.155  1.00  0.00     0.042 A 
ATOM     15  CE3 TRP A   1      -4.881   5.170 -33.958  1.00  0.00     0.014 A 
ATOM     16  CZ2 TRP A   1      -2.439   4.200 -32.918  1.00  0.00     0.030 A 
ATOM     17  NE1 TRP A   1      -3.831   3.760 -30.869  1.00  0.00    -0.365 N 
ATOM     18  CH2 TRP A   1      -2.515   4.704 -34.219  1.00  0.00     0.002 A 
ATOM     19  CZ3 TRP A   1      -3.716   5.183 -34.734  1.00  0.00     0.001 A 
ATOM     20  HE1 TRP A   1      -3.122   3.357 -30.272  1.00  0.00     0.165 HD
ATOM     21  CD1 TRP A   1      -5.141   3.941 -30.525  1.00  0.00     0.096 A 
ENDBRANCH  11  12
ENDBRANCH   7  11
ENDBRANCH   5   7
BRANCH   1  22
HETATM   22  C   UNK A   0      -6.238  -0.274 -32.107  1.00  0.00     0.066 A 
HETATM   23  C   UNK A   0      -5.123   0.242 -31.436  1.00  0.00     0.038 A 
HETATM   24  C   UNK A   0      -3.841  -0.256 -31.697  1.00  0.00    -0.059 A 
HETATM   25  C   UNK A   0      -2.641   0.305 -30.990  1.00  0.00     0.048 C 
HETATM   26  C   UNK A   0      -3.681  -1.241 -32.674  1.00  0.00     0.020 A 
HETATM   27  C   UNK A   0      -4.788  -1.735 -33.382  1.00  0.00    -0.005 A 
HETATM   28  C   UNK A   0      -6.084  -1.252 -33.105  1.00  0.00     0.093 A 
HETATM   29  C   UNK A   0      -4.639  -2.709 -34.380  1.00  0.00     0.015 A 
HETATM   30  N   UNK A   0      -7.166  -1.711 -33.781  1.00  0.00    -0.258 NA
HETATM   31  C   UNK A   0      -6.982  -2.647 -34.736  1.00  0.00     0.117 A 
HETATM   32  C   UNK A   0      -5.751  -3.173 -35.070  1.00  0.00     0.020 A 
ENDBRANCH   1  22
TORSDOF 6
ENDMDL
MODEL 10
REMARK VINA RESULT:      -8.7      1.914      8.927
REMARK  6 active torsions:
REMARK  status: ('A' for Active; 'I' for Inactive)
REMARK    1  A    between atoms: C_4  and  N_5 
REMARK       I    between atoms: N_5  and  C_6 
REMARK       I    between atoms: C_6  and  N_16 
REMARK    2  A    between atoms: N_16  and  CA_17 
REMARK    3  A    between atoms: CA_17  and  C_18 
REMARK    4  A    between atoms: CA_17  and  CB_20 
REMARK    5  A    between atoms: C_18  and  O_19 
REMARK    6  A    between atoms: CB_20  and  CG_21 
ROOT
HETATM    1  N   UNK A   0      -1.474   5.771 -32.808  1.00  0.00    -0.307 N 
HETATM    2  C   UNK A   0      -2.303   4.782 -33.220  1.00  0.00     0.321 C 
HETATM    3  O   UNK A   0      -2.165   4.304 -34.346  1.00  0.00    -0.247 OA
HETATM    4  H   UNK A   0      -0.688   5.905 -33.443  1.00  0.00     0.170 HD
ATOM      5  N   TRP A   1      -3.241   4.330 -32.346  1.00  0.00    -0.336 N 
ATOM      6  H   TRP A   1      -2.971   4.367 -31.373  1.00  0.00     0.164 HD
ENDROOT
BRANCH   5   7
ATOM      7  CA  TRP A   1      -4.109   3.193 -32.684  1.00  0.00     0.114 C 
BRANCH   7   8
ATOM      8  C   TRP A   1      -5.452   3.728 -33.208  1.00  0.00     0.189 C 
BRANCH   8   9
ATOM      9  O   TRP A   1      -5.938   4.785 -32.378  1.00  0.00    -0.399 OA
ATOM     10  H   TRP A   1      -5.235   5.457 -32.353  1.00  0.00     0.209 HD
ENDBRANCH   8   9
ENDBRANCH   7   8
BRANCH   7  11
ATOM     11  CB  TRP A   1      -4.278   2.261 -31.466  1.00  0.00     0.068 C 
BRANCH  11  12
ATOM     12  CG  TRP A   1      -3.908   0.836 -31.749  1.00  0.00    -0.028 A 
ATOM     13  CD2 TRP A   1      -4.537  -0.062 -32.671  1.00  0.00    -0.002 A 
ATOM     14  CE2 TRP A   1      -3.870  -1.284 -32.583  1.00  0.00     0.042 A 
ATOM     15  CE3 TRP A   1      -5.617   0.051 -33.571  1.00  0.00     0.014 A 
ATOM     16  CZ2 TRP A   1      -4.228  -2.401 -33.349  1.00  0.00     0.030 A 
ATOM     17  NE1 TRP A   1      -2.876  -1.138 -31.645  1.00  0.00    -0.365 N 
ATOM     18  CH2 TRP A   1      -5.302  -2.262 -34.233  1.00  0.00     0.002 A 
ATOM     19  CZ3 TRP A   1      -5.987  -1.055 -34.345  1.00  0.00     0.001 A 
ATOM     20  HE1 TRP A   1      -2.236  -1.869 -31.367  1.00  0.00     0.165 HD
ATOM     21  CD1 TRP A   1      -2.888   0.132 -31.139  1.00  0.00     0.096 A 
ENDBRANCH  11  12
ENDBRANCH   7  11
ENDBRANCH   5   7
BRANCH   1  22
HETATM   22  C   UNK A   0      -1.456   6.669 -31.716  1.00  0.00     0.066 A 
HETATM   23  C   UNK A   0      -2.120   7.902 -31.703  1.00  0.00     0.038 A 
HETATM   24  C   UNK A   0      -2.061   8.731 -30.576  1.00  0.00    -0.059 A 
HETATM   25  C   UNK A   0      -2.759  10.060 -30.565  1.00  0.00     0.048 C 
HETATM   26  C   UNK A   0      -1.289   8.335 -29.481  1.00  0.00     0.020 A 
HETATM   27  C   UNK A   0      -0.587   7.121 -29.501  1.00  0.00    -0.005 A 
HETATM   28  C   UNK A   0      -0.662   6.272 -30.625  1.00  0.00     0.093 A 
HETATM   29  C   UNK A   0       0.209   6.721 -28.417  1.00  0.00     0.015 A 
HETATM   30  N   UNK A   0       0.014   5.097 -30.668  1.00  0.00    -0.258 NA
HETATM   31  C   UNK A   0       0.770   4.748 -29.606  1.00  0.00     0.117 A 
HETATM   32  C   UNK A   0       0.899   5.518 -28.468  1.00  0.00     0.020 A 
ENDBRANCH   1  22
TORSDOF 6
ENDMDL
