MODEL 1
REMARK VINA RESULT:      -8.0      0.000      0.000
REMARK  3 active torsions:
REMARK  status: ('A' for Active; 'I' for Inactive)
REMARK    1  A    between atoms: C_7  and  N_8 
REMARK    2  A    between atoms: N_8  and  C_9 
REMARK    3  A    between atoms: C_9  and  C_10 
ROOT
HETATM    1  C   UNL     1      -4.457  -0.464 -32.190  1.00  0.00    -0.041 A 
HETATM    2  C   UNL     1      -5.825  -0.180 -32.297  1.00  0.00     0.035 A 
HETATM    3  C   UNL     1      -6.631  -0.899 -33.186  1.00  0.00     0.070 A 
HETATM    4 CL   UNL     1      -8.306  -0.489 -33.287  1.00  0.00    -0.081 Cl
HETATM    5  C   UNL     1      -6.088  -1.935 -33.953  1.00  0.00     0.123 A 
HETATM    6  C   UNL     1      -4.726  -2.230 -33.837  1.00  0.00     0.104 A 
HETATM    7  O   UNL     1      -4.100  -3.171 -34.611  1.00  0.00    -0.348 OA
HETATM    8  C   UNL     1      -4.593  -4.488 -34.360  1.00  0.00     0.178 C 
HETATM    9  C   UNL     1      -5.876  -4.774 -35.128  1.00  0.00     0.053 C 
HETATM   10  C   UNL     1      -7.037  -3.956 -34.585  1.00  0.00     0.178 C 
HETATM   11  O   UNL     1      -6.882  -2.568 -34.875  1.00  0.00    -0.346 OA
HETATM   12  C   UNL     1      -3.914  -1.493 -32.973  1.00  0.00     0.048 A 
ENDROOT
BRANCH   1  13
HETATM   13  C   UNL     1      -3.582   0.303 -31.225  1.00  0.00     0.132 C 
BRANCH  13  14
HETATM   14  N   UNL     1      -4.219   1.575 -30.933  1.00  0.00    -0.272 NA
HETATM   15  H   UNL     1      -5.231   1.559 -30.971  1.00  0.00     0.129 HD
BRANCH  14  16
HETATM   16  C   UNL     1      -3.679   2.684 -31.583  1.00  0.00     0.117 A 
HETATM   17  C   UNL     1      -4.362   3.333 -32.634  1.00  0.00     0.040 A 
HETATM   18  C   UNL     1      -5.637   3.107 -33.262  1.00  0.00     0.025 A 
HETATM   19  C   UNL     1      -3.720   4.419 -33.208  1.00  0.00     0.112 A 
HETATM   20  C   UNL     1      -5.897   4.007 -34.272  1.00  0.00     0.053 A 
HETATM   21  S   UNL     1      -4.620   5.126 -34.472  1.00  0.00    -0.081 SA
HETATM   22  N   UNL     1      -2.522   4.915 -32.858  1.00  0.00    -0.234 NA
HETATM   23  C   UNL     1      -1.974   4.239 -31.846  1.00  0.00     0.236 A 
HETATM   24  N   UNL     1      -2.476   3.173 -31.203  1.00  0.00    -0.229 NA
ENDBRANCH  14  16
ENDBRANCH  13  14
ENDBRANCH   1  13
TORSDOF 3
ENDMDL
MODEL 2
REMARK VINA RESULT:      -8.0      1.719      2.559
REMARK  3 active torsions:
REMARK  status: ('A' for Active; 'I' for Inactive)
REMARK    1  A    between atoms: C_7  and  N_8 
REMARK    2  A    between atoms: N_8  and  C_9 
REMARK    3  A    between atoms: C_9  and  C_10 
ROOT
HETATM    1  C   UNL     1      -5.528   0.249 -31.779  1.00  0.00    -0.041 A 
HETATM    2  C   UNL     1      -6.336  -0.011 -32.895  1.00  0.00     0.035 A 
HETATM    3  C   UNL     1      -6.000  -1.030 -33.791  1.00  0.00     0.070 A 
HETATM    4 CL   UNL     1      -7.024  -1.289 -35.158  1.00  0.00    -0.081 Cl
HETATM    5  C   UNL     1      -4.872  -1.827 -33.567  1.00  0.00     0.123 A 
HETATM    6  C   UNL     1      -4.072  -1.580 -32.447  1.00  0.00     0.104 A 
HETATM    7  O   UNL     1      -2.908  -2.258 -32.200  1.00  0.00    -0.348 OA
HETATM    8  C   UNL     1      -3.137  -3.647 -31.956  1.00  0.00     0.178 C 
HETATM    9  C   UNL     1      -3.271  -4.439 -33.248  1.00  0.00     0.053 C 
HETATM   10  C   UNL     1      -4.559  -4.090 -33.978  1.00  0.00     0.178 C 
HETATM   11  O   UNL     1      -4.522  -2.764 -34.504  1.00  0.00    -0.346 OA
HETATM   12  C   UNL     1      -4.390  -0.543 -31.567  1.00  0.00     0.048 A 
ENDROOT
BRANCH   1  13
HETATM   13  C   UNL     1      -5.890   1.343 -30.801  1.00  0.00     0.132 C 
BRANCH  13  14
HETATM   14  N   UNL     1      -4.976   2.455 -30.991  1.00  0.00    -0.272 NA
HETATM   15  H   UNL     1      -4.751   2.965 -30.146  1.00  0.00     0.129 HD
BRANCH  14  16
HETATM   16  C   UNL     1      -5.266   3.299 -32.063  1.00  0.00     0.117 A 
HETATM   17  C   UNL     1      -4.245   3.872 -32.852  1.00  0.00     0.040 A 
HETATM   18  C   UNL     1      -2.810   3.774 -32.821  1.00  0.00     0.025 A 
HETATM   19  C   UNL     1      -4.657   4.701 -33.883  1.00  0.00     0.112 A 
HETATM   20  C   UNL     1      -2.206   4.526 -33.805  1.00  0.00     0.053 A 
HETATM   21  S   UNL     1      -3.352   5.350 -34.769  1.00  0.00    -0.081 SA
HETATM   22  N   UNL     1      -5.924   5.003 -34.208  1.00  0.00    -0.234 NA
HETATM   23  C   UNL     1      -6.806   4.396 -33.411  1.00  0.00     0.236 A 
HETATM   24  N   UNL     1      -6.551   3.578 -32.377  1.00  0.00    -0.229 NA
ENDBRANCH  14  16
ENDBRANCH  13  14
ENDBRANCH   1  13
TORSDOF 3
ENDMDL
MODEL 3
REMARK VINA RESULT:      -7.8      3.923      4.970
REMARK  3 active torsions:
REMARK  status: ('A' for Active; 'I' for Inactive)
REMARK    1  A    between atoms: C_7  and  N_8 
REMARK    2  A    between atoms: N_8  and  C_9 
REMARK    3  A    between atoms: C_9  and  C_10 
ROOT
HETATM    1  C   UNL     1      -6.767  -0.933 -34.409  1.00  0.00    -0.041 A 
HETATM    2  C   UNL     1      -6.949  -2.205 -34.968  1.00  0.00     0.035 A 
HETATM    3  C   UNL     1      -5.963  -3.187 -34.830  1.00  0.00     0.070 A 
HETATM    4 CL   UNL     1      -6.237  -4.729 -35.560  1.00  0.00    -0.081 Cl
HETATM    5  C   UNL     1      -4.798  -2.924 -34.102  1.00  0.00     0.123 A 
HETATM    6  C   UNL     1      -4.620  -1.661 -33.530  1.00  0.00     0.104 A 
HETATM    7  O   UNL     1      -3.475  -1.295 -32.874  1.00  0.00    -0.348 OA
HETATM    8  C   UNL     1      -3.268  -2.062 -31.687  1.00  0.00     0.178 C 
HETATM    9  C   UNL     1      -2.617  -3.406 -31.981  1.00  0.00     0.053 C 
HETATM   10  C   UNL     1      -3.572  -4.330 -32.721  1.00  0.00     0.178 C 
HETATM   11  O   UNL     1      -3.813  -3.877 -34.053  1.00  0.00    -0.346 OA
HETATM   12  C   UNL     1      -5.590  -0.668 -33.692  1.00  0.00     0.048 A 
ENDROOT
BRANCH   1  13
HETATM   13  C   UNL     1      -7.832   0.131 -34.545  1.00  0.00     0.132 C 
BRANCH  13  14
HETATM   14  N   UNL     1      -8.797  -0.041 -33.475  1.00  0.00    -0.272 NA
HETATM   15  H   UNL     1      -9.532  -0.709 -33.672  1.00  0.00     0.129 HD
BRANCH  14  16
HETATM   16  C   UNL     1      -9.285   1.136 -32.906  1.00  0.00     0.117 A 
HETATM   17  C   UNL     1      -8.582   1.811 -31.886  1.00  0.00     0.040 A 
HETATM   18  C   UNL     1      -7.331   1.557 -31.222  1.00  0.00     0.025 A 
HETATM   19  C   UNL     1      -9.171   2.966 -31.393  1.00  0.00     0.112 A 
HETATM   20  C   UNL     1      -7.035   2.505 -30.266  1.00  0.00     0.053 A 
HETATM   21  S   UNL     1      -8.251   3.702 -30.161  1.00  0.00    -0.081 SA
HETATM   22  N   UNL     1     -10.334   3.503 -31.795  1.00  0.00    -0.234 NA
HETATM   23  C   UNL     1     -10.904   2.795 -32.773  1.00  0.00     0.236 A 
HETATM   24  N   UNL     1     -10.452   1.663 -33.338  1.00  0.00    -0.229 NA
ENDBRANCH  14  16
ENDBRANCH  13  14
ENDBRANCH   1  13
TORSDOF 3
ENDMDL
MODEL 4
REMARK VINA RESULT:      -7.7      3.349      4.484
REMARK  3 active torsions:
REMARK  status: ('A' for Active; 'I' for Inactive)
REMARK    1  A    between atoms: C_7  and  N_8 
REMARK    2  A    between atoms: N_8  and  C_9 
REMARK    3  A    between atoms: C_9  and  C_10 
ROOT
HETATM    1  C   UNL     1      -6.777  -0.797 -34.654  1.00  0.00    -0.041 A 
HETATM    2  C   UNL     1      -6.934  -2.124 -35.078  1.00  0.00     0.035 A 
HETATM    3  C   UNL     1      -5.943  -3.075 -34.814  1.00  0.00     0.070 A 
HETATM    4 CL   UNL     1      -6.186  -4.689 -35.379  1.00  0.00    -0.081 Cl
HETATM    5  C   UNL     1      -4.798  -2.722 -34.092  1.00  0.00     0.123 A 
HETATM    6  C   UNL     1      -4.645  -1.402 -33.655  1.00  0.00     0.104 A 
HETATM    7  O   UNL     1      -3.518  -0.956 -33.017  1.00  0.00    -0.348 OA
HETATM    8  C   UNL     1      -3.332  -1.589 -31.750  1.00  0.00     0.178 C 
HETATM    9  C   UNL     1      -2.663  -2.949 -31.884  1.00  0.00     0.053 C 
HETATM   10  C   UNL     1      -3.592  -3.958 -32.542  1.00  0.00     0.178 C 
HETATM   11  O   UNL     1      -3.806  -3.653 -33.919  1.00  0.00    -0.346 OA
HETATM   12  C   UNL     1      -5.619  -0.444 -33.945  1.00  0.00     0.048 A 
ENDROOT
BRANCH   1  13
HETATM   13  C   UNL     1      -7.848   0.233 -34.928  1.00  0.00     0.132 C 
BRANCH  13  14
HETATM   14  N   UNL     1      -8.089   0.984 -33.710  1.00  0.00    -0.272 NA
HETATM   15  H   UNL     1      -8.861   0.644 -33.150  1.00  0.00     0.129 HD
BRANCH  14  16
HETATM   16  C   UNL     1      -8.102   2.372 -33.848  1.00  0.00     0.117 A 
HETATM   17  C   UNL     1      -9.286   3.074 -34.161  1.00  0.00     0.040 A 
HETATM   18  C   UNL     1     -10.645   2.657 -34.387  1.00  0.00     0.025 A 
HETATM   19  C   UNL     1      -9.171   4.450 -34.281  1.00  0.00     0.112 A 
HETATM   20  C   UNL     1     -11.483   3.711 -34.672  1.00  0.00     0.053 A 
HETATM   21  S   UNL     1     -10.651   5.204 -34.670  1.00  0.00    -0.081 SA
HETATM   22  N   UNL     1      -8.053   5.176 -34.122  1.00  0.00    -0.234 NA
HETATM   23  C   UNL     1      -7.000   4.416 -33.812  1.00  0.00     0.236 A 
HETATM   24  N   UNL     1      -6.965   3.081 -33.670  1.00  0.00    -0.229 NA
ENDBRANCH  14  16
ENDBRANCH  13  14
ENDBRANCH   1  13
TORSDOF 3
ENDMDL
MODEL 5
REMARK VINA RESULT:      -7.7      4.881      6.477
REMARK  3 active torsions:
REMARK  status: ('A' for Active; 'I' for Inactive)
REMARK    1  A    between atoms: C_7  and  N_8 
REMARK    2  A    between atoms: N_8  and  C_9 
REMARK    3  A    between atoms: C_9  and  C_10 
ROOT
HETATM    1  C   UNL     1      -7.358  -0.111 -34.332  1.00  0.00    -0.041 A 
HETATM    2  C   UNL     1      -7.168  -1.465 -34.641  1.00  0.00     0.035 A 
HETATM    3  C   UNL     1      -5.958  -2.098 -34.340  1.00  0.00     0.070 A 
HETATM    4 CL   UNL     1      -5.777  -3.762 -34.764  1.00  0.00    -0.081 Cl
HETATM    5  C   UNL     1      -4.934  -1.396 -33.695  1.00  0.00     0.123 A 
HETATM    6  C   UNL     1      -5.126  -0.049 -33.372  1.00  0.00     0.104 A 
HETATM    7  O   UNL     1      -4.146   0.730 -32.817  1.00  0.00    -0.348 OA
HETATM    8  C   UNL     1      -3.779   0.282 -31.511  1.00  0.00     0.178 C 
HETATM    9  C   UNL     1      -2.778  -0.863 -31.561  1.00  0.00     0.053 C 
HETATM   10  C   UNL     1      -3.419  -2.133 -32.099  1.00  0.00     0.178 C 
HETATM   11  O   UNL     1      -3.729  -2.017 -33.487  1.00  0.00    -0.346 OA
HETATM   12  C   UNL     1      -6.323   0.592 -33.699  1.00  0.00     0.048 A 
ENDROOT
BRANCH   1  13
HETATM   13  C   UNL     1      -8.667   0.576 -34.646  1.00  0.00     0.132 C 
BRANCH  13  14
HETATM   14  N   UNL     1      -9.564   0.401 -33.517  1.00  0.00    -0.272 NA
HETATM   15  H   UNL     1      -9.929  -0.537 -33.409  1.00  0.00     0.129 HD
BRANCH  14  16
HETATM   16  C   UNL     1     -10.549   1.377 -33.372  1.00  0.00     0.117 A 
HETATM   17  C   UNL     1     -11.922   1.061 -33.450  1.00  0.00     0.040 A 
HETATM   18  C   UNL     1     -12.635  -0.172 -33.655  1.00  0.00     0.025 A 
HETATM   19  C   UNL     1     -12.807   2.117 -33.298  1.00  0.00     0.112 A 
HETATM   20  C   UNL     1     -14.002  -0.001 -33.660  1.00  0.00     0.053 A 
HETATM   21  S   UNL     1     -14.438   1.635 -33.418  1.00  0.00    -0.081 SA
HETATM   22  N   UNL     1     -12.486   3.402 -33.079  1.00  0.00    -0.234 NA
HETATM   23  C   UNL     1     -11.167   3.586 -33.005  1.00  0.00     0.236 A 
HETATM   24  N   UNL     1     -10.201   2.663 -33.138  1.00  0.00    -0.229 NA
ENDBRANCH  14  16
ENDBRANCH  13  14
ENDBRANCH   1  13
TORSDOF 3
ENDMDL
MODEL 6
REMARK VINA RESULT:      -7.4      1.960      2.499
REMARK  3 active torsions:
REMARK  status: ('A' for Active; 'I' for Inactive)
REMARK    1  A    between atoms: C_7  and  N_8 
REMARK    2  A    between atoms: N_8  and  C_9 
REMARK    3  A    between atoms: C_9  and  C_10 
ROOT
HETATM    1  C   UNL     1      -5.651   1.717 -31.840  1.00  0.00    -0.041 A 
HETATM    2  C   UNL     1      -6.912   1.706 -32.452  1.00  0.00     0.035 A 
HETATM    3  C   UNL     1      -7.187   0.813 -33.493  1.00  0.00     0.070 A 
HETATM    4 CL   UNL     1      -8.754   0.863 -34.219  1.00  0.00    -0.081 Cl
HETATM    5  C   UNL     1      -6.219  -0.105 -33.913  1.00  0.00     0.123 A 
HETATM    6  C   UNL     1      -4.965  -0.106 -33.295  1.00  0.00     0.104 A 
HETATM    7  O   UNL     1      -3.936  -0.913 -33.702  1.00  0.00    -0.348 OA
HETATM    8  C   UNL     1      -4.233  -2.298 -33.513  1.00  0.00     0.178 C 
HETATM    9  C   UNL     1      -5.068  -2.864 -34.652  1.00  0.00     0.053 C 
HETATM   10  C   UNL     1      -6.478  -2.294 -34.638  1.00  0.00     0.178 C 
HETATM   11  O   UNL     1      -6.489  -0.910 -34.989  1.00  0.00    -0.346 OA
HETATM   12  C   UNL     1      -4.678   0.805 -32.276  1.00  0.00     0.048 A 
ENDROOT
BRANCH   1  13
HETATM   13  C   UNL     1      -5.349   2.672 -30.709  1.00  0.00     0.132 C 
BRANCH  13  14
HETATM   14  N   UNL     1      -3.990   3.158 -30.863  1.00  0.00    -0.272 NA
HETATM   15  H   UNL     1      -3.362   2.902 -30.112  1.00  0.00     0.129 HD
BRANCH  14  16
HETATM   16  C   UNL     1      -3.866   4.499 -31.229  1.00  0.00     0.117 A 
HETATM   17  C   UNL     1      -3.149   4.889 -32.380  1.00  0.00     0.040 A 
HETATM   18  C   UNL     1      -2.442   4.151 -33.394  1.00  0.00     0.025 A 
HETATM   19  C   UNL     1      -3.088   6.250 -32.635  1.00  0.00     0.112 A 
HETATM   20  C   UNL     1      -1.879   4.968 -34.349  1.00  0.00     0.053 A 
HETATM   21  S   UNL     1      -2.193   6.619 -34.039  1.00  0.00    -0.081 SA
HETATM   22  N   UNL     1      -3.648   7.226 -31.902  1.00  0.00    -0.234 NA
HETATM   23  C   UNL     1      -4.314   6.746 -30.850  1.00  0.00     0.236 A 
HETATM   24  N   UNL     1      -4.450   5.462 -30.481  1.00  0.00    -0.229 NA
ENDBRANCH  14  16
ENDBRANCH  13  14
ENDBRANCH   1  13
TORSDOF 3
ENDMDL
MODEL 7
REMARK VINA RESULT:      -7.3      4.174      5.513
REMARK  3 active torsions:
REMARK  status: ('A' for Active; 'I' for Inactive)
REMARK    1  A    between atoms: C_7  and  N_8 
REMARK    2  A    between atoms: N_8  and  C_9 
REMARK    3  A    between atoms: C_9  and  C_10 
ROOT
HETATM    1  C   UNL     1      -6.608   0.081 -34.453  1.00  0.00    -0.041 A 
HETATM    2  C   UNL     1      -5.369   0.259 -33.821  1.00  0.00     0.035 A 
HETATM    3  C   UNL     1      -4.624  -0.847 -33.399  1.00  0.00     0.070 A 
HETATM    4 CL   UNL     1      -3.114  -0.563 -32.609  1.00  0.00    -0.081 Cl
HETATM    5  C   UNL     1      -5.089  -2.146 -33.633  1.00  0.00     0.123 A 
HETATM    6  C   UNL     1      -6.318  -2.326 -34.276  1.00  0.00     0.104 A 
HETATM    7  O   UNL     1      -6.883  -3.558 -34.467  1.00  0.00    -0.348 OA
HETATM    8  C   UNL     1      -6.101  -4.378 -35.338  1.00  0.00     0.178 C 
HETATM    9  C   UNL     1      -4.960  -5.066 -34.603  1.00  0.00     0.053 C 
HETATM   10  C   UNL     1      -3.900  -4.064 -34.171  1.00  0.00     0.178 C 
HETATM   11  O   UNL     1      -4.379  -3.207 -33.135  1.00  0.00    -0.346 OA
HETATM   12  C   UNL     1      -7.078  -1.222 -34.671  1.00  0.00     0.048 A 
ENDROOT
BRANCH   1  13
HETATM   13  C   UNL     1      -7.414   1.271 -34.920  1.00  0.00     0.132 C 
BRANCH  13  14
HETATM   14  N   UNL     1      -8.123   1.826 -33.782  1.00  0.00    -0.272 NA
HETATM   15  H   UNL     1      -7.720   1.598 -32.881  1.00  0.00     0.129 HD
BRANCH  14  16
HETATM   16  C   UNL     1      -9.509   1.674 -33.800  1.00  0.00     0.117 A 
HETATM   17  C   UNL     1     -10.360   2.692 -34.281  1.00  0.00     0.040 A 
HETATM   18  C   UNL     1     -10.113   3.998 -34.834  1.00  0.00     0.025 A 
HETATM   19  C   UNL     1     -11.720   2.428 -34.241  1.00  0.00     0.112 A 
HETATM   20  C   UNL     1     -11.273   4.659 -35.173  1.00  0.00     0.053 A 
HETATM   21  S   UNL     1     -12.661   3.721 -34.833  1.00  0.00    -0.081 SA
HETATM   22  N   UNL     1     -12.302   1.302 -33.799  1.00  0.00    -0.234 NA
HETATM   23  C   UNL     1     -11.408   0.402 -33.385  1.00  0.00     0.236 A 
HETATM   24  N   UNL     1     -10.070   0.525 -33.361  1.00  0.00    -0.229 NA
ENDBRANCH  14  16
ENDBRANCH  13  14
ENDBRANCH   1  13
TORSDOF 3
ENDMDL
MODEL 8
REMARK VINA RESULT:      -7.3      4.769      6.273
REMARK  3 active torsions:
REMARK  status: ('A' for Active; 'I' for Inactive)
REMARK    1  A    between atoms: C_7  and  N_8 
REMARK    2  A    between atoms: N_8  and  C_9 
REMARK    3  A    between atoms: C_9  and  C_10 
ROOT
HETATM    1  C   UNL     1      -7.325   0.773 -33.576  1.00  0.00    -0.041 A 
HETATM    2  C   UNL     1      -7.503  -0.530 -34.061  1.00  0.00     0.035 A 
HETATM    3  C   UNL     1      -6.436  -1.435 -34.071  1.00  0.00     0.070 A 
HETATM    4 CL   UNL     1      -6.714  -3.019 -34.700  1.00  0.00    -0.081 Cl
HETATM    5  C   UNL     1      -5.187  -1.061 -33.565  1.00  0.00     0.123 A 
HETATM    6  C   UNL     1      -5.010   0.233 -33.067  1.00  0.00     0.104 A 
HETATM    7  O   UNL     1      -3.800   0.704 -32.632  1.00  0.00    -0.348 OA
HETATM    8  C   UNL     1      -3.333   0.001 -31.478  1.00  0.00     0.178 C 
HETATM    9  C   UNL     1      -2.643  -1.304 -31.846  1.00  0.00     0.053 C 
HETATM   10  C   UNL     1      -3.638  -2.322 -32.383  1.00  0.00     0.178 C 
HETATM   11  O   UNL     1      -4.139  -1.940 -33.664  1.00  0.00    -0.346 OA
HETATM   12  C   UNL     1      -6.066   1.148 -33.084  1.00  0.00     0.048 A 
ENDROOT
BRANCH   1  13
HETATM   13  C   UNL     1      -8.475   1.753 -33.553  1.00  0.00     0.132 C 
BRANCH  13  14
HETATM   14  N   UNL     1      -9.439   1.359 -34.565  1.00  0.00    -0.272 NA
HETATM   15  H   UNL     1      -9.141   1.523 -35.518  1.00  0.00     0.129 HD
BRANCH  14  16
HETATM   16  C   UNL     1     -10.753   1.767 -34.339  1.00  0.00     0.117 A 
HETATM   17  C   UNL     1     -11.182   3.080 -34.629  1.00  0.00     0.040 A 
HETATM   18  C   UNL     1     -10.515   4.231 -35.178  1.00  0.00     0.025 A 
HETATM   19  C   UNL     1     -12.509   3.369 -34.353  1.00  0.00     0.112 A 
HETATM   20  C   UNL     1     -11.345   5.325 -35.284  1.00  0.00     0.053 A 
HETATM   21  S   UNL     1     -12.925   4.980 -34.729  1.00  0.00    -0.081 SA
HETATM   22  N   UNL     1     -13.422   2.525 -33.847  1.00  0.00    -0.234 NA
HETATM   23  C   UNL     1     -12.916   1.310 -33.628  1.00  0.00     0.236 A 
HETATM   24  N   UNL     1     -11.657   0.894 -33.841  1.00  0.00    -0.229 NA
ENDBRANCH  14  16
ENDBRANCH  13  14
ENDBRANCH   1  13
TORSDOF 3
ENDMDL
MODEL 9
REMARK VINA RESULT:      -7.3      2.597      3.980
REMARK  3 active torsions:
REMARK  status: ('A' for Active; 'I' for Inactive)
REMARK    1  A    between atoms: C_7  and  N_8 
REMARK    2  A    between atoms: N_8  and  C_9 
REMARK    3  A    between atoms: C_9  and  C_10 
ROOT
HETATM    1  C   UNL     1      -4.187   2.246 -31.849  1.00  0.00    -0.041 A 
HETATM    2  C   UNL     1      -3.418   1.087 -31.671  1.00  0.00     0.035 A 
HETATM    3  C   UNL     1      -3.891  -0.152 -32.114  1.00  0.00     0.070 A 
HETATM    4 CL   UNL     1      -2.905  -1.546 -31.847  1.00  0.00    -0.081 Cl
HETATM    5  C   UNL     1      -5.122  -0.247 -32.772  1.00  0.00     0.123 A 
HETATM    6  C   UNL     1      -5.885   0.909 -32.964  1.00  0.00     0.104 A 
HETATM    7  O   UNL     1      -7.135   0.891 -33.522  1.00  0.00    -0.348 OA
HETATM    8  C   UNL     1      -7.108   0.463 -34.885  1.00  0.00     0.178 C 
HETATM    9  C   UNL     1      -7.081  -1.054 -35.007  1.00  0.00     0.053 C 
HETATM   10  C   UNL     1      -5.751  -1.621 -34.533  1.00  0.00     0.178 C 
HETATM   11  O   UNL     1      -5.597  -1.485 -33.121  1.00  0.00    -0.346 OA
HETATM   12  C   UNL     1      -5.428   2.143 -32.495  1.00  0.00     0.048 A 
ENDROOT
BRANCH   1  13
HETATM   13  C   UNL     1      -3.679   3.590 -31.382  1.00  0.00     0.132 C 
BRANCH  13  14
HETATM   14  N   UNL     1      -2.322   3.765 -31.867  1.00  0.00    -0.272 NA
HETATM   15  H   UNL     1      -1.600   3.493 -31.210  1.00  0.00     0.129 HD
BRANCH  14  16
HETATM   16  C   UNL     1      -2.052   4.989 -32.479  1.00  0.00     0.117 A 
HETATM   17  C   UNL     1      -2.126   6.205 -31.767  1.00  0.00     0.040 A 
HETATM   18  C   UNL     1      -2.435   6.525 -30.398  1.00  0.00     0.025 A 
HETATM   19  C   UNL     1      -1.845   7.357 -32.486  1.00  0.00     0.112 A 
HETATM   20  C   UNL     1      -2.386   7.877 -30.145  1.00  0.00     0.053 A 
HETATM   21  S   UNL     1      -1.969   8.771 -31.542  1.00  0.00    -0.081 SA
HETATM   22  N   UNL     1      -1.505   7.426 -33.783  1.00  0.00    -0.234 NA
HETATM   23  C   UNL     1      -1.448   6.221 -34.353  1.00  0.00     0.236 A 
HETATM   24  N   UNL     1      -1.699   5.031 -33.784  1.00  0.00    -0.229 NA
ENDBRANCH  14  16
ENDBRANCH  13  14
ENDBRANCH   1  13
TORSDOF 3
ENDMDL
MODEL 10
REMARK VINA RESULT:      -7.2      5.356      6.656
REMARK  3 active torsions:
REMARK  status: ('A' for Active; 'I' for Inactive)
REMARK    1  A    between atoms: C_7  and  N_8 
REMARK    2  A    between atoms: N_8  and  C_9 
REMARK    3  A    between atoms: C_9  and  C_10 
ROOT
HETATM    1  C   UNL     1      -7.948   1.156 -33.857  1.00  0.00    -0.041 A 
HETATM    2  C   UNL     1      -6.994   1.598 -32.930  1.00  0.00     0.035 A 
HETATM    3  C   UNL     1      -6.011   0.724 -32.454  1.00  0.00     0.070 A 
HETATM    4 CL   UNL     1      -4.876   1.322 -31.297  1.00  0.00    -0.081 Cl
HETATM    5  C   UNL     1      -5.945  -0.592 -32.923  1.00  0.00     0.123 A 
HETATM    6  C   UNL     1      -6.887  -1.031 -33.859  1.00  0.00     0.104 A 
HETATM    7  O   UNL     1      -6.944  -2.324 -34.306  1.00  0.00    -0.348 OA
HETATM    8  C   UNL     1      -5.774  -2.692 -35.040  1.00  0.00     0.178 C 
HETATM    9  C   UNL     1      -4.632  -3.106 -34.124  1.00  0.00     0.053 C 
HETATM   10  C   UNL     1      -4.088  -1.916 -33.349  1.00  0.00     0.178 C 
HETATM   11  O   UNL     1      -5.024  -1.448 -32.378  1.00  0.00    -0.346 OA
HETATM   12  C   UNL     1      -7.888  -0.169 -34.313  1.00  0.00     0.048 A 
ENDROOT
BRANCH   1  13
HETATM   13  C   UNL     1      -9.007   2.097 -34.383  1.00  0.00     0.132 C 
BRANCH  13  14
HETATM   14  N   UNL     1     -10.289   1.417 -34.346  1.00  0.00    -0.272 NA
HETATM   15  H   UNL     1     -10.612   1.075 -35.243  1.00  0.00     0.129 HD
BRANCH  14  16
HETATM   16  C   UNL     1     -11.296   2.064 -33.629  1.00  0.00     0.117 A 
HETATM   17  C   UNL     1     -12.632   1.613 -33.657  1.00  0.00     0.040 A 
HETATM   18  C   UNL     1     -13.282   0.509 -34.314  1.00  0.00     0.025 A 
HETATM   19  C   UNL     1     -13.545   2.343 -32.911  1.00  0.00     0.112 A 
HETATM   20  C   UNL     1     -14.633   0.457 -34.051  1.00  0.00     0.053 A 
HETATM   21  S   UNL     1     -15.130   1.725 -33.018  1.00  0.00    -0.081 SA
HETATM   22  N   UNL     1     -13.279   3.426 -32.164  1.00  0.00    -0.234 NA
HETATM   23  C   UNL     1     -11.986   3.755 -32.194  1.00  0.00     0.236 A 
HETATM   24  N   UNL     1     -11.001   3.146 -32.873  1.00  0.00    -0.229 NA
ENDBRANCH  14  16
ENDBRANCH  13  14
ENDBRANCH   1  13
TORSDOF 3
ENDMDL
