MODEL 1
REMARK VINA RESULT:      -9.1      0.000      0.000
REMARK  9 active torsions:
REMARK  status: ('A' for Active; 'I' for Inactive)
REMARK    1  A    between atoms: C_3  and  N_4 
REMARK    2  A    between atoms: N_4  and  C_5 
REMARK    3  A    between atoms: C_7  and  C_8 
REMARK    4  A    between atoms: C_19  and  N_20 
REMARK       I    between atoms: N_20  and  C_21 
REMARK    5  A    between atoms: C_21  and  C_22 
REMARK    6  A    between atoms: C_24  and  N_25 
REMARK       I    between atoms: N_25  and  C_26 
REMARK    7  A    between atoms: C_26  and  C_27 
REMARK    8  A    between atoms: C_28  and  C_29 
REMARK    9  A    between atoms: C_29  and  N_30 
ROOT
HETATM    1  C   UNL     1      -7.673  -0.074 -35.066  1.00  0.00     0.050 C 
HETATM    2  C   UNL     1      -7.338   0.685 -33.808  1.00  0.00    -0.033 A 
HETATM    3  C   UNL     1      -8.151   0.606 -32.659  1.00  0.00     0.055 A 
HETATM    4  C   UNL     1      -7.768   1.352 -31.537  1.00  0.00     0.033 A 
HETATM    5  C   UNL     1      -6.638   2.179 -31.545  1.00  0.00     0.032 A 
HETATM    6  C   UNL     1      -5.869   2.304 -32.693  1.00  0.00     0.035 A 
HETATM    7  C   UNL     1      -6.216   1.540 -33.815  1.00  0.00     0.038 A 
ENDROOT
BRANCH   6   8
HETATM    8  N   UNL     1      -4.777   3.192 -32.821  1.00  0.00    -0.323 N 
HETATM    9  C   UNL     1      -3.496   3.016 -32.323  1.00  0.00     0.256 C 
HETATM   10  O   UNL     1      -3.061   2.019 -31.760  1.00  0.00    -0.267 OA
HETATM   11  H   UNL     1      -5.000   4.081 -33.243  1.00  0.00     0.169 HD
BRANCH   9  12
HETATM   12  C   UNL     1      -2.582   4.189 -32.457  1.00  0.00     0.034 A 
HETATM   13  C   UNL     1      -2.131   4.925 -31.351  1.00  0.00     0.046 A 
HETATM   14  C   UNL     1      -1.249   5.997 -31.524  1.00  0.00     0.035 A 
HETATM   15  C   UNL     1      -0.851   6.350 -32.820  1.00  0.00     0.029 A 
HETATM   16  C   UNL     1      -1.315   5.639 -33.927  1.00  0.00     0.003 A 
HETATM   17  C   UNL     1      -2.178   4.560 -33.746  1.00  0.00     0.017 A 
BRANCH  14  18
HETATM   18  N   UNL     1      -0.730   6.766 -30.458  1.00  0.00    -0.324 N 
HETATM   19  C   UNL     1       0.181   6.354 -29.514  1.00  0.00     0.245 C 
HETATM   20  O   UNL     1       0.741   5.267 -29.433  1.00  0.00    -0.268 OA
HETATM   21  H   UNL     1      -1.072   7.718 -30.414  1.00  0.00     0.169 HD
BRANCH  19  22
HETATM   22  C   UNL     1       0.492   7.419 -28.515  1.00  0.00     0.072 C 
HETATM   23  C   UNL     1       1.065   7.059 -27.354  1.00  0.00     0.006 C 
BRANCH  23  24
HETATM   24  C   UNL     1       1.487   7.995 -26.274  1.00  0.00     0.261 C 
BRANCH  24  25
HETATM   25  N   UNL     1       0.602   9.214 -26.195  1.00  0.00    -0.076 N 
HETATM   26  H   UNL     1       0.303   9.426 -27.156  1.00  0.00     0.279 HD
HETATM   27  C   UNL     1      -0.650   8.989 -25.393  1.00  0.00     0.269 C 
HETATM   28  C   UNL     1       1.358  10.418 -25.707  1.00  0.00     0.269 C 
ENDBRANCH  24  25
ENDBRANCH  23  24
ENDBRANCH  19  22
ENDBRANCH  14  18
ENDBRANCH   9  12
ENDBRANCH   6   8
BRANCH   3  29
HETATM   29  N   UNL     1      -9.353  -0.116 -32.683  1.00  0.00    -0.188 N 
HETATM   30  H   UNL     1      -9.326  -1.097 -32.459  1.00  0.00     0.184 HD
BRANCH  29  31
HETATM   31  C   UNL     1     -10.639   0.233 -33.091  1.00  0.00     0.727 A 
HETATM   32  N   UNL     1     -10.820   1.529 -33.395  1.00  0.00    -0.062 NA
HETATM   33  C   UNL     1     -12.059   1.937 -33.763  1.00  0.00     0.089 A 
HETATM   34  C   UNL     1     -13.125   1.060 -33.803  1.00  0.00     0.053 A 
HETATM   35  C   UNL     1     -12.851  -0.239 -33.468  1.00  0.00     0.139 A 
HETATM   36  N   UNL     1     -11.630  -0.667 -33.116  1.00  0.00    -0.075 NA
BRANCH  33  37
HETATM   37  C   UNL     1     -12.192   3.366 -34.097  1.00  0.00     0.011 A 
HETATM   38  C   UNL     1     -11.914   4.362 -33.157  1.00  0.00     0.130 A 
HETATM   39  N   UNL     1     -12.028   5.697 -33.373  1.00  0.00    -0.272 NA
HETATM   40  C   UNL     1     -12.432   6.079 -34.600  1.00  0.00     0.116 A 
HETATM   41  C   UNL     1     -12.725   5.189 -35.617  1.00  0.00     0.020 A 
HETATM   42  C   UNL     1     -12.601   3.824 -35.359  1.00  0.00     0.017 A 
ENDBRANCH  33  37
ENDBRANCH  29  31
ENDBRANCH   3  29
TORSDOF 9
ENDMDL
MODEL 2
REMARK VINA RESULT:      -9.0      4.869      9.006
REMARK  9 active torsions:
REMARK  status: ('A' for Active; 'I' for Inactive)
REMARK    1  A    between atoms: C_3  and  N_4 
REMARK    2  A    between atoms: N_4  and  C_5 
REMARK    3  A    between atoms: C_7  and  C_8 
REMARK    4  A    between atoms: C_19  and  N_20 
REMARK       I    between atoms: N_20  and  C_21 
REMARK    5  A    between atoms: C_21  and  C_22 
REMARK    6  A    between atoms: C_24  and  N_25 
REMARK       I    between atoms: N_25  and  C_26 
REMARK    7  A    between atoms: C_26  and  C_27 
REMARK    8  A    between atoms: C_28  and  C_29 
REMARK    9  A    between atoms: C_29  and  N_30 
ROOT
HETATM    1  C   UNL     1      -1.956   7.741 -32.198  1.00  0.00     0.050 C 
HETATM    2  C   UNL     1      -1.112   6.892 -31.284  1.00  0.00    -0.033 A 
HETATM    3  C   UNL     1      -1.041   5.492 -31.434  1.00  0.00     0.055 A 
HETATM    4  C   UNL     1      -0.237   4.780 -30.534  1.00  0.00     0.033 A 
HETATM    5  C   UNL     1       0.455   5.413 -29.494  1.00  0.00     0.032 A 
HETATM    6  C   UNL     1       0.340   6.784 -29.309  1.00  0.00     0.035 A 
HETATM    7  C   UNL     1      -0.432   7.518 -30.218  1.00  0.00     0.038 A 
ENDROOT
BRANCH   6   8
HETATM    8  N   UNL     1       0.918   7.486 -28.228  1.00  0.00    -0.323 N 
HETATM    9  C   UNL     1       0.355   7.711 -26.982  1.00  0.00     0.256 C 
HETATM   10  O   UNL     1      -0.709   7.265 -26.570  1.00  0.00    -0.267 OA
HETATM   11  H   UNL     1       1.795   7.941 -28.437  1.00  0.00     0.169 HD
BRANCH   9  12
HETATM   12  C   UNL     1       1.116   8.629 -26.083  1.00  0.00     0.034 A 
HETATM   13  C   UNL     1       2.228   8.206 -25.339  1.00  0.00     0.046 A 
HETATM   14  C   UNL     1       2.928   9.111 -24.535  1.00  0.00     0.035 A 
HETATM   15  C   UNL     1       2.483  10.436 -24.452  1.00  0.00     0.029 A 
HETATM   16  C   UNL     1       1.363  10.858 -25.168  1.00  0.00     0.003 A 
HETATM   17  C   UNL     1       0.682   9.957 -25.982  1.00  0.00     0.017 A 
BRANCH  14  18
HETATM   18  N   UNL     1       4.073   8.767 -23.780  1.00  0.00    -0.324 N 
HETATM   19  C   UNL     1       4.098   8.334 -22.474  1.00  0.00     0.245 C 
HETATM   20  O   UNL     1       3.145   8.129 -21.732  1.00  0.00    -0.268 OA
HETATM   21  H   UNL     1       4.951   8.846 -24.277  1.00  0.00     0.169 HD
BRANCH  19  22
HETATM   22  C   UNL     1       5.484   8.082 -21.980  1.00  0.00     0.072 C 
HETATM   23  C   UNL     1       6.414   7.678 -22.862  1.00  0.00     0.006 C 
BRANCH  23  24
HETATM   24  C   UNL     1       7.850   7.431 -22.550  1.00  0.00     0.261 C 
BRANCH  24  25
HETATM   25  N   UNL     1       8.115   5.996 -22.170  1.00  0.00    -0.076 N 
HETATM   26  H   UNL     1       9.100   5.805 -22.402  1.00  0.00     0.279 HD
HETATM   27  C   UNL     1       7.959   5.732 -20.698  1.00  0.00     0.269 C 
HETATM   28  C   UNL     1       7.291   5.043 -22.991  1.00  0.00     0.269 C 
ENDBRANCH  24  25
ENDBRANCH  23  24
ENDBRANCH  19  22
ENDBRANCH  14  18
ENDBRANCH   9  12
ENDBRANCH   6   8
BRANCH   3  29
HETATM   29  N   UNL     1      -1.830   4.835 -32.390  1.00  0.00    -0.188 N 
HETATM   30  H   UNL     1      -1.557   4.893 -33.357  1.00  0.00     0.184 HD
BRANCH  29  31
HETATM   31  C   UNL     1      -3.053   4.174 -32.289  1.00  0.00     0.727 A 
HETATM   32  N   UNL     1      -3.000   2.835 -32.376  1.00  0.00    -0.062 NA
HETATM   33  C   UNL     1      -4.161   2.139 -32.322  1.00  0.00     0.089 A 
HETATM   34  C   UNL     1      -5.380   2.779 -32.207  1.00  0.00     0.053 A 
HETATM   35  C   UNL     1      -5.341   4.145 -32.135  1.00  0.00     0.139 A 
HETATM   36  N   UNL     1      -4.202   4.852 -32.170  1.00  0.00    -0.075 NA
BRANCH  33  37
HETATM   37  C   UNL     1      -4.037   0.673 -32.410  1.00  0.00     0.011 A 
HETATM   38  C   UNL     1      -3.069  -0.020 -31.679  1.00  0.00     0.130 A 
HETATM   39  N   UNL     1      -2.873  -1.363 -31.715  1.00  0.00    -0.272 NA
HETATM   40  C   UNL     1      -3.692  -2.072 -32.516  1.00  0.00     0.116 A 
HETATM   41  C   UNL     1      -4.695  -1.502 -33.278  1.00  0.00     0.020 A 
HETATM   42  C   UNL     1      -4.866  -0.119 -33.220  1.00  0.00     0.017 A 
ENDBRANCH  33  37
ENDBRANCH  29  31
ENDBRANCH   3  29
TORSDOF 9
ENDMDL
MODEL 3
REMARK VINA RESULT:      -9.0      3.890      6.699
REMARK  9 active torsions:
REMARK  status: ('A' for Active; 'I' for Inactive)
REMARK    1  A    between atoms: C_3  and  N_4 
REMARK    2  A    between atoms: N_4  and  C_5 
REMARK    3  A    between atoms: C_7  and  C_8 
REMARK    4  A    between atoms: C_19  and  N_20 
REMARK       I    between atoms: N_20  and  C_21 
REMARK    5  A    between atoms: C_21  and  C_22 
REMARK    6  A    between atoms: C_24  and  N_25 
REMARK       I    between atoms: N_25  and  C_26 
REMARK    7  A    between atoms: C_26  and  C_27 
REMARK    8  A    between atoms: C_28  and  C_29 
REMARK    9  A    between atoms: C_29  and  N_30 
ROOT
HETATM    1  C   UNL     1      -6.037   3.029 -30.114  1.00  0.00     0.050 C 
HETATM    2  C   UNL     1      -4.927   3.685 -30.894  1.00  0.00    -0.033 A 
HETATM    3  C   UNL     1      -4.251   3.007 -31.929  1.00  0.00     0.055 A 
HETATM    4  C   UNL     1      -3.227   3.693 -32.595  1.00  0.00     0.033 A 
HETATM    5  C   UNL     1      -2.849   4.994 -32.241  1.00  0.00     0.032 A 
HETATM    6  C   UNL     1      -3.474   5.642 -31.185  1.00  0.00     0.035 A 
HETATM    7  C   UNL     1      -4.524   4.987 -30.528  1.00  0.00     0.038 A 
ENDROOT
BRANCH   6   8
HETATM    8  N   UNL     1      -3.088   6.910 -30.696  1.00  0.00    -0.323 N 
HETATM    9  C   UNL     1      -1.952   7.210 -29.962  1.00  0.00     0.256 C 
HETATM   10  O   UNL     1      -1.038   6.444 -29.683  1.00  0.00    -0.267 OA
HETATM   11  H   UNL     1      -3.771   7.642 -30.829  1.00  0.00     0.169 HD
BRANCH   9  12
HETATM   12  C   UNL     1      -1.875   8.603 -29.429  1.00  0.00     0.034 A 
HETATM   13  C   UNL     1      -1.190   8.921 -28.247  1.00  0.00     0.046 A 
HETATM   14  C   UNL     1      -1.118  10.246 -27.804  1.00  0.00     0.035 A 
HETATM   15  C   UNL     1      -1.770  11.246 -28.536  1.00  0.00     0.029 A 
HETATM   16  C   UNL     1      -2.474  10.934 -29.699  1.00  0.00     0.003 A 
HETATM   17  C   UNL     1      -2.526   9.616 -30.145  1.00  0.00     0.017 A 
BRANCH  14  18
HETATM   18  N   UNL     1      -0.424  10.648 -26.640  1.00  0.00    -0.324 N 
HETATM   19  C   UNL     1      -0.637  10.197 -25.358  1.00  0.00     0.245 C 
HETATM   20  O   UNL     1      -1.433   9.344 -24.984  1.00  0.00    -0.268 OA
HETATM   21  H   UNL     1       0.307  11.331 -26.793  1.00  0.00     0.169 HD
BRANCH  19  22
HETATM   22  C   UNL     1       0.261  10.853 -24.362  1.00  0.00     0.072 C 
HETATM   23  C   UNL     1       1.587  10.823 -24.579  1.00  0.00     0.006 C 
BRANCH  23  24
HETATM   24  C   UNL     1       2.617  11.469 -23.718  1.00  0.00     0.261 C 
BRANCH  24  25
HETATM   25  N   UNL     1       3.938  10.743 -23.764  1.00  0.00    -0.076 N 
HETATM   26  H   UNL     1       4.438  11.088 -24.595  1.00  0.00     0.279 HD
HETATM   27  C   UNL     1       4.818  11.035 -22.579  1.00  0.00     0.269 C 
HETATM   28  C   UNL     1       3.754   9.264 -23.961  1.00  0.00     0.269 C 
ENDBRANCH  24  25
ENDBRANCH  23  24
ENDBRANCH  19  22
ENDBRANCH  14  18
ENDBRANCH   9  12
ENDBRANCH   6   8
BRANCH   3  29
HETATM   29  N   UNL     1      -4.533   1.662 -32.205  1.00  0.00    -0.188 N 
HETATM   30  H   UNL     1      -3.995   0.954 -31.733  1.00  0.00     0.184 HD
BRANCH  29  31
HETATM   31  C   UNL     1      -5.374   1.062 -33.141  1.00  0.00     0.727 A 
HETATM   32  N   UNL     1      -5.198  -0.257 -33.319  1.00  0.00    -0.062 NA
HETATM   33  C   UNL     1      -5.962  -0.890 -34.243  1.00  0.00     0.089 A 
HETATM   34  C   UNL     1      -6.883  -0.203 -35.010  1.00  0.00     0.053 A 
HETATM   35  C   UNL     1      -6.988   1.140 -34.768  1.00  0.00     0.139 A 
HETATM   36  N   UNL     1      -6.254   1.783 -33.847  1.00  0.00    -0.075 NA
BRANCH  33  37
HETATM   37  C   UNL     1      -5.732  -2.339 -34.384  1.00  0.00     0.011 A 
HETATM   38  C   UNL     1      -4.482  -2.906 -34.121  1.00  0.00     0.130 A 
HETATM   39  N   UNL     1      -4.179  -4.224 -34.242  1.00  0.00    -0.272 NA
HETATM   40  C   UNL     1      -5.175  -5.039 -34.640  1.00  0.00     0.116 A 
HETATM   41  C   UNL     1      -6.456  -4.599 -34.918  1.00  0.00     0.020 A 
HETATM   42  C   UNL     1      -6.731  -3.238 -34.786  1.00  0.00     0.017 A 
ENDBRANCH  33  37
ENDBRANCH  29  31
ENDBRANCH   3  29
TORSDOF 9
ENDMDL
MODEL 4
REMARK VINA RESULT:      -8.9      4.372      7.494
REMARK  9 active torsions:
REMARK  status: ('A' for Active; 'I' for Inactive)
REMARK    1  A    between atoms: C_3  and  N_4 
REMARK    2  A    between atoms: N_4  and  C_5 
REMARK    3  A    between atoms: C_7  and  C_8 
REMARK    4  A    between atoms: C_19  and  N_20 
REMARK       I    between atoms: N_20  and  C_21 
REMARK    5  A    between atoms: C_21  and  C_22 
REMARK    6  A    between atoms: C_24  and  N_25 
REMARK       I    between atoms: N_25  and  C_26 
REMARK    7  A    between atoms: C_26  and  C_27 
REMARK    8  A    between atoms: C_28  and  C_29 
REMARK    9  A    between atoms: C_29  and  N_30 
ROOT
HETATM    1  C   UNL     1      -5.523   5.713 -31.222  1.00  0.00     0.050 C 
HETATM    2  C   UNL     1      -4.029   5.515 -31.197  1.00  0.00    -0.033 A 
HETATM    3  C   UNL     1      -3.423   4.397 -31.807  1.00  0.00     0.055 A 
HETATM    4  C   UNL     1      -2.028   4.290 -31.729  1.00  0.00     0.033 A 
HETATM    5  C   UNL     1      -1.247   5.230 -31.047  1.00  0.00     0.032 A 
HETATM    6  C   UNL     1      -1.846   6.300 -30.396  1.00  0.00     0.035 A 
HETATM    7  C   UNL     1      -3.237   6.444 -30.491  1.00  0.00     0.038 A 
ENDROOT
BRANCH   6   8
HETATM    8  N   UNL     1      -1.146   7.234 -29.600  1.00  0.00    -0.323 N 
HETATM    9  C   UNL     1      -0.314   6.958 -28.528  1.00  0.00     0.256 C 
HETATM   10  O   UNL     1       0.031   5.850 -28.136  1.00  0.00    -0.267 OA
HETATM   11  H   UNL     1      -1.361   8.201 -29.794  1.00  0.00     0.169 HD
BRANCH   9  12
HETATM   12  C   UNL     1       0.166   8.145 -27.759  1.00  0.00     0.034 A 
HETATM   13  C   UNL     1       1.356   8.131 -27.015  1.00  0.00     0.046 A 
HETATM   14  C   UNL     1       1.781   9.278 -26.336  1.00  0.00     0.035 A 
HETATM   15  C   UNL     1       0.984  10.429 -26.377  1.00  0.00     0.029 A 
HETATM   16  C   UNL     1      -0.213  10.443 -27.093  1.00  0.00     0.003 A 
HETATM   17  C   UNL     1      -0.620   9.303 -27.783  1.00  0.00     0.017 A 
BRANCH  14  18
HETATM   18  N   UNL     1       2.980   9.350 -25.591  1.00  0.00    -0.324 N 
HETATM   19  C   UNL     1       3.125   9.118 -24.242  1.00  0.00     0.245 C 
HETATM   20  O   UNL     1       2.265   8.774 -23.441  1.00  0.00    -0.268 OA
HETATM   21  H   UNL     1       3.803   9.588 -26.129  1.00  0.00     0.169 HD
BRANCH  19  22
HETATM   22  C   UNL     1       4.531   9.307 -23.777  1.00  0.00     0.072 C 
HETATM   23  C   UNL     1       4.833   8.987 -22.508  1.00  0.00     0.006 C 
BRANCH  23  24
HETATM   24  C   UNL     1       6.191   9.064 -21.898  1.00  0.00     0.261 C 
BRANCH  24  25
HETATM   25  N   UNL     1       6.555   7.806 -21.150  1.00  0.00    -0.076 N 
HETATM   26  H   UNL     1       7.447   7.476 -21.543  1.00  0.00     0.279 HD
HETATM   27  C   UNL     1       6.787   8.034 -19.682  1.00  0.00     0.269 C 
HETATM   28  C   UNL     1       5.553   6.711 -21.385  1.00  0.00     0.269 C 
ENDBRANCH  24  25
ENDBRANCH  23  24
ENDBRANCH  19  22
ENDBRANCH  14  18
ENDBRANCH   9  12
ENDBRANCH   6   8
BRANCH   3  29
HETATM   29  N   UNL     1      -4.205   3.384 -32.380  1.00  0.00    -0.188 N 
HETATM   30  H   UNL     1      -4.520   3.502 -33.329  1.00  0.00     0.184 HD
BRANCH  29  31
HETATM   31  C   UNL     1      -4.772   2.231 -31.841  1.00  0.00     0.727 A 
HETATM   32  N   UNL     1      -4.872   1.186 -32.679  1.00  0.00    -0.062 NA
HETATM   33  C   UNL     1      -5.449   0.048 -32.223  1.00  0.00     0.089 A 
HETATM   34  C   UNL     1      -5.950  -0.043 -30.939  1.00  0.00     0.053 A 
HETATM   35  C   UNL     1      -5.814   1.073 -30.158  1.00  0.00     0.139 A 
HETATM   36  N   UNL     1      -5.232   2.204 -30.584  1.00  0.00    -0.075 NA
BRANCH  33  37
HETATM   37  C   UNL     1      -5.519  -1.067 -33.184  1.00  0.00     0.011 A 
HETATM   38  C   UNL     1      -4.384  -1.811 -33.519  1.00  0.00     0.130 A 
HETATM   39  N   UNL     1      -4.355  -2.839 -34.406  1.00  0.00    -0.272 NA
HETATM   40  C   UNL     1      -5.523  -3.163 -34.995  1.00  0.00     0.116 A 
HETATM   41  C   UNL     1      -6.714  -2.509 -34.737  1.00  0.00     0.020 A 
HETATM   42  C   UNL     1      -6.707  -1.456 -33.823  1.00  0.00     0.017 A 
ENDBRANCH  33  37
ENDBRANCH  29  31
ENDBRANCH   3  29
TORSDOF 9
ENDMDL
MODEL 5
REMARK VINA RESULT:      -8.7      3.618      5.811
REMARK  9 active torsions:
REMARK  status: ('A' for Active; 'I' for Inactive)
REMARK    1  A    between atoms: C_3  and  N_4 
REMARK    2  A    between atoms: N_4  and  C_5 
REMARK    3  A    between atoms: C_7  and  C_8 
REMARK    4  A    between atoms: C_19  and  N_20 
REMARK       I    between atoms: N_20  and  C_21 
REMARK    5  A    between atoms: C_21  and  C_22 
REMARK    6  A    between atoms: C_24  and  N_25 
REMARK       I    between atoms: N_25  and  C_26 
REMARK    7  A    between atoms: C_26  and  C_27 
REMARK    8  A    between atoms: C_28  and  C_29 
REMARK    9  A    between atoms: C_29  and  N_30 
ROOT
HETATM    1  C   UNL     1      -4.249   1.509 -32.043  1.00  0.00     0.050 C 
HETATM    2  C   UNL     1      -5.085   2.435 -31.199  1.00  0.00    -0.033 A 
HETATM    3  C   UNL     1      -6.401   2.101 -30.817  1.00  0.00     0.055 A 
HETATM    4  C   UNL     1      -7.107   3.026 -30.037  1.00  0.00     0.033 A 
HETATM    5  C   UNL     1      -6.558   4.259 -29.665  1.00  0.00     0.032 A 
HETATM    6  C   UNL     1      -5.285   4.615 -30.088  1.00  0.00     0.035 A 
HETATM    7  C   UNL     1      -4.549   3.690 -30.840  1.00  0.00     0.038 A 
ENDROOT
BRANCH   6   8
HETATM    8  N   UNL     1      -4.696   5.876 -29.846  1.00  0.00    -0.323 N 
HETATM    9  C   UNL     1      -4.410   6.856 -30.783  1.00  0.00     0.256 C 
HETATM   10  O   UNL     1      -4.698   6.837 -31.973  1.00  0.00    -0.267 OA
HETATM   11  H   UNL     1      -4.375   6.020 -28.900  1.00  0.00     0.169 HD
BRANCH   9  12
HETATM   12  C   UNL     1      -3.632   8.027 -30.278  1.00  0.00     0.034 A 
HETATM   13  C   UNL     1      -2.448   7.885 -29.540  1.00  0.00     0.046 A 
HETATM   14  C   UNL     1      -1.737   9.012 -29.116  1.00  0.00     0.035 A 
HETATM   15  C   UNL     1      -2.242  10.286 -29.406  1.00  0.00     0.029 A 
HETATM   16  C   UNL     1      -3.432  10.435 -30.118  1.00  0.00     0.003 A 
HETATM   17  C   UNL     1      -4.125   9.309 -30.553  1.00  0.00     0.017 A 
BRANCH  14  18
HETATM   18  N   UNL     1      -0.523   8.949 -28.393  1.00  0.00    -0.324 N 
HETATM   19  C   UNL     1       0.508   8.059 -28.593  1.00  0.00     0.245 C 
HETATM   20  O   UNL     1       0.591   7.184 -29.446  1.00  0.00    -0.268 OA
HETATM   21  H   UNL     1      -0.422   9.646 -27.668  1.00  0.00     0.169 HD
BRANCH  19  22
HETATM   22  C   UNL     1       1.632   8.261 -27.633  1.00  0.00     0.072 C 
HETATM   23  C   UNL     1       1.340   8.456 -26.336  1.00  0.00     0.006 C 
BRANCH  23  24
HETATM   24  C   UNL     1       2.337   8.622 -25.241  1.00  0.00     0.261 C 
BRANCH  24  25
HETATM   25  N   UNL     1       1.827   9.507 -24.132  1.00  0.00    -0.076 N 
HETATM   26  H   UNL     1       1.765   8.919 -23.289  1.00  0.00     0.279 HD
HETATM   27  C   UNL     1       2.758  10.641 -23.800  1.00  0.00     0.269 C 
HETATM   28  C   UNL     1       0.435  10.001 -24.410  1.00  0.00     0.269 C 
ENDBRANCH  24  25
ENDBRANCH  23  24
ENDBRANCH  19  22
ENDBRANCH  14  18
ENDBRANCH   9  12
ENDBRANCH   6   8
BRANCH   3  29
HETATM   29  N   UNL     1      -7.006   0.928 -31.291  1.00  0.00    -0.188 N 
HETATM   30  H   UNL     1      -7.303   0.238 -30.621  1.00  0.00     0.184 HD
BRANCH  29  31
HETATM   31  C   UNL     1      -7.188   0.433 -32.582  1.00  0.00     0.727 A 
HETATM   32  N   UNL     1      -6.596  -0.744 -32.841  1.00  0.00    -0.062 NA
HETATM   33  C   UNL     1      -6.707  -1.259 -34.090  1.00  0.00     0.089 A 
HETATM   34  C   UNL     1      -7.385  -0.588 -35.089  1.00  0.00     0.053 A 
HETATM   35  C   UNL     1      -7.948   0.610 -34.738  1.00  0.00     0.139 A 
HETATM   36  N   UNL     1      -7.864   1.129 -33.505  1.00  0.00    -0.075 NA
BRANCH  33  37
HETATM   37  C   UNL     1      -6.048  -2.559 -34.310  1.00  0.00     0.011 A 
HETATM   38  C   UNL     1      -6.757  -3.660 -34.796  1.00  0.00     0.130 A 
HETATM   39  N   UNL     1      -6.234  -4.895 -35.010  1.00  0.00    -0.272 NA
HETATM   40  C   UNL     1      -4.925  -5.054 -34.737  1.00  0.00     0.116 A 
HETATM   41  C   UNL     1      -4.116  -4.037 -34.263  1.00  0.00     0.020 A 
HETATM   42  C   UNL     1      -4.686  -2.781 -34.051  1.00  0.00     0.017 A 
ENDBRANCH  33  37
ENDBRANCH  29  31
ENDBRANCH   3  29
TORSDOF 9
ENDMDL
MODEL 6
REMARK VINA RESULT:      -8.6      4.829      7.042
REMARK  9 active torsions:
REMARK  status: ('A' for Active; 'I' for Inactive)
REMARK    1  A    between atoms: C_3  and  N_4 
REMARK    2  A    between atoms: N_4  and  C_5 
REMARK    3  A    between atoms: C_7  and  C_8 
REMARK    4  A    between atoms: C_19  and  N_20 
REMARK       I    between atoms: N_20  and  C_21 
REMARK    5  A    between atoms: C_21  and  C_22 
REMARK    6  A    between atoms: C_24  and  N_25 
REMARK       I    between atoms: N_25  and  C_26 
REMARK    7  A    between atoms: C_26  and  C_27 
REMARK    8  A    between atoms: C_28  and  C_29 
REMARK    9  A    between atoms: C_29  and  N_30 
ROOT
HETATM    1  C   UNL     1      -5.921   2.360 -30.261  1.00  0.00     0.050 C 
HETATM    2  C   UNL     1      -4.946   3.262 -30.972  1.00  0.00    -0.033 A 
HETATM    3  C   UNL     1      -4.404   2.919 -32.228  1.00  0.00     0.055 A 
HETATM    4  C   UNL     1      -3.499   3.814 -32.813  1.00  0.00     0.033 A 
HETATM    5  C   UNL     1      -3.106   4.997 -32.176  1.00  0.00     0.032 A 
HETATM    6  C   UNL     1      -3.593   5.309 -30.914  1.00  0.00     0.035 A 
HETATM    7  C   UNL     1      -4.526   4.444 -30.327  1.00  0.00     0.038 A 
ENDROOT
BRANCH   6   8
HETATM    8  N   UNL     1      -3.173   6.426 -30.159  1.00  0.00    -0.323 N 
HETATM    9  C   UNL     1      -3.392   7.762 -30.452  1.00  0.00     0.256 C 
HETATM   10  O   UNL     1      -4.066   8.208 -31.373  1.00  0.00    -0.267 OA
HETATM   11  H   UNL     1      -2.573   6.208 -29.376  1.00  0.00     0.169 HD
BRANCH   9  12
HETATM   12  C   UNL     1      -2.692   8.743 -29.570  1.00  0.00     0.034 A 
HETATM   13  C   UNL     1      -1.463   8.461 -28.955  1.00  0.00     0.046 A 
HETATM   14  C   UNL     1      -0.829   9.423 -28.162  1.00  0.00     0.035 A 
HETATM   15  C   UNL     1      -1.455  10.660 -27.961  1.00  0.00     0.029 A 
HETATM   16  C   UNL     1      -2.689  10.939 -28.548  1.00  0.00     0.003 A 
HETATM   17  C   UNL     1      -3.305   9.982 -29.351  1.00  0.00     0.017 A 
BRANCH  14  18
HETATM   18  N   UNL     1       0.422   9.223 -27.534  1.00  0.00    -0.324 N 
HETATM   19  C   UNL     1       0.636   8.749 -26.261  1.00  0.00     0.245 C 
HETATM   20  O   UNL     1      -0.200   8.377 -25.446  1.00  0.00    -0.268 OA
HETATM   21  H   UNL     1       1.226   9.450 -28.104  1.00  0.00     0.169 HD
BRANCH  19  22
HETATM   22  C   UNL     1       2.085   8.686 -25.909  1.00  0.00     0.072 C 
HETATM   23  C   UNL     1       2.480   9.188 -24.727  1.00  0.00     0.006 C 
BRANCH  23  24
HETATM   24  C   UNL     1       3.873   9.161 -24.199  1.00  0.00     0.261 C 
BRANCH  24  25
HETATM   25  N   UNL     1       4.055   8.126 -23.118  1.00  0.00    -0.076 N 
HETATM   26  H   UNL     1       3.803   7.218 -23.532  1.00  0.00     0.279 HD
HETATM   27  C   UNL     1       5.478   8.005 -22.645  1.00  0.00     0.269 C 
HETATM   28  C   UNL     1       3.111   8.349 -21.970  1.00  0.00     0.269 C 
ENDBRANCH  24  25
ENDBRANCH  23  24
ENDBRANCH  19  22
ENDBRANCH  14  18
ENDBRANCH   9  12
ENDBRANCH   6   8
BRANCH   3  29
HETATM   29  N   UNL     1      -4.690   1.678 -32.814  1.00  0.00    -0.188 N 
HETATM   30  H   UNL     1      -5.492   1.607 -33.419  1.00  0.00     0.184 HD
BRANCH  29  31
HETATM   31  C   UNL     1      -4.131   0.413 -32.633  1.00  0.00     0.727 A 
HETATM   32  N   UNL     1      -4.733  -0.588 -33.295  1.00  0.00    -0.062 NA
HETATM   33  C   UNL     1      -4.257  -1.846 -33.130  1.00  0.00     0.089 A 
HETATM   34  C   UNL     1      -3.198  -2.112 -32.284  1.00  0.00     0.053 A 
HETATM   35  C   UNL     1      -2.653  -1.032 -31.641  1.00  0.00     0.139 A 
HETATM   36  N   UNL     1      -3.097   0.223 -31.803  1.00  0.00    -0.075 NA
BRANCH  33  37
HETATM   37  C   UNL     1      -4.949  -2.901 -33.892  1.00  0.00     0.011 A 
HETATM   38  C   UNL     1      -4.417  -4.188 -34.001  1.00  0.00     0.130 A 
HETATM   39  N   UNL     1      -4.977  -5.211 -34.696  1.00  0.00    -0.272 NA
HETATM   40  C   UNL     1      -6.144  -4.952 -35.318  1.00  0.00     0.116 A 
HETATM   41  C   UNL     1      -6.775  -3.722 -35.275  1.00  0.00     0.020 A 
HETATM   42  C   UNL     1      -6.170  -2.693 -34.554  1.00  0.00     0.017 A 
ENDBRANCH  33  37
ENDBRANCH  29  31
ENDBRANCH   3  29
TORSDOF 9
ENDMDL
MODEL 7
REMARK VINA RESULT:      -8.6      3.135      6.199
REMARK  9 active torsions:
REMARK  status: ('A' for Active; 'I' for Inactive)
REMARK    1  A    between atoms: C_3  and  N_4 
REMARK    2  A    between atoms: N_4  and  C_5 
REMARK    3  A    between atoms: C_7  and  C_8 
REMARK    4  A    between atoms: C_19  and  N_20 
REMARK       I    between atoms: N_20  and  C_21 
REMARK    5  A    between atoms: C_21  and  C_22 
REMARK    6  A    between atoms: C_24  and  N_25 
REMARK       I    between atoms: N_25  and  C_26 
REMARK    7  A    between atoms: C_26  and  C_27 
REMARK    8  A    between atoms: C_28  and  C_29 
REMARK    9  A    between atoms: C_29  and  N_30 
ROOT
HETATM    1  C   UNL     1      -3.980   4.994 -35.288  1.00  0.00     0.050 C 
HETATM    2  C   UNL     1      -4.326   4.987 -33.822  1.00  0.00    -0.033 A 
HETATM    3  C   UNL     1      -5.280   4.094 -33.292  1.00  0.00     0.055 A 
HETATM    4  C   UNL     1      -5.543   4.163 -31.917  1.00  0.00     0.033 A 
HETATM    5  C   UNL     1      -4.918   5.100 -31.086  1.00  0.00     0.032 A 
HETATM    6  C   UNL     1      -4.022   6.019 -31.615  1.00  0.00     0.035 A 
HETATM    7  C   UNL     1      -3.719   5.944 -32.981  1.00  0.00     0.038 A 
ENDROOT
BRANCH   6   8
HETATM    8  N   UNL     1      -3.426   7.061 -30.871  1.00  0.00    -0.323 N 
HETATM    9  C   UNL     1      -2.219   7.017 -30.193  1.00  0.00     0.256 C 
HETATM   10  O   UNL     1      -1.414   6.093 -30.192  1.00  0.00    -0.267 OA
HETATM   11  H   UNL     1      -4.000   7.884 -30.758  1.00  0.00     0.169 HD
BRANCH   9  12
HETATM   12  C   UNL     1      -1.907   8.207 -29.346  1.00  0.00     0.034 A 
HETATM   13  C   UNL     1      -0.728   8.310 -28.594  1.00  0.00     0.046 A 
HETATM   14  C   UNL     1      -0.464   9.459 -27.841  1.00  0.00     0.035 A 
HETATM   15  C   UNL     1      -1.411  10.491 -27.819  1.00  0.00     0.029 A 
HETATM   16  C   UNL     1      -2.598  10.386 -28.544  1.00  0.00     0.003 A 
HETATM   17  C   UNL     1      -2.845   9.247 -29.307  1.00  0.00     0.017 A 
BRANCH  14  18
HETATM   18  N   UNL     1       0.713   9.647 -27.081  1.00  0.00    -0.324 N 
HETATM   19  C   UNL     1       0.832   9.556 -25.714  1.00  0.00     0.245 C 
HETATM   20  O   UNL     1      -0.036   9.262 -24.901  1.00  0.00    -0.268 OA
HETATM   21  H   UNL     1       1.540   9.860 -27.623  1.00  0.00     0.169 HD
BRANCH  19  22
HETATM   22  C   UNL     1       2.219   9.840 -25.240  1.00  0.00     0.072 C 
HETATM   23  C   UNL     1       2.765   9.016 -24.328  1.00  0.00     0.006 C 
BRANCH  23  24
HETATM   24  C   UNL     1       4.149   9.123 -23.788  1.00  0.00     0.261 C 
BRANCH  24  25
HETATM   25  N   UNL     1       4.509   7.957 -22.902  1.00  0.00    -0.076 N 
HETATM   26  H   UNL     1       4.238   7.104 -23.410  1.00  0.00     0.279 HD
HETATM   27  C   UNL     1       5.985   7.849 -22.634  1.00  0.00     0.269 C 
HETATM   28  C   UNL     1       3.717   7.964 -21.625  1.00  0.00     0.269 C 
ENDBRANCH  24  25
ENDBRANCH  23  24
ENDBRANCH  19  22
ENDBRANCH  14  18
ENDBRANCH   9  12
ENDBRANCH   6   8
BRANCH   3  29
HETATM   29  N   UNL     1      -6.005   3.241 -34.135  1.00  0.00    -0.188 N 
HETATM   30  H   UNL     1      -6.062   3.469 -35.114  1.00  0.00     0.184 HD
BRANCH  29  31
HETATM   31  C   UNL     1      -6.814   2.137 -33.867  1.00  0.00     0.727 A 
HETATM   32  N   UNL     1      -6.248   0.937 -34.081  1.00  0.00    -0.062 NA
HETATM   33  C   UNL     1      -6.997  -0.173 -33.873  1.00  0.00     0.089 A 
HETATM   34  C   UNL     1      -8.318  -0.089 -33.478  1.00  0.00     0.053 A 
HETATM   35  C   UNL     1      -8.814   1.173 -33.294  1.00  0.00     0.139 A 
HETATM   36  N   UNL     1      -8.086   2.285 -33.478  1.00  0.00    -0.075 NA
BRANCH  33  37
HETATM   37  C   UNL     1      -6.318  -1.459 -34.112  1.00  0.00     0.011 A 
HETATM   38  C   UNL     1      -4.976  -1.648 -33.771  1.00  0.00     0.130 A 
HETATM   39  N   UNL     1      -4.270  -2.790 -33.972  1.00  0.00    -0.272 NA
HETATM   40  C   UNL     1      -4.932  -3.819 -34.537  1.00  0.00     0.116 A 
HETATM   41  C   UNL     1      -6.263  -3.758 -34.907  1.00  0.00     0.020 A 
HETATM   42  C   UNL     1      -6.957  -2.568 -34.689  1.00  0.00     0.017 A 
ENDBRANCH  33  37
ENDBRANCH  29  31
ENDBRANCH   3  29
TORSDOF 9
ENDMDL
MODEL 8
REMARK VINA RESULT:      -8.5      2.271     12.378
REMARK  9 active torsions:
REMARK  status: ('A' for Active; 'I' for Inactive)
REMARK    1  A    between atoms: C_3  and  N_4 
REMARK    2  A    between atoms: N_4  and  C_5 
REMARK    3  A    between atoms: C_7  and  C_8 
REMARK    4  A    between atoms: C_19  and  N_20 
REMARK       I    between atoms: N_20  and  C_21 
REMARK    5  A    between atoms: C_21  and  C_22 
REMARK    6  A    between atoms: C_24  and  N_25 
REMARK       I    between atoms: N_25  and  C_26 
REMARK    7  A    between atoms: C_26  and  C_27 
REMARK    8  A    between atoms: C_28  and  C_29 
REMARK    9  A    between atoms: C_29  and  N_30 
ROOT
HETATM    1  C   UNL     1      -1.059   6.262 -33.578  1.00  0.00     0.050 C 
HETATM    2  C   UNL     1      -2.116   5.851 -32.587  1.00  0.00    -0.033 A 
HETATM    3  C   UNL     1      -2.306   6.551 -31.377  1.00  0.00     0.055 A 
HETATM    4  C   UNL     1      -3.309   6.094 -30.511  1.00  0.00     0.033 A 
HETATM    5  C   UNL     1      -4.085   4.965 -30.801  1.00  0.00     0.032 A 
HETATM    6  C   UNL     1      -3.861   4.241 -31.964  1.00  0.00     0.035 A 
HETATM    7  C   UNL     1      -2.887   4.701 -32.859  1.00  0.00     0.038 A 
ENDROOT
BRANCH   6   8
HETATM    8  N   UNL     1      -4.524   3.036 -32.284  1.00  0.00    -0.323 N 
HETATM    9  C   UNL     1      -4.040   1.748 -32.121  1.00  0.00     0.256 C 
HETATM   10  O   UNL     1      -2.985   1.425 -31.589  1.00  0.00    -0.267 OA
HETATM   11  H   UNL     1      -5.405   3.151 -32.765  1.00  0.00     0.169 HD
BRANCH   9  12
HETATM   12  C   UNL     1      -4.885   0.660 -32.700  1.00  0.00     0.034 A 
HETATM   13  C   UNL     1      -6.281   0.760 -32.798  1.00  0.00     0.046 A 
HETATM   14  C   UNL     1      -7.026  -0.272 -33.377  1.00  0.00     0.035 A 
HETATM   15  C   UNL     1      -6.365  -1.423 -33.824  1.00  0.00     0.029 A 
HETATM   16  C   UNL     1      -4.980  -1.541 -33.706  1.00  0.00     0.003 A 
HETATM   17  C   UNL     1      -4.242  -0.501 -33.146  1.00  0.00     0.017 A 
BRANCH  14  18
HETATM   18  N   UNL     1      -8.430  -0.232 -33.536  1.00  0.00    -0.324 N 
HETATM   19  C   UNL     1      -9.344   0.292 -32.652  1.00  0.00     0.245 C 
HETATM   20  O   UNL     1      -9.122   0.853 -31.585  1.00  0.00    -0.268 OA
HETATM   21  H   UNL     1      -8.772  -0.627 -34.403  1.00  0.00     0.169 HD
BRANCH  19  22
HETATM   22  C   UNL     1     -10.751   0.145 -33.127  1.00  0.00     0.072 C 
HETATM   23  C   UNL     1     -11.373   1.225 -33.631  1.00  0.00     0.006 C 
BRANCH  23  24
HETATM   24  C   UNL     1     -12.752   1.242 -34.194  1.00  0.00     0.261 C 
BRANCH  24  25
HETATM   25  N   UNL     1     -13.769   0.674 -33.236  1.00  0.00    -0.076 N 
HETATM   26  H   UNL     1     -13.346   0.709 -32.299  1.00  0.00     0.279 HD
HETATM   27  C   UNL     1     -15.037   1.480 -33.168  1.00  0.00     0.269 C 
HETATM   28  C   UNL     1     -14.053  -0.774 -33.522  1.00  0.00     0.269 C 
ENDBRANCH  24  25
ENDBRANCH  23  24
ENDBRANCH  19  22
ENDBRANCH  14  18
ENDBRANCH   9  12
ENDBRANCH   6   8
BRANCH   3  29
HETATM   29  N   UNL     1      -1.451   7.602 -31.018  1.00  0.00    -0.188 N 
HETATM   30  H   UNL     1      -0.546   7.653 -31.456  1.00  0.00     0.184 HD
BRANCH  29  31
HETATM   31  C   UNL     1      -1.549   8.585 -30.034  1.00  0.00     0.727 A 
HETATM   32  N   UNL     1      -0.704   8.456 -28.998  1.00  0.00    -0.062 NA
HETATM   33  C   UNL     1      -0.777   9.361 -27.992  1.00  0.00     0.089 A 
HETATM   34  C   UNL     1      -1.710  10.380 -28.004  1.00  0.00     0.053 A 
HETATM   35  C   UNL     1      -2.537  10.428 -29.094  1.00  0.00     0.139 A 
HETATM   36  N   UNL     1      -2.471   9.553 -30.108  1.00  0.00    -0.075 NA
BRANCH  33  37
HETATM   37  C   UNL     1       0.184   9.175 -26.889  1.00  0.00     0.011 A 
HETATM   38  C   UNL     1       0.004   9.803 -25.654  1.00  0.00     0.130 A 
HETATM   39  N   UNL     1       0.846   9.702 -24.594  1.00  0.00    -0.272 NA
HETATM   40  C   UNL     1       1.933   8.923 -24.757  1.00  0.00     0.116 A 
HETATM   41  C   UNL     1       2.214   8.242 -25.927  1.00  0.00     0.020 A 
HETATM   42  C   UNL     1       1.329   8.370 -26.998  1.00  0.00     0.017 A 
ENDBRANCH  33  37
ENDBRANCH  29  31
ENDBRANCH   3  29
TORSDOF 9
ENDMDL
MODEL 9
REMARK VINA RESULT:      -8.4      6.465     10.109
REMARK  9 active torsions:
REMARK  status: ('A' for Active; 'I' for Inactive)
REMARK    1  A    between atoms: C_3  and  N_4 
REMARK    2  A    between atoms: N_4  and  C_5 
REMARK    3  A    between atoms: C_7  and  C_8 
REMARK    4  A    between atoms: C_19  and  N_20 
REMARK       I    between atoms: N_20  and  C_21 
REMARK    5  A    between atoms: C_21  and  C_22 
REMARK    6  A    between atoms: C_24  and  N_25 
REMARK       I    between atoms: N_25  and  C_26 
REMARK    7  A    between atoms: C_26  and  C_27 
REMARK    8  A    between atoms: C_28  and  C_29 
REMARK    9  A    between atoms: C_29  and  N_30 
ROOT
HETATM    1  C   UNL     1      -5.027   4.465 -32.827  1.00  0.00     0.050 C 
HETATM    2  C   UNL     1      -5.990   4.199 -31.699  1.00  0.00    -0.033 A 
HETATM    3  C   UNL     1      -6.341   2.886 -31.323  1.00  0.00     0.055 A 
HETATM    4  C   UNL     1      -7.249   2.732 -30.267  1.00  0.00     0.033 A 
HETATM    5  C   UNL     1      -7.826   3.830 -29.617  1.00  0.00     0.032 A 
HETATM    6  C   UNL     1      -7.527   5.122 -30.024  1.00  0.00     0.035 A 
HETATM    7  C   UNL     1      -6.595   5.298 -31.054  1.00  0.00     0.038 A 
ENDROOT
BRANCH   6   8
HETATM    8  N   UNL     1      -8.140   6.280 -29.493  1.00  0.00    -0.323 N 
HETATM    9  C   UNL     1      -7.814   6.931 -28.315  1.00  0.00     0.256 C 
HETATM   10  O   UNL     1      -6.878   6.668 -27.569  1.00  0.00    -0.267 OA
HETATM   11  H   UNL     1      -8.957   6.595 -29.995  1.00  0.00     0.169 HD
BRANCH   9  12
HETATM   12  C   UNL     1      -8.735   8.034 -27.908  1.00  0.00     0.034 A 
HETATM   13  C   UNL     1      -9.794   7.839 -27.009  1.00  0.00     0.046 A 
HETATM   14  C   UNL     1     -10.610   8.911 -26.632  1.00  0.00     0.035 A 
HETATM   15  C   UNL     1     -10.380  10.173 -27.193  1.00  0.00     0.029 A 
HETATM   16  C   UNL     1      -9.345  10.369 -28.108  1.00  0.00     0.003 A 
HETATM   17  C   UNL     1      -8.524   9.302 -28.463  1.00  0.00     0.017 A 
BRANCH  14  18
HETATM   18  N   UNL     1     -11.677   8.799 -25.712  1.00  0.00    -0.324 N 
HETATM   19  C   UNL     1     -11.624   8.243 -24.454  1.00  0.00     0.245 C 
HETATM   20  O   UNL     1     -10.648   7.777 -23.879  1.00  0.00    -0.268 OA
HETATM   21  H   UNL     1     -12.557   9.184 -26.030  1.00  0.00     0.169 HD
BRANCH  19  22
HETATM   22  C   UNL     1     -12.945   8.270 -23.760  1.00  0.00     0.072 C 
HETATM   23  C   UNL     1     -13.942   7.516 -24.252  1.00  0.00     0.006 C 
BRANCH  23  24
HETATM   24  C   UNL     1     -15.301   7.386 -23.656  1.00  0.00     0.261 C 
BRANCH  24  25
HETATM   25  N   UNL     1     -16.114   6.299 -24.315  1.00  0.00    -0.076 N 
HETATM   26  H   UNL     1     -16.638   5.826 -23.566  1.00  0.00     0.279 HD
HETATM   27  C   UNL     1     -17.132   6.826 -25.288  1.00  0.00     0.269 C 
HETATM   28  C   UNL     1     -15.236   5.256 -24.947  1.00  0.00     0.269 C 
ENDBRANCH  24  25
ENDBRANCH  23  24
ENDBRANCH  19  22
ENDBRANCH  14  18
ENDBRANCH   9  12
ENDBRANCH   6   8
BRANCH   3  29
HETATM   29  N   UNL     1      -5.870   1.784 -32.051  1.00  0.00    -0.188 N 
HETATM   30  H   UNL     1      -4.928   1.469 -31.887  1.00  0.00     0.184 HD
BRANCH  29  31
HETATM   31  C   UNL     1      -6.426   1.060 -33.104  1.00  0.00     0.727 A 
HETATM   32  N   UNL     1      -5.988  -0.202 -33.237  1.00  0.00    -0.062 NA
HETATM   33  C   UNL     1      -6.465  -0.945 -34.265  1.00  0.00     0.089 A 
HETATM   34  C   UNL     1      -7.360  -0.422 -35.178  1.00  0.00     0.053 A 
HETATM   35  C   UNL     1      -7.744   0.876 -34.971  1.00  0.00     0.139 A 
HETATM   36  N   UNL     1      -7.297   1.623 -33.952  1.00  0.00    -0.075 NA
BRANCH  33  37
HETATM   37  C   UNL     1      -5.957  -2.326 -34.351  1.00  0.00     0.011 A 
HETATM   38  C   UNL     1      -4.645  -2.642 -33.986  1.00  0.00     0.130 A 
HETATM   39  N   UNL     1      -4.091  -3.880 -34.051  1.00  0.00    -0.272 NA
HETATM   40  C   UNL     1      -4.884  -4.875 -34.495  1.00  0.00     0.116 A 
HETATM   41  C   UNL     1      -6.201  -4.689 -34.874  1.00  0.00     0.020 A 
HETATM   42  C   UNL     1      -6.737  -3.404 -34.798  1.00  0.00     0.017 A 
ENDBRANCH  33  37
ENDBRANCH  29  31
ENDBRANCH   3  29
TORSDOF 9
ENDMDL
MODEL 10
REMARK VINA RESULT:      -8.3     18.444     22.367
REMARK  9 active torsions:
REMARK  status: ('A' for Active; 'I' for Inactive)
REMARK    1  A    between atoms: C_3  and  N_4 
REMARK    2  A    between atoms: N_4  and  C_5 
REMARK    3  A    between atoms: C_7  and  C_8 
REMARK    4  A    between atoms: C_19  and  N_20 
REMARK       I    between atoms: N_20  and  C_21 
REMARK    5  A    between atoms: C_21  and  C_22 
REMARK    6  A    between atoms: C_24  and  N_25 
REMARK       I    between atoms: N_25  and  C_26 
REMARK    7  A    between atoms: C_26  and  C_27 
REMARK    8  A    between atoms: C_28  and  C_29 
REMARK    9  A    between atoms: C_29  and  N_30 
ROOT
HETATM    1  C   UNL     1      -6.323 -17.821 -32.261  1.00  0.00     0.050 C 
HETATM    2  C   UNL     1      -6.013 -16.387 -32.600  1.00  0.00    -0.033 A 
HETATM    3  C   UNL     1      -5.688 -15.445 -31.602  1.00  0.00     0.055 A 
HETATM    4  C   UNL     1      -5.421 -14.132 -32.009  1.00  0.00     0.033 A 
HETATM    5  C   UNL     1      -5.500 -13.737 -33.350  1.00  0.00     0.032 A 
HETATM    6  C   UNL     1      -5.876 -14.648 -34.327  1.00  0.00     0.035 A 
HETATM    7  C   UNL     1      -6.114 -15.975 -33.946  1.00  0.00     0.038 A 
ENDROOT
BRANCH   6   8
HETATM    8  N   UNL     1      -6.081 -14.312 -35.684  1.00  0.00    -0.323 N 
HETATM    9  C   UNL     1      -5.238 -13.572 -36.496  1.00  0.00     0.256 C 
HETATM   10  O   UNL     1      -4.124 -13.152 -36.205  1.00  0.00    -0.267 OA
HETATM   11  H   UNL     1      -6.984 -14.572 -36.054  1.00  0.00     0.169 HD
BRANCH   9  12
HETATM   12  C   UNL     1      -5.778 -13.223 -37.844  1.00  0.00     0.034 A 
HETATM   13  C   UNL     1      -7.025 -13.679 -38.299  1.00  0.00     0.046 A 
HETATM   14  C   UNL     1      -7.503 -13.299 -39.557  1.00  0.00     0.035 A 
HETATM   15  C   UNL     1      -6.705 -12.488 -40.374  1.00  0.00     0.029 A 
HETATM   16  C   UNL     1      -5.453 -12.052 -39.939  1.00  0.00     0.003 A 
HETATM   17  C   UNL     1      -4.991 -12.418 -38.677  1.00  0.00     0.017 A 
BRANCH  14  18
HETATM   18  N   UNL     1      -8.759 -13.694 -40.072  1.00  0.00    -0.324 N 
HETATM   19  C   UNL     1      -9.896 -12.923 -40.147  1.00  0.00     0.245 C 
HETATM   20  O   UNL     1     -10.032 -11.749 -39.821  1.00  0.00    -0.268 OA
HETATM   21  H   UNL     1      -8.797 -14.641 -40.424  1.00  0.00     0.169 HD
BRANCH  19  22
HETATM   22  C   UNL     1     -11.055 -13.665 -40.725  1.00  0.00     0.072 C 
HETATM   23  C   UNL     1     -10.829 -14.862 -41.294  1.00  0.00     0.006 C 
BRANCH  23  24
HETATM   24  C   UNL     1     -11.873 -15.754 -41.870  1.00  0.00     0.261 C 
BRANCH  24  25
HETATM   25  N   UNL     1     -11.312 -16.696 -42.906  1.00  0.00    -0.076 N 
HETATM   26  H   UNL     1     -11.505 -17.651 -42.574  1.00  0.00     0.279 HD
HETATM   27  C   UNL     1     -11.975 -16.564 -44.250  1.00  0.00     0.269 C 
HETATM   28  C   UNL     1      -9.818 -16.576 -43.016  1.00  0.00     0.269 C 
ENDBRANCH  24  25
ENDBRANCH  23  24
ENDBRANCH  19  22
ENDBRANCH  14  18
ENDBRANCH   9  12
ENDBRANCH   6   8
BRANCH   3  29
HETATM   29  N   UNL     1      -5.732 -15.798 -30.246  1.00  0.00    -0.188 N 
HETATM   30  H   UNL     1      -6.499 -15.460 -29.688  1.00  0.00     0.184 HD
BRANCH  29  31
HETATM   31  C   UNL     1      -4.819 -16.463 -29.429  1.00  0.00     0.727 A 
HETATM   32  N   UNL     1      -3.602 -15.901 -29.341  1.00  0.00    -0.062 NA
HETATM   33  C   UNL     1      -2.659 -16.521 -28.590  1.00  0.00     0.089 A 
HETATM   34  C   UNL     1      -2.920 -17.715 -27.947  1.00  0.00     0.053 A 
HETATM   35  C   UNL     1      -4.183 -18.221 -28.101  1.00  0.00     0.139 A 
HETATM   36  N   UNL     1      -5.135 -17.615 -28.826  1.00  0.00    -0.075 NA
BRANCH  33  37
HETATM   37  C   UNL     1      -1.349 -15.850 -28.521  1.00  0.00     0.011 A 
HETATM   38  C   UNL     1      -0.318 -16.348 -27.721  1.00  0.00     0.130 A 
HETATM   39  N   UNL     1       0.910 -15.785 -27.584  1.00  0.00    -0.272 NA
HETATM   40  C   UNL     1       1.142 -14.661 -28.291  1.00  0.00     0.116 A 
HETATM   41  C   UNL     1       0.206 -14.079 -29.125  1.00  0.00     0.020 A 
HETATM   42  C   UNL     1      -1.047 -14.682 -29.239  1.00  0.00     0.017 A 
ENDBRANCH  33  37
ENDBRANCH  29  31
ENDBRANCH   3  29
TORSDOF 9
ENDMDL
