MODEL 1
REMARK VINA RESULT:      -9.6      0.000      0.000
REMARK  7 active torsions:
REMARK  status: ('A' for Active; 'I' for Inactive)
REMARK    1  A    between atoms: C_5  and  C_6 
REMARK    2  A    between atoms: C_6  and  N_7 
REMARK       I    between atoms: N_7  and  C_8 
REMARK    3  A    between atoms: C_8  and  C_9 
REMARK    4  A    between atoms: C_14  and  C_15 
REMARK    5  A    between atoms: C_15  and  S_16 
REMARK    6  A    between atoms: S_16  and  C_17 
REMARK    7  A    between atoms: C_17  and  C_18 
ROOT
HETATM    1  C   UNL     1      -2.512   4.428 -32.012  1.00  0.00     0.034 A 
HETATM    2  C   UNL     1      -3.015   3.336 -31.295  1.00  0.00     0.048 A 
HETATM    3  C   UNL     1      -4.205   2.730 -31.712  1.00  0.00     0.057 A 
HETATM    4  C   UNL     1      -4.905   3.198 -32.838  1.00  0.00     0.036 A 
HETATM    5  N   UNL     1      -6.138   2.653 -33.238  1.00  0.00    -0.277 NA
HETATM    6  C   UNL     1      -6.369   1.261 -32.782  1.00  0.00     0.162 C 
HETATM    7  C   UNL     1      -5.872   0.996 -31.347  1.00  0.00     0.240 C 
HETATM    8  O   UNL     1      -6.368   0.151 -30.603  1.00  0.00    -0.271 OA
HETATM    9  N   UNL     1      -4.740   1.674 -30.963  1.00  0.00    -0.324 N 
HETATM   10  C   UNL     1      -4.429   4.327 -33.503  1.00  0.00     0.027 A 
HETATM   11  C   UNL     1      -3.236   4.932 -33.103  1.00  0.00     0.019 A 
HETATM   12  H   UNL     1      -6.896   3.272 -32.942  1.00  0.00     0.128 HD
HETATM   13  H   UNL     1      -4.345   1.420 -30.068  1.00  0.00     0.169 HD
ENDROOT
BRANCH   1  14
HETATM   14  C   UNL     1      -1.236   5.113 -31.662  1.00  0.00     0.252 C 
HETATM   15  N   UNL     1      -0.774   4.966 -30.372  1.00  0.00    -0.353 N 
HETATM   16  H   UNL     1      -1.225   4.332 -29.730  1.00  0.00     0.163 HD
HETATM   17  O   UNL     1      -0.631   5.739 -32.526  1.00  0.00    -0.268 OA
BRANCH  15  18
HETATM   18  C   UNL     1       0.538   5.453 -29.993  1.00  0.00     0.161 C 
BRANCH  18  19
HETATM   19  C   UNL     1       0.480   6.418 -28.838  1.00  0.00    -0.041 A 
HETATM   20  C   UNL     1       0.063   5.985 -27.572  1.00  0.00     0.009 A 
HETATM   21  C   UNL     1       0.095   6.851 -26.475  1.00  0.00     0.007 A 
HETATM   22  C   UNL     1       0.544   8.167 -26.625  1.00  0.00    -0.062 A 
HETATM   23  C   UNL     1       0.624   9.094 -25.448  1.00  0.00     0.048 C 
HETATM   24  C   UNL     1       0.961   8.604 -27.887  1.00  0.00     0.007 A 
HETATM   25  C   UNL     1       0.935   7.736 -28.981  1.00  0.00     0.009 A 
ENDBRANCH  18  19
ENDBRANCH  15  18
ENDBRANCH   1  14
BRANCH   6  26
HETATM   26  C   UNL     1      -7.854   0.870 -32.901  1.00  0.00     0.103 C 
BRANCH  26  27
HETATM   27  S   UNL     1      -8.196  -0.700 -33.795  1.00  0.00    -0.162 SA
BRANCH  27  28
HETATM   28  C   UNL     1      -6.668  -0.832 -34.776  1.00  0.00     0.114 C 
BRANCH  28  29
HETATM   29  C   UNL     1      -6.013  -2.182 -34.614  1.00  0.00    -0.027 A 
HETATM   30  C   UNL     1      -4.722  -2.348 -34.088  1.00  0.00     0.041 A 
HETATM   31 CL   UNL     1      -3.759  -1.005 -33.581  1.00  0.00    -0.084 Cl
HETATM   32  C   UNL     1      -4.164  -3.625 -33.962  1.00  0.00     0.024 A 
HETATM   33  C   UNL     1      -4.887  -4.751 -34.355  1.00  0.00     0.002 A 
HETATM   34  C   UNL     1      -6.172  -4.605 -34.867  1.00  0.00     0.001 A 
HETATM   35  C   UNL     1      -6.732  -3.332 -34.991  1.00  0.00     0.009 A 
ENDBRANCH  28  29
ENDBRANCH  27  28
ENDBRANCH  26  27
ENDBRANCH   6  26
TORSDOF 7
ENDMDL
MODEL 2
REMARK VINA RESULT:      -9.5      3.197     10.767
REMARK  7 active torsions:
REMARK  status: ('A' for Active; 'I' for Inactive)
REMARK    1  A    between atoms: C_5  and  C_6 
REMARK    2  A    between atoms: C_6  and  N_7 
REMARK       I    between atoms: N_7  and  C_8 
REMARK    3  A    between atoms: C_8  and  C_9 
REMARK    4  A    between atoms: C_14  and  C_15 
REMARK    5  A    between atoms: C_15  and  S_16 
REMARK    6  A    between atoms: S_16  and  C_17 
REMARK    7  A    between atoms: C_17  and  C_18 
ROOT
HETATM    1  C   UNL     1      -6.186   2.485 -33.358  1.00  0.00     0.034 A 
HETATM    2  C   UNL     1      -4.920   2.420 -32.763  1.00  0.00     0.048 A 
HETATM    3  C   UNL     1      -4.230   3.606 -32.488  1.00  0.00     0.057 A 
HETATM    4  C   UNL     1      -4.784   4.860 -32.800  1.00  0.00     0.036 A 
HETATM    5  N   UNL     1      -4.083   6.062 -32.600  1.00  0.00    -0.277 NA
HETATM    6  C   UNL     1      -3.020   5.988 -31.568  1.00  0.00     0.162 C 
HETATM    7  C   UNL     1      -2.229   4.665 -31.597  1.00  0.00     0.240 C 
HETATM    8  O   UNL     1      -1.060   4.567 -31.229  1.00  0.00    -0.271 OA
HETATM    9  N   UNL     1      -2.940   3.542 -31.945  1.00  0.00    -0.324 N 
HETATM   10  C   UNL     1      -6.014   4.907 -33.453  1.00  0.00     0.027 A 
HETATM   11  C   UNL     1      -6.717   3.731 -33.720  1.00  0.00     0.019 A 
HETATM   12  H   UNL     1      -3.711   6.393 -33.493  1.00  0.00     0.128 HD
HETATM   13  H   UNL     1      -2.457   2.659 -31.856  1.00  0.00     0.169 HD
ENDROOT
BRANCH   1  14
HETATM   14  C   UNL     1      -7.007   1.277 -33.654  1.00  0.00     0.252 C 
HETATM   15  N   UNL     1      -6.613   0.488 -34.712  1.00  0.00    -0.353 N 
HETATM   16  H   UNL     1      -5.742   0.663 -35.191  1.00  0.00     0.163 HD
HETATM   17  O   UNL     1      -7.966   1.010 -32.937  1.00  0.00    -0.268 OA
BRANCH  15  18
HETATM   18  C   UNL     1      -7.249  -0.790 -34.964  1.00  0.00     0.161 C 
BRANCH  18  19
HETATM   19  C   UNL     1      -6.318  -1.951 -34.728  1.00  0.00    -0.041 A 
HETATM   20  C   UNL     1      -5.053  -1.743 -34.161  1.00  0.00     0.009 A 
HETATM   21  C   UNL     1      -4.223  -2.824 -33.855  1.00  0.00     0.007 A 
HETATM   22  C   UNL     1      -4.641  -4.134 -34.109  1.00  0.00    -0.062 A 
HETATM   23  C   UNL     1      -3.777  -5.305 -33.745  1.00  0.00     0.048 C 
HETATM   24  C   UNL     1      -5.904  -4.346 -34.674  1.00  0.00     0.007 A 
HETATM   25  C   UNL     1      -6.736  -3.266 -34.975  1.00  0.00     0.009 A 
ENDBRANCH  18  19
ENDBRANCH  15  18
ENDBRANCH   1  14
BRANCH   6  26
HETATM   26  C   UNL     1      -2.051   7.180 -31.673  1.00  0.00     0.103 C 
BRANCH  26  27
HETATM   27  S   UNL     1      -2.039   8.327 -30.237  1.00  0.00    -0.162 SA
BRANCH  27  28
HETATM   28  C   UNL     1      -1.817   7.126 -28.887  1.00  0.00     0.114 C 
BRANCH  28  29
HETATM   29  C   UNL     1      -0.602   7.441 -28.049  1.00  0.00    -0.027 A 
HETATM   30  C   UNL     1      -0.476   7.054 -26.706  1.00  0.00     0.041 A 
HETATM   31 CL   UNL     1      -1.719   6.177 -25.884  1.00  0.00    -0.084 Cl
HETATM   32  C   UNL     1       0.674   7.376 -25.978  1.00  0.00     0.024 A 
HETATM   33  C   UNL     1       1.714   8.084 -26.580  1.00  0.00     0.002 A 
HETATM   34  C   UNL     1       1.610   8.466 -27.914  1.00  0.00     0.001 A 
HETATM   35  C   UNL     1       0.464   8.143 -28.644  1.00  0.00     0.009 A 
ENDBRANCH  28  29
ENDBRANCH  27  28
ENDBRANCH  26  27
ENDBRANCH   6  26
TORSDOF 7
ENDMDL
MODEL 3
REMARK VINA RESULT:      -9.4      3.654     10.093
REMARK  7 active torsions:
REMARK  status: ('A' for Active; 'I' for Inactive)
REMARK    1  A    between atoms: C_5  and  C_6 
REMARK    2  A    between atoms: C_6  and  N_7 
REMARK       I    between atoms: N_7  and  C_8 
REMARK    3  A    between atoms: C_8  and  C_9 
REMARK    4  A    between atoms: C_14  and  C_15 
REMARK    5  A    between atoms: C_15  and  S_16 
REMARK    6  A    between atoms: S_16  and  C_17 
REMARK    7  A    between atoms: C_17  and  C_18 
ROOT
HETATM    1  C   UNL     1      -6.334   2.334 -31.696  1.00  0.00     0.034 A 
HETATM    2  C   UNL     1      -6.660   2.908 -30.462  1.00  0.00     0.048 A 
HETATM    3  C   UNL     1      -5.913   3.993 -29.990  1.00  0.00     0.057 A 
HETATM    4  C   UNL     1      -4.840   4.516 -30.734  1.00  0.00     0.036 A 
HETATM    5  N   UNL     1      -4.029   5.559 -30.251  1.00  0.00    -0.277 NA
HETATM    6  C   UNL     1      -4.677   6.419 -29.233  1.00  0.00     0.162 C 
HETATM    7  C   UNL     1      -5.547   5.633 -28.231  1.00  0.00     0.240 C 
HETATM    8  O   UNL     1      -5.754   6.004 -27.077  1.00  0.00    -0.271 OA
HETATM    9  N   UNL     1      -6.202   4.533 -28.730  1.00  0.00    -0.324 N 
HETATM   10  C   UNL     1      -4.483   3.893 -31.929  1.00  0.00     0.027 A 
HETATM   11  C   UNL     1      -5.230   2.818 -32.414  1.00  0.00     0.019 A 
HETATM   12  H   UNL     1      -3.147   5.173 -29.906  1.00  0.00     0.128 HD
HETATM   13  H   UNL     1      -6.859   4.081 -28.110  1.00  0.00     0.169 HD
ENDROOT
BRANCH   1  14
HETATM   14  C   UNL     1      -7.095   1.201 -32.292  1.00  0.00     0.252 C 
HETATM   15  N   UNL     1      -6.812   0.866 -33.598  1.00  0.00    -0.353 N 
HETATM   16  H   UNL     1      -6.044   1.300 -34.088  1.00  0.00     0.163 HD
HETATM   17  O   UNL     1      -7.905   0.590 -31.603  1.00  0.00    -0.268 OA
BRANCH  15  18
HETATM   18  C   UNL     1      -7.379  -0.325 -34.200  1.00  0.00     0.161 C 
BRANCH  18  19
HETATM   19  C   UNL     1      -6.395  -1.464 -34.255  1.00  0.00    -0.041 A 
HETATM   20  C   UNL     1      -5.104  -1.313 -33.731  1.00  0.00     0.009 A 
HETATM   21  C   UNL     1      -4.218  -2.393 -33.695  1.00  0.00     0.007 A 
HETATM   22  C   UNL     1      -4.607  -3.645 -34.183  1.00  0.00    -0.062 A 
HETATM   23  C   UNL     1      -3.680  -4.823 -34.111  1.00  0.00     0.048 C 
HETATM   24  C   UNL     1      -5.894  -3.800 -34.708  1.00  0.00     0.007 A 
HETATM   25  C   UNL     1      -6.781  -2.722 -34.738  1.00  0.00     0.009 A 
ENDBRANCH  18  19
ENDBRANCH  15  18
ENDBRANCH   1  14
BRANCH   6  26
HETATM   26  C   UNL     1      -3.642   7.268 -28.472  1.00  0.00     0.103 C 
BRANCH  26  27
HETATM   27  S   UNL     1      -2.864   8.628 -29.435  1.00  0.00    -0.162 SA
BRANCH  27  28
HETATM   28  C   UNL     1      -1.158   8.507 -28.812  1.00  0.00     0.114 C 
BRANCH  28  29
HETATM   29  C   UNL     1      -0.453   7.281 -29.340  1.00  0.00    -0.027 A 
HETATM   30  C   UNL     1       0.099   6.297 -28.505  1.00  0.00     0.041 A 
HETATM   31 CL   UNL     1       0.026   6.408 -26.782  1.00  0.00    -0.084 Cl
HETATM   32  C   UNL     1       0.743   5.181 -29.053  1.00  0.00     0.024 A 
HETATM   33  C   UNL     1       0.840   5.031 -30.435  1.00  0.00     0.002 A 
HETATM   34  C   UNL     1       0.287   5.992 -31.276  1.00  0.00     0.001 A 
HETATM   35  C   UNL     1      -0.358   7.105 -30.733  1.00  0.00     0.009 A 
ENDBRANCH  28  29
ENDBRANCH  27  28
ENDBRANCH  26  27
ENDBRANCH   6  26
TORSDOF 7
ENDMDL
MODEL 4
REMARK VINA RESULT:      -9.3      1.821      2.311
REMARK  7 active torsions:
REMARK  status: ('A' for Active; 'I' for Inactive)
REMARK    1  A    between atoms: C_5  and  C_6 
REMARK    2  A    between atoms: C_6  and  N_7 
REMARK       I    between atoms: N_7  and  C_8 
REMARK    3  A    between atoms: C_8  and  C_9 
REMARK    4  A    between atoms: C_14  and  C_15 
REMARK    5  A    between atoms: C_15  and  S_16 
REMARK    6  A    between atoms: S_16  and  C_17 
REMARK    7  A    between atoms: C_17  and  C_18 
ROOT
HETATM    1  C   UNL     1      -2.404   5.412 -31.926  1.00  0.00     0.034 A 
HETATM    2  C   UNL     1      -3.580   5.905 -32.505  1.00  0.00     0.048 A 
HETATM    3  C   UNL     1      -4.632   5.024 -32.779  1.00  0.00     0.057 A 
HETATM    4  C   UNL     1      -4.528   3.653 -32.484  1.00  0.00     0.036 A 
HETATM    5  N   UNL     1      -5.541   2.734 -32.813  1.00  0.00    -0.277 NA
HETATM    6  C   UNL     1      -6.890   3.334 -32.955  1.00  0.00     0.162 C 
HETATM    7  C   UNL     1      -6.879   4.708 -33.656  1.00  0.00     0.240 C 
HETATM    8  O   UNL     1      -7.824   5.141 -34.311  1.00  0.00    -0.271 OA
HETATM    9  N   UNL     1      -5.786   5.504 -33.410  1.00  0.00    -0.324 N 
HETATM   10  C   UNL     1      -3.328   3.165 -31.969  1.00  0.00     0.027 A 
HETATM   11  C   UNL     1      -2.278   4.037 -31.681  1.00  0.00     0.019 A 
HETATM   12  H   UNL     1      -5.273   2.218 -33.653  1.00  0.00     0.128 HD
HETATM   13  H   UNL     1      -5.826   6.446 -33.774  1.00  0.00     0.169 HD
ENDROOT
BRANCH   1  14
HETATM   14  C   UNL     1      -1.248   6.282 -31.568  1.00  0.00     0.252 C 
HETATM   15  N   UNL     1      -0.733   6.156 -30.296  1.00  0.00    -0.353 N 
HETATM   16  H   UNL     1      -1.056   5.429 -29.677  1.00  0.00     0.163 HD
HETATM   17  O   UNL     1      -0.778   7.037 -32.412  1.00  0.00    -0.268 OA
BRANCH  15  18
HETATM   18  C   UNL     1       0.491   6.836 -29.920  1.00  0.00     0.161 C 
BRANCH  18  19
HETATM   19  C   UNL     1       0.263   7.883 -28.861  1.00  0.00    -0.041 A 
HETATM   20  C   UNL     1       1.307   8.272 -28.011  1.00  0.00     0.009 A 
HETATM   21  C   UNL     1       1.128   9.307 -27.089  1.00  0.00     0.007 A 
HETATM   22  C   UNL     1      -0.098   9.973 -27.000  1.00  0.00    -0.062 A 
HETATM   23  C   UNL     1      -0.290  11.114 -26.045  1.00  0.00     0.048 C 
HETATM   24  C   UNL     1      -1.143   9.587 -27.847  1.00  0.00     0.007 A 
HETATM   25  C   UNL     1      -0.962   8.557 -28.772  1.00  0.00     0.009 A 
ENDBRANCH  18  19
ENDBRANCH  15  18
ENDBRANCH   1  14
BRANCH   6  26
HETATM   26  C   UNL     1      -7.854   2.382 -33.687  1.00  0.00     0.103 C 
BRANCH  26  27
HETATM   27  S   UNL     1      -7.063   1.027 -34.645  1.00  0.00    -0.162 SA
BRANCH  27  28
HETATM   28  C   UNL     1      -7.181  -0.320 -33.426  1.00  0.00     0.114 C 
BRANCH  28  29
HETATM   29  C   UNL     1      -6.422  -1.546 -33.871  1.00  0.00    -0.027 A 
HETATM   30  C   UNL     1      -5.034  -1.687 -33.713  1.00  0.00     0.041 A 
HETATM   31 CL   UNL     1      -4.063  -0.451 -32.994  1.00  0.00    -0.084 Cl
HETATM   32  C   UNL     1      -4.384  -2.847 -34.147  1.00  0.00     0.024 A 
HETATM   33  C   UNL     1      -5.108  -3.882 -34.737  1.00  0.00     0.002 A 
HETATM   34  C   UNL     1      -6.486  -3.764 -34.890  1.00  0.00     0.001 A 
HETATM   35  C   UNL     1      -7.138  -2.607 -34.457  1.00  0.00     0.009 A 
ENDBRANCH  28  29
ENDBRANCH  27  28
ENDBRANCH  26  27
ENDBRANCH   6  26
TORSDOF 7
ENDMDL
MODEL 5
REMARK VINA RESULT:      -9.2      3.555     10.757
REMARK  7 active torsions:
REMARK  status: ('A' for Active; 'I' for Inactive)
REMARK    1  A    between atoms: C_5  and  C_6 
REMARK    2  A    between atoms: C_6  and  N_7 
REMARK       I    between atoms: N_7  and  C_8 
REMARK    3  A    between atoms: C_8  and  C_9 
REMARK    4  A    between atoms: C_14  and  C_15 
REMARK    5  A    between atoms: C_15  and  S_16 
REMARK    6  A    between atoms: S_16  and  C_17 
REMARK    7  A    between atoms: C_17  and  C_18 
ROOT
HETATM    1  C   UNL     1      -6.183   2.280 -31.498  1.00  0.00     0.034 A 
HETATM    2  C   UNL     1      -6.326   2.790 -30.202  1.00  0.00     0.048 A 
HETATM    3  C   UNL     1      -5.604   3.929 -29.828  1.00  0.00     0.057 A 
HETATM    4  C   UNL     1      -4.737   4.569 -30.731  1.00  0.00     0.036 A 
HETATM    5  N   UNL     1      -3.946   5.672 -30.361  1.00  0.00    -0.277 NA
HETATM    6  C   UNL     1      -4.470   6.441 -29.206  1.00  0.00     0.162 C 
HETATM    7  C   UNL     1      -5.066   5.551 -28.097  1.00  0.00     0.240 C 
HETATM    8  O   UNL     1      -5.089   5.872 -26.910  1.00  0.00    -0.271 OA
HETATM    9  N   UNL     1      -5.702   4.407 -28.515  1.00  0.00    -0.324 N 
HETATM   10  C   UNL     1      -4.553   4.013 -31.996  1.00  0.00     0.027 A 
HETATM   11  C   UNL     1      -5.278   2.885 -32.383  1.00  0.00     0.019 A 
HETATM   12  H   UNL     1      -2.986   5.363 -30.198  1.00  0.00     0.128 HD
HETATM   13  H   UNL     1      -6.191   3.879 -27.806  1.00  0.00     0.169 HD
ENDROOT
BRANCH   1  14
HETATM   14  C   UNL     1      -6.938   1.095 -31.993  1.00  0.00     0.252 C 
HETATM   15  N   UNL     1      -6.886   0.832 -33.345  1.00  0.00    -0.353 N 
HETATM   16  H   UNL     1      -6.273   1.356 -33.950  1.00  0.00     0.163 HD
HETATM   17  O   UNL     1      -7.536   0.384 -31.193  1.00  0.00    -0.268 OA
BRANCH  15  18
HETATM   18  C   UNL     1      -7.447  -0.391 -33.886  1.00  0.00     0.161 C 
BRANCH  18  19
HETATM   19  C   UNL     1      -6.416  -1.479 -34.031  1.00  0.00    -0.041 A 
HETATM   20  C   UNL     1      -5.161  -1.355 -33.420  1.00  0.00     0.009 A 
HETATM   21  C   UNL     1      -4.235  -2.400 -33.473  1.00  0.00     0.007 A 
HETATM   22  C   UNL     1      -4.548  -3.591 -34.138  1.00  0.00    -0.062 A 
HETATM   23  C   UNL     1      -3.579  -4.737 -34.165  1.00  0.00     0.048 C 
HETATM   24  C   UNL     1      -5.800  -3.719 -34.749  1.00  0.00     0.007 A 
HETATM   25  C   UNL     1      -6.727  -2.677 -34.690  1.00  0.00     0.009 A 
ENDBRANCH  18  19
ENDBRANCH  15  18
ENDBRANCH   1  14
BRANCH   6  26
HETATM   26  C   UNL     1      -3.391   7.365 -28.611  1.00  0.00     0.103 C 
BRANCH  26  27
HETATM   27  S   UNL     1      -1.963   7.734 -29.709  1.00  0.00    -0.162 SA
BRANCH  27  28
HETATM   28  C   UNL     1      -0.736   6.584 -29.011  1.00  0.00     0.114 C 
BRANCH  28  29
HETATM   29  C   UNL     1       0.170   7.268 -28.016  1.00  0.00    -0.027 A 
HETATM   30  C   UNL     1       0.173   6.961 -26.646  1.00  0.00     0.041 A 
HETATM   31 CL   UNL     1      -0.877   5.765 -25.972  1.00  0.00    -0.084 Cl
HETATM   32  C   UNL     1       1.035   7.630 -25.770  1.00  0.00     0.024 A 
HETATM   33  C   UNL     1       1.907   8.607 -26.249  1.00  0.00     0.002 A 
HETATM   34  C   UNL     1       1.924   8.915 -27.605  1.00  0.00     0.001 A 
HETATM   35  C   UNL     1       1.067   8.248 -28.482  1.00  0.00     0.009 A 
ENDBRANCH  28  29
ENDBRANCH  27  28
ENDBRANCH  26  27
ENDBRANCH   6  26
TORSDOF 7
ENDMDL
MODEL 6
REMARK VINA RESULT:      -9.1      3.426     10.902
REMARK  7 active torsions:
REMARK  status: ('A' for Active; 'I' for Inactive)
REMARK    1  A    between atoms: C_5  and  C_6 
REMARK    2  A    between atoms: C_6  and  N_7 
REMARK       I    between atoms: N_7  and  C_8 
REMARK    3  A    between atoms: C_8  and  C_9 
REMARK    4  A    between atoms: C_14  and  C_15 
REMARK    5  A    between atoms: C_15  and  S_16 
REMARK    6  A    between atoms: S_16  and  C_17 
REMARK    7  A    between atoms: C_17  and  C_18 
ROOT
HETATM    1  C   UNL     1      -6.000   3.740 -33.259  1.00  0.00     0.034 A 
HETATM    2  C   UNL     1      -4.960   4.345 -33.975  1.00  0.00     0.048 A 
HETATM    3  C   UNL     1      -4.208   5.358 -33.369  1.00  0.00     0.057 A 
HETATM    4  C   UNL     1      -4.480   5.779 -32.056  1.00  0.00     0.036 A 
HETATM    5  N   UNL     1      -3.787   6.842 -31.448  1.00  0.00    -0.277 NA
HETATM    6  C   UNL     1      -2.443   7.103 -32.018  1.00  0.00     0.162 C 
HETATM    7  C   UNL     1      -2.391   6.965 -33.553  1.00  0.00     0.240 C 
HETATM    8  O   UNL     1      -1.600   7.584 -34.262  1.00  0.00    -0.271 OA
HETATM    9  N   UNL     1      -3.205   6.004 -34.103  1.00  0.00    -0.324 N 
HETATM   10  C   UNL     1      -5.560   5.215 -31.379  1.00  0.00     0.027 A 
HETATM   11  C   UNL     1      -6.308   4.195 -31.969  1.00  0.00     0.019 A 
HETATM   12  H   UNL     1      -4.369   7.682 -31.467  1.00  0.00     0.128 HD
HETATM   13  H   UNL     1      -3.092   5.832 -35.092  1.00  0.00     0.169 HD
ENDROOT
BRANCH   1  14
HETATM   14  C   UNL     1      -6.828   2.631 -33.811  1.00  0.00     0.252 C 
HETATM   15  N   UNL     1      -6.209   1.415 -34.003  1.00  0.00    -0.353 N 
HETATM   16  H   UNL     1      -5.267   1.257 -33.679  1.00  0.00     0.163 HD
HETATM   17  O   UNL     1      -8.019   2.822 -34.035  1.00  0.00    -0.268 OA
BRANCH  15  18
HETATM   18  C   UNL     1      -6.976   0.241 -34.373  1.00  0.00     0.161 C 
BRANCH  18  19
HETATM   19  C   UNL     1      -6.185  -1.032 -34.218  1.00  0.00    -0.041 A 
HETATM   20  C   UNL     1      -6.601  -2.208 -34.855  1.00  0.00     0.009 A 
HETATM   21  C   UNL     1      -5.824  -3.368 -34.791  1.00  0.00     0.007 A 
HETATM   22  C   UNL     1      -4.615  -3.372 -34.087  1.00  0.00    -0.062 A 
HETATM   23  C   UNL     1      -3.750  -4.598 -34.046  1.00  0.00     0.048 C 
HETATM   24  C   UNL     1      -4.196  -2.200 -33.449  1.00  0.00     0.007 A 
HETATM   25  C   UNL     1      -4.970  -1.040 -33.519  1.00  0.00     0.009 A 
ENDBRANCH  18  19
ENDBRANCH  15  18
ENDBRANCH   1  14
BRANCH   6  26
HETATM   26  C   UNL     1      -1.914   8.487 -31.599  1.00  0.00     0.103 C 
BRANCH  26  27
HETATM   27  S   UNL     1      -2.770   9.269 -30.172  1.00  0.00    -0.162 SA
BRANCH  27  28
HETATM   28  C   UNL     1      -2.210   8.166 -28.837  1.00  0.00     0.114 C 
BRANCH  28  29
HETATM   29  C   UNL     1      -0.913   8.639 -28.226  1.00  0.00    -0.027 A 
HETATM   30  C   UNL     1       0.325   8.034 -28.493  1.00  0.00     0.041 A 
HETATM   31 CL   UNL     1       0.472   6.676 -29.552  1.00  0.00    -0.084 Cl
HETATM   32  C   UNL     1       1.495   8.516 -27.895  1.00  0.00     0.024 A 
HETATM   33  C   UNL     1       1.446   9.607 -27.029  1.00  0.00     0.002 A 
HETATM   34  C   UNL     1       0.229  10.225 -26.763  1.00  0.00     0.001 A 
HETATM   35  C   UNL     1      -0.940   9.748 -27.359  1.00  0.00     0.009 A 
ENDBRANCH  28  29
ENDBRANCH  27  28
ENDBRANCH  26  27
ENDBRANCH   6  26
TORSDOF 7
ENDMDL
MODEL 7
REMARK VINA RESULT:      -8.8      6.284      9.647
REMARK  7 active torsions:
REMARK  status: ('A' for Active; 'I' for Inactive)
REMARK    1  A    between atoms: C_5  and  C_6 
REMARK    2  A    between atoms: C_6  and  N_7 
REMARK       I    between atoms: N_7  and  C_8 
REMARK    3  A    between atoms: C_8  and  C_9 
REMARK    4  A    between atoms: C_14  and  C_15 
REMARK    5  A    between atoms: C_15  and  S_16 
REMARK    6  A    between atoms: S_16  and  C_17 
REMARK    7  A    between atoms: C_17  and  C_18 
ROOT
HETATM    1  C   UNL     1      -7.524   2.881 -32.229  1.00  0.00     0.034 A 
HETATM    2  C   UNL     1      -8.143   4.003 -32.794  1.00  0.00     0.048 A 
HETATM    3  C   UNL     1      -9.303   4.516 -32.205  1.00  0.00     0.057 A 
HETATM    4  C   UNL     1      -9.859   3.925 -31.057  1.00  0.00     0.036 A 
HETATM    5  N   UNL     1     -11.063   4.376 -30.487  1.00  0.00    -0.277 NA
HETATM    6  C   UNL     1     -11.396   5.788 -30.795  1.00  0.00     0.162 C 
HETATM    7  C   UNL     1     -11.066   6.193 -32.246  1.00  0.00     0.240 C 
HETATM    8  O   UNL     1     -11.671   7.070 -32.858  1.00  0.00    -0.271 OA
HETATM    9  N   UNL     1      -9.956   5.603 -32.801  1.00  0.00    -0.324 N 
HETATM   10  C   UNL     1      -9.272   2.769 -30.544  1.00  0.00     0.027 A 
HETATM   11  C   UNL     1      -8.106   2.257 -31.117  1.00  0.00     0.019 A 
HETATM   12  H   UNL     1     -11.824   3.748 -30.754  1.00  0.00     0.128 HD
HETATM   13  H   UNL     1      -9.670   5.947 -33.707  1.00  0.00     0.169 HD
ENDROOT
BRANCH   1  14
HETATM   14  C   UNL     1      -6.267   2.289 -32.767  1.00  0.00     0.252 C 
HETATM   15  N   UNL     1      -5.857   1.086 -32.236  1.00  0.00    -0.353 N 
HETATM   16  H   UNL     1      -6.444   0.579 -31.591  1.00  0.00     0.163 HD
HETATM   17  O   UNL     1      -5.672   2.861 -33.675  1.00  0.00    -0.268 OA
BRANCH  15  18
HETATM   18  C   UNL     1      -4.745   0.358 -32.815  1.00  0.00     0.161 C 
BRANCH  18  19
HETATM   19  C   UNL     1      -5.191  -0.875 -33.557  1.00  0.00    -0.041 A 
HETATM   20  C   UNL     1      -4.277  -1.896 -33.850  1.00  0.00     0.009 A 
HETATM   21  C   UNL     1      -4.703  -3.082 -34.455  1.00  0.00     0.007 A 
HETATM   22  C   UNL     1      -6.051  -3.268 -34.778  1.00  0.00    -0.062 A 
HETATM   23  C   UNL     1      -6.529  -4.553 -35.388  1.00  0.00     0.048 C 
HETATM   24  C   UNL     1      -6.967  -2.251 -34.487  1.00  0.00     0.007 A 
HETATM   25  C   UNL     1      -6.541  -1.069 -33.877  1.00  0.00     0.009 A 
ENDBRANCH  18  19
ENDBRANCH  15  18
ENDBRANCH   1  14
BRANCH   6  26
HETATM   26  C   UNL     1     -12.873   6.097 -30.489  1.00  0.00     0.103 C 
BRANCH  26  27
HETATM   27  S   UNL     1     -14.019   4.661 -30.558  1.00  0.00    -0.162 SA
BRANCH  27  28
HETATM   28  C   UNL     1     -14.221   4.517 -32.362  1.00  0.00     0.114 C 
BRANCH  28  29
HETATM   29  C   UNL     1     -13.852   3.140 -32.859  1.00  0.00    -0.027 A 
HETATM   30  C   UNL     1     -14.755   2.066 -32.880  1.00  0.00     0.041 A 
HETATM   31 CL   UNL     1     -16.384   2.227 -32.325  1.00  0.00    -0.084 Cl
HETATM   32  C   UNL     1     -14.355   0.810 -33.350  1.00  0.00     0.024 A 
HETATM   33  C   UNL     1     -13.054   0.611 -33.810  1.00  0.00     0.002 A 
HETATM   34  C   UNL     1     -12.150   1.669 -33.807  1.00  0.00     0.001 A 
HETATM   35  C   UNL     1     -12.547   2.923 -33.340  1.00  0.00     0.009 A 
ENDBRANCH  28  29
ENDBRANCH  27  28
ENDBRANCH  26  27
ENDBRANCH   6  26
TORSDOF 7
ENDMDL
MODEL 8
REMARK VINA RESULT:      -8.6      3.679     11.334
REMARK  7 active torsions:
REMARK  status: ('A' for Active; 'I' for Inactive)
REMARK    1  A    between atoms: C_5  and  C_6 
REMARK    2  A    between atoms: C_6  and  N_7 
REMARK       I    between atoms: N_7  and  C_8 
REMARK    3  A    between atoms: C_8  and  C_9 
REMARK    4  A    between atoms: C_14  and  C_15 
REMARK    5  A    between atoms: C_15  and  S_16 
REMARK    6  A    between atoms: S_16  and  C_17 
REMARK    7  A    between atoms: C_17  and  C_18 
ROOT
HETATM    1  C   UNL     1      -4.686   3.502 -32.569  1.00  0.00     0.034 A 
HETATM    2  C   UNL     1      -5.034   4.517 -31.669  1.00  0.00     0.048 A 
HETATM    3  C   UNL     1      -4.025   5.272 -31.061  1.00  0.00     0.057 A 
HETATM    4  C   UNL     1      -2.668   5.029 -31.337  1.00  0.00     0.036 A 
HETATM    5  N   UNL     1      -1.632   5.724 -30.687  1.00  0.00    -0.277 NA
HETATM    6  C   UNL     1      -2.026   7.050 -30.152  1.00  0.00     0.162 C 
HETATM    7  C   UNL     1      -3.434   7.065 -29.526  1.00  0.00     0.240 C 
HETATM    8  O   UNL     1      -3.767   7.831 -28.624  1.00  0.00    -0.271 OA
HETATM    9  N   UNL     1      -4.369   6.249 -30.118  1.00  0.00    -0.324 N 
HETATM   10  C   UNL     1      -2.333   3.972 -32.182  1.00  0.00     0.027 A 
HETATM   11  C   UNL     1      -3.332   3.222 -32.804  1.00  0.00     0.019 A 
HETATM   12  H   UNL     1      -1.231   5.132 -29.957  1.00  0.00     0.128 HD
HETATM   13  H   UNL     1      -5.319   6.339 -29.786  1.00  0.00     0.169 HD
ENDROOT
BRANCH   1  14
HETATM   14  C   UNL     1      -5.693   2.673 -33.289  1.00  0.00     0.252 C 
HETATM   15  N   UNL     1      -5.787   1.345 -32.935  1.00  0.00    -0.353 N 
HETATM   16  H   UNL     1      -5.273   0.982 -32.147  1.00  0.00     0.163 HD
HETATM   17  O   UNL     1      -6.417   3.199 -34.128  1.00  0.00    -0.268 OA
BRANCH  15  18
HETATM   18  C   UNL     1      -6.849   0.510 -33.460  1.00  0.00     0.161 C 
BRANCH  18  19
HETATM   19  C   UNL     1      -6.384  -0.893 -33.753  1.00  0.00    -0.041 A 
HETATM   20  C   UNL     1      -7.281  -1.850 -34.247  1.00  0.00     0.009 A 
HETATM   21  C   UNL     1      -6.836  -3.125 -34.607  1.00  0.00     0.007 A 
HETATM   22  C   UNL     1      -5.486  -3.466 -34.481  1.00  0.00    -0.062 A 
HETATM   23  C   UNL     1      -4.988  -4.817 -34.905  1.00  0.00     0.048 C 
HETATM   24  C   UNL     1      -4.587  -2.514 -33.989  1.00  0.00     0.007 A 
HETATM   25  C   UNL     1      -5.031  -1.238 -33.634  1.00  0.00     0.009 A 
ENDBRANCH  18  19
ENDBRANCH  15  18
ENDBRANCH   1  14
BRANCH   6  26
HETATM   26  C   UNL     1      -0.996   7.573 -29.134  1.00  0.00     0.103 C 
BRANCH  26  27
HETATM   27  S   UNL     1       0.157   6.316 -28.448  1.00  0.00    -0.162 SA
BRANCH  27  28
HETATM   28  C   UNL     1      -0.231   6.479 -26.677  1.00  0.00     0.114 C 
BRANCH  28  29
HETATM   29  C   UNL     1       0.389   7.717 -26.079  1.00  0.00    -0.027 A 
HETATM   30  C   UNL     1      -0.368   8.755 -25.511  1.00  0.00     0.041 A 
HETATM   31 CL   UNL     1      -2.094   8.704 -25.454  1.00  0.00    -0.084 Cl
HETATM   32  C   UNL     1       0.263   9.881 -24.972  1.00  0.00     0.024 A 
HETATM   33  C   UNL     1       1.653   9.986 -24.988  1.00  0.00     0.002 A 
HETATM   34  C   UNL     1       2.418   8.962 -25.536  1.00  0.00     0.001 A 
HETATM   35  C   UNL     1       1.792   7.835 -26.073  1.00  0.00     0.009 A 
ENDBRANCH  28  29
ENDBRANCH  27  28
ENDBRANCH  26  27
ENDBRANCH   6  26
TORSDOF 7
ENDMDL
MODEL 9
REMARK VINA RESULT:      -8.4      4.000     11.021
REMARK  7 active torsions:
REMARK  status: ('A' for Active; 'I' for Inactive)
REMARK    1  A    between atoms: C_5  and  C_6 
REMARK    2  A    between atoms: C_6  and  N_7 
REMARK       I    between atoms: N_7  and  C_8 
REMARK    3  A    between atoms: C_8  and  C_9 
REMARK    4  A    between atoms: C_14  and  C_15 
REMARK    5  A    between atoms: C_15  and  S_16 
REMARK    6  A    between atoms: S_16  and  C_17 
REMARK    7  A    between atoms: C_17  and  C_18 
ROOT
HETATM    1  C   UNL     1      -4.927   4.479 -32.391  1.00  0.00     0.034 A 
HETATM    2  C   UNL     1      -5.494   4.588 -31.116  1.00  0.00     0.048 A 
HETATM    3  C   UNL     1      -4.864   5.379 -30.149  1.00  0.00     0.057 A 
HETATM    4  C   UNL     1      -3.671   6.065 -30.436  1.00  0.00     0.036 A 
HETATM    5  N   UNL     1      -2.979   6.810 -29.464  1.00  0.00    -0.277 NA
HETATM    6  C   UNL     1      -3.822   7.284 -28.340  1.00  0.00     0.162 C 
HETATM    7  C   UNL     1      -4.864   6.246 -27.876  1.00  0.00     0.240 C 
HETATM    8  O   UNL     1      -5.296   6.188 -26.727  1.00  0.00    -0.271 OA
HETATM    9  N   UNL     1      -5.398   5.444 -28.856  1.00  0.00    -0.324 N 
HETATM   10  C   UNL     1      -3.081   5.895 -31.688  1.00  0.00     0.027 A 
HETATM   11  C   UNL     1      -3.709   5.118 -32.663  1.00  0.00     0.019 A 
HETATM   12  H   UNL     1      -2.179   6.270 -29.127  1.00  0.00     0.128 HD
HETATM   13  H   UNL     1      -6.161   4.842 -28.578  1.00  0.00     0.169 HD
ENDROOT
BRANCH   1  14
HETATM   14  C   UNL     1      -5.547   3.688 -33.491  1.00  0.00     0.252 C 
HETATM   15  N   UNL     1      -5.966   2.409 -33.193  1.00  0.00    -0.353 N 
HETATM   16  H   UNL     1      -5.951   2.070 -32.243  1.00  0.00     0.163 HD
HETATM   17  O   UNL     1      -5.698   4.204 -34.593  1.00  0.00    -0.268 OA
BRANCH  15  18
HETATM   18  C   UNL     1      -6.729   1.634 -34.151  1.00  0.00     0.161 C 
BRANCH  18  19
HETATM   19  C   UNL     1      -6.321   0.185 -34.171  1.00  0.00    -0.041 A 
HETATM   20  C   UNL     1      -7.081  -0.758 -34.876  1.00  0.00     0.009 A 
HETATM   21  C   UNL     1      -6.658  -2.086 -34.976  1.00  0.00     0.007 A 
HETATM   22  C   UNL     1      -5.465  -2.496 -34.372  1.00  0.00    -0.062 A 
HETATM   23  C   UNL     1      -4.977  -3.909 -34.508  1.00  0.00     0.048 C 
HETATM   24  C   UNL     1      -4.703  -1.559 -33.667  1.00  0.00     0.007 A 
HETATM   25  C   UNL     1      -5.123  -0.231 -33.573  1.00  0.00     0.009 A 
ENDBRANCH  18  19
ENDBRANCH  15  18
ENDBRANCH   1  14
BRANCH   6  26
HETATM   26  C   UNL     1      -2.963   7.733 -27.143  1.00  0.00     0.103 C 
BRANCH  26  27
HETATM   27  S   UNL     1      -2.854   9.549 -26.877  1.00  0.00    -0.162 SA
BRANCH  27  28
HETATM   28  C   UNL     1      -1.315   9.900 -27.782  1.00  0.00     0.114 C 
BRANCH  28  29
HETATM   29  C   UNL     1      -0.100   9.408 -27.034  1.00  0.00    -0.027 A 
HETATM   30  C   UNL     1       0.755   8.412 -27.531  1.00  0.00     0.041 A 
HETATM   31 CL   UNL     1       0.484   7.649 -29.058  1.00  0.00    -0.084 Cl
HETATM   32  C   UNL     1       1.867   7.995 -26.791  1.00  0.00     0.024 A 
HETATM   33  C   UNL     1       2.142   8.568 -25.550  1.00  0.00     0.002 A 
HETATM   34  C   UNL     1       1.311   9.564 -25.048  1.00  0.00     0.001 A 
HETATM   35  C   UNL     1       0.203   9.984 -25.785  1.00  0.00     0.009 A 
ENDBRANCH  28  29
ENDBRANCH  27  28
ENDBRANCH  26  27
ENDBRANCH   6  26
TORSDOF 7
ENDMDL
MODEL 10
REMARK VINA RESULT:      -8.3      3.441     10.449
REMARK  7 active torsions:
REMARK  status: ('A' for Active; 'I' for Inactive)
REMARK    1  A    between atoms: C_5  and  C_6 
REMARK    2  A    between atoms: C_6  and  N_7 
REMARK       I    between atoms: N_7  and  C_8 
REMARK    3  A    between atoms: C_8  and  C_9 
REMARK    4  A    between atoms: C_14  and  C_15 
REMARK    5  A    between atoms: C_15  and  S_16 
REMARK    6  A    between atoms: S_16  and  C_17 
REMARK    7  A    between atoms: C_17  and  C_18 
ROOT
HETATM    1  C   UNL     1      -6.350   2.786 -33.136  1.00  0.00     0.034 A 
HETATM    2  C   UNL     1      -5.996   3.205 -31.848  1.00  0.00     0.048 A 
HETATM    3  C   UNL     1      -5.297   4.405 -31.684  1.00  0.00     0.057 A 
HETATM    4  C   UNL     1      -4.942   5.197 -32.790  1.00  0.00     0.036 A 
HETATM    5  N   UNL     1      -4.178   6.371 -32.660  1.00  0.00    -0.277 NA
HETATM    6  C   UNL     1      -4.252   7.006 -31.322  1.00  0.00     0.162 C 
HETATM    7  C   UNL     1      -4.254   5.991 -30.162  1.00  0.00     0.240 C 
HETATM    8  O   UNL     1      -3.818   6.244 -29.040  1.00  0.00    -0.271 OA
HETATM    9  N   UNL     1      -4.892   4.798 -30.401  1.00  0.00    -0.324 N 
HETATM   10  C   UNL     1      -5.242   4.736 -34.071  1.00  0.00     0.027 A 
HETATM   11  C   UNL     1      -5.950   3.546 -34.244  1.00  0.00     0.019 A 
HETATM   12  H   UNL     1      -3.211   6.180 -32.928  1.00  0.00     0.128 HD
HETATM   13  H   UNL     1      -4.995   4.176 -29.611  1.00  0.00     0.169 HD
ENDROOT
BRANCH   1  14
HETATM   14  C   UNL     1      -7.125   1.541 -33.402  1.00  0.00     0.252 C 
HETATM   15  N   UNL     1      -6.794   0.819 -34.527  1.00  0.00    -0.353 N 
HETATM   16  H   UNL     1      -5.989   1.067 -35.082  1.00  0.00     0.163 HD
HETATM   17  O   UNL     1      -7.988   1.187 -32.605  1.00  0.00    -0.268 OA
BRANCH  15  18
HETATM   18  C   UNL     1      -7.376  -0.486 -34.771  1.00  0.00     0.161 C 
BRANCH  18  19
HETATM   19  C   UNL     1      -6.414  -1.607 -34.478  1.00  0.00    -0.041 A 
HETATM   20  C   UNL     1      -6.697  -2.914 -34.897  1.00  0.00     0.009 A 
HETATM   21  C   UNL     1      -5.767  -3.940 -34.711  1.00  0.00     0.007 A 
HETATM   22  C   UNL     1      -4.536  -3.679 -34.102  1.00  0.00    -0.062 A 
HETATM   23  C   UNL     1      -3.511  -4.762 -33.935  1.00  0.00     0.048 C 
HETATM   24  C   UNL     1      -4.248  -2.375 -33.682  1.00  0.00     0.007 A 
HETATM   25  C   UNL     1      -5.176  -1.349 -33.874  1.00  0.00     0.009 A 
ENDBRANCH  18  19
ENDBRANCH  15  18
ENDBRANCH   1  14
BRANCH   6  26
HETATM   26  C   UNL     1      -3.118   8.028 -31.121  1.00  0.00     0.103 C 
BRANCH  26  27
HETATM   27  S   UNL     1      -3.428   9.325 -29.855  1.00  0.00    -0.162 SA
BRANCH  27  28
HETATM   28  C   UNL     1      -1.743   9.516 -29.194  1.00  0.00     0.114 C 
BRANCH  28  29
HETATM   29  C   UNL     1      -1.383   8.397 -28.247  1.00  0.00    -0.027 A 
HETATM   30  C   UNL     1      -0.470   7.381 -28.574  1.00  0.00     0.041 A 
HETATM   31 CL   UNL     1       0.322   7.320 -30.108  1.00  0.00    -0.084 Cl
HETATM   32  C   UNL     1      -0.176   6.368 -27.655  1.00  0.00     0.024 A 
HETATM   33  C   UNL     1      -0.783   6.357 -26.400  1.00  0.00     0.002 A 
HETATM   34  C   UNL     1      -1.680   7.363 -26.056  1.00  0.00     0.001 A 
HETATM   35  C   UNL     1      -1.974   8.377 -26.969  1.00  0.00     0.009 A 
ENDBRANCH  28  29
ENDBRANCH  27  28
ENDBRANCH  26  27
ENDBRANCH   6  26
TORSDOF 7
ENDMDL
