MODEL 1
REMARK VINA RESULT:      -8.8      0.000      0.000
REMARK  4 active torsions:
REMARK  status: ('A' for Active; 'I' for Inactive)
REMARK    1  A    between atoms: C_5  and  N_6 
REMARK       I    between atoms: N_6  and  C_7 
REMARK    2  A    between atoms: C_7  and  C_8 
REMARK    3  A    between atoms: C_8  and  N_9 
REMARK    4  A    between atoms: C_11  and  C_12 
REMARK       I    between atoms: C_12  and  N_13 
ROOT
HETATM    1  N   UNL     1      -8.126   0.017 -32.971  1.00  0.00    -0.325 N 
HETATM    2  C   UNL     1      -8.363   1.331 -33.344  1.00  0.00     0.240 C 
HETATM    3  O   UNL     1      -7.715   1.990 -34.152  1.00  0.00    -0.271 OA
HETATM    4  H   UNL     1      -8.814  -0.447 -32.394  1.00  0.00     0.169 HD
ENDROOT
BRANCH   2   5
HETATM    5  C   UNL     1      -9.567   1.953 -32.656  1.00  0.00     0.230 C 
BRANCH   5   6
HETATM    6  N   UNL     1     -10.681   2.076 -33.631  1.00  0.00    -0.357 N 
HETATM    7  C   UNL     1     -11.741   1.235 -33.536  1.00  0.00     0.108 A 
HETATM    8  C   UNL     1     -12.841   1.375 -34.381  1.00  0.00     0.047 A 
HETATM    9  C   UNL     1     -12.835   2.378 -35.346  1.00  0.00     0.020 A 
HETATM   10  C   UNL     1     -11.738   3.232 -35.427  1.00  0.00     0.018 A 
HETATM   11  C   UNL     1     -10.671   3.071 -34.548  1.00  0.00     0.091 A 
BRANCH   8  12
HETATM   12  C   UNL     1     -13.944   0.412 -34.197  1.00  0.00     0.250 C 
HETATM   13  N   UNL     1     -13.710  -0.718 -33.473  1.00  0.00    -0.366 N 
HETATM   14  H   UNL     1     -12.802  -1.038 -33.168  1.00  0.00     0.159 HD
HETATM   15  H   UNL     1     -14.468  -1.392 -33.420  1.00  0.00     0.159 HD
HETATM   16  O   UNL     1     -15.027   0.637 -34.720  1.00  0.00    -0.268 OA
ENDBRANCH   8  12
ENDBRANCH   5   6
ENDBRANCH   2   5
BRANCH   1  17
HETATM   17  C   UNL     1      -7.022  -0.799 -33.355  1.00  0.00     0.045 A 
HETATM   18  C   UNL     1      -5.779  -0.678 -32.650  1.00  0.00     0.001 A 
HETATM   19  C   UNL     1      -4.680  -1.471 -33.080  1.00  0.00    -0.024 A 
HETATM   20  C   UNL     1      -5.549   0.167 -31.529  1.00  0.00     0.014 A 
HETATM   21  C   UNL     1      -3.441  -1.395 -32.425  1.00  0.00     0.012 A 
HETATM   22  C   UNL     1      -4.822  -2.345 -34.163  1.00  0.00     0.012 A 
HETATM   23  C   UNL     1      -3.254  -0.550 -31.335  1.00  0.00     0.001 A 
HETATM   24  C   UNL     1      -4.308   0.230 -30.886  1.00  0.00     0.001 A 
HETATM   25  C   UNL     1      -6.032  -2.456 -34.834  1.00  0.00     0.003 A 
HETATM   26  C   UNL     1      -7.122  -1.689 -34.434  1.00  0.00     0.030 A 
ENDBRANCH   1  17
TORSDOF 4
ENDMDL
MODEL 2
REMARK VINA RESULT:      -8.7      0.777      2.301
REMARK  4 active torsions:
REMARK  status: ('A' for Active; 'I' for Inactive)
REMARK    1  A    between atoms: C_5  and  N_6 
REMARK       I    between atoms: N_6  and  C_7 
REMARK    2  A    between atoms: C_7  and  C_8 
REMARK    3  A    between atoms: C_8  and  N_9 
REMARK    4  A    between atoms: C_11  and  C_12 
REMARK       I    between atoms: C_12  and  N_13 
ROOT
HETATM    1  N   UNL     1      -7.433   0.617 -32.402  1.00  0.00    -0.325 N 
HETATM    2  C   UNL     1      -8.311   1.288 -33.238  1.00  0.00     0.240 C 
HETATM    3  O   UNL     1      -8.166   1.492 -34.440  1.00  0.00    -0.271 OA
HETATM    4  H   UNL     1      -7.736   0.404 -31.461  1.00  0.00     0.169 HD
ENDROOT
BRANCH   2   5
HETATM    5  C   UNL     1      -9.566   1.781 -32.535  1.00  0.00     0.230 C 
BRANCH   5   6
HETATM    6  N   UNL     1     -10.651   1.958 -33.533  1.00  0.00    -0.357 N 
HETATM    7  C   UNL     1     -11.737   1.147 -33.483  1.00  0.00     0.108 A 
HETATM    8  C   UNL     1     -12.812   1.337 -34.351  1.00  0.00     0.047 A 
HETATM    9  C   UNL     1     -12.753   2.362 -35.292  1.00  0.00     0.020 A 
HETATM   10  C   UNL     1     -11.631   3.185 -35.327  1.00  0.00     0.018 A 
HETATM   11  C   UNL     1     -10.591   2.973 -34.426  1.00  0.00     0.091 A 
BRANCH   8  12
HETATM   12  C   UNL     1     -13.945   0.403 -34.216  1.00  0.00     0.250 C 
HETATM   13  N   UNL     1     -13.766  -0.743 -33.503  1.00  0.00    -0.366 N 
HETATM   14  H   UNL     1     -12.876  -1.093 -33.175  1.00  0.00     0.159 HD
HETATM   15  H   UNL     1     -14.543  -1.397 -33.483  1.00  0.00     0.159 HD
HETATM   16  O   UNL     1     -15.005   0.667 -34.768  1.00  0.00    -0.268 OA
ENDBRANCH   8  12
ENDBRANCH   5   6
ENDBRANCH   2   5
BRANCH   1  17
HETATM   17  C   UNL     1      -6.134   0.132 -32.733  1.00  0.00     0.045 A 
HETATM   18  C   UNL     1      -6.004  -1.093 -33.468  1.00  0.00     0.001 A 
HETATM   19  C   UNL     1      -4.698  -1.577 -33.748  1.00  0.00    -0.024 A 
HETATM   20  C   UNL     1      -7.088  -1.871 -33.964  1.00  0.00     0.014 A 
HETATM   21  C   UNL     1      -4.514  -2.769 -34.466  1.00  0.00     0.012 A 
HETATM   22  C   UNL     1      -3.574  -0.866 -33.314  1.00  0.00     0.012 A 
HETATM   23  C   UNL     1      -5.600  -3.506 -34.929  1.00  0.00     0.001 A 
HETATM   24  C   UNL     1      -6.887  -3.056 -34.680  1.00  0.00     0.001 A 
HETATM   25  C   UNL     1      -3.712   0.321 -32.608  1.00  0.00     0.003 A 
HETATM   26  C   UNL     1      -4.981   0.815 -32.320  1.00  0.00     0.030 A 
ENDBRANCH   1  17
TORSDOF 4
ENDMDL
MODEL 3
REMARK VINA RESULT:      -8.5      4.953      7.052
REMARK  4 active torsions:
REMARK  status: ('A' for Active; 'I' for Inactive)
REMARK    1  A    between atoms: C_5  and  N_6 
REMARK       I    between atoms: N_6  and  C_7 
REMARK    2  A    between atoms: C_7  and  C_8 
REMARK    3  A    between atoms: C_8  and  N_9 
REMARK    4  A    between atoms: C_11  and  C_12 
REMARK       I    between atoms: C_12  and  N_13 
ROOT
HETATM    1  N   UNL     1      -4.721  -0.218 -32.881  1.00  0.00    -0.325 N 
HETATM    2  C   UNL     1      -5.571   0.383 -31.966  1.00  0.00     0.240 C 
HETATM    3  O   UNL     1      -5.987  -0.108 -30.921  1.00  0.00    -0.271 OA
HETATM    4  H   UNL     1      -4.352   0.347 -33.634  1.00  0.00     0.169 HD
ENDROOT
BRANCH   2   5
HETATM    5  C   UNL     1      -5.977   1.798 -32.348  1.00  0.00     0.230 C 
BRANCH   5   6
HETATM    6  N   UNL     1      -4.771   2.664 -32.382  1.00  0.00    -0.357 N 
HETATM    7  C   UNL     1      -4.575   3.486 -33.443  1.00  0.00     0.108 A 
HETATM    8  C   UNL     1      -3.499   4.372 -33.471  1.00  0.00     0.047 A 
HETATM    9  C   UNL     1      -2.605   4.391 -32.403  1.00  0.00     0.020 A 
HETATM   10  C   UNL     1      -2.824   3.540 -31.322  1.00  0.00     0.018 A 
HETATM   11  C   UNL     1      -3.925   2.688 -31.326  1.00  0.00     0.091 A 
BRANCH   8  12
HETATM   12  C   UNL     1      -3.373   5.225 -34.668  1.00  0.00     0.250 C 
HETATM   13  N   UNL     1      -2.231   5.947 -34.838  1.00  0.00    -0.366 N 
HETATM   14  H   UNL     1      -1.511   6.073 -34.141  1.00  0.00     0.159 HD
HETATM   15  H   UNL     1      -2.201   6.575 -35.636  1.00  0.00     0.159 HD
HETATM   16  O   UNL     1      -4.304   5.282 -35.460  1.00  0.00    -0.268 OA
ENDBRANCH   8  12
ENDBRANCH   5   6
ENDBRANCH   2   5
BRANCH   1  17
HETATM   17  C   UNL     1      -4.253  -1.564 -32.862  1.00  0.00     0.045 A 
HETATM   18  C   UNL     1      -4.878  -2.541 -33.706  1.00  0.00     0.001 A 
HETATM   19  C   UNL     1      -4.422  -3.884 -33.636  1.00  0.00    -0.024 A 
HETATM   20  C   UNL     1      -5.923  -2.274 -34.635  1.00  0.00     0.014 A 
HETATM   21  C   UNL     1      -4.996  -4.880 -34.442  1.00  0.00     0.012 A 
HETATM   22  C   UNL     1      -3.386  -4.234 -32.764  1.00  0.00     0.012 A 
HETATM   23  C   UNL     1      -6.022  -4.580 -35.335  1.00  0.00     0.001 A 
HETATM   24  C   UNL     1      -6.484  -3.278 -35.433  1.00  0.00     0.001 A 
HETATM   25  C   UNL     1      -2.785  -3.278 -31.955  1.00  0.00     0.003 A 
HETATM   26  C   UNL     1      -3.215  -1.955 -32.003  1.00  0.00     0.030 A 
ENDBRANCH   1  17
TORSDOF 4
ENDMDL
MODEL 4
REMARK VINA RESULT:      -8.4      4.944      7.314
REMARK  4 active torsions:
REMARK  status: ('A' for Active; 'I' for Inactive)
REMARK    1  A    between atoms: C_5  and  N_6 
REMARK       I    between atoms: N_6  and  C_7 
REMARK    2  A    between atoms: C_7  and  C_8 
REMARK    3  A    between atoms: C_8  and  N_9 
REMARK    4  A    between atoms: C_11  and  C_12 
REMARK       I    between atoms: C_12  and  N_13 
ROOT
HETATM    1  N   UNL     1      -3.805   1.682 -31.945  1.00  0.00    -0.325 N 
HETATM    2  C   UNL     1      -4.531   2.338 -30.964  1.00  0.00     0.240 C 
HETATM    3  O   UNL     1      -5.277   1.821 -30.137  1.00  0.00    -0.271 OA
HETATM    4  H   UNL     1      -3.128   2.214 -32.475  1.00  0.00     0.169 HD
ENDROOT
BRANCH   2   5
HETATM    5  C   UNL     1      -4.326   3.844 -30.956  1.00  0.00     0.230 C 
BRANCH   5   6
HETATM    6  N   UNL     1      -4.292   4.343 -32.355  1.00  0.00    -0.357 N 
HETATM    7  C   UNL     1      -3.153   4.904 -32.831  1.00  0.00     0.108 A 
HETATM    8  C   UNL     1      -3.058   5.308 -34.162  1.00  0.00     0.047 A 
HETATM    9  C   UNL     1      -4.157   5.151 -35.001  1.00  0.00     0.020 A 
HETATM   10  C   UNL     1      -5.318   4.571 -34.495  1.00  0.00     0.018 A 
HETATM   11  C   UNL     1      -5.361   4.161 -33.165  1.00  0.00     0.091 A 
BRANCH   8  12
HETATM   12  C   UNL     1      -1.776   5.907 -34.582  1.00  0.00     0.250 C 
HETATM   13  N   UNL     1      -0.905   5.145 -35.300  1.00  0.00    -0.366 N 
HETATM   14  H   UNL     1      -0.987   4.149 -35.450  1.00  0.00     0.159 HD
HETATM   15  H   UNL     1      -0.005   5.562 -35.519  1.00  0.00     0.159 HD
HETATM   16  O   UNL     1      -1.518   7.057 -34.254  1.00  0.00    -0.268 OA
ENDBRANCH   8  12
ENDBRANCH   5   6
ENDBRANCH   2   5
BRANCH   1  17
HETATM   17  C   UNL     1      -3.863   0.296 -32.275  1.00  0.00     0.045 A 
HETATM   18  C   UNL     1      -4.895  -0.177 -33.150  1.00  0.00     0.001 A 
HETATM   19  C   UNL     1      -4.958  -1.569 -33.429  1.00  0.00    -0.024 A 
HETATM   20  C   UNL     1      -5.869   0.641 -33.788  1.00  0.00     0.014 A 
HETATM   21  C   UNL     1      -5.946  -2.086 -34.281  1.00  0.00     0.012 A 
HETATM   22  C   UNL     1      -4.028  -2.446 -32.859  1.00  0.00     0.012 A 
HETATM   23  C   UNL     1      -6.886  -1.254 -34.882  1.00  0.00     0.001 A 
HETATM   24  C   UNL     1      -6.847   0.109 -34.637  1.00  0.00     0.001 A 
HETATM   25  C   UNL     1      -3.030  -1.974 -32.017  1.00  0.00     0.003 A 
HETATM   26  C   UNL     1      -2.949  -0.615 -31.727  1.00  0.00     0.030 A 
ENDBRANCH   1  17
TORSDOF 4
ENDMDL
MODEL 5
REMARK VINA RESULT:      -8.4      5.499      9.007
REMARK  4 active torsions:
REMARK  status: ('A' for Active; 'I' for Inactive)
REMARK    1  A    between atoms: C_5  and  N_6 
REMARK       I    between atoms: N_6  and  C_7 
REMARK    2  A    between atoms: C_7  and  C_8 
REMARK    3  A    between atoms: C_8  and  N_9 
REMARK    4  A    between atoms: C_11  and  C_12 
REMARK       I    between atoms: C_12  and  N_13 
ROOT
HETATM    1  N   UNL     1      -4.550   2.702 -32.187  1.00  0.00    -0.325 N 
HETATM    2  C   UNL     1      -3.656   3.653 -32.653  1.00  0.00     0.240 C 
HETATM    3  O   UNL     1      -2.713   3.459 -33.414  1.00  0.00    -0.271 OA
HETATM    4  H   UNL     1      -5.359   3.020 -31.670  1.00  0.00     0.169 HD
ENDROOT
BRANCH   2   5
HETATM    5  C   UNL     1      -3.939   5.058 -32.145  1.00  0.00     0.230 C 
BRANCH   5   6
HETATM    6  N   UNL     1      -2.653   5.759 -31.896  1.00  0.00    -0.357 N 
HETATM    7  C   UNL     1      -1.758   5.217 -31.034  1.00  0.00     0.108 A 
HETATM    8  C   UNL     1      -0.508   5.804 -30.839  1.00  0.00     0.047 A 
HETATM    9  C   UNL     1      -0.191   6.973 -31.525  1.00  0.00     0.020 A 
HETATM   10  C   UNL     1      -1.123   7.514 -32.407  1.00  0.00     0.018 A 
HETATM   11  C   UNL     1      -2.350   6.882 -32.588  1.00  0.00     0.091 A 
BRANCH   8  12
HETATM   12  C   UNL     1       0.394   5.137 -29.882  1.00  0.00     0.250 C 
HETATM   13  N   UNL     1       0.256   5.411 -28.554  1.00  0.00    -0.366 N 
HETATM   14  H   UNL     1      -0.316   6.148 -28.168  1.00  0.00     0.159 HD
HETATM   15  H   UNL     1       0.933   4.988 -27.927  1.00  0.00     0.159 HD
HETATM   16  O   UNL     1       1.258   4.380 -30.303  1.00  0.00    -0.268 OA
ENDBRANCH   8  12
ENDBRANCH   5   6
ENDBRANCH   2   5
BRANCH   1  17
HETATM   17  C   UNL     1      -4.491   1.293 -32.395  1.00  0.00     0.045 A 
HETATM   18  C   UNL     1      -5.414   0.675 -33.302  1.00  0.00     0.001 A 
HETATM   19  C   UNL     1      -5.363  -0.736 -33.459  1.00  0.00    -0.024 A 
HETATM   20  C   UNL     1      -6.382   1.365 -34.085  1.00  0.00     0.014 A 
HETATM   21  C   UNL     1      -6.241  -1.392 -34.336  1.00  0.00     0.012 A 
HETATM   22  C   UNL     1      -4.429  -1.493 -32.742  1.00  0.00     0.012 A 
HETATM   23  C   UNL     1      -7.179  -0.683 -35.080  1.00  0.00     0.001 A 
HETATM   24  C   UNL     1      -7.248   0.696 -34.956  1.00  0.00     0.001 A 
HETATM   25  C   UNL     1      -3.538  -0.882 -31.870  1.00  0.00     0.003 A 
HETATM   26  C   UNL     1      -3.569   0.499 -31.698  1.00  0.00     0.030 A 
ENDBRANCH   1  17
TORSDOF 4
ENDMDL
MODEL 6
REMARK VINA RESULT:      -8.3      1.661      3.043
REMARK  4 active torsions:
REMARK  status: ('A' for Active; 'I' for Inactive)
REMARK    1  A    between atoms: C_5  and  N_6 
REMARK       I    between atoms: N_6  and  C_7 
REMARK    2  A    between atoms: C_7  and  C_8 
REMARK    3  A    between atoms: C_8  and  N_9 
REMARK    4  A    between atoms: C_11  and  C_12 
REMARK       I    between atoms: C_12  and  N_13 
ROOT
HETATM    1  N   UNL     1      -6.110  -0.184 -34.222  1.00  0.00    -0.325 N 
HETATM    2  C   UNL     1      -7.424  -0.014 -33.818  1.00  0.00     0.240 C 
HETATM    3  O   UNL     1      -7.895  -0.297 -32.719  1.00  0.00    -0.271 OA
HETATM    4  H   UNL     1      -5.827   0.212 -35.108  1.00  0.00     0.169 HD
ENDROOT
BRANCH   2   5
HETATM    5  C   UNL     1      -8.315   0.603 -34.884  1.00  0.00     0.230 C 
BRANCH   5   6
HETATM    6  N   UNL     1      -9.305   1.503 -34.237  1.00  0.00    -0.357 N 
HETATM    7  C   UNL     1     -10.626   1.220 -34.344  1.00  0.00     0.108 A 
HETATM    8  C   UNL     1     -11.578   1.995 -33.682  1.00  0.00     0.047 A 
HETATM    9  C   UNL     1     -11.160   3.084 -32.922  1.00  0.00     0.020 A 
HETATM   10  C   UNL     1      -9.798   3.357 -32.824  1.00  0.00     0.018 A 
HETATM   11  C   UNL     1      -8.882   2.543 -33.483  1.00  0.00     0.091 A 
BRANCH   8  12
HETATM   12  C   UNL     1     -12.990   1.605 -33.861  1.00  0.00     0.250 C 
HETATM   13  N   UNL     1     -13.803   1.578 -32.768  1.00  0.00    -0.366 N 
HETATM   14  H   UNL     1     -13.494   1.657 -31.809  1.00  0.00     0.159 HD
HETATM   15  H   UNL     1     -14.751   1.243 -32.911  1.00  0.00     0.159 HD
HETATM   16  O   UNL     1     -13.387   1.292 -34.975  1.00  0.00    -0.268 OA
ENDBRANCH   8  12
ENDBRANCH   5   6
ENDBRANCH   2   5
BRANCH   1  17
HETATM   17  C   UNL     1      -5.065  -0.828 -33.496  1.00  0.00     0.045 A 
HETATM   18  C   UNL     1      -4.823  -2.227 -33.699  1.00  0.00     0.001 A 
HETATM   19  C   UNL     1      -3.805  -2.854 -32.932  1.00  0.00    -0.024 A 
HETATM   20  C   UNL     1      -5.514  -3.053 -34.630  1.00  0.00     0.014 A 
HETATM   21  C   UNL     1      -3.525  -4.220 -33.093  1.00  0.00     0.012 A 
HETATM   22  C   UNL     1      -3.062  -2.114 -32.006  1.00  0.00     0.012 A 
HETATM   23  C   UNL     1      -4.228  -4.996 -34.009  1.00  0.00     0.001 A 
HETATM   24  C   UNL     1      -5.221  -4.413 -34.779  1.00  0.00     0.001 A 
HETATM   25  C   UNL     1      -3.302  -0.759 -31.822  1.00  0.00     0.003 A 
HETATM   26  C   UNL     1      -4.295  -0.122 -32.560  1.00  0.00     0.030 A 
ENDBRANCH   1  17
TORSDOF 4
ENDMDL
MODEL 7
REMARK VINA RESULT:      -8.3      4.775      7.077
REMARK  4 active torsions:
REMARK  status: ('A' for Active; 'I' for Inactive)
REMARK    1  A    between atoms: C_5  and  N_6 
REMARK       I    between atoms: N_6  and  C_7 
REMARK    2  A    between atoms: C_7  and  C_8 
REMARK    3  A    between atoms: C_8  and  N_9 
REMARK    4  A    between atoms: C_11  and  C_12 
REMARK       I    between atoms: C_12  and  N_13 
ROOT
HETATM    1  N   UNL     1      -4.817   0.725 -32.285  1.00  0.00    -0.325 N 
HETATM    2  C   UNL     1      -5.629   1.425 -31.407  1.00  0.00     0.240 C 
HETATM    3  O   UNL     1      -6.805   1.185 -31.147  1.00  0.00    -0.271 OA
HETATM    4  H   UNL     1      -3.831   0.949 -32.306  1.00  0.00     0.169 HD
ENDROOT
BRANCH   2   5
HETATM    5  C   UNL     1      -4.927   2.585 -30.718  1.00  0.00     0.230 C 
BRANCH   5   6
HETATM    6  N   UNL     1      -4.585   3.621 -31.726  1.00  0.00    -0.357 N 
HETATM    7  C   UNL     1      -3.299   4.035 -31.840  1.00  0.00     0.108 A 
HETATM    8  C   UNL     1      -2.926   4.945 -32.829  1.00  0.00     0.047 A 
HETATM    9  C   UNL     1      -3.897   5.446 -33.692  1.00  0.00     0.020 A 
HETATM   10  C   UNL     1      -5.211   5.008 -33.560  1.00  0.00     0.018 A 
HETATM   11  C   UNL     1      -5.534   4.081 -32.573  1.00  0.00     0.091 A 
BRANCH   8  12
HETATM   12  C   UNL     1      -1.503   5.332 -32.871  1.00  0.00     0.250 C 
HETATM   13  N   UNL     1      -1.105   6.258 -33.787  1.00  0.00    -0.366 N 
HETATM   14  H   UNL     1      -1.670   6.604 -34.550  1.00  0.00     0.159 HD
HETATM   15  H   UNL     1      -0.110   6.456 -33.836  1.00  0.00     0.159 HD
HETATM   16  O   UNL     1      -0.715   4.794 -32.105  1.00  0.00    -0.268 OA
ENDBRANCH   8  12
ENDBRANCH   5   6
ENDBRANCH   2   5
BRANCH   1  17
HETATM   17  C   UNL     1      -5.206  -0.337 -33.153  1.00  0.00     0.045 A 
HETATM   18  C   UNL     1      -4.557  -1.610 -33.044  1.00  0.00     0.001 A 
HETATM   19  C   UNL     1      -4.932  -2.639 -33.949  1.00  0.00    -0.024 A 
HETATM   20  C   UNL     1      -3.564  -1.946 -32.081  1.00  0.00     0.014 A 
HETATM   21  C   UNL     1      -4.331  -3.906 -33.885  1.00  0.00     0.012 A 
HETATM   22  C   UNL     1      -5.914  -2.403 -34.918  1.00  0.00     0.012 A 
HETATM   23  C   UNL     1      -3.358  -4.193 -32.932  1.00  0.00     0.001 A 
HETATM   24  C   UNL     1      -2.975  -3.214 -32.029  1.00  0.00     0.001 A 
HETATM   25  C   UNL     1      -6.538  -1.167 -35.010  1.00  0.00     0.003 A 
HETATM   26  C   UNL     1      -6.187  -0.143 -34.136  1.00  0.00     0.030 A 
ENDBRANCH   1  17
TORSDOF 4
ENDMDL
MODEL 8
REMARK VINA RESULT:      -8.2      1.958      3.763
REMARK  4 active torsions:
REMARK  status: ('A' for Active; 'I' for Inactive)
REMARK    1  A    between atoms: C_5  and  N_6 
REMARK       I    between atoms: N_6  and  C_7 
REMARK    2  A    between atoms: C_7  and  C_8 
REMARK    3  A    between atoms: C_8  and  N_9 
REMARK    4  A    between atoms: C_11  and  C_12 
REMARK       I    between atoms: C_12  and  N_13 
ROOT
HETATM    1  N   UNL     1      -7.915  -0.059 -32.845  1.00  0.00    -0.325 N 
HETATM    2  C   UNL     1      -8.811   0.415 -33.790  1.00  0.00     0.240 C 
HETATM    3  O   UNL     1      -8.609   0.532 -34.995  1.00  0.00    -0.271 OA
HETATM    4  H   UNL     1      -8.254  -0.228 -31.907  1.00  0.00     0.169 HD
ENDROOT
BRANCH   2   5
HETATM    5  C   UNL     1     -10.165   0.794 -33.212  1.00  0.00     0.230 C 
BRANCH   5   6
HETATM    6  N   UNL     1     -10.776   1.860 -34.047  1.00  0.00    -0.357 N 
HETATM    7  C   UNL     1     -10.171   3.071 -34.122  1.00  0.00     0.108 A 
HETATM    8  C   UNL     1     -10.670   4.068 -34.960  1.00  0.00     0.047 A 
HETATM    9  C   UNL     1     -11.816   3.816 -35.709  1.00  0.00     0.020 A 
HETATM   10  C   UNL     1     -12.422   2.566 -35.619  1.00  0.00     0.018 A 
HETATM   11  C   UNL     1     -11.877   1.592 -34.787  1.00  0.00     0.091 A 
BRANCH   8  12
HETATM   12  C   UNL     1      -9.941   5.350 -34.972  1.00  0.00     0.250 C 
HETATM   13  N   UNL     1     -10.598   6.472 -35.379  1.00  0.00    -0.366 N 
HETATM   14  H   UNL     1     -11.507   6.487 -35.819  1.00  0.00     0.159 HD
HETATM   15  H   UNL     1     -10.052   7.326 -35.439  1.00  0.00     0.159 HD
HETATM   16  O   UNL     1      -8.762   5.369 -34.644  1.00  0.00    -0.268 OA
ENDBRANCH   8  12
ENDBRANCH   5   6
ENDBRANCH   2   5
BRANCH   1  17
HETATM   17  C   UNL     1      -6.545  -0.392 -33.052  1.00  0.00     0.045 A 
HETATM   18  C   UNL     1      -6.210  -1.628 -33.698  1.00  0.00     0.001 A 
HETATM   19  C   UNL     1      -4.836  -1.957 -33.854  1.00  0.00    -0.024 A 
HETATM   20  C   UNL     1      -7.148  -2.561 -34.221  1.00  0.00     0.014 A 
HETATM   21  C   UNL     1      -4.452  -3.152 -34.482  1.00  0.00     0.012 A 
HETATM   22  C   UNL     1      -3.845  -1.088 -33.386  1.00  0.00     0.012 A 
HETATM   23  C   UNL     1      -5.400  -4.044 -34.974  1.00  0.00     0.001 A 
HETATM   24  C   UNL     1      -6.748  -3.748 -34.846  1.00  0.00     0.001 A 
HETATM   25  C   UNL     1      -4.182   0.108 -32.766  1.00  0.00     0.003 A 
HETATM   26  C   UNL     1      -5.520   0.452 -32.600  1.00  0.00     0.030 A 
ENDBRANCH   1  17
TORSDOF 4
ENDMDL
MODEL 9
REMARK VINA RESULT:      -8.1      2.427      3.982
REMARK  4 active torsions:
REMARK  status: ('A' for Active; 'I' for Inactive)
REMARK    1  A    between atoms: C_5  and  N_6 
REMARK       I    between atoms: N_6  and  C_7 
REMARK    2  A    between atoms: C_7  and  C_8 
REMARK    3  A    between atoms: C_8  and  N_9 
REMARK    4  A    between atoms: C_11  and  C_12 
REMARK       I    between atoms: C_12  and  N_13 
ROOT
HETATM    1  N   UNL     1      -8.157  -0.688 -33.273  1.00  0.00    -0.325 N 
HETATM    2  C   UNL     1      -8.696   0.442 -33.867  1.00  0.00     0.240 C 
HETATM    3  O   UNL     1      -8.226   1.066 -34.814  1.00  0.00    -0.271 OA
HETATM    4  H   UNL     1      -8.713  -1.179 -32.587  1.00  0.00     0.169 HD
ENDROOT
BRANCH   2   5
HETATM    5  C   UNL     1     -10.010   0.890 -33.246  1.00  0.00     0.230 C 
BRANCH   5   6
HETATM    6  N   UNL     1      -9.785   2.130 -32.461  1.00  0.00    -0.357 N 
HETATM    7  C   UNL     1      -8.678   2.233 -31.686  1.00  0.00     0.108 A 
HETATM    8  C   UNL     1      -8.392   3.413 -31.001  1.00  0.00     0.047 A 
HETATM    9  C   UNL     1      -9.272   4.488 -31.101  1.00  0.00     0.020 A 
HETATM   10  C   UNL     1     -10.404   4.364 -31.902  1.00  0.00     0.018 A 
HETATM   11  C   UNL     1     -10.637   3.174 -32.587  1.00  0.00     0.091 A 
BRANCH   8  12
HETATM   12  C   UNL     1      -7.163   3.425 -30.186  1.00  0.00     0.250 C 
HETATM   13  N   UNL     1      -6.987   2.447 -29.255  1.00  0.00    -0.366 N 
HETATM   14  H   UNL     1      -7.694   1.788 -28.961  1.00  0.00     0.159 HD
HETATM   15  H   UNL     1      -6.163   2.519 -28.665  1.00  0.00     0.159 HD
HETATM   16  O   UNL     1      -6.348   4.324 -30.347  1.00  0.00    -0.268 OA
ENDBRANCH   8  12
ENDBRANCH   5   6
ENDBRANCH   2   5
BRANCH   1  17
HETATM   17  C   UNL     1      -6.893  -1.286 -33.554  1.00  0.00     0.045 A 
HETATM   18  C   UNL     1      -5.754  -0.936 -32.757  1.00  0.00     0.001 A 
HETATM   19  C   UNL     1      -4.498  -1.513 -33.086  1.00  0.00    -0.024 A 
HETATM   20  C   UNL     1      -5.775  -0.060 -31.636  1.00  0.00     0.014 A 
HETATM   21  C   UNL     1      -3.351  -1.207 -32.337  1.00  0.00     0.012 A 
HETATM   22  C   UNL     1      -4.388  -2.401 -34.161  1.00  0.00     0.012 A 
HETATM   23  C   UNL     1      -3.410  -0.339 -31.250  1.00  0.00     0.001 A 
HETATM   24  C   UNL     1      -4.622   0.233 -30.899  1.00  0.00     0.001 A 
HETATM   25  C   UNL     1      -5.500  -2.735 -34.923  1.00  0.00     0.003 A 
HETATM   26  C   UNL     1      -6.741  -2.182 -34.622  1.00  0.00     0.030 A 
ENDBRANCH   1  17
TORSDOF 4
ENDMDL
MODEL 10
REMARK VINA RESULT:      -8.1      4.946      6.810
REMARK  4 active torsions:
REMARK  status: ('A' for Active; 'I' for Inactive)
REMARK    1  A    between atoms: C_5  and  N_6 
REMARK       I    between atoms: N_6  and  C_7 
REMARK    2  A    between atoms: C_7  and  C_8 
REMARK    3  A    between atoms: C_8  and  N_9 
REMARK    4  A    between atoms: C_11  and  C_12 
REMARK       I    between atoms: C_12  and  N_13 
ROOT
HETATM    1  N   UNL     1      -2.944   3.130 -32.255  1.00  0.00    -0.325 N 
HETATM    2  C   UNL     1      -4.223   3.012 -31.734  1.00  0.00     0.240 C 
HETATM    3  O   UNL     1      -5.103   3.868 -31.755  1.00  0.00    -0.271 OA
HETATM    4  H   UNL     1      -2.363   2.303 -32.287  1.00  0.00     0.169 HD
ENDROOT
BRANCH   2   5
HETATM    5  C   UNL     1      -4.502   1.658 -31.102  1.00  0.00     0.230 C 
BRANCH   5   6
HETATM    6  N   UNL     1      -5.464   0.908 -31.950  1.00  0.00    -0.357 N 
HETATM    7  C   UNL     1      -6.785   0.947 -31.648  1.00  0.00     0.108 A 
HETATM    8  C   UNL     1      -7.725   0.324 -32.468  1.00  0.00     0.047 A 
HETATM    9  C   UNL     1      -7.291  -0.364 -33.598  1.00  0.00     0.020 A 
HETATM   10  C   UNL     1      -5.930  -0.392 -33.893  1.00  0.00     0.018 A 
HETATM   11  C   UNL     1      -5.030   0.264 -33.058  1.00  0.00     0.091 A 
BRANCH   8  12
HETATM   12  C   UNL     1      -9.137   0.426 -32.054  1.00  0.00     0.250 C 
HETATM   13  N   UNL     1      -9.454   1.239 -31.008  1.00  0.00    -0.366 N 
HETATM   14  H   UNL     1      -8.788   1.673 -30.384  1.00  0.00     0.159 HD
HETATM   15  H   UNL     1     -10.423   1.237 -30.704  1.00  0.00     0.159 HD
HETATM   16  O   UNL     1      -9.980  -0.240 -32.639  1.00  0.00    -0.268 OA
ENDBRANCH   8  12
ENDBRANCH   5   6
ENDBRANCH   2   5
BRANCH   1  17
HETATM   17  C   UNL     1      -2.348   4.299 -32.812  1.00  0.00     0.045 A 
HETATM   18  C   UNL     1      -1.438   5.072 -32.018  1.00  0.00     0.001 A 
HETATM   19  C   UNL     1      -0.891   6.257 -32.581  1.00  0.00    -0.024 A 
HETATM   20  C   UNL     1      -1.014   4.744 -30.700  1.00  0.00     0.014 A 
HETATM   21  C   UNL     1       0.007   7.050 -31.849  1.00  0.00     0.012 A 
HETATM   22  C   UNL     1      -1.238   6.647 -33.879  1.00  0.00     0.012 A 
HETATM   23  C   UNL     1       0.392   6.698 -30.559  1.00  0.00     0.001 A 
HETATM   24  C   UNL     1      -0.117   5.545 -29.985  1.00  0.00     0.001 A 
HETATM   25  C   UNL     1      -2.116   5.887 -34.639  1.00  0.00     0.003 A 
HETATM   26  C   UNL     1      -2.667   4.723 -34.109  1.00  0.00     0.030 A 
ENDBRANCH   1  17
TORSDOF 4
ENDMDL
