MODEL 1
REMARK VINA RESULT:      -7.4      0.000      0.000
REMARK  5 active torsions:
REMARK  status: ('A' for Active; 'I' for Inactive)
REMARK    1  A    between atoms: C_7  and  C_8 
REMARK    2  A    between atoms: C_8  and  N_9 
REMARK    3  A    between atoms: C_12  and  C_13 
REMARK    4  A    between atoms: C_13  and  C_14 
REMARK    5  A    between atoms: C_14  and  O_15 
ROOT
HETATM    1  C   UNL     1      -3.015  -0.483 -31.560  1.00  0.00     0.020 A 
HETATM    2  C   UNL     1      -3.907   0.556 -31.703  1.00  0.00     0.117 A 
HETATM    3  N   UNL     1      -5.004   0.503 -32.496  1.00  0.00    -0.260 NA
HETATM    4  C   UNL     1      -5.218  -0.623 -33.214  1.00  0.00     0.076 A 
HETATM    5  C   UNL     1      -4.374  -1.756 -33.131  1.00  0.00     0.011 A 
HETATM    6  C   UNL     1      -3.257  -1.649 -32.275  1.00  0.00     0.016 A 
HETATM    7  C   UNL     1      -6.337  -0.663 -34.051  1.00  0.00    -0.003 A 
HETATM    8  C   UNL     1      -6.634  -1.809 -34.806  1.00  0.00     0.012 A 
HETATM    9  C   UNL     1      -5.818  -2.928 -34.721  1.00  0.00     0.020 A 
HETATM   10  C   UNL     1      -4.696  -2.907 -33.894  1.00  0.00     0.023 A 
HETATM   11 BR   UNL     1      -3.643  -4.492 -33.848  1.00  0.00    -0.050 Br
ENDROOT
BRANCH   7  12
HETATM   12  C   UNL     1      -7.219   0.556 -34.179  1.00  0.00     0.275 C 
BRANCH  12  13
HETATM   13  N   UNL     1      -8.075   0.826 -32.968  1.00  0.00    -0.067 N 
HETATM   14  H   UNL     1      -7.500   0.435 -32.196  1.00  0.00     0.280 HD
HETATM   15  C   UNL     1      -9.405   0.114 -32.939  1.00  0.00     0.240 C 
HETATM   16  C   UNL     1     -10.445   1.221 -33.089  1.00  0.00     0.015 C 
HETATM   17  C   UNL     1      -9.788   2.359 -32.308  1.00  0.00     0.034 C 
HETATM   18  C   UNL     1      -8.319   2.286 -32.695  1.00  0.00     0.235 C 
BRANCH  16  19
HETATM   19  C   UNL     1     -10.725   1.620 -34.547  1.00  0.00     0.032 C 
BRANCH  19  20
HETATM   20  C   UNL     1     -12.203   1.573 -34.924  1.00  0.00     0.164 C 
BRANCH  20  21
HETATM   21  O   UNL     1     -12.318   1.825 -36.315  1.00  0.00    -0.401 OA
HETATM   22  H   UNL     1     -12.464   0.973 -36.767  1.00  0.00     0.209 HD
ENDBRANCH  20  21
ENDBRANCH  19  20
ENDBRANCH  16  19
ENDBRANCH  12  13
ENDBRANCH   7  12
TORSDOF 5
ENDMDL
MODEL 2
REMARK VINA RESULT:      -6.9      2.298      3.968
REMARK  5 active torsions:
REMARK  status: ('A' for Active; 'I' for Inactive)
REMARK    1  A    between atoms: C_7  and  C_8 
REMARK    2  A    between atoms: C_8  and  N_9 
REMARK    3  A    between atoms: C_12  and  C_13 
REMARK    4  A    between atoms: C_13  and  C_14 
REMARK    5  A    between atoms: C_14  and  O_15 
ROOT
HETATM    1  C   UNL     1      -6.746  -1.724 -34.978  1.00  0.00     0.020 A 
HETATM    2  C   UNL     1      -6.865  -0.364 -34.799  1.00  0.00     0.117 A 
HETATM    3  N   UNL     1      -6.044   0.364 -34.004  1.00  0.00    -0.260 NA
HETATM    4  C   UNL     1      -5.073  -0.285 -33.324  1.00  0.00     0.076 A 
HETATM    5  C   UNL     1      -4.852  -1.677 -33.447  1.00  0.00     0.011 A 
HETATM    6  C   UNL     1      -5.727  -2.382 -34.301  1.00  0.00     0.016 A 
HETATM    7  C   UNL     1      -4.244   0.467 -32.485  1.00  0.00    -0.003 A 
HETATM    8  C   UNL     1      -3.201  -0.138 -31.768  1.00  0.00     0.012 A 
HETATM    9  C   UNL     1      -2.971  -1.501 -31.892  1.00  0.00     0.020 A 
HETATM   10  C   UNL     1      -3.787  -2.270 -32.721  1.00  0.00     0.023 A 
HETATM   11 BR   UNL     1      -3.387  -4.127 -32.823  1.00  0.00    -0.050 Br
ENDROOT
BRANCH   7  12
HETATM   12  C   UNL     1      -4.499   1.946 -32.314  1.00  0.00     0.275 C 
BRANCH  12  13
HETATM   13  N   UNL     1      -4.759   2.364 -30.890  1.00  0.00    -0.067 N 
HETATM   14  H   UNL     1      -3.885   2.074 -30.408  1.00  0.00     0.280 HD
HETATM   15  C   UNL     1      -5.903   1.662 -30.203  1.00  0.00     0.240 C 
HETATM   16  C   UNL     1      -6.964   2.741 -30.006  1.00  0.00     0.015 C 
HETATM   17  C   UNL     1      -6.098   3.968 -29.725  1.00  0.00     0.034 C 
HETATM   18  C   UNL     1      -4.941   3.848 -30.704  1.00  0.00     0.235 C 
BRANCH  16  19
HETATM   19  C   UNL     1      -7.871   2.955 -31.229  1.00  0.00     0.032 C 
BRANCH  19  20
HETATM   20  C   UNL     1      -8.478   1.667 -31.777  1.00  0.00     0.164 C 
BRANCH  20  21
HETATM   21  O   UNL     1      -9.475   1.221 -30.871  1.00  0.00    -0.401 OA
HETATM   22  H   UNL     1     -10.332   1.586 -31.159  1.00  0.00     0.209 HD
ENDBRANCH  20  21
ENDBRANCH  19  20
ENDBRANCH  16  19
ENDBRANCH  12  13
ENDBRANCH   7  12
TORSDOF 5
ENDMDL
MODEL 3
REMARK VINA RESULT:      -6.8     13.581     14.884
REMARK  5 active torsions:
REMARK  status: ('A' for Active; 'I' for Inactive)
REMARK    1  A    between atoms: C_7  and  C_8 
REMARK    2  A    between atoms: C_8  and  N_9 
REMARK    3  A    between atoms: C_12  and  C_13 
REMARK    4  A    between atoms: C_13  and  C_14 
REMARK    5  A    between atoms: C_14  and  O_15 
ROOT
HETATM    1  C   UNL     1      -2.677 -15.014 -42.277  1.00  0.00     0.020 A 
HETATM    2  C   UNL     1      -3.965 -14.536 -42.370  1.00  0.00     0.117 A 
HETATM    3  N   UNL     1      -4.562 -13.792 -41.408  1.00  0.00    -0.260 NA
HETATM    4  C   UNL     1      -3.866 -13.532 -40.278  1.00  0.00     0.076 A 
HETATM    5  C   UNL     1      -2.532 -13.961 -40.085  1.00  0.00     0.011 A 
HETATM    6  C   UNL     1      -1.955 -14.717 -41.128  1.00  0.00     0.016 A 
HETATM    7  C   UNL     1      -4.496 -12.786 -39.277  1.00  0.00    -0.003 A 
HETATM    8  C   UNL     1      -3.824 -12.458 -38.089  1.00  0.00     0.012 A 
HETATM    9  C   UNL     1      -2.511 -12.865 -37.897  1.00  0.00     0.020 A 
HETATM   10  C   UNL     1      -1.866 -13.613 -38.882  1.00  0.00     0.023 A 
HETATM   11 BR   UNL     1      -0.068 -14.120 -38.523  1.00  0.00    -0.050 Br
ENDROOT
BRANCH   7  12
HETATM   12  C   UNL     1      -5.934 -12.361 -39.455  1.00  0.00     0.275 C 
BRANCH  12  13
HETATM   13  N   UNL     1      -6.937 -13.451 -39.179  1.00  0.00    -0.067 N 
HETATM   14  H   UNL     1      -6.329 -14.281 -39.029  1.00  0.00     0.280 HD
HETATM   15  C   UNL     1      -7.870 -13.780 -40.318  1.00  0.00     0.240 C 
HETATM   16  C   UNL     1      -9.245 -13.320 -39.843  1.00  0.00     0.015 C 
HETATM   17  C   UNL     1      -9.173 -13.642 -38.351  1.00  0.00     0.034 C 
HETATM   18  C   UNL     1      -7.767 -13.231 -37.942  1.00  0.00     0.235 C 
BRANCH  16  19
HETATM   19  C   UNL     1      -9.522 -11.828 -40.089  1.00  0.00     0.032 C 
BRANCH  19  20
HETATM   20  C   UNL     1     -10.958 -11.530 -40.511  1.00  0.00     0.164 C 
BRANCH  20  21
HETATM   21  O   UNL     1     -10.945 -10.412 -41.384  1.00  0.00    -0.401 OA
HETATM   22  H   UNL     1     -10.128 -10.452 -41.915  1.00  0.00     0.209 HD
ENDBRANCH  20  21
ENDBRANCH  19  20
ENDBRANCH  16  19
ENDBRANCH  12  13
ENDBRANCH   7  12
TORSDOF 5
ENDMDL
MODEL 4
REMARK VINA RESULT:      -6.7      1.826      2.313
REMARK  5 active torsions:
REMARK  status: ('A' for Active; 'I' for Inactive)
REMARK    1  A    between atoms: C_7  and  C_8 
REMARK    2  A    between atoms: C_8  and  N_9 
REMARK    3  A    between atoms: C_12  and  C_13 
REMARK    4  A    between atoms: C_13  and  C_14 
REMARK    5  A    between atoms: C_14  and  O_15 
ROOT
HETATM    1  C   UNL     1      -2.828  -0.600 -31.586  1.00  0.00     0.020 A 
HETATM    2  C   UNL     1      -3.583   0.533 -31.790  1.00  0.00     0.117 A 
HETATM    3  N   UNL     1      -4.645   0.587 -32.629  1.00  0.00    -0.260 NA
HETATM    4  C   UNL     1      -4.963  -0.524 -33.331  1.00  0.00     0.076 A 
HETATM    5  C   UNL     1      -4.263  -1.746 -33.186  1.00  0.00     0.011 A 
HETATM    6  C   UNL     1      -3.177  -1.748 -32.286  1.00  0.00     0.016 A 
HETATM    7  C   UNL     1      -6.044  -0.455 -34.215  1.00  0.00    -0.003 A 
HETATM    8  C   UNL     1      -6.443  -1.577 -34.957  1.00  0.00     0.012 A 
HETATM    9  C   UNL     1      -5.770  -2.783 -34.812  1.00  0.00     0.020 A 
HETATM   10  C   UNL     1      -4.687  -2.871 -33.938  1.00  0.00     0.023 A 
HETATM   11 BR   UNL     1      -3.833  -4.567 -33.812  1.00  0.00    -0.050 Br
ENDROOT
BRANCH   7  12
HETATM   12  C   UNL     1      -6.769   0.855 -34.407  1.00  0.00     0.275 C 
BRANCH  12  13
HETATM   13  N   UNL     1      -8.171   0.869 -33.855  1.00  0.00    -0.067 N 
HETATM   14  H   UNL     1      -8.603   0.047 -34.321  1.00  0.00     0.280 HD
HETATM   15  C   UNL     1      -9.001   2.075 -34.217  1.00  0.00     0.240 C 
HETATM   16  C   UNL     1      -9.194   2.827 -32.903  1.00  0.00     0.015 C 
HETATM   17  C   UNL     1      -9.307   1.672 -31.909  1.00  0.00     0.034 C 
HETATM   18  C   UNL     1      -8.251   0.676 -32.364  1.00  0.00     0.235 C 
BRANCH  16  19
HETATM   19  C   UNL     1      -8.035   3.771 -32.548  1.00  0.00     0.032 C 
BRANCH  19  20
HETATM   20  C   UNL     1      -8.086   5.110 -33.277  1.00  0.00     0.164 C 
BRANCH  20  21
HETATM   21  O   UNL     1      -7.015   5.156 -34.206  1.00  0.00    -0.401 OA
HETATM   22  H   UNL     1      -7.188   5.882 -34.833  1.00  0.00     0.209 HD
ENDBRANCH  20  21
ENDBRANCH  19  20
ENDBRANCH  16  19
ENDBRANCH  12  13
ENDBRANCH   7  12
TORSDOF 5
ENDMDL
MODEL 5
REMARK VINA RESULT:      -6.7      4.494      6.748
REMARK  5 active torsions:
REMARK  status: ('A' for Active; 'I' for Inactive)
REMARK    1  A    between atoms: C_7  and  C_8 
REMARK    2  A    between atoms: C_8  and  N_9 
REMARK    3  A    between atoms: C_12  and  C_13 
REMARK    4  A    between atoms: C_13  and  C_14 
REMARK    5  A    between atoms: C_14  and  O_15 
ROOT
HETATM    1  C   UNL     1      -7.573   0.514 -34.841  1.00  0.00     0.020 A 
HETATM    2  C   UNL     1      -7.388   1.725 -34.213  1.00  0.00     0.117 A 
HETATM    3  N   UNL     1      -6.335   2.002 -33.407  1.00  0.00    -0.260 NA
HETATM    4  C   UNL     1      -5.430   1.022 -33.180  1.00  0.00     0.076 A 
HETATM    5  C   UNL     1      -5.516  -0.253 -33.787  1.00  0.00     0.011 A 
HETATM    6  C   UNL     1      -6.625  -0.478 -34.630  1.00  0.00     0.016 A 
HETATM    7  C   UNL     1      -4.359   1.304 -32.327  1.00  0.00    -0.003 A 
HETATM    8  C   UNL     1      -3.370   0.343 -32.067  1.00  0.00     0.012 A 
HETATM    9  C   UNL     1      -3.440  -0.907 -32.667  1.00  0.00     0.020 A 
HETATM   10  C   UNL     1      -4.502  -1.209 -33.518  1.00  0.00     0.023 A 
HETATM   11 BR   UNL     1      -4.505  -2.948 -34.291  1.00  0.00    -0.050 Br
ENDROOT
BRANCH   7  12
HETATM   12  C   UNL     1      -4.283   2.648 -31.642  1.00  0.00     0.275 C 
BRANCH  12  13
HETATM   13  N   UNL     1      -4.043   3.803 -32.579  1.00  0.00    -0.067 N 
HETATM   14  H   UNL     1      -4.727   3.620 -33.340  1.00  0.00     0.280 HD
HETATM   15  C   UNL     1      -2.674   3.856 -33.212  1.00  0.00     0.240 C 
HETATM   16  C   UNL     1      -2.007   5.085 -32.601  1.00  0.00     0.015 C 
HETATM   17  C   UNL     1      -3.195   6.038 -32.467  1.00  0.00     0.034 C 
HETATM   18  C   UNL     1      -4.336   5.155 -31.984  1.00  0.00     0.235 C 
BRANCH  16  19
HETATM   19  C   UNL     1      -1.336   4.820 -31.244  1.00  0.00     0.032 C 
BRANCH  19  20
HETATM   20  C   UNL     1       0.027   5.489 -31.091  1.00  0.00     0.164 C 
BRANCH  20  21
HETATM   21  O   UNL     1       1.004   4.477 -30.908  1.00  0.00    -0.401 OA
HETATM   22  H   UNL     1       1.741   4.653 -31.521  1.00  0.00     0.209 HD
ENDBRANCH  20  21
ENDBRANCH  19  20
ENDBRANCH  16  19
ENDBRANCH  12  13
ENDBRANCH   7  12
TORSDOF 5
ENDMDL
MODEL 6
REMARK VINA RESULT:      -6.6      3.836      5.316
REMARK  5 active torsions:
REMARK  status: ('A' for Active; 'I' for Inactive)
REMARK    1  A    between atoms: C_7  and  C_8 
REMARK    2  A    between atoms: C_8  and  N_9 
REMARK    3  A    between atoms: C_12  and  C_13 
REMARK    4  A    between atoms: C_13  and  C_14 
REMARK    5  A    between atoms: C_14  and  O_15 
ROOT
HETATM    1  C   UNL     1      -6.635  -1.103 -34.854  1.00  0.00     0.020 A 
HETATM    2  C   UNL     1      -6.870   0.249 -34.744  1.00  0.00     0.117 A 
HETATM    3  N   UNL     1      -6.190   1.064 -33.901  1.00  0.00    -0.260 NA
HETATM    4  C   UNL     1      -5.250   0.514 -33.100  1.00  0.00     0.076 A 
HETATM    5  C   UNL     1      -4.917  -0.861 -33.144  1.00  0.00     0.011 A 
HETATM    6  C   UNL     1      -5.646  -1.658 -34.052  1.00  0.00     0.016 A 
HETATM    7  C   UNL     1      -4.569   1.355 -32.214  1.00  0.00    -0.003 A 
HETATM    8  C   UNL     1      -3.564   0.855 -31.372  1.00  0.00     0.012 A 
HETATM    9  C   UNL     1      -3.224  -0.490 -31.417  1.00  0.00     0.020 A 
HETATM   10  C   UNL     1      -3.893  -1.346 -32.291  1.00  0.00     0.023 A 
HETATM   11 BR   UNL     1      -3.351  -3.170 -32.277  1.00  0.00    -0.050 Br
ENDROOT
BRANCH   7  12
HETATM   12  C   UNL     1      -4.947   2.814 -32.131  1.00  0.00     0.275 C 
BRANCH  12  13
HETATM   13  N   UNL     1      -6.358   3.058 -31.660  1.00  0.00    -0.067 N 
HETATM   14  H   UNL     1      -6.923   2.732 -32.469  1.00  0.00     0.280 HD
HETATM   15  C   UNL     1      -6.722   4.501 -31.413  1.00  0.00     0.240 C 
HETATM   16  C   UNL     1      -6.915   4.604 -29.903  1.00  0.00     0.015 C 
HETATM   17  C   UNL     1      -7.533   3.243 -29.585  1.00  0.00     0.034 C 
HETATM   18  C   UNL     1      -6.753   2.261 -30.445  1.00  0.00     0.235 C 
BRANCH  16  19
HETATM   19  C   UNL     1      -5.611   4.831 -29.122  1.00  0.00     0.032 C 
BRANCH  19  20
HETATM   20  C   UNL     1      -5.798   5.615 -27.826  1.00  0.00     0.164 C 
BRANCH  20  21
HETATM   21  O   UNL     1      -4.987   5.024 -26.824  1.00  0.00    -0.401 OA
HETATM   22  H   UNL     1      -4.411   4.363 -27.251  1.00  0.00     0.209 HD
ENDBRANCH  20  21
ENDBRANCH  19  20
ENDBRANCH  16  19
ENDBRANCH  12  13
ENDBRANCH   7  12
TORSDOF 5
ENDMDL
MODEL 7
REMARK VINA RESULT:      -6.6      1.640      2.949
REMARK  5 active torsions:
REMARK  status: ('A' for Active; 'I' for Inactive)
REMARK    1  A    between atoms: C_7  and  C_8 
REMARK    2  A    between atoms: C_8  and  N_9 
REMARK    3  A    between atoms: C_12  and  C_13 
REMARK    4  A    between atoms: C_13  and  C_14 
REMARK    5  A    between atoms: C_14  and  O_15 
ROOT
HETATM    1  C   UNL     1      -5.649  -2.539 -34.711  1.00  0.00     0.020 A 
HETATM    2  C   UNL     1      -6.956  -2.107 -34.691  1.00  0.00     0.117 A 
HETATM    3  N   UNL     1      -7.432  -1.193 -33.811  1.00  0.00    -0.260 NA
HETATM    4  C   UNL     1      -6.584  -0.701 -32.879  1.00  0.00     0.076 A 
HETATM    5  C   UNL     1      -5.218  -1.065 -32.820  1.00  0.00     0.011 A 
HETATM    6  C   UNL     1      -4.774  -2.007 -33.772  1.00  0.00     0.016 A 
HETATM    7  C   UNL     1      -7.088   0.222 -31.957  1.00  0.00    -0.003 A 
HETATM    8  C   UNL     1      -6.258   0.791 -30.979  1.00  0.00     0.012 A 
HETATM    9  C   UNL     1      -4.914   0.448 -30.921  1.00  0.00     0.020 A 
HETATM   10  C   UNL     1      -4.394  -0.472 -31.830  1.00  0.00     0.023 A 
HETATM   11 BR   UNL     1      -2.540  -0.873 -31.667  1.00  0.00    -0.050 Br
ENDROOT
BRANCH   7  12
HETATM   12  C   UNL     1      -8.553   0.583 -31.986  1.00  0.00     0.275 C 
BRANCH  12  13
HETATM   13  N   UNL     1      -8.830   1.999 -32.420  1.00  0.00    -0.067 N 
HETATM   14  H   UNL     1      -8.168   2.546 -31.835  1.00  0.00     0.280 HD
HETATM   15  C   UNL     1     -10.217   2.512 -32.124  1.00  0.00     0.240 C 
HETATM   16  C   UNL     1     -10.875   2.676 -33.492  1.00  0.00     0.015 C 
HETATM   17  C   UNL     1      -9.691   3.133 -34.343  1.00  0.00     0.034 C 
HETATM   18  C   UNL     1      -8.529   2.272 -33.870  1.00  0.00     0.235 C 
BRANCH  16  19
HETATM   19  C   UNL     1     -11.503   1.384 -34.040  1.00  0.00     0.032 C 
BRANCH  19  20
HETATM   20  C   UNL     1     -12.722   1.622 -34.926  1.00  0.00     0.164 C 
BRANCH  20  21
HETATM   21  O   UNL     1     -12.284   1.734 -36.270  1.00  0.00    -0.401 OA
HETATM   22  H   UNL     1     -11.777   0.931 -36.491  1.00  0.00     0.209 HD
ENDBRANCH  20  21
ENDBRANCH  19  20
ENDBRANCH  16  19
ENDBRANCH  12  13
ENDBRANCH   7  12
TORSDOF 5
ENDMDL
MODEL 8
REMARK VINA RESULT:      -6.6      2.318      3.118
REMARK  5 active torsions:
REMARK  status: ('A' for Active; 'I' for Inactive)
REMARK    1  A    between atoms: C_7  and  C_8 
REMARK    2  A    between atoms: C_8  and  N_9 
REMARK    3  A    between atoms: C_12  and  C_13 
REMARK    4  A    between atoms: C_13  and  C_14 
REMARK    5  A    between atoms: C_14  and  O_15 
ROOT
HETATM    1  C   UNL     1      -5.759   0.341 -30.533  1.00  0.00     0.020 A 
HETATM    2  C   UNL     1      -6.726   1.314 -30.639  1.00  0.00     0.117 A 
HETATM    3  N   UNL     1      -7.461   1.526 -31.757  1.00  0.00    -0.260 NA
HETATM    4  C   UNL     1      -7.208   0.760 -32.842  1.00  0.00     0.076 A 
HETATM    5  C   UNL     1      -6.247  -0.279 -32.838  1.00  0.00     0.011 A 
HETATM    6  C   UNL     1      -5.524  -0.465 -31.640  1.00  0.00     0.016 A 
HETATM    7  C   UNL     1      -7.951   1.000 -34.002  1.00  0.00    -0.003 A 
HETATM    8  C   UNL     1      -7.758   0.226 -35.157  1.00  0.00     0.012 A 
HETATM    9  C   UNL     1      -6.826  -0.803 -35.157  1.00  0.00     0.020 A 
HETATM   10  C   UNL     1      -6.073  -1.056 -34.012  1.00  0.00     0.023 A 
HETATM   11 BR   UNL     1      -4.823  -2.488 -34.115  1.00  0.00    -0.050 Br
ENDROOT
BRANCH   7  12
HETATM   12  C   UNL     1      -8.948   2.133 -34.030  1.00  0.00     0.275 C 
BRANCH  12  13
HETATM   13  N   UNL     1     -10.312   1.742 -34.537  1.00  0.00    -0.067 N 
HETATM   14  H   UNL     1     -10.085   1.224 -35.410  1.00  0.00     0.280 HD
HETATM   15  C   UNL     1     -11.218   2.886 -34.918  1.00  0.00     0.240 C 
HETATM   16  C   UNL     1     -12.337   2.862 -33.880  1.00  0.00     0.015 C 
HETATM   17  C   UNL     1     -12.499   1.361 -33.646  1.00  0.00     0.034 C 
HETATM   18  C   UNL     1     -11.075   0.826 -33.618  1.00  0.00     0.235 C 
BRANCH  16  19
HETATM   19  C   UNL     1     -11.996   3.607 -32.579  1.00  0.00     0.032 C 
BRANCH  19  20
HETATM   20  C   UNL     1     -13.191   3.804 -31.652  1.00  0.00     0.164 C 
BRANCH  20  21
HETATM   21  O   UNL     1     -12.760   3.602 -30.316  1.00  0.00    -0.401 OA
HETATM   22  H   UNL     1     -13.537   3.359 -29.780  1.00  0.00     0.209 HD
ENDBRANCH  20  21
ENDBRANCH  19  20
ENDBRANCH  16  19
ENDBRANCH  12  13
ENDBRANCH   7  12
TORSDOF 5
ENDMDL
MODEL 9
REMARK VINA RESULT:      -6.5      8.353     10.627
REMARK  5 active torsions:
REMARK  status: ('A' for Active; 'I' for Inactive)
REMARK    1  A    between atoms: C_7  and  C_8 
REMARK    2  A    between atoms: C_8  and  N_9 
REMARK    3  A    between atoms: C_12  and  C_13 
REMARK    4  A    between atoms: C_13  and  C_14 
REMARK    5  A    between atoms: C_14  and  O_15 
ROOT
HETATM    1  C   UNL     1      -3.043   7.588 -25.718  1.00  0.00     0.020 A 
HETATM    2  C   UNL     1      -3.739   7.249 -26.856  1.00  0.00     0.117 A 
HETATM    3  N   UNL     1      -3.164   7.100 -28.074  1.00  0.00    -0.260 NA
HETATM    4  C   UNL     1      -1.836   7.329 -28.185  1.00  0.00     0.076 A 
HETATM    5  C   UNL     1      -1.023   7.668 -27.078  1.00  0.00     0.011 A 
HETATM    6  C   UNL     1      -1.673   7.792 -25.832  1.00  0.00     0.016 A 
HETATM    7  C   UNL     1      -1.252   7.199 -29.449  1.00  0.00    -0.003 A 
HETATM    8  C   UNL     1       0.125   7.399 -29.633  1.00  0.00     0.012 A 
HETATM    9  C   UNL     1       0.931   7.720 -28.550  1.00  0.00     0.020 A 
HETATM   10  C   UNL     1       0.368   7.857 -27.282  1.00  0.00     0.023 A 
HETATM   11 BR   UNL     1       1.559   8.297 -25.865  1.00  0.00    -0.050 Br
ENDROOT
BRANCH   7  12
HETATM   12  C   UNL     1      -2.119   6.880 -30.643  1.00  0.00     0.275 C 
BRANCH  12  13
HETATM   13  N   UNL     1      -2.364   5.408 -30.850  1.00  0.00    -0.067 N 
HETATM   14  H   UNL     1      -2.181   5.016 -29.905  1.00  0.00     0.280 HD
HETATM   15  C   UNL     1      -1.425   4.720 -31.809  1.00  0.00     0.240 C 
HETATM   16  C   UNL     1      -2.293   4.348 -33.009  1.00  0.00     0.015 C 
HETATM   17  C   UNL     1      -3.617   4.004 -32.328  1.00  0.00     0.034 C 
HETATM   18  C   UNL     1      -3.775   5.064 -31.249  1.00  0.00     0.235 C 
BRANCH  16  19
HETATM   19  C   UNL     1      -2.458   5.482 -34.033  1.00  0.00     0.032 C 
BRANCH  19  20
HETATM   20  C   UNL     1      -1.218   6.357 -34.188  1.00  0.00     0.164 C 
BRANCH  20  21
HETATM   21  O   UNL     1      -1.612   7.715 -34.070  1.00  0.00    -0.401 OA
HETATM   22  H   UNL     1      -2.582   7.743 -33.976  1.00  0.00     0.209 HD
ENDBRANCH  20  21
ENDBRANCH  19  20
ENDBRANCH  16  19
ENDBRANCH  12  13
ENDBRANCH   7  12
TORSDOF 5
ENDMDL
MODEL 10
REMARK VINA RESULT:      -6.5      2.686      4.805
REMARK  5 active torsions:
REMARK  status: ('A' for Active; 'I' for Inactive)
REMARK    1  A    between atoms: C_7  and  C_8 
REMARK    2  A    between atoms: C_8  and  N_9 
REMARK    3  A    between atoms: C_12  and  C_13 
REMARK    4  A    between atoms: C_13  and  C_14 
REMARK    5  A    between atoms: C_14  and  O_15 
ROOT
HETATM    1  C   UNL     1      -7.620   0.061 -35.179  1.00  0.00     0.020 A 
HETATM    2  C   UNL     1      -7.669   1.185 -34.386  1.00  0.00     0.117 A 
HETATM    3  N   UNL     1      -6.844   1.400 -33.334  1.00  0.00    -0.260 NA
HETATM    4  C   UNL     1      -5.942   0.441 -33.024  1.00  0.00     0.076 A 
HETATM    5  C   UNL     1      -5.796  -0.745 -33.781  1.00  0.00     0.011 A 
HETATM    6  C   UNL     1      -6.671  -0.907 -34.876  1.00  0.00     0.016 A 
HETATM    7  C   UNL     1      -5.110   0.656 -31.921  1.00  0.00    -0.003 A 
HETATM    8  C   UNL     1      -4.135  -0.286 -31.557  1.00  0.00     0.012 A 
HETATM    9  C   UNL     1      -3.978  -1.447 -32.301  1.00  0.00     0.020 A 
HETATM   10  C   UNL     1      -4.799  -1.681 -33.403  1.00  0.00     0.023 A 
HETATM   11 BR   UNL     1      -4.502  -3.301 -34.357  1.00  0.00    -0.050 Br
ENDROOT
BRANCH   7  12
HETATM   12  C   UNL     1      -5.287   1.898 -31.082  1.00  0.00     0.275 C 
BRANCH  12  13
HETATM   13  N   UNL     1      -4.152   2.883 -31.194  1.00  0.00    -0.067 N 
HETATM   14  H   UNL     1      -3.611   2.701 -30.325  1.00  0.00     0.280 HD
HETATM   15  C   UNL     1      -4.549   4.339 -31.176  1.00  0.00     0.240 C 
HETATM   16  C   UNL     1      -4.240   4.846 -32.582  1.00  0.00     0.015 C 
HETATM   17  C   UNL     1      -2.978   4.054 -32.918  1.00  0.00     0.034 C 
HETATM   18  C   UNL     1      -3.251   2.658 -32.379  1.00  0.00     0.235 C 
BRANCH  16  19
HETATM   19  C   UNL     1      -5.363   4.585 -33.599  1.00  0.00     0.032 C 
BRANCH  19  20
HETATM   20  C   UNL     1      -6.753   4.952 -33.089  1.00  0.00     0.164 C 
BRANCH  20  21
HETATM   21  O   UNL     1      -7.508   5.464 -34.175  1.00  0.00    -0.401 OA
HETATM   22  H   UNL     1      -6.917   6.015 -34.721  1.00  0.00     0.209 HD
ENDBRANCH  20  21
ENDBRANCH  19  20
ENDBRANCH  16  19
ENDBRANCH  12  13
ENDBRANCH   7  12
TORSDOF 5
ENDMDL
