MODEL 1
REMARK VINA RESULT:      -8.4      0.000      0.000
REMARK  6 active torsions:
REMARK  status: ('A' for Active; 'I' for Inactive)
REMARK    1  A    between atoms: O_2  and  C_3 
REMARK    2  A    between atoms: C_4  and  N_5 
REMARK       I    between atoms: N_5  and  C_6 
REMARK       I    between atoms: C_6  and  N_7 
REMARK    3  A    between atoms: N_7  and  C_8 
REMARK    4  A    between atoms: C_8  and  C_9 
REMARK    5  A    between atoms: C_9  and  C_10 
REMARK    6  A    between atoms: C_10  and  N_11 
ROOT
HETATM    1  N   UNL     1      -2.661   4.151 -30.969  1.00  0.00    -0.306 N 
HETATM    2  C   UNL     1      -3.360   3.169 -31.635  1.00  0.00     0.320 C 
HETATM    3  N   UNL     1      -3.450   2.018 -30.877  1.00  0.00    -0.343 N 
HETATM    4  O   UNL     1      -3.858   3.269 -32.746  1.00  0.00    -0.247 OA
HETATM    5  H   UNL     1      -2.537   4.046 -29.973  1.00  0.00     0.171 HD
HETATM    6  H   UNL     1      -3.137   2.082 -29.922  1.00  0.00     0.164 HD
ENDROOT
BRANCH   3   7
HETATM    7  C   UNL     1      -4.401   0.966 -31.183  1.00  0.00     0.126 C 
BRANCH   7   8
HETATM    8  C   UNL     1      -3.810  -0.366 -31.635  1.00  0.00     0.040 C 
BRANCH   8   9
HETATM    9  C   UNL     1      -3.646  -0.462 -33.147  1.00  0.00     0.130 C 
BRANCH   9  10
HETATM   10  N   UNL     1      -4.812  -1.075 -33.770  1.00  0.00    -0.356 N 
HETATM   11  C   UNL     1      -4.957  -2.419 -34.054  1.00  0.00     0.044 A 
HETATM   12  C   UNL     1      -6.203  -2.569 -34.670  1.00  0.00    -0.008 A 
HETATM   13  C   UNL     1      -4.100  -3.510 -33.836  1.00  0.00     0.030 A 
HETATM   14  C   UNL     1      -6.612  -3.854 -35.079  1.00  0.00     0.014 A 
HETATM   15  C   UNL     1      -6.797  -1.280 -34.743  1.00  0.00     0.031 A 
HETATM   16  C   UNL     1      -5.768  -4.947 -34.861  1.00  0.00     0.001 A 
HETATM   17  C   UNL     1      -4.530  -4.775 -34.249  1.00  0.00     0.002 A 
HETATM   18  C   UNL     1      -5.921  -0.382 -34.181  1.00  0.00     0.092 A 
ENDBRANCH   9  10
ENDBRANCH   8   9
ENDBRANCH   7   8
ENDBRANCH   3   7
BRANCH   1  19
HETATM   19  C   UNL     1      -2.304   5.421 -31.466  1.00  0.00     0.069 A 
HETATM   20  C   UNL     1      -0.943   5.671 -31.703  1.00  0.00     0.095 A 
HETATM   21  C   UNL     1      -0.514   6.876 -32.266  1.00  0.00     0.039 A 
HETATM   22  C   UNL     1      -1.449   7.864 -32.563  1.00  0.00     0.003 A 
HETATM   23  C   UNL     1      -2.802   7.640 -32.306  1.00  0.00     0.002 A 
HETATM   24  C   UNL     1      -3.229   6.423 -31.762  1.00  0.00     0.032 A 
BRANCH  20  25
HETATM   25  O   UNL     1       0.001   4.721 -31.394  1.00  0.00    -0.354 OA
HETATM   26  C   UNL     1       0.747   5.133 -30.244  1.00  0.00     0.210 C 
ENDBRANCH  20  25
ENDBRANCH   1  19
TORSDOF 6
ENDMDL
MODEL 2
REMARK VINA RESULT:      -8.2      5.595      8.629
REMARK  6 active torsions:
REMARK  status: ('A' for Active; 'I' for Inactive)
REMARK    1  A    between atoms: O_2  and  C_3 
REMARK    2  A    between atoms: C_4  and  N_5 
REMARK       I    between atoms: N_5  and  C_6 
REMARK       I    between atoms: C_6  and  N_7 
REMARK    3  A    between atoms: N_7  and  C_8 
REMARK    4  A    between atoms: C_8  and  C_9 
REMARK    5  A    between atoms: C_9  and  C_10 
REMARK    6  A    between atoms: C_10  and  N_11 
ROOT
HETATM    1  N   UNL     1     -11.491   2.441 -34.188  1.00  0.00    -0.306 N 
HETATM    2  C   UNL     1     -10.352   1.738 -33.869  1.00  0.00     0.320 C 
HETATM    3  N   UNL     1      -9.236   2.297 -34.460  1.00  0.00    -0.343 N 
HETATM    4  O   UNL     1     -10.294   0.749 -33.152  1.00  0.00    -0.247 OA
HETATM    5  H   UNL     1     -11.379   3.374 -34.557  1.00  0.00     0.171 HD
HETATM    6  H   UNL     1      -9.364   3.189 -34.910  1.00  0.00     0.164 HD
ENDROOT
BRANCH   3   7
HETATM    7  C   UNL     1      -7.890   1.972 -34.029  1.00  0.00     0.126 C 
BRANCH   7   8
HETATM    8  C   UNL     1      -7.050   1.151 -35.003  1.00  0.00     0.040 C 
BRANCH   8   9
HETATM    9  C   UNL     1      -7.279  -0.350 -34.869  1.00  0.00     0.130 C 
BRANCH   9  10
HETATM   10  N   UNL     1      -6.077  -1.033 -34.410  1.00  0.00    -0.356 N 
HETATM   11  C   UNL     1      -5.837  -2.389 -34.506  1.00  0.00     0.044 A 
HETATM   12  C   UNL     1      -4.588  -2.621 -33.924  1.00  0.00    -0.008 A 
HETATM   13  C   UNL     1      -6.613  -3.431 -35.040  1.00  0.00     0.030 A 
HETATM   14  C   UNL     1      -4.091  -3.939 -33.877  1.00  0.00     0.014 A 
HETATM   15  C   UNL     1      -4.088  -1.367 -33.481  1.00  0.00     0.031 A 
HETATM   16  C   UNL     1      -4.854  -4.982 -34.411  1.00  0.00     0.001 A 
HETATM   17  C   UNL     1      -6.097  -4.729 -34.983  1.00  0.00     0.002 A 
HETATM   18  C   UNL     1      -5.023  -0.408 -33.794  1.00  0.00     0.092 A 
ENDBRANCH   9  10
ENDBRANCH   8   9
ENDBRANCH   7   8
ENDBRANCH   3   7
BRANCH   1  19
HETATM   19  C   UNL     1     -12.816   2.114 -33.834  1.00  0.00     0.069 A 
HETATM   20  C   UNL     1     -13.386   2.789 -32.743  1.00  0.00     0.095 A 
HETATM   21  C   UNL     1     -14.718   2.580 -32.376  1.00  0.00     0.039 A 
HETATM   22  C   UNL     1     -15.485   1.657 -33.082  1.00  0.00     0.003 A 
HETATM   23  C   UNL     1     -14.923   0.958 -34.151  1.00  0.00     0.002 A 
HETATM   24  C   UNL     1     -13.595   1.187 -34.528  1.00  0.00     0.032 A 
BRANCH  20  25
HETATM   25  O   UNL     1     -12.640   3.686 -32.016  1.00  0.00    -0.354 OA
HETATM   26  C   UNL     1     -13.432   4.229 -30.954  1.00  0.00     0.210 C 
ENDBRANCH  20  25
ENDBRANCH   1  19
TORSDOF 6
ENDMDL
MODEL 3
REMARK VINA RESULT:      -8.1      4.169      5.723
REMARK  6 active torsions:
REMARK  status: ('A' for Active; 'I' for Inactive)
REMARK    1  A    between atoms: O_2  and  C_3 
REMARK    2  A    between atoms: C_4  and  N_5 
REMARK       I    between atoms: N_5  and  C_6 
REMARK       I    between atoms: C_6  and  N_7 
REMARK    3  A    between atoms: N_7  and  C_8 
REMARK    4  A    between atoms: C_8  and  C_9 
REMARK    5  A    between atoms: C_9  and  C_10 
REMARK    6  A    between atoms: C_10  and  N_11 
ROOT
HETATM    1  N   UNL     1      -7.890   0.886 -31.136  1.00  0.00    -0.306 N 
HETATM    2  C   UNL     1      -6.572   1.239 -31.318  1.00  0.00     0.320 C 
HETATM    3  N   UNL     1      -5.738   0.493 -30.508  1.00  0.00    -0.343 N 
HETATM    4  O   UNL     1      -6.155   2.088 -32.092  1.00  0.00    -0.247 OA
HETATM    5  H   UNL     1      -8.083   0.006 -30.681  1.00  0.00     0.171 HD
HETATM    6  H   UNL     1      -6.160  -0.279 -30.016  1.00  0.00     0.164 HD
ENDROOT
BRANCH   3   7
HETATM    7  C   UNL     1      -4.307   0.416 -30.736  1.00  0.00     0.126 C 
BRANCH   7   8
HETATM    8  C   UNL     1      -3.823  -0.746 -31.597  1.00  0.00     0.040 C 
BRANCH   8   9
HETATM    9  C   UNL     1      -3.865  -0.440 -33.089  1.00  0.00     0.130 C 
BRANCH   9  10
HETATM   10  N   UNL     1      -4.967  -1.131 -33.743  1.00  0.00    -0.356 N 
HETATM   11  C   UNL     1      -5.010  -2.481 -34.034  1.00  0.00     0.044 A 
HETATM   12  C   UNL     1      -6.226  -2.716 -34.683  1.00  0.00    -0.008 A 
HETATM   13  C   UNL     1      -4.084  -3.509 -33.796  1.00  0.00     0.030 A 
HETATM   14  C   UNL     1      -6.533  -4.025 -35.104  1.00  0.00     0.014 A 
HETATM   15  C   UNL     1      -6.908  -1.472 -34.769  1.00  0.00     0.031 A 
HETATM   16  C   UNL     1      -5.619  -5.057 -34.866  1.00  0.00     0.001 A 
HETATM   17  C   UNL     1      -4.412  -4.800 -34.222  1.00  0.00     0.002 A 
HETATM   18  C   UNL     1      -6.112  -0.516 -34.182  1.00  0.00     0.092 A 
ENDBRANCH   9  10
ENDBRANCH   8   9
ENDBRANCH   7   8
ENDBRANCH   3   7
BRANCH   1  19
HETATM   19  C   UNL     1      -9.018   1.490 -31.729  1.00  0.00     0.069 A 
HETATM   20  C   UNL     1      -9.472   2.702 -31.187  1.00  0.00     0.095 A 
HETATM   21  C   UNL     1     -10.535   3.402 -31.764  1.00  0.00     0.039 A 
HETATM   22  C   UNL     1     -11.182   2.869 -32.875  1.00  0.00     0.003 A 
HETATM   23  C   UNL     1     -10.759   1.651 -33.408  1.00  0.00     0.002 A 
HETATM   24  C   UNL     1      -9.680   0.964 -32.840  1.00  0.00     0.032 A 
BRANCH  20  25
HETATM   25  O   UNL     1      -8.865   3.234 -30.074  1.00  0.00    -0.354 OA
HETATM   26  C   UNL     1      -8.597   4.625 -30.285  1.00  0.00     0.210 C 
ENDBRANCH  20  25
ENDBRANCH   1  19
TORSDOF 6
ENDMDL
MODEL 4
REMARK VINA RESULT:      -8.0      4.894      7.498
REMARK  6 active torsions:
REMARK  status: ('A' for Active; 'I' for Inactive)
REMARK    1  A    between atoms: O_2  and  C_3 
REMARK    2  A    between atoms: C_4  and  N_5 
REMARK       I    between atoms: N_5  and  C_6 
REMARK       I    between atoms: C_6  and  N_7 
REMARK    3  A    between atoms: N_7  and  C_8 
REMARK    4  A    between atoms: C_8  and  C_9 
REMARK    5  A    between atoms: C_9  and  C_10 
REMARK    6  A    between atoms: C_10  and  N_11 
ROOT
HETATM    1  N   UNL     1      -9.699   1.665 -32.781  1.00  0.00    -0.306 N 
HETATM    2  C   UNL     1      -8.494   1.021 -32.948  1.00  0.00     0.320 C 
HETATM    3  N   UNL     1      -7.875   0.795 -31.735  1.00  0.00    -0.343 N 
HETATM    4  O   UNL     1      -8.007   0.671 -34.014  1.00  0.00    -0.247 OA
HETATM    5  H   UNL     1     -10.111   1.659 -31.860  1.00  0.00     0.171 HD
HETATM    6  H   UNL     1      -8.419   0.987 -30.909  1.00  0.00     0.164 HD
ENDROOT
BRANCH   3   7
HETATM    7  C   UNL     1      -6.781  -0.147 -31.590  1.00  0.00     0.126 C 
BRANCH   7   8
HETATM    8  C   UNL     1      -5.375   0.424 -31.749  1.00  0.00     0.040 C 
BRANCH   8   9
HETATM    9  C   UNL     1      -4.669  -0.072 -33.005  1.00  0.00     0.130 C 
BRANCH   9  10
HETATM   10  N   UNL     1      -4.122  -1.408 -32.815  1.00  0.00    -0.356 N 
HETATM   11  C   UNL     1      -4.499  -2.538 -33.514  1.00  0.00     0.044 A 
HETATM   12  C   UNL     1      -3.750  -3.600 -32.999  1.00  0.00    -0.008 A 
HETATM   13  C   UNL     1      -5.439  -2.720 -34.541  1.00  0.00     0.030 A 
HETATM   14  C   UNL     1      -3.941  -4.891 -33.532  1.00  0.00     0.014 A 
HETATM   15  C   UNL     1      -2.914  -3.074 -31.977  1.00  0.00     0.031 A 
HETATM   16  C   UNL     1      -4.872  -5.081 -34.559  1.00  0.00     0.001 A 
HETATM   17  C   UNL     1      -5.609  -4.010 -35.054  1.00  0.00     0.002 A 
HETATM   18  C   UNL     1      -3.162  -1.724 -31.887  1.00  0.00     0.092 A 
ENDBRANCH   9  10
ENDBRANCH   8   9
ENDBRANCH   7   8
ENDBRANCH   3   7
BRANCH   1  19
HETATM   19  C   UNL     1     -10.561   2.127 -33.797  1.00  0.00     0.069 A 
HETATM   20  C   UNL     1     -11.715   1.375 -34.068  1.00  0.00     0.095 A 
HETATM   21  C   UNL     1     -12.658   1.805 -35.004  1.00  0.00     0.039 A 
HETATM   22  C   UNL     1     -12.433   2.984 -35.711  1.00  0.00     0.003 A 
HETATM   23  C   UNL     1     -11.276   3.727 -35.472  1.00  0.00     0.002 A 
HETATM   24  C   UNL     1     -10.345   3.303 -34.517  1.00  0.00     0.032 A 
BRANCH  20  25
HETATM   25  O   UNL     1     -11.946   0.195 -33.401  1.00  0.00    -0.354 OA
HETATM   26  C   UNL     1     -13.284  -0.249 -33.649  1.00  0.00     0.210 C 
ENDBRANCH  20  25
ENDBRANCH   1  19
TORSDOF 6
ENDMDL
MODEL 5
REMARK VINA RESULT:      -8.0      1.618      2.406
REMARK  6 active torsions:
REMARK  status: ('A' for Active; 'I' for Inactive)
REMARK    1  A    between atoms: O_2  and  C_3 
REMARK    2  A    between atoms: C_4  and  N_5 
REMARK       I    between atoms: N_5  and  C_6 
REMARK       I    between atoms: C_6  and  N_7 
REMARK    3  A    between atoms: N_7  and  C_8 
REMARK    4  A    between atoms: C_8  and  C_9 
REMARK    5  A    between atoms: C_9  and  C_10 
REMARK    6  A    between atoms: C_10  and  N_11 
ROOT
HETATM    1  N   UNL     1      -3.039   4.116 -31.180  1.00  0.00    -0.306 N 
HETATM    2  C   UNL     1      -4.324   3.639 -31.290  1.00  0.00     0.320 C 
HETATM    3  N   UNL     1      -4.593   2.692 -30.321  1.00  0.00    -0.343 N 
HETATM    4  O   UNL     1      -5.153   3.990 -32.118  1.00  0.00    -0.247 OA
HETATM    5  H   UNL     1      -2.550   3.954 -30.311  1.00  0.00     0.171 HD
HETATM    6  H   UNL     1      -3.900   2.578 -29.599  1.00  0.00     0.164 HD
ENDROOT
BRANCH   3   7
HETATM    7  C   UNL     1      -5.946   2.282 -29.996  1.00  0.00     0.126 C 
BRANCH   7   8
HETATM    8  C   UNL     1      -6.323   0.851 -30.367  1.00  0.00     0.040 C 
BRANCH   8   9
HETATM    9  C   UNL     1      -6.468   0.643 -31.869  1.00  0.00     0.130 C 
BRANCH   9  10
HETATM   10  N   UNL     1      -5.470  -0.290 -32.376  1.00  0.00    -0.356 N 
HETATM   11  C   UNL     1      -5.708  -1.309 -33.278  1.00  0.00     0.044 A 
HETATM   12  C   UNL     1      -4.492  -1.972 -33.467  1.00  0.00    -0.008 A 
HETATM   13  C   UNL     1      -6.883  -1.712 -33.930  1.00  0.00     0.030 A 
HETATM   14  C   UNL     1      -4.445  -3.074 -34.344  1.00  0.00     0.014 A 
HETATM   15  C   UNL     1      -3.523  -1.320 -32.657  1.00  0.00     0.031 A 
HETATM   16  C   UNL     1      -5.610  -3.480 -35.003  1.00  0.00     0.001 A 
HETATM   17  C   UNL     1      -6.811  -2.808 -34.797  1.00  0.00     0.002 A 
HETATM   18  C   UNL     1      -4.152  -0.289 -31.999  1.00  0.00     0.092 A 
ENDBRANCH   9  10
ENDBRANCH   8   9
ENDBRANCH   7   8
ENDBRANCH   3   7
BRANCH   1  19
HETATM   19  C   UNL     1      -2.394   5.025 -32.044  1.00  0.00     0.069 A 
HETATM   20  C   UNL     1      -2.083   6.297 -31.539  1.00  0.00     0.095 A 
HETATM   21  C   UNL     1      -1.377   7.228 -32.305  1.00  0.00     0.039 A 
HETATM   22  C   UNL     1      -1.007   6.903 -33.607  1.00  0.00     0.003 A 
HETATM   23  C   UNL     1      -1.335   5.653 -34.132  1.00  0.00     0.002 A 
HETATM   24  C   UNL     1      -2.024   4.715 -33.353  1.00  0.00     0.032 A 
BRANCH  20  25
HETATM   25  O   UNL     1      -2.460   6.649 -30.265  1.00  0.00    -0.354 OA
HETATM   26  C   UNL     1      -1.665   7.749 -29.809  1.00  0.00     0.210 C 
ENDBRANCH  20  25
ENDBRANCH   1  19
TORSDOF 6
ENDMDL
MODEL 6
REMARK VINA RESULT:      -8.0      2.265      8.798
REMARK  6 active torsions:
REMARK  status: ('A' for Active; 'I' for Inactive)
REMARK    1  A    between atoms: O_2  and  C_3 
REMARK    2  A    between atoms: C_4  and  N_5 
REMARK       I    between atoms: N_5  and  C_6 
REMARK       I    between atoms: C_6  and  N_7 
REMARK    3  A    between atoms: N_7  and  C_8 
REMARK    4  A    between atoms: C_8  and  C_9 
REMARK    5  A    between atoms: C_9  and  C_10 
REMARK    6  A    between atoms: C_10  and  N_11 
ROOT
HETATM    1  N   UNL     1      -5.436  -0.529 -33.837  1.00  0.00    -0.306 N 
HETATM    2  C   UNL     1      -5.591   0.040 -32.594  1.00  0.00     0.320 C 
HETATM    3  N   UNL     1      -5.313   1.392 -32.624  1.00  0.00    -0.343 N 
HETATM    4  O   UNL     1      -5.938  -0.540 -31.575  1.00  0.00    -0.247 OA
HETATM    5  H   UNL     1      -5.411   0.087 -34.636  1.00  0.00     0.171 HD
HETATM    6  H   UNL     1      -5.179   1.805 -33.534  1.00  0.00     0.164 HD
ENDROOT
BRANCH   3   7
HETATM    7  C   UNL     1      -5.716   2.288 -31.556  1.00  0.00     0.126 C 
BRANCH   7   8
HETATM    8  C   UNL     1      -4.600   3.083 -30.886  1.00  0.00     0.040 C 
BRANCH   8   9
HETATM    9  C   UNL     1      -3.240   2.865 -31.537  1.00  0.00     0.130 C 
BRANCH   9  10
HETATM   10  N   UNL     1      -2.801   4.049 -32.262  1.00  0.00    -0.356 N 
HETATM   11  C   UNL     1      -1.774   4.890 -31.881  1.00  0.00     0.044 A 
HETATM   12  C   UNL     1      -1.708   5.907 -32.837  1.00  0.00    -0.008 A 
HETATM   13  C   UNL     1      -0.910   4.854 -30.774  1.00  0.00     0.030 A 
HETATM   14  C   UNL     1      -0.741   6.921 -32.690  1.00  0.00     0.014 A 
HETATM   15  C   UNL     1      -2.720   5.648 -33.801  1.00  0.00     0.031 A 
HETATM   16  C   UNL     1       0.128   6.890 -31.594  1.00  0.00     0.001 A 
HETATM   17  C   UNL     1       0.042   5.871 -30.651  1.00  0.00     0.002 A 
HETATM   18  C   UNL     1      -3.374   4.499 -33.424  1.00  0.00     0.092 A 
ENDBRANCH   9  10
ENDBRANCH   8   9
ENDBRANCH   7   8
ENDBRANCH   3   7
BRANCH   1  19
HETATM   19  C   UNL     1      -5.553  -1.896 -34.164  1.00  0.00     0.069 A 
HETATM   20  C   UNL     1      -4.473  -2.737 -33.856  1.00  0.00     0.095 A 
HETATM   21  C   UNL     1      -4.540  -4.115 -34.077  1.00  0.00     0.039 A 
HETATM   22  C   UNL     1      -5.685  -4.661 -34.649  1.00  0.00     0.003 A 
HETATM   23  C   UNL     1      -6.756  -3.833 -34.987  1.00  0.00     0.002 A 
HETATM   24  C   UNL     1      -6.692  -2.456 -34.744  1.00  0.00     0.032 A 
BRANCH  20  25
HETATM   25  O   UNL     1      -3.322  -2.216 -33.313  1.00  0.00    -0.354 OA
HETATM   26  C   UNL     1      -3.133  -2.729 -31.990  1.00  0.00     0.210 C 
ENDBRANCH  20  25
ENDBRANCH   1  19
TORSDOF 6
ENDMDL
MODEL 7
REMARK VINA RESULT:      -7.9      2.961      8.371
REMARK  6 active torsions:
REMARK  status: ('A' for Active; 'I' for Inactive)
REMARK    1  A    between atoms: O_2  and  C_3 
REMARK    2  A    between atoms: C_4  and  N_5 
REMARK       I    between atoms: N_5  and  C_6 
REMARK       I    between atoms: C_6  and  N_7 
REMARK    3  A    between atoms: N_7  and  C_8 
REMARK    4  A    between atoms: C_8  and  C_9 
REMARK    5  A    between atoms: C_9  and  C_10 
REMARK    6  A    between atoms: C_10  and  N_11 
ROOT
HETATM    1  N   UNL     1      -4.915  -0.859 -33.827  1.00  0.00    -0.306 N 
HETATM    2  C   UNL     1      -5.936  -0.176 -33.208  1.00  0.00     0.320 C 
HETATM    3  N   UNL     1      -6.158   1.047 -33.809  1.00  0.00    -0.343 N 
HETATM    4  O   UNL     1      -6.591  -0.571 -32.254  1.00  0.00    -0.247 OA
HETATM    5  H   UNL     1      -4.639  -0.557 -34.750  1.00  0.00     0.171 HD
HETATM    6  H   UNL     1      -5.670   1.218 -34.674  1.00  0.00     0.164 HD
ENDROOT
BRANCH   3   7
HETATM    7  C   UNL     1      -7.372   1.809 -33.584  1.00  0.00     0.126 C 
BRANCH   7   8
HETATM    8  C   UNL     1      -7.449   2.578 -32.269  1.00  0.00     0.040 C 
BRANCH   8   9
HETATM    9  C   UNL     1      -6.809   3.959 -32.347  1.00  0.00     0.130 C 
BRANCH   9  10
HETATM   10  N   UNL     1      -5.357   3.877 -32.269  1.00  0.00    -0.356 N 
HETATM   11  C   UNL     1      -4.474   4.344 -33.223  1.00  0.00     0.044 A 
HETATM   12  C   UNL     1      -3.188   4.039 -32.768  1.00  0.00    -0.008 A 
HETATM   13  C   UNL     1      -4.693   4.994 -34.449  1.00  0.00     0.030 A 
HETATM   14  C   UNL     1      -2.080   4.400 -33.559  1.00  0.00     0.014 A 
HETATM   15  C   UNL     1      -3.328   3.380 -31.515  1.00  0.00     0.031 A 
HETATM   16  C   UNL     1      -2.288   5.052 -34.779  1.00  0.00     0.001 A 
HETATM   17  C   UNL     1      -3.577   5.343 -35.215  1.00  0.00     0.002 A 
HETATM   18  C   UNL     1      -4.671   3.296 -31.233  1.00  0.00     0.092 A 
ENDBRANCH   9  10
ENDBRANCH   8   9
ENDBRANCH   7   8
ENDBRANCH   3   7
BRANCH   1  19
HETATM   19  C   UNL     1      -4.362  -2.096 -33.435  1.00  0.00     0.069 A 
HETATM   20  C   UNL     1      -4.639  -3.218 -34.232  1.00  0.00     0.095 A 
HETATM   21  C   UNL     1      -4.068  -4.462 -33.957  1.00  0.00     0.039 A 
HETATM   22  C   UNL     1      -3.237  -4.604 -32.848  1.00  0.00     0.003 A 
HETATM   23  C   UNL     1      -2.975  -3.504 -32.031  1.00  0.00     0.002 A 
HETATM   24  C   UNL     1      -3.533  -2.254 -32.324  1.00  0.00     0.032 A 
BRANCH  20  25
HETATM   25  O   UNL     1      -5.477  -3.108 -35.317  1.00  0.00    -0.354 OA
HETATM   26  C   UNL     1      -6.349  -4.242 -35.374  1.00  0.00     0.210 C 
ENDBRANCH  20  25
ENDBRANCH   1  19
TORSDOF 6
ENDMDL
MODEL 8
REMARK VINA RESULT:      -7.9      4.304      8.014
REMARK  6 active torsions:
REMARK  status: ('A' for Active; 'I' for Inactive)
REMARK    1  A    between atoms: O_2  and  C_3 
REMARK    2  A    between atoms: C_4  and  N_5 
REMARK       I    between atoms: N_5  and  C_6 
REMARK       I    between atoms: C_6  and  N_7 
REMARK    3  A    between atoms: N_7  and  C_8 
REMARK    4  A    between atoms: C_8  and  C_9 
REMARK    5  A    between atoms: C_9  and  C_10 
REMARK    6  A    between atoms: C_10  and  N_11 
ROOT
HETATM    1  N   UNL     1      -5.595  -0.490 -33.692  1.00  0.00    -0.306 N 
HETATM    2  C   UNL     1      -5.875   0.016 -32.443  1.00  0.00     0.320 C 
HETATM    3  N   UNL     1      -5.681   1.382 -32.402  1.00  0.00    -0.343 N 
HETATM    4  O   UNL     1      -6.257  -0.626 -31.476  1.00  0.00    -0.247 OA
HETATM    5  H   UNL     1      -5.552   0.159 -34.463  1.00  0.00     0.171 HD
HETATM    6  H   UNL     1      -5.509   1.840 -33.283  1.00  0.00     0.164 HD
ENDROOT
BRANCH   3   7
HETATM    7  C   UNL     1      -6.216   2.206 -31.334  1.00  0.00     0.126 C 
BRANCH   7   8
HETATM    8  C   UNL     1      -7.580   2.839 -31.590  1.00  0.00     0.040 C 
BRANCH   8   9
HETATM    9  C   UNL     1      -7.953   2.873 -33.067  1.00  0.00     0.130 C 
BRANCH   9  10
HETATM   10  N   UNL     1      -9.142   2.076 -33.334  1.00  0.00    -0.356 N 
HETATM   11  C   UNL     1     -10.206   2.459 -34.127  1.00  0.00     0.044 A 
HETATM   12  C   UNL     1     -11.136   1.416 -34.088  1.00  0.00    -0.008 A 
HETATM   13  C   UNL     1     -10.437   3.634 -34.861  1.00  0.00     0.030 A 
HETATM   14  C   UNL     1     -12.337   1.546 -34.813  1.00  0.00     0.014 A 
HETATM   15  C   UNL     1     -10.597   0.399 -33.254  1.00  0.00     0.031 A 
HETATM   16  C   UNL     1     -12.574   2.710 -35.551  1.00  0.00     0.001 A 
HETATM   17  C   UNL     1     -11.636   3.738 -35.573  1.00  0.00     0.002 A 
HETATM   18  C   UNL     1      -9.370   0.831 -32.806  1.00  0.00     0.092 A 
ENDBRANCH   9  10
ENDBRANCH   8   9
ENDBRANCH   7   8
ENDBRANCH   3   7
BRANCH   1  19
HETATM   19  C   UNL     1      -5.603  -1.846 -34.078  1.00  0.00     0.069 A 
HETATM   20  C   UNL     1      -4.448  -2.604 -33.826  1.00  0.00     0.095 A 
HETATM   21  C   UNL     1      -4.403  -3.971 -34.107  1.00  0.00     0.039 A 
HETATM   22  C   UNL     1      -5.509  -4.589 -34.685  1.00  0.00     0.003 A 
HETATM   23  C   UNL     1      -6.653  -3.842 -34.967  1.00  0.00     0.002 A 
HETATM   24  C   UNL     1      -6.702  -2.476 -34.663  1.00  0.00     0.032 A 
BRANCH  20  25
HETATM   25  O   UNL     1      -3.335  -2.011 -33.280  1.00  0.00    -0.354 OA
HETATM   26  C   UNL     1      -3.123  -2.503 -31.953  1.00  0.00     0.210 C 
ENDBRANCH  20  25
ENDBRANCH   1  19
TORSDOF 6
ENDMDL
MODEL 9
REMARK VINA RESULT:      -7.9      3.332      7.340
REMARK  6 active torsions:
REMARK  status: ('A' for Active; 'I' for Inactive)
REMARK    1  A    between atoms: O_2  and  C_3 
REMARK    2  A    between atoms: C_4  and  N_5 
REMARK       I    between atoms: N_5  and  C_6 
REMARK       I    between atoms: C_6  and  N_7 
REMARK    3  A    between atoms: N_7  and  C_8 
REMARK    4  A    between atoms: C_8  and  C_9 
REMARK    5  A    between atoms: C_9  and  C_10 
REMARK    6  A    between atoms: C_10  and  N_11 
ROOT
HETATM    1  N   UNL     1      -4.204  -1.184 -33.673  1.00  0.00    -0.306 N 
HETATM    2  C   UNL     1      -4.315  -0.557 -32.454  1.00  0.00     0.320 C 
HETATM    3  N   UNL     1      -3.352   0.421 -32.305  1.00  0.00    -0.343 N 
HETATM    4  O   UNL     1      -5.150  -0.797 -31.595  1.00  0.00    -0.247 OA
HETATM    5  H   UNL     1      -3.662  -0.726 -34.391  1.00  0.00     0.171 HD
HETATM    6  H   UNL     1      -2.805   0.643 -33.121  1.00  0.00     0.164 HD
ENDROOT
BRANCH   3   7
HETATM    7  C   UNL     1      -3.445   1.447 -31.284  1.00  0.00     0.126 C 
BRANCH   7   8
HETATM    8  C   UNL     1      -4.004   2.794 -31.732  1.00  0.00     0.040 C 
BRANCH   8   9
HETATM    9  C   UNL     1      -5.508   2.914 -31.523  1.00  0.00     0.130 C 
BRANCH   9  10
HETATM   10  N   UNL     1      -6.247   2.354 -32.646  1.00  0.00    -0.356 N 
HETATM   11  C   UNL     1      -7.393   1.589 -32.553  1.00  0.00     0.044 A 
HETATM   12  C   UNL     1      -7.753   1.238 -33.857  1.00  0.00    -0.008 A 
HETATM   13  C   UNL     1      -8.134   1.164 -31.438  1.00  0.00     0.030 A 
HETATM   14  C   UNL     1      -8.897   0.441 -34.059  1.00  0.00     0.014 A 
HETATM   15  C   UNL     1      -6.793   1.818 -34.731  1.00  0.00     0.031 A 
HETATM   16  C   UNL     1      -9.645   0.017 -32.955  1.00  0.00     0.001 A 
HETATM   17  C   UNL     1      -9.266   0.375 -31.664  1.00  0.00     0.002 A 
HETATM   18  C   UNL     1      -5.881   2.499 -33.960  1.00  0.00     0.092 A 
ENDBRANCH   9  10
ENDBRANCH   8   9
ENDBRANCH   7   8
ENDBRANCH   3   7
BRANCH   1  19
HETATM   19  C   UNL     1      -4.962  -2.281 -34.135  1.00  0.00     0.069 A 
HETATM   20  C   UNL     1      -4.402  -3.562 -34.007  1.00  0.00     0.095 A 
HETATM   21  C   UNL     1      -5.119  -4.705 -34.368  1.00  0.00     0.039 A 
HETATM   22  C   UNL     1      -6.398  -4.572 -34.901  1.00  0.00     0.003 A 
HETATM   23  C   UNL     1      -6.956  -3.303 -35.060  1.00  0.00     0.002 A 
HETATM   24  C   UNL     1      -6.242  -2.161 -34.677  1.00  0.00     0.032 A 
BRANCH  20  25
HETATM   25  O   UNL     1      -3.131  -3.716 -33.507  1.00  0.00    -0.354 OA
HETATM   26  C   UNL     1      -3.192  -4.005 -32.106  1.00  0.00     0.210 C 
ENDBRANCH  20  25
ENDBRANCH   1  19
TORSDOF 6
ENDMDL
MODEL 10
REMARK VINA RESULT:      -7.8      1.732      2.628
REMARK  6 active torsions:
REMARK  status: ('A' for Active; 'I' for Inactive)
REMARK    1  A    between atoms: O_2  and  C_3 
REMARK    2  A    between atoms: C_4  and  N_5 
REMARK       I    between atoms: N_5  and  C_6 
REMARK       I    between atoms: C_6  and  N_7 
REMARK    3  A    between atoms: N_7  and  C_8 
REMARK    4  A    between atoms: C_8  and  C_9 
REMARK    5  A    between atoms: C_9  and  C_10 
REMARK    6  A    between atoms: C_10  and  N_11 
ROOT
HETATM    1  N   UNL     1      -2.667   3.796 -31.219  1.00  0.00    -0.306 N 
HETATM    2  C   UNL     1      -4.034   3.813 -31.068  1.00  0.00     0.320 C 
HETATM    3  N   UNL     1      -4.526   2.547 -30.816  1.00  0.00    -0.343 N 
HETATM    4  O   UNL     1      -4.753   4.800 -31.131  1.00  0.00    -0.247 OA
HETATM    5  H   UNL     1      -2.167   2.987 -30.883  1.00  0.00     0.171 HD
HETATM    6  H   UNL     1      -3.844   1.827 -30.637  1.00  0.00     0.164 HD
ENDROOT
BRANCH   3   7
HETATM    7  C   UNL     1      -5.859   2.328 -30.288  1.00  0.00     0.126 C 
BRANCH   7   8
HETATM    8  C   UNL     1      -6.849   1.639 -31.223  1.00  0.00     0.040 C 
BRANCH   8   9
HETATM    9  C   UNL     1      -6.675   2.048 -32.680  1.00  0.00     0.130 C 
BRANCH   9  10
HETATM   10  N   UNL     1      -6.847   0.912 -33.576  1.00  0.00    -0.356 N 
HETATM   11  C   UNL     1      -6.033  -0.202 -33.626  1.00  0.00     0.044 A 
HETATM   12  C   UNL     1      -6.536  -1.025 -34.637  1.00  0.00    -0.008 A 
HETATM   13  C   UNL     1      -4.893  -0.551 -32.883  1.00  0.00     0.030 A 
HETATM   14  C   UNL     1      -5.884  -2.244 -34.914  1.00  0.00     0.014 A 
HETATM   15  C   UNL     1      -7.674  -0.374 -35.186  1.00  0.00     0.031 A 
HETATM   16  C   UNL     1      -4.752  -2.602 -34.175  1.00  0.00     0.001 A 
HETATM   17  C   UNL     1      -4.265  -1.765 -33.175  1.00  0.00     0.002 A 
HETATM   18  C   UNL     1      -7.843   0.813 -34.514  1.00  0.00     0.092 A 
ENDBRANCH   9  10
ENDBRANCH   8   9
ENDBRANCH   7   8
ENDBRANCH   3   7
BRANCH   1  19
HETATM   19  C   UNL     1      -1.839   4.884 -31.566  1.00  0.00     0.069 A 
HETATM   20  C   UNL     1      -1.759   5.239 -32.921  1.00  0.00     0.095 A 
HETATM   21  C   UNL     1      -1.023   6.351 -33.338  1.00  0.00     0.039 A 
HETATM   22  C   UNL     1      -0.323   7.100 -32.396  1.00  0.00     0.003 A 
HETATM   23  C   UNL     1      -0.371   6.743 -31.048  1.00  0.00     0.002 A 
HETATM   24  C   UNL     1      -1.127   5.640 -30.633  1.00  0.00     0.032 A 
BRANCH  20  25
HETATM   25  O   UNL     1      -2.421   4.499 -33.872  1.00  0.00    -0.354 OA
HETATM   26  C   UNL     1      -3.299   5.344 -34.622  1.00  0.00     0.210 C 
ENDBRANCH  20  25
ENDBRANCH   1  19
TORSDOF 6
ENDMDL
