MODEL 1
REMARK VINA RESULT:      -9.1      0.000      0.000
REMARK  6 active torsions:
REMARK  status: ('A' for Active; 'I' for Inactive)
REMARK    1  A    between atoms: N_2  and  C_4 
REMARK    2  A    between atoms: N_2  and  C_23 
REMARK    3  A    between atoms: C_4  and  C_5 
REMARK       I    between atoms: C_5  and  N_6 
REMARK    4  A    between atoms: N_6  and  C_7 
REMARK    5  A    between atoms: C_8  and  O_9 
REMARK    6  A    between atoms: C_23  and  C_24 
ROOT
HETATM    1  C   UNL     1      -7.341   3.652 -32.475  1.00  0.00     0.248 C 
HETATM    2  N   UNL     1      -6.895   3.016 -33.612  1.00  0.00    -0.323 N 
HETATM    3  O   UNL     1      -7.922   3.106 -31.538  1.00  0.00    -0.271 OA
HETATM    4  H   UNL     1      -6.763   3.538 -34.477  1.00  0.00     0.169 HD
ENDROOT
BRANCH   2   5
HETATM    5  C   UNL     1      -6.775   1.616 -33.780  1.00  0.00     0.071 A 
HETATM    6  C   UNL     1      -7.867   0.940 -34.356  1.00  0.00     0.096 A 
HETATM    7  C   UNL     1      -7.813  -0.430 -34.658  1.00  0.00     0.054 A 
HETATM    8  C   UNL     1      -6.637  -1.137 -34.342  1.00  0.00     0.014 A 
HETATM    9  C   UNL     1      -5.590  -0.443 -33.748  1.00  0.00     0.089 A 
HETATM   10  C   UNL     1      -6.181  -2.481 -34.486  1.00  0.00     0.011 A 
HETATM   11  O   UNL     1      -4.532  -1.269 -33.525  1.00  0.00    -0.309 OA
HETATM   12  C   UNL     1      -5.611   0.917 -33.443  1.00  0.00     0.070 A 
HETATM   13  C   UNL     1      -4.888  -2.502 -33.974  1.00  0.00     0.087 A 
HETATM   14  C   UNL     1      -4.078  -3.635 -33.934  1.00  0.00     0.038 A 
HETATM   15  C   UNL     1      -4.627  -4.812 -34.448  1.00  0.00     0.003 A 
HETATM   16  C   UNL     1      -5.923  -4.837 -34.970  1.00  0.00     0.001 A 
HETATM   17  C   UNL     1      -6.715  -3.679 -34.998  1.00  0.00     0.015 A 
BRANCH   6  18
HETATM   18  O   UNL     1      -8.988   1.692 -34.639  1.00  0.00    -0.354 OA
HETATM   19  C   UNL     1     -10.115   1.254 -33.874  1.00  0.00     0.210 C 
ENDBRANCH   6  18
ENDBRANCH   2   5
BRANCH   1  20
HETATM   20  C   UNL     1      -7.084   5.160 -32.450  1.00  0.00     0.337 C 
BRANCH  20  21
HETATM   21  N   UNL     1      -5.896   5.574 -31.570  1.00  0.00    -0.063 N 
HETATM   22  C   UNL     1      -5.493   6.993 -31.826  1.00  0.00     0.270 C 
HETATM   23  H   UNL     1      -6.255   5.519 -30.607  1.00  0.00     0.280 HD
BRANCH  21  24
HETATM   24  C   UNL     1      -4.712   4.619 -31.554  1.00  0.00     0.273 C 
BRANCH  24  25
HETATM   25  C   UNL     1      -3.631   4.874 -32.570  1.00  0.00    -0.032 A 
HETATM   26  C   UNL     1      -2.294   5.030 -32.165  1.00  0.00     0.012 A 
HETATM   27  C   UNL     1      -1.288   5.234 -33.112  1.00  0.00     0.043 A 
HETATM   28  C   UNL     1      -1.613   5.286 -34.461  1.00  0.00     0.116 A 
HETATM   29  F   UNL     1      -0.646   5.476 -35.366  1.00  0.00    -0.206 F 
HETATM   30  C   UNL     1      -2.928   5.132 -34.884  1.00  0.00     0.043 A 
HETATM   31  C   UNL     1      -3.936   4.920 -33.942  1.00  0.00     0.012 A 
ENDBRANCH  24  25
ENDBRANCH  21  24
ENDBRANCH  20  21
ENDBRANCH   1  20
TORSDOF 6
ENDMDL
MODEL 2
REMARK VINA RESULT:      -9.1      2.800      3.602
REMARK  6 active torsions:
REMARK  status: ('A' for Active; 'I' for Inactive)
REMARK    1  A    between atoms: N_2  and  C_4 
REMARK    2  A    between atoms: N_2  and  C_23 
REMARK    3  A    between atoms: C_4  and  C_5 
REMARK       I    between atoms: C_5  and  N_6 
REMARK    4  A    between atoms: N_6  and  C_7 
REMARK    5  A    between atoms: C_8  and  O_9 
REMARK    6  A    between atoms: C_23  and  C_24 
ROOT
HETATM    1  C   UNL     1      -3.482   3.368 -31.698  1.00  0.00     0.248 C 
HETATM    2  N   UNL     1      -4.683   3.000 -32.261  1.00  0.00    -0.323 N 
HETATM    3  O   UNL     1      -2.635   2.590 -31.261  1.00  0.00    -0.271 OA
HETATM    4  H   UNL     1      -5.469   3.648 -32.266  1.00  0.00     0.169 HD
ENDROOT
BRANCH   2   5
HETATM    5  C   UNL     1      -5.032   1.694 -32.681  1.00  0.00     0.071 A 
HETATM    6  C   UNL     1      -6.314   1.515 -33.231  1.00  0.00     0.096 A 
HETATM    7  C   UNL     1      -6.723   0.285 -33.770  1.00  0.00     0.054 A 
HETATM    8  C   UNL     1      -5.821  -0.796 -33.723  1.00  0.00     0.014 A 
HETATM    9  C   UNL     1      -4.574  -0.590 -33.147  1.00  0.00     0.089 A 
HETATM   10  C   UNL     1      -5.832  -2.157 -34.150  1.00  0.00     0.011 A 
HETATM   11  O   UNL     1      -3.828  -1.726 -33.196  1.00  0.00    -0.309 OA
HETATM   12  C   UNL     1      -4.138   0.621 -32.610  1.00  0.00     0.070 A 
HETATM   13  C   UNL     1      -4.588  -2.675 -33.807  1.00  0.00     0.087 A 
HETATM   14  C   UNL     1      -4.186  -3.985 -34.059  1.00  0.00     0.038 A 
HETATM   15  C   UNL     1      -5.114  -4.809 -34.700  1.00  0.00     0.003 A 
HETATM   16  C   UNL     1      -6.376  -4.331 -35.061  1.00  0.00     0.001 A 
HETATM   17  C   UNL     1      -6.753  -3.006 -34.794  1.00  0.00     0.015 A 
BRANCH   6  18
HETATM   18  O   UNL     1      -7.147   2.614 -33.245  1.00  0.00    -0.354 OA
HETATM   19  C   UNL     1      -8.295   2.408 -32.416  1.00  0.00     0.210 C 
ENDBRANCH   6  18
ENDBRANCH   2   5
BRANCH   1  20
HETATM   20  C   UNL     1      -3.254   4.879 -31.621  1.00  0.00     0.337 C 
BRANCH  20  21
HETATM   21  N   UNL     1      -2.261   5.414 -32.663  1.00  0.00    -0.063 N 
HETATM   22  C   UNL     1      -2.626   4.966 -34.045  1.00  0.00     0.270 C 
HETATM   23  H   UNL     1      -2.371   6.436 -32.626  1.00  0.00     0.280 HD
BRANCH  21  24
HETATM   24  C   UNL     1      -0.787   5.211 -32.347  1.00  0.00     0.273 C 
BRANCH  24  25
HETATM   25  C   UNL     1      -0.308   5.737 -31.021  1.00  0.00    -0.032 A 
HETATM   26  C   UNL     1       0.247   4.866 -30.066  1.00  0.00     0.012 A 
HETATM   27  C   UNL     1       0.721   5.361 -28.849  1.00  0.00     0.043 A 
HETATM   28  C   UNL     1       0.640   6.721 -28.581  1.00  0.00     0.116 A 
HETATM   29  F   UNL     1       1.100   7.192 -27.417  1.00  0.00    -0.206 F 
HETATM   30  C   UNL     1       0.099   7.600 -29.511  1.00  0.00     0.043 A 
HETATM   31  C   UNL     1      -0.370   7.112 -30.732  1.00  0.00     0.012 A 
ENDBRANCH  24  25
ENDBRANCH  21  24
ENDBRANCH  20  21
ENDBRANCH   1  20
TORSDOF 6
ENDMDL
MODEL 3
REMARK VINA RESULT:      -8.9      1.385      2.549
REMARK  6 active torsions:
REMARK  status: ('A' for Active; 'I' for Inactive)
REMARK    1  A    between atoms: N_2  and  C_4 
REMARK    2  A    between atoms: N_2  and  C_23 
REMARK    3  A    between atoms: C_4  and  C_5 
REMARK       I    between atoms: C_5  and  N_6 
REMARK    4  A    between atoms: N_6  and  C_7 
REMARK    5  A    between atoms: C_8  and  O_9 
REMARK    6  A    between atoms: C_23  and  C_24 
ROOT
HETATM    1  C   UNL     1      -7.253   3.151 -31.847  1.00  0.00     0.248 C 
HETATM    2  N   UNL     1      -6.583   2.777 -32.989  1.00  0.00    -0.323 N 
HETATM    3  O   UNL     1      -7.785   2.379 -31.050  1.00  0.00    -0.271 OA
HETATM    4  H   UNL     1      -6.489   3.426 -33.768  1.00  0.00     0.169 HD
ENDROOT
BRANCH   2   5
HETATM    5  C   UNL     1      -6.153   1.464 -33.301  1.00  0.00     0.071 A 
HETATM    6  C   UNL     1      -4.868   1.087 -32.870  1.00  0.00     0.096 A 
HETATM    7  C   UNL     1      -4.385  -0.220 -33.039  1.00  0.00     0.054 A 
HETATM    8  C   UNL     1      -5.212  -1.159 -33.686  1.00  0.00     0.014 A 
HETATM    9  C   UNL     1      -6.464  -0.743 -34.123  1.00  0.00     0.089 A 
HETATM   10  C   UNL     1      -5.116  -2.538 -34.036  1.00  0.00     0.011 A 
HETATM   11  O   UNL     1      -7.134  -1.771 -34.710  1.00  0.00    -0.309 OA
HETATM   12  C   UNL     1      -6.973   0.545 -33.964  1.00  0.00     0.070 A 
HETATM   13  C   UNL     1      -6.320  -2.860 -34.654  1.00  0.00     0.087 A 
HETATM   14  C   UNL     1      -6.638  -4.125 -35.144  1.00  0.00     0.038 A 
HETATM   15  C   UNL     1      -5.664  -5.115 -34.990  1.00  0.00     0.003 A 
HETATM   16  C   UNL     1      -4.440  -4.836 -34.377  1.00  0.00     0.001 A 
HETATM   17  C   UNL     1      -4.149  -3.551 -33.892  1.00  0.00     0.015 A 
BRANCH   6  18
HETATM   18  O   UNL     1      -4.110   2.054 -32.245  1.00  0.00    -0.354 OA
HETATM   19  C   UNL     1      -3.316   1.496 -31.194  1.00  0.00     0.210 C 
ENDBRANCH   6  18
ENDBRANCH   2   5
BRANCH   1  20
HETATM   20  C   UNL     1      -7.326   4.663 -31.621  1.00  0.00     0.337 C 
BRANCH  20  21
HETATM   21  N   UNL     1      -5.964   5.317 -31.343  1.00  0.00    -0.063 N 
HETATM   22  C   UNL     1      -5.858   5.774 -29.921  1.00  0.00     0.270 C 
HETATM   23  H   UNL     1      -5.280   4.560 -31.480  1.00  0.00     0.280 HD
BRANCH  21  24
HETATM   24  C   UNL     1      -5.516   6.375 -32.339  1.00  0.00     0.273 C 
BRANCH  24  25
HETATM   25  C   UNL     1      -4.262   6.075 -33.117  1.00  0.00    -0.032 A 
HETATM   26  C   UNL     1      -4.319   5.298 -34.288  1.00  0.00     0.012 A 
HETATM   27  C   UNL     1      -3.161   5.048 -35.026  1.00  0.00     0.043 A 
HETATM   28  C   UNL     1      -1.946   5.567 -34.598  1.00  0.00     0.116 A 
HETATM   29  F   UNL     1      -0.839   5.329 -35.311  1.00  0.00    -0.206 F 
HETATM   30  C   UNL     1      -1.867   6.339 -33.445  1.00  0.00     0.043 A 
HETATM   31  C   UNL     1      -3.024   6.599 -32.708  1.00  0.00     0.012 A 
ENDBRANCH  24  25
ENDBRANCH  21  24
ENDBRANCH  20  21
ENDBRANCH   1  20
TORSDOF 6
ENDMDL
MODEL 4
REMARK VINA RESULT:      -8.8      3.580      4.608
REMARK  6 active torsions:
REMARK  status: ('A' for Active; 'I' for Inactive)
REMARK    1  A    between atoms: N_2  and  C_4 
REMARK    2  A    between atoms: N_2  and  C_23 
REMARK    3  A    between atoms: C_4  and  C_5 
REMARK       I    between atoms: C_5  and  N_6 
REMARK    4  A    between atoms: N_6  and  C_7 
REMARK    5  A    between atoms: C_8  and  O_9 
REMARK    6  A    between atoms: C_23  and  C_24 
ROOT
HETATM    1  C   UNL     1      -2.462   4.141 -31.880  1.00  0.00     0.248 C 
HETATM    2  N   UNL     1      -3.048   3.136 -31.145  1.00  0.00    -0.323 N 
HETATM    3  O   UNL     1      -2.269   4.113 -33.095  1.00  0.00    -0.271 OA
HETATM    4  H   UNL     1      -2.858   3.048 -30.148  1.00  0.00     0.169 HD
ENDROOT
BRANCH   2   5
HETATM    5  C   UNL     1      -3.767   2.038 -31.676  1.00  0.00     0.071 A 
HETATM    6  C   UNL     1      -5.169   2.147 -31.719  1.00  0.00     0.096 A 
HETATM    7  C   UNL     1      -5.970   1.160 -32.316  1.00  0.00     0.054 A 
HETATM    8  C   UNL     1      -5.337   0.024 -32.855  1.00  0.00     0.014 A 
HETATM    9  C   UNL     1      -3.953  -0.063 -32.769  1.00  0.00     0.089 A 
HETATM   10  C   UNL     1      -5.759  -1.159 -33.533  1.00  0.00     0.011 A 
HETATM   11  O   UNL     1      -3.505  -1.210 -33.347  1.00  0.00    -0.309 OA
HETATM   12  C   UNL     1      -3.132   0.903 -32.189  1.00  0.00     0.070 A 
HETATM   13  C   UNL     1      -4.599  -1.873 -33.813  1.00  0.00     0.087 A 
HETATM   14  C   UNL     1      -4.571  -3.095 -34.481  1.00  0.00     0.038 A 
HETATM   15  C   UNL     1      -5.805  -3.614 -34.882  1.00  0.00     0.003 A 
HETATM   16  C   UNL     1      -6.995  -2.932 -34.619  1.00  0.00     0.001 A 
HETATM   17  C   UNL     1      -6.991  -1.700 -33.945  1.00  0.00     0.015 A 
BRANCH   6  18
HETATM   18  O   UNL     1      -5.725   3.284 -31.172  1.00  0.00    -0.354 OA
HETATM   19  C   UNL     1      -6.643   2.963 -30.123  1.00  0.00     0.210 C 
ENDBRANCH   6  18
ENDBRANCH   2   5
BRANCH   1  20
HETATM   20  C   UNL     1      -2.018   5.353 -31.056  1.00  0.00     0.337 C 
BRANCH  20  21
HETATM   21  N   UNL     1      -3.167   6.064 -30.327  1.00  0.00    -0.063 N 
HETATM   22  C   UNL     1      -4.340   6.278 -31.232  1.00  0.00     0.270 C 
HETATM   23  H   UNL     1      -3.454   5.405 -29.591  1.00  0.00     0.280 HD
BRANCH  21  24
HETATM   24  C   UNL     1      -2.789   7.313 -29.545  1.00  0.00     0.273 C 
BRANCH  24  25
HETATM   25  C   UNL     1      -1.503   7.252 -28.765  1.00  0.00    -0.032 A 
HETATM   26  C   UNL     1      -0.328   7.828 -29.281  1.00  0.00     0.012 A 
HETATM   27  C   UNL     1       0.856   7.799 -28.542  1.00  0.00     0.043 A 
HETATM   28  C   UNL     1       0.872   7.194 -27.292  1.00  0.00     0.116 A 
HETATM   29  F   UNL     1       2.008   7.173 -26.585  1.00  0.00    -0.206 F 
HETATM   30  C   UNL     1      -0.277   6.621 -26.762  1.00  0.00     0.043 A 
HETATM   31  C   UNL     1      -1.465   6.654 -27.493  1.00  0.00     0.012 A 
ENDBRANCH  24  25
ENDBRANCH  21  24
ENDBRANCH  20  21
ENDBRANCH   1  20
TORSDOF 6
ENDMDL
MODEL 5
REMARK VINA RESULT:      -8.7      3.571      5.950
REMARK  6 active torsions:
REMARK  status: ('A' for Active; 'I' for Inactive)
REMARK    1  A    between atoms: N_2  and  C_4 
REMARK    2  A    between atoms: N_2  and  C_23 
REMARK    3  A    between atoms: C_4  and  C_5 
REMARK       I    between atoms: C_5  and  N_6 
REMARK    4  A    between atoms: N_6  and  C_7 
REMARK    5  A    between atoms: C_8  and  O_9 
REMARK    6  A    between atoms: C_23  and  C_24 
ROOT
HETATM    1  C   UNL     1      -6.873   3.919 -33.778  1.00  0.00     0.248 C 
HETATM    2  N   UNL     1      -7.084   2.781 -33.034  1.00  0.00    -0.323 N 
HETATM    3  O   UNL     1      -5.986   4.064 -34.619  1.00  0.00    -0.271 OA
HETATM    4  H   UNL     1      -7.563   2.833 -32.137  1.00  0.00     0.169 HD
ENDROOT
BRANCH   2   5
HETATM    5  C   UNL     1      -6.515   1.510 -33.291  1.00  0.00     0.071 A 
HETATM    6  C   UNL     1      -5.242   1.253 -32.751  1.00  0.00     0.096 A 
HETATM    7  C   UNL     1      -4.631  -0.006 -32.861  1.00  0.00     0.054 A 
HETATM    8  C   UNL     1      -5.315  -1.019 -33.560  1.00  0.00     0.014 A 
HETATM    9  C   UNL     1      -6.558  -0.721 -34.105  1.00  0.00     0.089 A 
HETATM   10  C   UNL     1      -5.067  -2.387 -33.882  1.00  0.00     0.011 A 
HETATM   11  O   UNL     1      -7.083  -1.809 -34.730  1.00  0.00    -0.309 OA
HETATM   12  C   UNL     1      -7.192   0.517 -34.006  1.00  0.00     0.070 A 
HETATM   13  C   UNL     1      -6.182  -2.820 -34.593  1.00  0.00     0.087 A 
HETATM   14  C   UNL     1      -6.344  -4.111 -35.090  1.00  0.00     0.038 A 
HETATM   15  C   UNL     1      -5.301  -5.009 -34.843  1.00  0.00     0.003 A 
HETATM   16  C   UNL     1      -4.163  -4.616 -34.135  1.00  0.00     0.001 A 
HETATM   17  C   UNL     1      -4.029  -3.308 -33.646  1.00  0.00     0.015 A 
BRANCH   6  18
HETATM   18  O   UNL     1      -4.627   2.289 -32.079  1.00  0.00    -0.354 OA
HETATM   19  C   UNL     1      -3.482   1.833 -31.353  1.00  0.00     0.210 C 
ENDBRANCH   6  18
ENDBRANCH   2   5
BRANCH   1  20
HETATM   20  C   UNL     1      -7.838   5.067 -33.469  1.00  0.00     0.337 C 
BRANCH  20  21
HETATM   21  N   UNL     1      -9.265   4.836 -33.986  1.00  0.00    -0.063 N 
HETATM   22  C   UNL     1      -9.759   6.011 -34.771  1.00  0.00     0.270 C 
HETATM   23  H   UNL     1      -9.181   4.040 -34.633  1.00  0.00     0.280 HD
BRANCH  21  24
HETATM   24  C   UNL     1     -10.275   4.344 -32.961  1.00  0.00     0.273 C 
BRANCH  24  25
HETATM   25  C   UNL     1     -11.121   3.167 -33.366  1.00  0.00    -0.032 A 
HETATM   26  C   UNL     1     -10.618   1.857 -33.263  1.00  0.00     0.012 A 
HETATM   27  C   UNL     1     -11.415   0.764 -33.608  1.00  0.00     0.043 A 
HETATM   28  C   UNL     1     -12.712   0.974 -34.059  1.00  0.00     0.116 A 
HETATM   29  F   UNL     1     -13.475  -0.076 -34.384  1.00  0.00    -0.206 F 
HETATM   30  C   UNL     1     -13.231   2.258 -34.166  1.00  0.00     0.043 A 
HETATM   31  C   UNL     1     -12.440   3.354 -33.815  1.00  0.00     0.012 A 
ENDBRANCH  24  25
ENDBRANCH  21  24
ENDBRANCH  20  21
ENDBRANCH   1  20
TORSDOF 6
ENDMDL
MODEL 6
REMARK VINA RESULT:      -8.4      1.799      2.833
REMARK  6 active torsions:
REMARK  status: ('A' for Active; 'I' for Inactive)
REMARK    1  A    between atoms: N_2  and  C_4 
REMARK    2  A    between atoms: N_2  and  C_23 
REMARK    3  A    between atoms: C_4  and  C_5 
REMARK       I    between atoms: C_5  and  N_6 
REMARK    4  A    between atoms: N_6  and  C_7 
REMARK    5  A    between atoms: C_8  and  O_9 
REMARK    6  A    between atoms: C_23  and  C_24 
ROOT
HETATM    1  C   UNL     1      -6.135   4.082 -33.572  1.00  0.00     0.248 C 
HETATM    2  N   UNL     1      -6.100   2.992 -32.732  1.00  0.00    -0.323 N 
HETATM    3  O   UNL     1      -5.681   4.113 -34.715  1.00  0.00    -0.271 OA
HETATM    4  H   UNL     1      -6.147   3.116 -31.723  1.00  0.00     0.169 HD
ENDROOT
BRANCH   2   5
HETATM    5  C   UNL     1      -5.796   1.664 -33.118  1.00  0.00     0.071 A 
HETATM    6  C   UNL     1      -4.492   1.201 -32.865  1.00  0.00     0.096 A 
HETATM    7  C   UNL     1      -4.117  -0.128 -33.116  1.00  0.00     0.054 A 
HETATM    8  C   UNL     1      -5.077  -1.001 -33.664  1.00  0.00     0.014 A 
HETATM    9  C   UNL     1      -6.347  -0.501 -33.927  1.00  0.00     0.089 A 
HETATM   10  C   UNL     1      -5.113  -2.375 -34.045  1.00  0.00     0.011 A 
HETATM   11  O   UNL     1      -7.150  -1.474 -34.438  1.00  0.00    -0.309 OA
HETATM   12  C   UNL     1      -6.750   0.811 -33.682  1.00  0.00     0.070 A 
HETATM   13  C   UNL     1      -6.404  -2.610 -34.506  1.00  0.00     0.087 A 
HETATM   14  C   UNL     1      -6.860  -3.841 -34.970  1.00  0.00     0.038 A 
HETATM   15  C   UNL     1      -5.938  -4.891 -34.960  1.00  0.00     0.003 A 
HETATM   16  C   UNL     1      -4.630  -4.700 -34.508  1.00  0.00     0.001 A 
HETATM   17  C   UNL     1      -4.200  -3.446 -34.045  1.00  0.00     0.015 A 
BRANCH   6  18
HETATM   18  O   UNL     1      -3.601   2.106 -32.329  1.00  0.00    -0.354 OA
HETATM   19  C   UNL     1      -3.251   1.760 -30.985  1.00  0.00     0.210 C 
ENDBRANCH   6  18
ENDBRANCH   2   5
BRANCH   1  20
HETATM   20  C   UNL     1      -6.783   5.329 -32.965  1.00  0.00     0.337 C 
BRANCH  20  21
HETATM   21  N   UNL     1      -6.026   5.897 -31.755  1.00  0.00    -0.063 N 
HETATM   22  C   UNL     1      -6.968   6.405 -30.710  1.00  0.00     0.270 C 
HETATM   23  H   UNL     1      -5.525   5.090 -31.360  1.00  0.00     0.280 HD
BRANCH  21  24
HETATM   24  C   UNL     1      -4.907   6.879 -32.069  1.00  0.00     0.273 C 
BRANCH  24  25
HETATM   25  C   UNL     1      -3.502   6.349 -31.963  1.00  0.00    -0.032 A 
HETATM   26  C   UNL     1      -2.761   6.524 -30.781  1.00  0.00     0.012 A 
HETATM   27  C   UNL     1      -1.470   6.004 -30.672  1.00  0.00     0.043 A 
HETATM   28  C   UNL     1      -0.914   5.314 -31.741  1.00  0.00     0.116 A 
HETATM   29  F   UNL     1       0.321   4.812 -31.631  1.00  0.00    -0.206 F 
HETATM   30  C   UNL     1      -1.629   5.126 -32.918  1.00  0.00     0.043 A 
HETATM   31  C   UNL     1      -2.923   5.638 -33.028  1.00  0.00     0.012 A 
ENDBRANCH  24  25
ENDBRANCH  21  24
ENDBRANCH  20  21
ENDBRANCH   1  20
TORSDOF 6
ENDMDL
MODEL 7
REMARK VINA RESULT:      -8.3      3.035      7.980
REMARK  6 active torsions:
REMARK  status: ('A' for Active; 'I' for Inactive)
REMARK    1  A    between atoms: N_2  and  C_4 
REMARK    2  A    between atoms: N_2  and  C_23 
REMARK    3  A    between atoms: C_4  and  C_5 
REMARK       I    between atoms: C_5  and  N_6 
REMARK    4  A    between atoms: N_6  and  C_7 
REMARK    5  A    between atoms: C_8  and  O_9 
REMARK    6  A    between atoms: C_23  and  C_24 
ROOT
HETATM    1  C   UNL     1      -6.214   2.886 -33.981  1.00  0.00     0.248 C 
HETATM    2  N   UNL     1      -5.445   2.681 -32.858  1.00  0.00    -0.323 N 
HETATM    3  O   UNL     1      -6.443   3.980 -34.495  1.00  0.00    -0.271 OA
HETATM    4  H   UNL     1      -5.582   1.851 -32.284  1.00  0.00     0.169 HD
ENDROOT
BRANCH   2   5
HETATM    5  C   UNL     1      -4.574   3.630 -32.270  1.00  0.00     0.071 A 
HETATM    6  C   UNL     1      -5.132   4.525 -31.338  1.00  0.00     0.096 A 
HETATM    7  C   UNL     1      -4.340   5.438 -30.624  1.00  0.00     0.054 A 
HETATM    8  C   UNL     1      -2.955   5.464 -30.882  1.00  0.00     0.014 A 
HETATM    9  C   UNL     1      -2.445   4.585 -31.829  1.00  0.00     0.089 A 
HETATM   10  C   UNL     1      -1.836   6.198 -30.389  1.00  0.00     0.011 A 
HETATM   11  O   UNL     1      -1.097   4.732 -31.943  1.00  0.00    -0.309 OA
HETATM   12  C   UNL     1      -3.204   3.663 -32.548  1.00  0.00     0.070 A 
HETATM   13  C   UNL     1      -0.727   5.707 -31.069  1.00  0.00     0.087 A 
HETATM   14  C   UNL     1       0.577   6.156 -30.873  1.00  0.00     0.038 A 
HETATM   15  C   UNL     1       0.751   7.168 -29.926  1.00  0.00     0.003 A 
HETATM   16  C   UNL     1      -0.334   7.693 -29.221  1.00  0.00     0.001 A 
HETATM   17  C   UNL     1      -1.637   7.219 -29.439  1.00  0.00     0.015 A 
BRANCH   6  18
HETATM   18  O   UNL     1      -6.493   4.447 -31.135  1.00  0.00    -0.354 OA
HETATM   19  C   UNL     1      -6.800   4.145 -29.770  1.00  0.00     0.210 C 
ENDBRANCH   6  18
ENDBRANCH   2   5
BRANCH   1  20
HETATM   20  C   UNL     1      -6.821   1.613 -34.575  1.00  0.00     0.337 C 
BRANCH  20  21
HETATM   21  N   UNL     1      -7.953   1.010 -33.730  1.00  0.00    -0.063 N 
HETATM   22  C   UNL     1      -8.754   2.077 -33.051  1.00  0.00     0.270 C 
HETATM   23  H   UNL     1      -8.566   0.545 -34.412  1.00  0.00     0.280 HD
BRANCH  21  24
HETATM   24  C   UNL     1      -7.557  -0.119 -32.792  1.00  0.00     0.273 C 
BRANCH  24  25
HETATM   25  C   UNL     1      -6.519  -1.082 -33.302  1.00  0.00    -0.032 A 
HETATM   26  C   UNL     1      -5.218  -1.077 -32.768  1.00  0.00     0.012 A 
HETATM   27  C   UNL     1      -4.265  -1.992 -33.219  1.00  0.00     0.043 A 
HETATM   28  C   UNL     1      -4.605  -2.909 -34.205  1.00  0.00     0.116 A 
HETATM   29  F   UNL     1      -3.691  -3.788 -34.632  1.00  0.00    -0.206 F 
HETATM   30  C   UNL     1      -5.885  -2.934 -34.745  1.00  0.00     0.043 A 
HETATM   31  C   UNL     1      -6.843  -2.026 -34.291  1.00  0.00     0.012 A 
ENDBRANCH  24  25
ENDBRANCH  21  24
ENDBRANCH  20  21
ENDBRANCH   1  20
TORSDOF 6
ENDMDL
MODEL 8
REMARK VINA RESULT:      -8.2      2.902      4.099
REMARK  6 active torsions:
REMARK  status: ('A' for Active; 'I' for Inactive)
REMARK    1  A    between atoms: N_2  and  C_4 
REMARK    2  A    between atoms: N_2  and  C_23 
REMARK    3  A    between atoms: C_4  and  C_5 
REMARK       I    between atoms: C_5  and  N_6 
REMARK    4  A    between atoms: N_6  and  C_7 
REMARK    5  A    between atoms: C_8  and  O_9 
REMARK    6  A    between atoms: C_23  and  C_24 
ROOT
HETATM    1  C   UNL     1      -4.814   5.675 -30.047  1.00  0.00     0.248 C 
HETATM    2  N   UNL     1      -4.914   4.398 -29.544  1.00  0.00    -0.323 N 
HETATM    3  O   UNL     1      -4.789   5.968 -31.242  1.00  0.00    -0.271 OA
HETATM    4  H   UNL     1      -4.573   4.184 -28.609  1.00  0.00     0.169 HD
ENDROOT
BRANCH   2   5
HETATM    5  C   UNL     1      -5.278   3.247 -30.284  1.00  0.00     0.071 A 
HETATM    6  C   UNL     1      -6.651   2.962 -30.398  1.00  0.00     0.096 A 
HETATM    7  C   UNL     1      -7.124   1.904 -31.190  1.00  0.00     0.054 A 
HETATM    8  C   UNL     1      -6.181   1.099 -31.859  1.00  0.00     0.014 A 
HETATM    9  C   UNL     1      -4.833   1.392 -31.700  1.00  0.00     0.089 A 
HETATM   10  C   UNL     1      -6.234  -0.024 -32.737  1.00  0.00     0.011 A 
HETATM   11  O   UNL     1      -4.065   0.531 -32.421  1.00  0.00    -0.309 OA
HETATM   12  C   UNL     1      -4.334   2.439 -30.926  1.00  0.00     0.070 A 
HETATM   13  C   UNL     1      -4.913  -0.325 -33.052  1.00  0.00     0.087 A 
HETATM   14  C   UNL     1      -4.524  -1.361 -33.898  1.00  0.00     0.038 A 
HETATM   15  C   UNL     1      -5.550  -2.132 -34.452  1.00  0.00     0.003 A 
HETATM   16  C   UNL     1      -6.890  -1.866 -34.162  1.00  0.00     0.001 A 
HETATM   17  C   UNL     1      -7.252  -0.814 -33.306  1.00  0.00     0.015 A 
BRANCH   6  18
HETATM   18  O   UNL     1      -7.520   3.789 -29.717  1.00  0.00    -0.354 OA
HETATM   19  C   UNL     1      -8.452   4.410 -30.606  1.00  0.00     0.210 C 
ENDBRANCH   6  18
ENDBRANCH   2   5
BRANCH   1  20
HETATM   20  C   UNL     1      -4.705   6.769 -28.982  1.00  0.00     0.337 C 
BRANCH  20  21
HETATM   21  N   UNL     1      -3.389   6.739 -28.191  1.00  0.00    -0.063 N 
HETATM   22  C   UNL     1      -3.609   7.080 -26.751  1.00  0.00     0.270 C 
HETATM   23  H   UNL     1      -3.081   5.758 -28.238  1.00  0.00     0.280 HD
BRANCH  21  24
HETATM   24  C   UNL     1      -2.223   7.498 -28.806  1.00  0.00     0.273 C 
BRANCH  24  25
HETATM   25  C   UNL     1      -1.133   6.665 -29.426  1.00  0.00    -0.032 A 
HETATM   26  C   UNL     1      -0.094   6.146 -28.633  1.00  0.00     0.012 A 
HETATM   27  C   UNL     1       0.898   5.345 -29.203  1.00  0.00     0.043 A 
HETATM   28  C   UNL     1       0.859   5.065 -30.562  1.00  0.00     0.116 A 
HETATM   29  F   UNL     1       1.808   4.294 -31.104  1.00  0.00    -0.206 F 
HETATM   30  C   UNL     1      -0.160   5.565 -31.364  1.00  0.00     0.043 A 
HETATM   31  C   UNL     1      -1.158   6.359 -30.798  1.00  0.00     0.012 A 
ENDBRANCH  24  25
ENDBRANCH  21  24
ENDBRANCH  20  21
ENDBRANCH   1  20
TORSDOF 6
ENDMDL
MODEL 9
REMARK VINA RESULT:      -8.2      1.889      2.296
REMARK  6 active torsions:
REMARK  status: ('A' for Active; 'I' for Inactive)
REMARK    1  A    between atoms: N_2  and  C_4 
REMARK    2  A    between atoms: N_2  and  C_23 
REMARK    3  A    between atoms: C_4  and  C_5 
REMARK       I    between atoms: C_5  and  N_6 
REMARK    4  A    between atoms: N_6  and  C_7 
REMARK    5  A    between atoms: C_8  and  O_9 
REMARK    6  A    between atoms: C_23  and  C_24 
ROOT
HETATM    1  C   UNL     1      -5.891   3.875 -33.747  1.00  0.00     0.248 C 
HETATM    2  N   UNL     1      -5.950   2.845 -32.835  1.00  0.00    -0.323 N 
HETATM    3  O   UNL     1      -5.663   3.747 -34.949  1.00  0.00    -0.271 OA
HETATM    4  H   UNL     1      -5.779   3.020 -31.847  1.00  0.00     0.169 HD
ENDROOT
BRANCH   2   5
HETATM    5  C   UNL     1      -6.036   1.467 -33.152  1.00  0.00     0.071 A 
HETATM    6  C   UNL     1      -7.261   0.998 -33.661  1.00  0.00     0.096 A 
HETATM    7  C   UNL     1      -7.422  -0.325 -34.099  1.00  0.00     0.054 A 
HETATM    8  C   UNL     1      -6.324  -1.202 -33.992  1.00  0.00     0.014 A 
HETATM    9  C   UNL     1      -5.140  -0.711 -33.457  1.00  0.00     0.089 A 
HETATM   10  C   UNL     1      -6.068  -2.567 -34.317  1.00  0.00     0.011 A 
HETATM   11  O   UNL     1      -4.183  -1.679 -33.438  1.00  0.00    -0.309 OA
HETATM   12  C   UNL     1      -4.948   0.599 -33.020  1.00  0.00     0.070 A 
HETATM   13  C   UNL     1      -4.745  -2.802 -33.962  1.00  0.00     0.087 A 
HETATM   14  C   UNL     1      -4.093  -4.023 -34.126  1.00  0.00     0.038 A 
HETATM   15  C   UNL     1      -4.844  -5.060 -34.685  1.00  0.00     0.003 A 
HETATM   16  C   UNL     1      -6.177  -4.868 -35.055  1.00  0.00     0.001 A 
HETATM   17  C   UNL     1      -6.807  -3.626 -34.878  1.00  0.00     0.015 A 
BRANCH   6  18
HETATM   18  O   UNL     1      -8.295   1.908 -33.738  1.00  0.00    -0.354 OA
HETATM   19  C   UNL     1      -9.501   1.288 -34.196  1.00  0.00     0.210 C 
ENDBRANCH   6  18
ENDBRANCH   2   5
BRANCH   1  20
HETATM   20  C   UNL     1      -6.112   5.265 -33.147  1.00  0.00     0.337 C 
BRANCH  20  21
HETATM   21  N   UNL     1      -4.817   5.969 -32.714  1.00  0.00    -0.063 N 
HETATM   22  C   UNL     1      -3.795   5.956 -33.808  1.00  0.00     0.270 C 
HETATM   23  H   UNL     1      -5.094   6.947 -32.555  1.00  0.00     0.280 HD
BRANCH  21  24
HETATM   24  C   UNL     1      -4.246   5.547 -31.368  1.00  0.00     0.273 C 
BRANCH  24  25
HETATM   25  C   UNL     1      -2.852   6.021 -31.054  1.00  0.00    -0.032 A 
HETATM   26  C   UNL     1      -1.759   5.143 -31.163  1.00  0.00     0.012 A 
HETATM   27  C   UNL     1      -0.463   5.592 -30.903  1.00  0.00     0.043 A 
HETATM   28  C   UNL     1      -0.255   6.914 -30.530  1.00  0.00     0.116 A 
HETATM   29  F   UNL     1       0.989   7.342 -30.287  1.00  0.00    -0.206 F 
HETATM   30  C   UNL     1      -1.320   7.799 -30.419  1.00  0.00     0.043 A 
HETATM   31  C   UNL     1      -2.617   7.357 -30.685  1.00  0.00     0.012 A 
ENDBRANCH  24  25
ENDBRANCH  21  24
ENDBRANCH  20  21
ENDBRANCH   1  20
TORSDOF 6
ENDMDL
MODEL 10
REMARK VINA RESULT:      -8.1      3.064      8.210
REMARK  6 active torsions:
REMARK  status: ('A' for Active; 'I' for Inactive)
REMARK    1  A    between atoms: N_2  and  C_4 
REMARK    2  A    between atoms: N_2  and  C_23 
REMARK    3  A    between atoms: C_4  and  C_5 
REMARK       I    between atoms: C_5  and  N_6 
REMARK    4  A    between atoms: N_6  and  C_7 
REMARK    5  A    between atoms: C_8  and  O_9 
REMARK    6  A    between atoms: C_23  and  C_24 
ROOT
HETATM    1  C   UNL     1      -6.873   2.245 -33.750  1.00  0.00     0.248 C 
HETATM    2  N   UNL     1      -6.469   2.518 -32.463  1.00  0.00    -0.323 N 
HETATM    3  O   UNL     1      -6.367   2.714 -34.768  1.00  0.00    -0.271 OA
HETATM    4  H   UNL     1      -7.116   2.409 -31.685  1.00  0.00     0.169 HD
ENDROOT
BRANCH   2   5
HETATM    5  C   UNL     1      -5.255   3.150 -32.097  1.00  0.00     0.071 A 
HETATM    6  C   UNL     1      -4.210   2.324 -31.645  1.00  0.00     0.096 A 
HETATM    7  C   UNL     1      -2.936   2.836 -31.352  1.00  0.00     0.054 A 
HETATM    8  C   UNL     1      -2.726   4.222 -31.493  1.00  0.00     0.014 A 
HETATM    9  C   UNL     1      -3.790   5.010 -31.914  1.00  0.00     0.089 A 
HETATM   10  C   UNL     1      -1.626   5.113 -31.318  1.00  0.00     0.011 A 
HETATM   11  O   UNL     1      -3.413   6.314 -32.010  1.00  0.00    -0.309 OA
HETATM   12  C   UNL     1      -5.063   4.529 -32.218  1.00  0.00     0.070 A 
HETATM   13  C   UNL     1      -2.102   6.377 -31.652  1.00  0.00     0.087 A 
HETATM   14  C   UNL     1      -1.334   7.538 -31.622  1.00  0.00     0.038 A 
HETATM   15  C   UNL     1      -0.001   7.394 -31.227  1.00  0.00     0.003 A 
HETATM   16  C   UNL     1       0.518   6.144 -30.881  1.00  0.00     0.001 A 
HETATM   17  C   UNL     1      -0.281   4.991 -30.921  1.00  0.00     0.015 A 
BRANCH   6  18
HETATM   18  O   UNL     1      -4.483   0.977 -31.528  1.00  0.00    -0.354 OA
HETATM   19  C   UNL     1      -3.344   0.183 -31.873  1.00  0.00     0.210 C 
ENDBRANCH   6  18
ENDBRANCH   2   5
BRANCH   1  20
HETATM   20  C   UNL     1      -8.067   1.292 -33.850  1.00  0.00     0.337 C 
BRANCH  20  21
HETATM   21  N   UNL     1      -7.681  -0.194 -33.831  1.00  0.00    -0.063 N 
HETATM   22  C   UNL     1      -7.328  -0.650 -32.450  1.00  0.00     0.270 C 
HETATM   23  H   UNL     1      -8.537  -0.688 -34.115  1.00  0.00     0.280 HD
BRANCH  21  24
HETATM   24  C   UNL     1      -6.665  -0.633 -34.875  1.00  0.00     0.273 C 
BRANCH  24  25
HETATM   25  C   UNL     1      -6.100  -2.019 -34.719  1.00  0.00    -0.032 A 
HETATM   26  C   UNL     1      -4.769  -2.205 -34.305  1.00  0.00     0.012 A 
HETATM   27  C   UNL     1      -4.256  -3.491 -34.129  1.00  0.00     0.043 A 
HETATM   28  C   UNL     1      -5.066  -4.593 -34.369  1.00  0.00     0.116 A 
HETATM   29  F   UNL     1      -4.573  -5.825 -34.194  1.00  0.00    -0.206 F 
HETATM   30  C   UNL     1      -6.385  -4.434 -34.775  1.00  0.00     0.043 A 
HETATM   31  C   UNL     1      -6.905  -3.149 -34.945  1.00  0.00     0.012 A 
ENDBRANCH  24  25
ENDBRANCH  21  24
ENDBRANCH  20  21
ENDBRANCH   1  20
TORSDOF 6
ENDMDL
