MODEL 1
REMARK VINA RESULT:      -8.6      0.000      0.000
REMARK  8 active torsions:
REMARK  status: ('A' for Active; 'I' for Inactive)
REMARK    1  A    between atoms: C_5  and  O_6 
REMARK    2  A    between atoms: O_6  and  C_7 
REMARK    3  A    between atoms: C_7  and  C_8 
REMARK    4  A    between atoms: C_8  and  C_9 
REMARK    5  A    between atoms: C_9  and  C_10 
REMARK    6  A    between atoms: C_10  and  N_11 
REMARK       I    between atoms: N_11  and  C_12 
REMARK    7  A    between atoms: C_12  and  C_13 
REMARK    8  A    between atoms: C_17  and  C_18 
ROOT
HETATM    1  N   UNL     1      -2.281   4.371 -31.254  1.00  0.00    -0.345 N 
HETATM    2  C   UNL     1      -1.177   5.146 -31.507  1.00  0.00     0.270 C 
HETATM    3  O   UNL     1      -0.779   5.377 -32.645  1.00  0.00    -0.266 OA
HETATM    4  H   UNL     1      -2.627   4.275 -30.313  1.00  0.00     0.163 HD
ENDROOT
BRANCH   2   5
HETATM    5  C   UNL     1      -0.520   5.672 -30.343  1.00  0.00     0.120 A 
HETATM    6  N   UNL     1       0.228   4.879 -29.520  1.00  0.00    -0.272 N 
HETATM    7  H   UNL     1       0.402   3.885 -29.628  1.00  0.00     0.189 HD
HETATM    8  N   UNL     1       0.758   5.521 -28.468  1.00  0.00    -0.174 NA
HETATM    9  C   UNL     1       0.356   6.794 -28.608  1.00  0.00     0.089 A 
HETATM   10  C   UNL     1      -0.451   6.928 -29.773  1.00  0.00     0.071 A 
BRANCH   9  11
HETATM   11  C   UNL     1       0.731   7.834 -27.644  1.00  0.00    -0.003 A 
HETATM   12  C   UNL     1       1.575   7.538 -26.562  1.00  0.00     0.053 A 
HETATM   13  C   UNL     1       1.905   8.558 -25.692  1.00  0.00     0.106 A 
HETATM   14  C   UNL     1       1.433   9.838 -25.858  1.00  0.00     0.105 A 
HETATM   15  O   UNL     1       2.707   8.438 -24.601  1.00  0.00    -0.323 OA
HETATM   16  O   UNL     1       1.879  10.686 -24.894  1.00  0.00    -0.323 OA
HETATM   17  C   UNL     1       0.600  10.171 -26.902  1.00  0.00     0.040 A 
HETATM   18  C   UNL     1       2.683   9.790 -24.097  1.00  0.00     0.352 A 
HETATM   19  C   UNL     1       0.247   9.155 -27.799  1.00  0.00     0.017 A 
ENDBRANCH   9  11
ENDBRANCH   2   5
BRANCH   1  20
HETATM   20  C   UNL     1      -3.061   3.822 -32.331  1.00  0.00     0.217 C 
BRANCH  20  21
HETATM   21  C   UNL     1      -3.391   2.426 -32.040  1.00  0.00    -0.085 C 
BRANCH  21  22
HETATM   22  C   UNL     1      -3.665   1.178 -31.780  1.00  0.00    -0.078 C 
BRANCH  22  23
HETATM   23  C   UNL     1      -3.985  -0.277 -31.477  1.00  0.00     0.269 C 
BRANCH  23  24
HETATM   24  O   UNL     1      -3.269  -1.104 -32.390  1.00  0.00    -0.338 OA
BRANCH  24  25
HETATM   25  C   UNL     1      -4.013  -1.969 -33.138  1.00  0.00     0.087 A 
HETATM   26  C   UNL     1      -3.754  -3.313 -33.376  1.00  0.00     0.153 A 
HETATM   27  N   UNL     1      -4.541  -4.121 -34.128  1.00  0.00    -0.263 NA
HETATM   28  C   UNL     1      -5.649  -3.573 -34.678  1.00  0.00     0.030 A 
HETATM   29  C   UNL     1      -6.523  -4.467 -35.507  1.00  0.00     0.070 C 
HETATM   30  C   UNL     1      -5.987  -2.236 -34.498  1.00  0.00     0.029 A 
HETATM   31  C   UNL     1      -5.157  -1.431 -33.720  1.00  0.00     0.040 A 
ENDBRANCH  24  25
ENDBRANCH  23  24
ENDBRANCH  22  23
ENDBRANCH  21  22
ENDBRANCH  20  21
ENDBRANCH   1  20
TORSDOF 8
ENDMDL
MODEL 2
REMARK VINA RESULT:      -8.5      3.764     12.283
REMARK  8 active torsions:
REMARK  status: ('A' for Active; 'I' for Inactive)
REMARK    1  A    between atoms: C_5  and  O_6 
REMARK    2  A    between atoms: O_6  and  C_7 
REMARK    3  A    between atoms: C_7  and  C_8 
REMARK    4  A    between atoms: C_8  and  C_9 
REMARK    5  A    between atoms: C_9  and  C_10 
REMARK    6  A    between atoms: C_10  and  N_11 
REMARK       I    between atoms: N_11  and  C_12 
REMARK    7  A    between atoms: C_12  and  C_13 
REMARK    8  A    between atoms: C_17  and  C_18 
ROOT
HETATM    1  N   UNL     1      -5.966   3.874 -32.661  1.00  0.00    -0.345 N 
HETATM    2  C   UNL     1      -6.861   3.550 -33.650  1.00  0.00     0.270 C 
HETATM    3  O   UNL     1      -7.547   4.391 -34.222  1.00  0.00    -0.266 OA
HETATM    4  H   UNL     1      -5.359   3.169 -32.276  1.00  0.00     0.163 HD
ENDROOT
BRANCH   2   5
HETATM    5  C   UNL     1      -6.935   2.152 -33.973  1.00  0.00     0.120 A 
HETATM    6  N   UNL     1      -8.021   1.618 -34.607  1.00  0.00    -0.272 N 
HETATM    7  H   UNL     1      -8.852   2.115 -34.911  1.00  0.00     0.189 HD
HETATM    8  N   UNL     1      -7.941   0.296 -34.819  1.00  0.00    -0.174 NA
HETATM    9  C   UNL     1      -6.747  -0.057 -34.317  1.00  0.00     0.089 A 
HETATM   10  C   UNL     1      -6.086   1.081 -33.775  1.00  0.00     0.071 A 
BRANCH   9  11
HETATM   11  C   UNL     1      -6.272  -1.445 -34.353  1.00  0.00    -0.003 A 
HETATM   12  C   UNL     1      -5.009  -1.784 -33.841  1.00  0.00     0.053 A 
HETATM   13  C   UNL     1      -4.619  -3.107 -33.890  1.00  0.00     0.106 A 
HETATM   14  C   UNL     1      -5.425  -4.086 -34.420  1.00  0.00     0.105 A 
HETATM   15  O   UNL     1      -3.434  -3.599 -33.438  1.00  0.00    -0.323 OA
HETATM   16  O   UNL     1      -4.851  -5.317 -34.368  1.00  0.00    -0.323 OA
HETATM   17  C   UNL     1      -6.667  -3.797 -34.936  1.00  0.00     0.040 A 
HETATM   18  C   UNL     1      -3.587  -5.000 -33.749  1.00  0.00     0.352 A 
HETATM   19  C   UNL     1      -7.089  -2.462 -34.902  1.00  0.00     0.017 A 
ENDBRANCH   9  11
ENDBRANCH   2   5
BRANCH   1  20
HETATM   20  C   UNL     1      -5.757   5.244 -32.274  1.00  0.00     0.217 C 
BRANCH  20  21
HETATM   21  C   UNL     1      -4.537   5.754 -32.902  1.00  0.00    -0.085 C 
BRANCH  21  22
HETATM   22  C   UNL     1      -3.458   6.202 -33.480  1.00  0.00    -0.078 C 
BRANCH  22  23
HETATM   23  C   UNL     1      -2.201   6.725 -34.155  1.00  0.00     0.269 C 
BRANCH  23  24
HETATM   24  O   UNL     1      -1.796   7.925 -33.502  1.00  0.00    -0.338 OA
BRANCH  24  25
HETATM   25  C   UNL     1      -1.325   7.795 -32.227  1.00  0.00     0.087 A 
HETATM   26  C   UNL     1      -1.833   8.387 -31.079  1.00  0.00     0.153 A 
HETATM   27  N   UNL     1      -1.319   8.210 -29.836  1.00  0.00    -0.263 NA
HETATM   28  C   UNL     1      -0.240   7.402 -29.720  1.00  0.00     0.030 A 
HETATM   29  C   UNL     1       0.327   7.203 -28.346  1.00  0.00     0.070 C 
HETATM   30  C   UNL     1       0.340   6.770 -30.815  1.00  0.00     0.029 A 
HETATM   31  C   UNL     1      -0.213   6.973 -32.078  1.00  0.00     0.040 A 
ENDBRANCH  24  25
ENDBRANCH  23  24
ENDBRANCH  22  23
ENDBRANCH  21  22
ENDBRANCH  20  21
ENDBRANCH   1  20
TORSDOF 8
ENDMDL
MODEL 3
REMARK VINA RESULT:      -8.3      1.342      1.716
REMARK  8 active torsions:
REMARK  status: ('A' for Active; 'I' for Inactive)
REMARK    1  A    between atoms: C_5  and  O_6 
REMARK    2  A    between atoms: O_6  and  C_7 
REMARK    3  A    between atoms: C_7  and  C_8 
REMARK    4  A    between atoms: C_8  and  C_9 
REMARK    5  A    between atoms: C_9  and  C_10 
REMARK    6  A    between atoms: C_10  and  N_11 
REMARK       I    between atoms: N_11  and  C_12 
REMARK    7  A    between atoms: C_12  and  C_13 
REMARK    8  A    between atoms: C_17  and  C_18 
ROOT
HETATM    1  N   UNL     1      -1.423   5.505 -30.786  1.00  0.00    -0.345 N 
HETATM    2  C   UNL     1      -0.127   5.449 -30.337  1.00  0.00     0.270 C 
HETATM    3  O   UNL     1       0.761   4.870 -30.955  1.00  0.00    -0.266 OA
HETATM    4  H   UNL     1      -2.104   6.062 -30.296  1.00  0.00     0.163 HD
ENDROOT
BRANCH   2   5
HETATM    5  C   UNL     1       0.118   6.121 -29.091  1.00  0.00     0.120 A 
HETATM    6  N   UNL     1      -0.303   5.601 -27.900  1.00  0.00    -0.272 N 
HETATM    7  H   UNL     1      -0.803   4.728 -27.761  1.00  0.00     0.189 HD
HETATM    8  N   UNL     1      -0.011   6.360 -26.833  1.00  0.00    -0.174 NA
HETATM    9  C   UNL     1       0.641   7.420 -27.338  1.00  0.00     0.089 A 
HETATM   10  C   UNL     1       0.739   7.307 -28.753  1.00  0.00     0.071 A 
BRANCH   9  11
HETATM   11  C   UNL     1       1.138   8.502 -26.481  1.00  0.00    -0.003 A 
HETATM   12  C   UNL     1       2.172   8.269 -25.560  1.00  0.00     0.053 A 
HETATM   13  C   UNL     1       2.608   9.327 -24.788  1.00  0.00     0.106 A 
HETATM   14  C   UNL     1       2.063  10.584 -24.897  1.00  0.00     0.105 A 
HETATM   15  O   UNL     1       3.596   9.270 -23.854  1.00  0.00    -0.323 OA
HETATM   16  O   UNL     1       2.638  11.476 -24.048  1.00  0.00    -0.323 OA
HETATM   17  C   UNL     1       1.045  10.854 -25.783  1.00  0.00     0.040 A 
HETATM   18  C   UNL     1       3.605  10.635 -23.386  1.00  0.00     0.352 A 
HETATM   19  C   UNL     1       0.581   9.799 -26.579  1.00  0.00     0.017 A 
ENDBRANCH   9  11
ENDBRANCH   2   5
BRANCH   1  20
HETATM   20  C   UNL     1      -1.795   4.916 -32.045  1.00  0.00     0.217 C 
BRANCH  20  21
HETATM   21  C   UNL     1      -2.621   3.730 -31.810  1.00  0.00    -0.085 C 
BRANCH  21  22
HETATM   22  C   UNL     1      -3.343   2.662 -31.614  1.00  0.00    -0.078 C 
BRANCH  22  23
HETATM   23  C   UNL     1      -4.183   1.417 -31.386  1.00  0.00     0.269 C 
BRANCH  23  24
HETATM   24  O   UNL     1      -5.135   1.307 -32.440  1.00  0.00    -0.338 OA
BRANCH  24  25
HETATM   25  C   UNL     1      -5.220   0.093 -33.059  1.00  0.00     0.087 A 
HETATM   26  C   UNL     1      -4.324  -0.964 -32.962  1.00  0.00     0.153 A 
HETATM   27  N   UNL     1      -4.472  -2.151 -33.601  1.00  0.00    -0.263 NA
HETATM   28  C   UNL     1      -5.567  -2.305 -34.381  1.00  0.00     0.030 A 
HETATM   29  C   UNL     1      -5.732  -3.619 -35.086  1.00  0.00     0.070 C 
HETATM   30  C   UNL     1      -6.515  -1.300 -34.542  1.00  0.00     0.029 A 
HETATM   31  C   UNL     1      -6.334  -0.092 -33.871  1.00  0.00     0.040 A 
ENDBRANCH  24  25
ENDBRANCH  23  24
ENDBRANCH  22  23
ENDBRANCH  21  22
ENDBRANCH  20  21
ENDBRANCH   1  20
TORSDOF 8
ENDMDL
MODEL 4
REMARK VINA RESULT:      -8.2      3.564     10.920
REMARK  8 active torsions:
REMARK  status: ('A' for Active; 'I' for Inactive)
REMARK    1  A    between atoms: C_5  and  O_6 
REMARK    2  A    between atoms: O_6  and  C_7 
REMARK    3  A    between atoms: C_7  and  C_8 
REMARK    4  A    between atoms: C_8  and  C_9 
REMARK    5  A    between atoms: C_9  and  C_10 
REMARK    6  A    between atoms: C_10  and  N_11 
REMARK       I    between atoms: N_11  and  C_12 
REMARK    7  A    between atoms: C_12  and  C_13 
REMARK    8  A    between atoms: C_17  and  C_18 
ROOT
HETATM    1  N   UNL     1      -5.699   4.537 -28.597  1.00  0.00    -0.345 N 
HETATM    2  C   UNL     1      -6.258   4.176 -29.797  1.00  0.00     0.270 C 
HETATM    3  O   UNL     1      -6.872   4.967 -30.504  1.00  0.00    -0.266 OA
HETATM    4  H   UNL     1      -5.129   3.882 -28.087  1.00  0.00     0.163 HD
ENDROOT
BRANCH   2   5
HETATM    5  C   UNL     1      -6.070   2.801 -30.169  1.00  0.00     0.120 A 
HETATM    6  N   UNL     1      -6.330   1.779 -29.300  1.00  0.00    -0.272 N 
HETATM    7  H   UNL     1      -6.671   1.863 -28.348  1.00  0.00     0.189 HD
HETATM    8  N   UNL     1      -6.085   0.557 -29.797  1.00  0.00    -0.174 NA
HETATM    9  C   UNL     1      -5.658   0.778 -31.051  1.00  0.00     0.089 A 
HETATM   10  C   UNL     1      -5.633   2.176 -31.320  1.00  0.00     0.071 A 
BRANCH   9  11
HETATM   11  C   UNL     1      -5.280  -0.321 -31.944  1.00  0.00    -0.003 A 
HETATM   12  C   UNL     1      -6.169  -0.782 -32.930  1.00  0.00     0.053 A 
HETATM   13  C   UNL     1      -5.757  -1.811 -33.751  1.00  0.00     0.106 A 
HETATM   14  C   UNL     1      -4.515  -2.389 -33.629  1.00  0.00     0.105 A 
HETATM   15  O   UNL     1      -6.492  -2.369 -34.750  1.00  0.00    -0.323 OA
HETATM   16  O   UNL     1      -4.312  -3.381 -34.536  1.00  0.00    -0.323 OA
HETATM   17  C   UNL     1      -3.616  -1.972 -32.675  1.00  0.00     0.040 A 
HETATM   18  C   UNL     1      -5.571  -3.367 -35.240  1.00  0.00     0.352 A 
HETATM   19  C   UNL     1      -4.008  -0.929 -31.826  1.00  0.00     0.017 A 
ENDBRANCH   9  11
ENDBRANCH   2   5
BRANCH   1  20
HETATM   20  C   UNL     1      -5.770   5.895 -28.128  1.00  0.00     0.217 C 
BRANCH  20  21
HETATM   21  C   UNL     1      -4.503   6.577 -28.395  1.00  0.00    -0.085 C 
BRANCH  21  22
HETATM   22  C   UNL     1      -3.384   7.199 -28.646  1.00  0.00    -0.078 C 
BRANCH  22  23
HETATM   23  C   UNL     1      -2.081   7.922 -28.940  1.00  0.00     0.269 C 
BRANCH  23  24
HETATM   24  O   UNL     1      -1.097   6.961 -29.313  1.00  0.00    -0.338 OA
BRANCH  24  25
HETATM   25  C   UNL     1      -1.152   6.500 -30.596  1.00  0.00     0.087 A 
HETATM   26  C   UNL     1      -1.220   5.177 -31.012  1.00  0.00     0.153 A 
HETATM   27  N   UNL     1      -1.279   4.787 -32.310  1.00  0.00    -0.263 NA
HETATM   28  C   UNL     1      -1.270   5.758 -33.252  1.00  0.00     0.030 A 
HETATM   29  C   UNL     1      -1.339   5.326 -34.687  1.00  0.00     0.070 C 
HETATM   30  C   UNL     1      -1.200   7.109 -32.930  1.00  0.00     0.029 A 
HETATM   31  C   UNL     1      -1.140   7.477 -31.587  1.00  0.00     0.040 A 
ENDBRANCH  24  25
ENDBRANCH  23  24
ENDBRANCH  22  23
ENDBRANCH  21  22
ENDBRANCH  20  21
ENDBRANCH   1  20
TORSDOF 8
ENDMDL
MODEL 5
REMARK VINA RESULT:      -8.0      1.987      2.367
REMARK  8 active torsions:
REMARK  status: ('A' for Active; 'I' for Inactive)
REMARK    1  A    between atoms: C_5  and  O_6 
REMARK    2  A    between atoms: O_6  and  C_7 
REMARK    3  A    between atoms: C_7  and  C_8 
REMARK    4  A    between atoms: C_8  and  C_9 
REMARK    5  A    between atoms: C_9  and  C_10 
REMARK    6  A    between atoms: C_10  and  N_11 
REMARK       I    between atoms: N_11  and  C_12 
REMARK    7  A    between atoms: C_12  and  C_13 
REMARK    8  A    between atoms: C_17  and  C_18 
ROOT
HETATM    1  N   UNL     1      -1.985   4.531 -30.958  1.00  0.00    -0.345 N 
HETATM    2  C   UNL     1      -1.180   5.625 -31.155  1.00  0.00     0.270 C 
HETATM    3  O   UNL     1      -1.039   6.152 -32.254  1.00  0.00    -0.266 OA
HETATM    4  H   UNL     1      -2.144   4.181 -30.027  1.00  0.00     0.163 HD
ENDROOT
BRANCH   2   5
HETATM    5  C   UNL     1      -0.516   6.115 -29.979  1.00  0.00     0.120 A 
HETATM    6  N   UNL     1       0.118   5.273 -29.108  1.00  0.00    -0.272 N 
HETATM    7  H   UNL     1       0.195   4.264 -29.187  1.00  0.00     0.189 HD
HETATM    8  N   UNL     1       0.672   5.887 -28.052  1.00  0.00    -0.174 NA
HETATM    9  C   UNL     1       0.406   7.190 -28.238  1.00  0.00     0.089 A 
HETATM   10  C   UNL     1      -0.340   7.373 -29.436  1.00  0.00     0.071 A 
BRANCH   9  11
HETATM   11  C   UNL     1       0.849   8.213 -27.285  1.00  0.00    -0.003 A 
HETATM   12  C   UNL     1       1.856   7.931 -26.347  1.00  0.00     0.053 A 
HETATM   13  C   UNL     1       2.242   8.935 -25.482  1.00  0.00     0.106 A 
HETATM   14  C   UNL     1       1.673  10.186 -25.516  1.00  0.00     0.105 A 
HETATM   15  O   UNL     1       3.198   8.826 -24.521  1.00  0.00    -0.323 OA
HETATM   16  O   UNL     1       2.199  11.022 -24.582  1.00  0.00    -0.323 OA
HETATM   17  C   UNL     1       0.681  10.503 -26.415  1.00  0.00     0.040 A 
HETATM   18  C   UNL     1       3.162  10.152 -23.952  1.00  0.00     0.352 A 
HETATM   19  C   UNL     1       0.268   9.503 -27.304  1.00  0.00     0.017 A 
ENDBRANCH   9  11
ENDBRANCH   2   5
BRANCH   1  20
HETATM   20  C   UNL     1      -2.747   3.970 -32.041  1.00  0.00     0.217 C 
BRANCH  20  21
HETATM   21  C   UNL     1      -3.188   2.620 -31.688  1.00  0.00    -0.085 C 
BRANCH  21  22
HETATM   22  C   UNL     1      -3.597   1.425 -31.362  1.00  0.00    -0.078 C 
BRANCH  22  23
HETATM   23  C   UNL     1      -4.075   0.034 -30.983  1.00  0.00     0.269 C 
BRANCH  23  24
HETATM   24  O   UNL     1      -4.690  -0.566 -32.120  1.00  0.00    -0.338 OA
BRANCH  24  25
HETATM   25  C   UNL     1      -6.021  -0.320 -32.292  1.00  0.00     0.087 A 
HETATM   26  C   UNL     1      -6.911   0.185 -31.353  1.00  0.00     0.153 A 
HETATM   27  N   UNL     1      -8.227   0.412 -31.593  1.00  0.00    -0.263 NA
HETATM   28  C   UNL     1      -8.692   0.125 -32.830  1.00  0.00     0.030 A 
HETATM   29  C   UNL     1     -10.146   0.380 -33.097  1.00  0.00     0.070 C 
HETATM   30  C   UNL     1      -7.876  -0.388 -33.833  1.00  0.00     0.029 A 
HETATM   31  C   UNL     1      -6.528  -0.610 -33.554  1.00  0.00     0.040 A 
ENDBRANCH  24  25
ENDBRANCH  23  24
ENDBRANCH  22  23
ENDBRANCH  21  22
ENDBRANCH  20  21
ENDBRANCH   1  20
TORSDOF 8
ENDMDL
MODEL 6
REMARK VINA RESULT:      -8.0      3.755     11.674
REMARK  8 active torsions:
REMARK  status: ('A' for Active; 'I' for Inactive)
REMARK    1  A    between atoms: C_5  and  O_6 
REMARK    2  A    between atoms: O_6  and  C_7 
REMARK    3  A    between atoms: C_7  and  C_8 
REMARK    4  A    between atoms: C_8  and  C_9 
REMARK    5  A    between atoms: C_9  and  C_10 
REMARK    6  A    between atoms: C_10  and  N_11 
REMARK       I    between atoms: N_11  and  C_12 
REMARK    7  A    between atoms: C_12  and  C_13 
REMARK    8  A    between atoms: C_17  and  C_18 
ROOT
HETATM    1  N   UNL     1      -6.351   4.694 -31.997  1.00  0.00    -0.345 N 
HETATM    2  C   UNL     1      -6.381   4.074 -33.221  1.00  0.00     0.270 C 
HETATM    3  O   UNL     1      -6.741   4.649 -34.243  1.00  0.00    -0.266 OA
HETATM    4  H   UNL     1      -5.967   4.217 -31.197  1.00  0.00     0.163 HD
ENDROOT
BRANCH   2   5
HETATM    5  C   UNL     1      -5.956   2.702 -33.222  1.00  0.00     0.120 A 
HETATM    6  N   UNL     1      -4.842   2.294 -32.542  1.00  0.00    -0.272 N 
HETATM    7  H   UNL     1      -4.224   2.876 -31.985  1.00  0.00     0.189 HD
HETATM    8  N   UNL     1      -4.573   0.985 -32.660  1.00  0.00    -0.174 NA
HETATM    9  C   UNL     1      -5.555   0.505 -33.439  1.00  0.00     0.089 A 
HETATM   10  C   UNL     1      -6.442   1.553 -33.814  1.00  0.00     0.071 A 
BRANCH   9  11
HETATM   11  C   UNL     1      -5.623  -0.912 -33.812  1.00  0.00    -0.003 A 
HETATM   12  C   UNL     1      -4.524  -1.762 -33.604  1.00  0.00     0.053 A 
HETATM   13  C   UNL     1      -4.647  -3.089 -33.963  1.00  0.00     0.106 A 
HETATM   14  C   UNL     1      -5.803  -3.591 -34.511  1.00  0.00     0.105 A 
HETATM   15  O   UNL     1      -3.682  -4.037 -33.828  1.00  0.00    -0.323 OA
HETATM   16  O   UNL     1      -5.713  -4.919 -34.788  1.00  0.00    -0.323 OA
HETATM   17  C   UNL     1      -6.902  -2.794 -34.736  1.00  0.00     0.040 A 
HETATM   18  C   UNL     1      -4.363  -5.194 -34.357  1.00  0.00     0.352 A 
HETATM   19  C   UNL     1      -6.805  -1.442 -34.383  1.00  0.00     0.017 A 
ENDBRANCH   9  11
ENDBRANCH   2   5
BRANCH   1  20
HETATM   20  C   UNL     1      -6.704   6.082 -31.863  1.00  0.00     0.217 C 
BRANCH  20  21
HETATM   21  C   UNL     1      -5.491   6.889 -31.722  1.00  0.00    -0.085 C 
BRANCH  21  22
HETATM   22  C   UNL     1      -4.420   7.624 -31.607  1.00  0.00    -0.078 C 
BRANCH  22  23
HETATM   23  C   UNL     1      -3.172   8.480 -31.472  1.00  0.00     0.269 C 
BRANCH  23  24
HETATM   24  O   UNL     1      -2.128   7.894 -32.244  1.00  0.00    -0.338 OA
BRANCH  24  25
HETATM   25  C   UNL     1      -1.315   7.009 -31.596  1.00  0.00     0.087 A 
HETATM   26  C   UNL     1      -1.014   5.709 -31.977  1.00  0.00     0.153 A 
HETATM   27  N   UNL     1      -0.190   4.882 -31.287  1.00  0.00    -0.263 NA
HETATM   28  C   UNL     1       0.370   5.366 -30.154  1.00  0.00     0.030 A 
HETATM   29  C   UNL     1       1.284   4.453 -29.393  1.00  0.00     0.070 C 
HETATM   30  C   UNL     1       0.123   6.654 -29.692  1.00  0.00     0.029 A 
HETATM   31  C   UNL     1      -0.729   7.479 -30.425  1.00  0.00     0.040 A 
ENDBRANCH  24  25
ENDBRANCH  23  24
ENDBRANCH  22  23
ENDBRANCH  21  22
ENDBRANCH  20  21
ENDBRANCH   1  20
TORSDOF 8
ENDMDL
MODEL 7
REMARK VINA RESULT:      -7.9      2.742     12.323
REMARK  8 active torsions:
REMARK  status: ('A' for Active; 'I' for Inactive)
REMARK    1  A    between atoms: C_5  and  O_6 
REMARK    2  A    between atoms: O_6  and  C_7 
REMARK    3  A    between atoms: C_7  and  C_8 
REMARK    4  A    between atoms: C_8  and  C_9 
REMARK    5  A    between atoms: C_9  and  C_10 
REMARK    6  A    between atoms: C_10  and  N_11 
REMARK       I    between atoms: N_11  and  C_12 
REMARK    7  A    between atoms: C_12  and  C_13 
REMARK    8  A    between atoms: C_17  and  C_18 
ROOT
HETATM    1  N   UNL     1      -4.976   4.672 -32.266  1.00  0.00    -0.345 N 
HETATM    2  C   UNL     1      -5.932   3.762 -31.892  1.00  0.00     0.270 C 
HETATM    3  O   UNL     1      -6.706   3.961 -30.961  1.00  0.00    -0.266 OA
HETATM    4  H   UNL     1      -4.418   4.511 -33.089  1.00  0.00     0.163 HD
ENDROOT
BRANCH   2   5
HETATM    5  C   UNL     1      -5.967   2.556 -32.673  1.00  0.00     0.120 A 
HETATM    6  N   UNL     1      -6.549   2.517 -33.909  1.00  0.00    -0.272 N 
HETATM    7  H   UNL     1      -6.994   3.289 -34.395  1.00  0.00     0.189 HD
HETATM    8  N   UNL     1      -6.513   1.312 -34.497  1.00  0.00    -0.174 NA
HETATM    9  C   UNL     1      -5.869   0.524 -33.621  1.00  0.00     0.089 A 
HETATM   10  C   UNL     1      -5.513   1.269 -32.461  1.00  0.00     0.071 A 
BRANCH   9  11
HETATM   11  C   UNL     1      -5.621  -0.895 -33.894  1.00  0.00    -0.003 A 
HETATM   12  C   UNL     1      -4.537  -1.561 -33.299  1.00  0.00     0.053 A 
HETATM   13  C   UNL     1      -4.358  -2.900 -33.582  1.00  0.00     0.106 A 
HETATM   14  C   UNL     1      -5.203  -3.587 -34.420  1.00  0.00     0.105 A 
HETATM   15  O   UNL     1      -3.362  -3.686 -33.091  1.00  0.00    -0.323 OA
HETATM   16  O   UNL     1      -4.848  -4.892 -34.561  1.00  0.00    -0.323 OA
HETATM   17  C   UNL     1      -6.274  -2.973 -35.027  1.00  0.00     0.040 A 
HETATM   18  C   UNL     1      -3.678  -4.946 -33.719  1.00  0.00     0.352 A 
HETATM   19  C   UNL     1      -6.480  -1.614 -34.759  1.00  0.00     0.017 A 
ENDBRANCH   9  11
ENDBRANCH   2   5
BRANCH   1  20
HETATM   20  C   UNL     1      -4.865   5.943 -31.600  1.00  0.00     0.217 C 
BRANCH  20  21
HETATM   21  C   UNL     1      -3.456   6.240 -31.336  1.00  0.00    -0.085 C 
BRANCH  21  22
HETATM   22  C   UNL     1      -2.200   6.488 -31.088  1.00  0.00    -0.078 C 
BRANCH  22  23
HETATM   23  C   UNL     1      -0.736   6.775 -30.799  1.00  0.00     0.269 C 
BRANCH  23  24
HETATM   24  O   UNL     1      -0.317   5.963 -29.706  1.00  0.00    -0.338 OA
BRANCH  24  25
HETATM   25  C   UNL     1       0.166   6.621 -28.611  1.00  0.00     0.087 A 
HETATM   26  C   UNL     1      -0.027   6.286 -27.277  1.00  0.00     0.153 A 
HETATM   27  N   UNL     1       0.488   6.982 -26.233  1.00  0.00    -0.263 NA
HETATM   28  C   UNL     1       1.236   8.072 -26.521  1.00  0.00     0.030 A 
HETATM   29  C   UNL     1       1.809   8.840 -25.367  1.00  0.00     0.070 C 
HETATM   30  C   UNL     1       1.479   8.486 -27.826  1.00  0.00     0.029 A 
HETATM   31  C   UNL     1       0.935   7.748 -28.877  1.00  0.00     0.040 A 
ENDBRANCH  24  25
ENDBRANCH  23  24
ENDBRANCH  22  23
ENDBRANCH  21  22
ENDBRANCH  20  21
ENDBRANCH   1  20
TORSDOF 8
ENDMDL
MODEL 8
REMARK VINA RESULT:      -7.8      2.345      2.982
REMARK  8 active torsions:
REMARK  status: ('A' for Active; 'I' for Inactive)
REMARK    1  A    between atoms: C_5  and  O_6 
REMARK    2  A    between atoms: O_6  and  C_7 
REMARK    3  A    between atoms: C_7  and  C_8 
REMARK    4  A    between atoms: C_8  and  C_9 
REMARK    5  A    between atoms: C_9  and  C_10 
REMARK    6  A    between atoms: C_10  and  N_11 
REMARK       I    between atoms: N_11  and  C_12 
REMARK    7  A    between atoms: C_12  and  C_13 
REMARK    8  A    between atoms: C_17  and  C_18 
ROOT
HETATM    1  N   UNL     1      -2.660   5.714 -33.308  1.00  0.00    -0.345 N 
HETATM    2  C   UNL     1      -1.525   6.481 -33.235  1.00  0.00     0.270 C 
HETATM    3  O   UNL     1      -1.053   7.057 -34.210  1.00  0.00    -0.266 OA
HETATM    4  H   UNL     1      -3.065   5.328 -32.471  1.00  0.00     0.163 HD
ENDROOT
BRANCH   2   5
HETATM    5  C   UNL     1      -0.927   6.565 -31.932  1.00  0.00     0.120 A 
HETATM    6  N   UNL     1      -0.082   5.597 -31.464  1.00  0.00    -0.272 N 
HETATM    7  H   UNL     1       0.209   4.758 -31.955  1.00  0.00     0.189 HD
HETATM    8  N   UNL     1       0.375   5.817 -30.223  1.00  0.00    -0.174 NA
HETATM    9  C   UNL     1      -0.179   6.985 -29.858  1.00  0.00     0.089 A 
HETATM   10  C   UNL     1      -1.005   7.484 -30.904  1.00  0.00     0.071 A 
BRANCH   9  11
HETATM   11  C   UNL     1       0.076   7.584 -28.544  1.00  0.00    -0.003 A 
HETATM   12  C   UNL     1      -0.666   8.694 -28.106  1.00  0.00     0.053 A 
HETATM   13  C   UNL     1      -0.393   9.210 -26.855  1.00  0.00     0.106 A 
HETATM   14  C   UNL     1       0.575   8.672 -26.040  1.00  0.00     0.105 A 
HETATM   15  O   UNL     1      -1.017  10.275 -26.286  1.00  0.00    -0.323 OA
HETATM   16  O   UNL     1       0.680   9.329 -24.855  1.00  0.00    -0.323 OA
HETATM   17  C   UNL     1       1.327   7.588 -26.432  1.00  0.00     0.040 A 
HETATM   18  C   UNL     1      -0.329  10.347 -25.019  1.00  0.00     0.352 A 
HETATM   19  C   UNL     1       1.073   7.044 -27.697  1.00  0.00     0.017 A 
ENDBRANCH   9  11
ENDBRANCH   2   5
BRANCH   1  20
HETATM   20  C   UNL     1      -3.387   5.585 -34.543  1.00  0.00     0.217 C 
BRANCH  20  21
HETATM   21  C   UNL     1      -4.619   4.828 -34.315  1.00  0.00    -0.085 C 
BRANCH  21  22
HETATM   22  C   UNL     1      -5.726   4.167 -34.125  1.00  0.00    -0.078 C 
BRANCH  22  23
HETATM   23  C   UNL     1      -7.017   3.397 -33.903  1.00  0.00     0.269 C 
BRANCH  23  24
HETATM   24  O   UNL     1      -6.799   2.421 -32.888  1.00  0.00    -0.338 OA
BRANCH  24  25
HETATM   25  C   UNL     1      -6.635   1.132 -33.308  1.00  0.00     0.087 A 
HETATM   26  C   UNL     1      -5.892   0.135 -32.691  1.00  0.00     0.153 A 
HETATM   27  N   UNL     1      -5.775  -1.132 -33.161  1.00  0.00    -0.263 NA
HETATM   28  C   UNL     1      -6.428  -1.433 -34.307  1.00  0.00     0.030 A 
HETATM   29  C   UNL     1      -6.302  -2.834 -34.825  1.00  0.00     0.070 C 
HETATM   30  C   UNL     1      -7.192  -0.497 -34.997  1.00  0.00     0.029 A 
HETATM   31  C   UNL     1      -7.292   0.796 -34.487  1.00  0.00     0.040 A 
ENDBRANCH  24  25
ENDBRANCH  23  24
ENDBRANCH  22  23
ENDBRANCH  21  22
ENDBRANCH  20  21
ENDBRANCH   1  20
TORSDOF 8
ENDMDL
MODEL 9
REMARK VINA RESULT:      -7.6      3.078     11.149
REMARK  8 active torsions:
REMARK  status: ('A' for Active; 'I' for Inactive)
REMARK    1  A    between atoms: C_5  and  O_6 
REMARK    2  A    between atoms: O_6  and  C_7 
REMARK    3  A    between atoms: C_7  and  C_8 
REMARK    4  A    between atoms: C_8  and  C_9 
REMARK    5  A    between atoms: C_9  and  C_10 
REMARK    6  A    between atoms: C_10  and  N_11 
REMARK       I    between atoms: N_11  and  C_12 
REMARK    7  A    between atoms: C_12  and  C_13 
REMARK    8  A    between atoms: C_17  and  C_18 
ROOT
HETATM    1  N   UNL     1      -5.467   4.515 -28.704  1.00  0.00    -0.345 N 
HETATM    2  C   UNL     1      -5.807   4.400 -30.028  1.00  0.00     0.270 C 
HETATM    3  O   UNL     1      -6.498   5.232 -30.607  1.00  0.00    -0.266 OA
HETATM    4  H   UNL     1      -4.827   3.858 -28.287  1.00  0.00     0.163 HD
ENDROOT
BRANCH   2   5
HETATM    5  C   UNL     1      -5.293   3.235 -30.693  1.00  0.00     0.120 A 
HETATM    6  N   UNL     1      -3.957   2.951 -30.715  1.00  0.00    -0.272 N 
HETATM    7  H   UNL     1      -3.214   3.494 -30.286  1.00  0.00     0.189 HD
HETATM    8  N   UNL     1      -3.640   1.837 -31.393  1.00  0.00    -0.174 NA
HETATM    9  C   UNL     1      -4.817   1.357 -31.826  1.00  0.00     0.089 A 
HETATM   10  C   UNL     1      -5.878   2.208 -31.408  1.00  0.00     0.071 A 
BRANCH   9  11
HETATM   11  C   UNL     1      -4.905   0.128 -32.621  1.00  0.00    -0.003 A 
HETATM   12  C   UNL     1      -4.065  -0.964 -32.348  1.00  0.00     0.053 A 
HETATM   13  C   UNL     1      -4.199  -2.101 -33.120  1.00  0.00     0.106 A 
HETATM   14  C   UNL     1      -5.121  -2.187 -34.136  1.00  0.00     0.105 A 
HETATM   15  O   UNL     1      -3.467  -3.239 -32.985  1.00  0.00    -0.323 OA
HETATM   16  O   UNL     1      -5.088  -3.390 -34.767  1.00  0.00    -0.323 OA
HETATM   17  C   UNL     1      -5.960  -1.139 -34.440  1.00  0.00     0.040 A 
HETATM   18  C   UNL     1      -4.034  -4.051 -34.036  1.00  0.00     0.352 A 
HETATM   19  C   UNL     1      -5.846   0.027 -33.674  1.00  0.00     0.017 A 
ENDBRANCH   9  11
ENDBRANCH   2   5
BRANCH   1  20
HETATM   20  C   UNL     1      -5.874   5.659 -27.933  1.00  0.00     0.217 C 
BRANCH  20  21
HETATM   21  C   UNL     1      -4.694   6.406 -27.496  1.00  0.00    -0.085 C 
BRANCH  21  22
HETATM   22  C   UNL     1      -3.646   7.087 -27.123  1.00  0.00    -0.078 C 
BRANCH  22  23
HETATM   23  C   UNL     1      -2.426   7.880 -26.685  1.00  0.00     0.269 C 
BRANCH  23  24
HETATM   24  O   UNL     1      -1.752   8.361 -27.845  1.00  0.00    -0.338 OA
BRANCH  24  25
HETATM   25  C   UNL     1      -0.983   7.459 -28.520  1.00  0.00     0.087 A 
HETATM   26  C   UNL     1      -0.226   6.427 -27.979  1.00  0.00     0.153 A 
HETATM   27  N   UNL     1       0.515   5.558 -28.710  1.00  0.00    -0.263 NA
HETATM   28  C   UNL     1       0.510   5.715 -30.053  1.00  0.00     0.030 A 
HETATM   29  C   UNL     1       1.327   4.752 -30.863  1.00  0.00     0.070 C 
HETATM   30  C   UNL     1      -0.213   6.722 -30.684  1.00  0.00     0.029 A 
HETATM   31  C   UNL     1      -0.964   7.599 -29.904  1.00  0.00     0.040 A 
ENDBRANCH  24  25
ENDBRANCH  23  24
ENDBRANCH  22  23
ENDBRANCH  21  22
ENDBRANCH  20  21
ENDBRANCH   1  20
TORSDOF 8
ENDMDL
MODEL 10
REMARK VINA RESULT:      -7.5      1.772      2.302
REMARK  8 active torsions:
REMARK  status: ('A' for Active; 'I' for Inactive)
REMARK    1  A    between atoms: C_5  and  O_6 
REMARK    2  A    between atoms: O_6  and  C_7 
REMARK    3  A    between atoms: C_7  and  C_8 
REMARK    4  A    between atoms: C_8  and  C_9 
REMARK    5  A    between atoms: C_9  and  C_10 
REMARK    6  A    between atoms: C_10  and  N_11 
REMARK       I    between atoms: N_11  and  C_12 
REMARK    7  A    between atoms: C_12  and  C_13 
REMARK    8  A    between atoms: C_17  and  C_18 
ROOT
HETATM    1  N   UNL     1      -3.755   5.644 -32.987  1.00  0.00    -0.345 N 
HETATM    2  C   UNL     1      -2.491   5.110 -32.944  1.00  0.00     0.270 C 
HETATM    3  O   UNL     1      -2.115   4.240 -33.722  1.00  0.00    -0.266 OA
HETATM    4  H   UNL     1      -3.998   6.418 -32.389  1.00  0.00     0.163 HD
ENDROOT
BRANCH   2   5
HETATM    5  C   UNL     1      -1.635   5.647 -31.923  1.00  0.00     0.120 A 
HETATM    6  N   UNL     1      -0.330   5.259 -31.802  1.00  0.00    -0.272 N 
HETATM    7  H   UNL     1       0.161   4.591 -32.387  1.00  0.00     0.189 HD
HETATM    8  N   UNL     1       0.326   5.840 -30.786  1.00  0.00    -0.174 NA
HETATM    9  C   UNL     1      -0.578   6.656 -30.220  1.00  0.00     0.089 A 
HETATM   10  C   UNL     1      -1.822   6.560 -30.904  1.00  0.00     0.071 A 
BRANCH   9  11
HETATM   11  C   UNL     1      -0.248   7.484 -29.055  1.00  0.00    -0.003 A 
HETATM   12  C   UNL     1       0.814   7.136 -28.205  1.00  0.00     0.053 A 
HETATM   13  C   UNL     1       1.087   7.959 -27.131  1.00  0.00     0.106 A 
HETATM   14  C   UNL     1       0.355   9.094 -26.878  1.00  0.00     0.105 A 
HETATM   15  O   UNL     1       2.076   7.765 -26.218  1.00  0.00    -0.323 OA
HETATM   16  O   UNL     1       0.791   9.759 -25.774  1.00  0.00    -0.323 OA
HETATM   17  C   UNL     1      -0.696   9.470 -27.682  1.00  0.00     0.040 A 
HETATM   18  C   UNL     1       1.879   8.908 -25.358  1.00  0.00     0.352 A 
HETATM   19  C   UNL     1      -0.998   8.653 -28.779  1.00  0.00     0.017 A 
ENDBRANCH   9  11
ENDBRANCH   2   5
BRANCH   1  20
HETATM   20  C   UNL     1      -4.697   5.232 -33.992  1.00  0.00     0.217 C 
BRANCH  20  21
HETATM   21  C   UNL     1      -5.263   3.930 -33.635  1.00  0.00    -0.085 C 
BRANCH  21  22
HETATM   22  C   UNL     1      -5.747   2.761 -33.321  1.00  0.00    -0.078 C 
BRANCH  22  23
HETATM   23  C   UNL     1      -6.311   1.399 -32.953  1.00  0.00     0.269 C 
BRANCH  23  24
HETATM   24  O   UNL     1      -6.437   0.619 -34.139  1.00  0.00    -0.338 OA
BRANCH  24  25
HETATM   25  C   UNL     1      -5.839  -0.608 -34.126  1.00  0.00     0.087 A 
HETATM   26  C   UNL     1      -6.198  -1.726 -34.867  1.00  0.00     0.153 A 
HETATM   27  N   UNL     1      -5.554  -2.918 -34.811  1.00  0.00    -0.263 NA
HETATM   28  C   UNL     1      -4.496  -3.014 -33.974  1.00  0.00     0.030 A 
HETATM   29  C   UNL     1      -3.782  -4.332 -33.913  1.00  0.00     0.070 C 
HETATM   30  C   UNL     1      -4.067  -1.950 -33.188  1.00  0.00     0.029 A 
HETATM   31  C   UNL     1      -4.750  -0.737 -33.270  1.00  0.00     0.040 A 
ENDBRANCH  24  25
ENDBRANCH  23  24
ENDBRANCH  22  23
ENDBRANCH  21  22
ENDBRANCH  20  21
ENDBRANCH   1  20
TORSDOF 8
ENDMDL
