MODEL 1
REMARK VINA RESULT:      -9.2      0.000      0.000
REMARK  2 active torsions:
REMARK  status: ('A' for Active; 'I' for Inactive)
REMARK    1  A    between atoms: C_15  and  C_16 
REMARK    2  A    between atoms: C_19  and  O_20 
ROOT
HETATM    1  C   UNL     1       0.286   6.979 -31.215  1.00  0.00     0.048 C 
HETATM    2  C   UNL     1      -0.821   6.399 -32.049  1.00  0.00    -0.061 A 
HETATM    3  C   UNL     1      -1.717   5.478 -31.479  1.00  0.00     0.021 A 
HETATM    4  C   UNL     1      -2.735   4.911 -32.269  1.00  0.00    -0.000 A 
HETATM    5  C   UNL     1      -2.837   5.296 -33.610  1.00  0.00     0.043 A 
HETATM    6  N   UNL     1      -3.921   4.635 -34.152  1.00  0.00    -0.353 N 
HETATM    7  H   UNL     1      -4.238   4.713 -35.109  1.00  0.00     0.166 HD
HETATM    8  C   UNL     1      -4.429   3.777 -33.227  1.00  0.00     0.066 A 
HETATM    9  C   UNL     1      -3.754   3.947 -32.033  1.00  0.00    -0.017 A 
HETATM   10  C   UNL     1      -4.095   3.147 -30.804  1.00  0.00     0.043 C 
HETATM   11  C   UNL     1      -5.374   2.276 -31.006  1.00  0.00     0.018 C 
HETATM   12  C   UNL     1      -5.398   1.656 -32.418  1.00  0.00     0.065 A 
HETATM   13  C   UNL     1      -5.463   2.812 -33.367  1.00  0.00     0.082 A 
HETATM   14  N   UNL     1      -6.506   2.909 -34.119  1.00  0.00    -0.203 NA
HETATM   15  C   UNL     1      -6.651   0.890 -32.856  1.00  0.00     0.121 A 
HETATM   16  N   UNL     1      -7.265   1.821 -33.829  1.00  0.00    -0.207 NA
HETATM   17  C   UNL     1      -1.942   6.189 -34.207  1.00  0.00     0.031 A 
HETATM   18  C   UNL     1      -0.928   6.723 -33.405  1.00  0.00     0.009 A 
HETATM   19  H   UNL     1      -8.219   2.076 -33.567  1.00  0.00     0.149 HD
ENDROOT
BRANCH  15  20
HETATM   20  C   UNL     1      -6.319  -0.456 -33.505  1.00  0.00    -0.038 A 
HETATM   21  C   UNL     1      -7.326  -1.257 -34.072  1.00  0.00     0.011 A 
HETATM   22  C   UNL     1      -7.042  -2.536 -34.566  1.00  0.00     0.037 A 
HETATM   23  C   UNL     1      -5.738  -3.022 -34.529  1.00  0.00     0.068 A 
HETATM   24  C   UNL     1      -4.711  -2.205 -34.071  1.00  0.00     0.037 A 
HETATM   25  C   UNL     1      -4.998  -0.935 -33.560  1.00  0.00     0.011 A 
BRANCH  23  26
HETATM   26  O   UNL     1      -5.372  -4.267 -34.962  1.00  0.00    -0.356 OA
HETATM   27  C   UNL     1      -4.358  -4.870 -34.159  1.00  0.00     0.210 C 
ENDBRANCH  23  26
ENDBRANCH  15  20
TORSDOF 2
ENDMDL
MODEL 2
REMARK VINA RESULT:      -8.9      3.011      8.066
REMARK  2 active torsions:
REMARK  status: ('A' for Active; 'I' for Inactive)
REMARK    1  A    between atoms: C_15  and  C_16 
REMARK    2  A    between atoms: C_19  and  O_20 
ROOT
HETATM    1  C   UNL     1      -6.334  -4.894 -35.839  1.00  0.00     0.048 C 
HETATM    2  C   UNL     1      -5.735  -3.914 -34.872  1.00  0.00    -0.061 A 
HETATM    3  C   UNL     1      -6.366  -2.677 -34.649  1.00  0.00     0.021 A 
HETATM    4  C   UNL     1      -5.788  -1.746 -33.765  1.00  0.00    -0.000 A 
HETATM    5  C   UNL     1      -4.597  -2.086 -33.116  1.00  0.00     0.043 A 
HETATM    6  N   UNL     1      -4.257  -1.035 -32.290  1.00  0.00    -0.353 N 
HETATM    7  H   UNL     1      -3.440  -0.993 -31.696  1.00  0.00     0.166 HD
HETATM    8  C   UNL     1      -5.135  -0.014 -32.482  1.00  0.00     0.066 A 
HETATM    9  C   UNL     1      -6.125  -0.427 -33.354  1.00  0.00    -0.017 A 
HETATM   10  C   UNL     1      -7.258   0.477 -33.759  1.00  0.00     0.043 C 
HETATM   11  C   UNL     1      -7.261   1.815 -32.953  1.00  0.00     0.018 C 
HETATM   12  C   UNL     1      -5.824   2.340 -32.759  1.00  0.00     0.065 A 
HETATM   13  C   UNL     1      -5.118   1.302 -31.944  1.00  0.00     0.082 A 
HETATM   14  N   UNL     1      -4.687   1.649 -30.779  1.00  0.00    -0.203 NA
HETATM   15  C   UNL     1      -5.611   3.564 -31.862  1.00  0.00     0.121 A 
HETATM   16  N   UNL     1      -4.989   2.967 -30.659  1.00  0.00    -0.207 NA
HETATM   17  C   UNL     1      -3.936  -3.298 -33.341  1.00  0.00     0.031 A 
HETATM   18  C   UNL     1      -4.522  -4.198 -34.238  1.00  0.00     0.009 A 
HETATM   19  H   UNL     1      -5.526   3.163 -29.812  1.00  0.00     0.149 HD
ENDROOT
BRANCH  15  20
HETATM   20  C   UNL     1      -4.695   4.610 -32.503  1.00  0.00    -0.038 A 
HETATM   21  C   UNL     1      -4.512   4.658 -33.896  1.00  0.00     0.011 A 
HETATM   22  C   UNL     1      -3.592   5.541 -34.476  1.00  0.00     0.037 A 
HETATM   23  C   UNL     1      -2.862   6.412 -33.671  1.00  0.00     0.068 A 
HETATM   24  C   UNL     1      -3.106   6.454 -32.303  1.00  0.00     0.037 A 
HETATM   25  C   UNL     1      -4.011   5.559 -31.723  1.00  0.00     0.011 A 
BRANCH  23  26
HETATM   26  O   UNL     1      -1.923   7.286 -34.145  1.00  0.00    -0.356 OA
HETATM   27  C   UNL     1      -0.770   7.385 -33.310  1.00  0.00     0.210 C 
ENDBRANCH  23  26
ENDBRANCH  15  20
TORSDOF 2
ENDMDL
MODEL 3
REMARK VINA RESULT:      -8.4      1.498      2.489
REMARK  2 active torsions:
REMARK  status: ('A' for Active; 'I' for Inactive)
REMARK    1  A    between atoms: C_15  and  C_16 
REMARK    2  A    between atoms: C_19  and  O_20 
ROOT
HETATM    1  C   UNL     1       0.324   7.632 -28.422  1.00  0.00     0.048 C 
HETATM    2  C   UNL     1      -0.283   7.138 -29.703  1.00  0.00    -0.061 A 
HETATM    3  C   UNL     1      -1.611   6.676 -29.715  1.00  0.00     0.021 A 
HETATM    4  C   UNL     1      -2.171   6.184 -30.910  1.00  0.00    -0.000 A 
HETATM    5  C   UNL     1      -1.386   6.182 -32.068  1.00  0.00     0.043 A 
HETATM    6  N   UNL     1      -2.162   5.691 -33.097  1.00  0.00    -0.353 N 
HETATM    7  H   UNL     1      -1.861   5.569 -34.055  1.00  0.00     0.166 HD
HETATM    8  C   UNL     1      -3.363   5.290 -32.599  1.00  0.00     0.066 A 
HETATM    9  C   UNL     1      -3.428   5.618 -31.257  1.00  0.00    -0.017 A 
HETATM   10  C   UNL     1      -4.643   5.316 -30.422  1.00  0.00     0.043 C 
HETATM   11  C   UNL     1      -5.829   4.776 -31.282  1.00  0.00     0.018 C 
HETATM   12  C   UNL     1      -5.321   3.806 -32.368  1.00  0.00     0.065 A 
HETATM   13  C   UNL     1      -4.431   4.619 -33.254  1.00  0.00     0.082 A 
HETATM   14  N   UNL     1      -4.782   4.759 -34.488  1.00  0.00    -0.203 NA
HETATM   15  C   UNL     1      -6.321   3.290 -33.408  1.00  0.00     0.121 A 
HETATM   16  N   UNL     1      -5.918   4.027 -34.626  1.00  0.00    -0.207 NA
HETATM   17  C   UNL     1      -0.055   6.610 -32.075  1.00  0.00     0.031 A 
HETATM   18  C   UNL     1       0.483   7.078 -30.871  1.00  0.00     0.009 A 
HETATM   19  H   UNL     1      -6.685   4.579 -35.013  1.00  0.00     0.149 HD
ENDROOT
BRANCH  15  20
HETATM   20  C   UNL     1      -6.224   1.776 -33.614  1.00  0.00    -0.038 A 
HETATM   21  C   UNL     1      -5.446   0.975 -32.760  1.00  0.00     0.011 A 
HETATM   22  C   UNL     1      -5.268  -0.391 -33.011  1.00  0.00     0.037 A 
HETATM   23  C   UNL     1      -5.891  -0.984 -34.106  1.00  0.00     0.068 A 
HETATM   24  C   UNL     1      -6.750  -0.233 -34.901  1.00  0.00     0.037 A 
HETATM   25  C   UNL     1      -6.913   1.135 -34.660  1.00  0.00     0.011 A 
BRANCH  23  26
HETATM   26  O   UNL     1      -5.751  -2.302 -34.446  1.00  0.00    -0.356 OA
HETATM   27  C   UNL     1      -4.397  -2.750 -34.427  1.00  0.00     0.210 C 
ENDBRANCH  23  26
ENDBRANCH  15  20
TORSDOF 2
ENDMDL
MODEL 4
REMARK VINA RESULT:      -8.2     16.403     17.631
REMARK  2 active torsions:
REMARK  status: ('A' for Active; 'I' for Inactive)
REMARK    1  A    between atoms: C_15  and  C_16 
REMARK    2  A    between atoms: C_19  and  O_20 
ROOT
HETATM    1  C   UNL     1       1.639 -15.945 -37.408  1.00  0.00     0.048 C 
HETATM    2  C   UNL     1       0.487 -15.165 -37.974  1.00  0.00    -0.061 A 
HETATM    3  C   UNL     1      -0.703 -15.041 -37.237  1.00  0.00     0.021 A 
HETATM    4  C   UNL     1      -1.794 -14.335 -37.780  1.00  0.00    -0.000 A 
HETATM    5  C   UNL     1      -1.656 -13.760 -39.048  1.00  0.00     0.043 A 
HETATM    6  N   UNL     1      -2.835 -13.105 -39.339  1.00  0.00    -0.353 N 
HETATM    7  H   UNL     1      -3.031 -12.598 -40.191  1.00  0.00     0.166 HD
HETATM    8  C   UNL     1      -3.734 -13.341 -38.346  1.00  0.00     0.066 A 
HETATM    9  C   UNL     1      -3.118 -14.061 -37.339  1.00  0.00    -0.017 A 
HETATM   10  C   UNL     1      -3.849 -14.469 -36.089  1.00  0.00     0.043 C 
HETATM   11  C   UNL     1      -5.275 -13.838 -36.009  1.00  0.00     0.018 C 
HETATM   12  C   UNL     1      -5.955 -13.843 -37.393  1.00  0.00     0.065 A 
HETATM   13  C   UNL     1      -5.105 -12.974 -38.266  1.00  0.00     0.082 A 
HETATM   14  N   UNL     1      -5.642 -11.905 -38.748  1.00  0.00    -0.203 NA
HETATM   15  C   UNL     1      -7.301 -13.127 -37.546  1.00  0.00     0.121 A 
HETATM   16  N   UNL     1      -6.930 -11.921 -38.319  1.00  0.00    -0.207 NA
HETATM   17  C   UNL     1      -0.493 -13.894 -39.813  1.00  0.00     0.031 A 
HETATM   18  C   UNL     1       0.569 -14.614 -39.256  1.00  0.00     0.009 A 
HETATM   19  H   UNL     1      -7.185 -11.060 -37.834  1.00  0.00     0.149 HD
ENDROOT
BRANCH  15  20
HETATM   20  C   UNL     1      -8.335 -13.973 -38.293  1.00  0.00    -0.038 A 
HETATM   21  C   UNL     1      -8.321 -15.377 -38.209  1.00  0.00     0.011 A 
HETATM   22  C   UNL     1      -9.195 -16.157 -38.977  1.00  0.00     0.037 A 
HETATM   23  C   UNL     1     -10.118 -15.543 -39.820  1.00  0.00     0.068 A 
HETATM   24  C   UNL     1     -10.219 -14.156 -39.837  1.00  0.00     0.037 A 
HETATM   25  C   UNL     1      -9.334 -13.378 -39.084  1.00  0.00     0.011 A 
BRANCH  23  26
HETATM   26  O   UNL     1     -10.989 -16.222 -40.627  1.00  0.00    -0.356 OA
HETATM   27  C   UNL     1     -11.507 -15.429 -41.694  1.00  0.00     0.210 C 
ENDBRANCH  23  26
ENDBRANCH  15  20
TORSDOF 2
ENDMDL
MODEL 5
REMARK VINA RESULT:      -8.2     16.270     18.184
REMARK  2 active torsions:
REMARK  status: ('A' for Active; 'I' for Inactive)
REMARK    1  A    between atoms: C_15  and  C_16 
REMARK    2  A    between atoms: C_19  and  O_20 
ROOT
HETATM    1  C   UNL     1     -10.675 -14.818 -41.088  1.00  0.00     0.048 C 
HETATM    2  C   UNL     1      -9.582 -14.129 -40.325  1.00  0.00    -0.061 A 
HETATM    3  C   UNL     1      -8.247 -14.252 -40.750  1.00  0.00     0.021 A 
HETATM    4  C   UNL     1      -7.218 -13.630 -40.017  1.00  0.00    -0.000 A 
HETATM    5  C   UNL     1      -7.557 -12.889 -38.880  1.00  0.00     0.043 A 
HETATM    6  N   UNL     1      -6.392 -12.359 -38.364  1.00  0.00    -0.353 N 
HETATM    7  H   UNL     1      -6.325 -11.780 -37.539  1.00  0.00     0.166 HD
HETATM    8  C   UNL     1      -5.334 -12.831 -39.076  1.00  0.00     0.066 A 
HETATM    9  C   UNL     1      -5.801 -13.586 -40.136  1.00  0.00    -0.017 A 
HETATM   10  C   UNL     1      -4.870 -14.238 -41.123  1.00  0.00     0.043 C 
HETATM   11  C   UNL     1      -3.385 -13.810 -40.901  1.00  0.00     0.018 C 
HETATM   12  C   UNL     1      -3.057 -13.730 -39.396  1.00  0.00     0.065 A 
HETATM   13  C   UNL     1      -3.942 -12.657 -38.844  1.00  0.00     0.082 A 
HETATM   14  N   UNL     1      -3.374 -11.614 -38.341  1.00  0.00    -0.203 NA
HETATM   15  C   UNL     1      -1.690 -13.180 -38.977  1.00  0.00     0.121 A 
HETATM   16  N   UNL     1      -2.039 -11.849 -38.431  1.00  0.00    -0.207 NA
HETATM   17  C   UNL     1      -8.873 -12.775 -38.421  1.00  0.00     0.031 A 
HETATM   18  C   UNL     1      -9.875 -13.416 -39.158  1.00  0.00     0.009 A 
HETATM   19  H   UNL     1      -1.548 -11.095 -38.914  1.00  0.00     0.149 HD
ENDROOT
BRANCH  15  20
HETATM   20  C   UNL     1      -1.004 -14.053 -37.923  1.00  0.00    -0.038 A 
HETATM   21  C   UNL     1       0.188 -14.739 -38.212  1.00  0.00     0.011 A 
HETATM   22  C   UNL     1       0.758 -15.623 -37.287  1.00  0.00     0.037 A 
HETATM   23  C   UNL     1       0.159 -15.812 -36.045  1.00  0.00     0.068 A 
HETATM   24  C   UNL     1      -0.960 -15.062 -35.699  1.00  0.00     0.037 A 
HETATM   25  C   UNL     1      -1.539 -14.193 -36.629  1.00  0.00     0.011 A 
BRANCH  23  26
HETATM   26  O   UNL     1       0.627 -16.675 -35.092  1.00  0.00    -0.356 OA
HETATM   27  C   UNL     1       2.009 -16.492 -34.794  1.00  0.00     0.210 C 
ENDBRANCH  23  26
ENDBRANCH  15  20
TORSDOF 2
ENDMDL
MODEL 6
REMARK VINA RESULT:      -8.2      4.097      6.215
REMARK  2 active torsions:
REMARK  status: ('A' for Active; 'I' for Inactive)
REMARK    1  A    between atoms: C_15  and  C_16 
REMARK    2  A    between atoms: C_19  and  O_20 
ROOT
HETATM    1  C   UNL     1     -11.462   7.832 -36.449  1.00  0.00     0.048 C 
HETATM    2  C   UNL     1     -11.378   6.580 -35.625  1.00  0.00    -0.061 A 
HETATM    3  C   UNL     1     -10.139   6.165 -35.107  1.00  0.00     0.021 A 
HETATM    4  C   UNL     1     -10.054   4.974 -34.361  1.00  0.00    -0.000 A 
HETATM    5  C   UNL     1     -11.222   4.236 -34.141  1.00  0.00     0.043 A 
HETATM    6  N   UNL     1     -10.886   3.145 -33.365  1.00  0.00    -0.353 N 
HETATM    7  H   UNL     1     -11.525   2.429 -33.049  1.00  0.00     0.166 HD
HETATM    8  C   UNL     1      -9.538   3.124 -33.185  1.00  0.00     0.066 A 
HETATM    9  C   UNL     1      -8.988   4.261 -33.746  1.00  0.00    -0.017 A 
HETATM   10  C   UNL     1      -7.509   4.538 -33.699  1.00  0.00     0.043 C 
HETATM   11  C   UNL     1      -6.745   3.506 -32.811  1.00  0.00     0.018 C 
HETATM   12  C   UNL     1      -7.305   2.084 -33.019  1.00  0.00     0.065 A 
HETATM   13  C   UNL     1      -8.729   2.137 -32.559  1.00  0.00     0.082 A 
HETATM   14  N   UNL     1      -9.059   1.398 -31.555  1.00  0.00    -0.203 NA
HETATM   15  C   UNL     1      -6.784   0.957 -32.121  1.00  0.00     0.121 A 
HETATM   16  N   UNL     1      -7.936   0.709 -31.226  1.00  0.00    -0.207 NA
HETATM   17  C   UNL     1     -12.461   4.612 -34.669  1.00  0.00     0.031 A 
HETATM   18  C   UNL     1     -12.514   5.790 -35.422  1.00  0.00     0.009 A 
HETATM   19  H   UNL     1      -7.689   0.822 -30.242  1.00  0.00     0.149 HD
ENDROOT
BRANCH  15  20
HETATM   20  C   UNL     1      -6.411  -0.299 -32.913  1.00  0.00    -0.038 A 
HETATM   21  C   UNL     1      -5.112  -0.835 -32.854  1.00  0.00     0.011 A 
HETATM   22  C   UNL     1      -4.739  -1.917 -33.661  1.00  0.00     0.037 A 
HETATM   23  C   UNL     1      -5.668  -2.501 -34.517  1.00  0.00     0.068 A 
HETATM   24  C   UNL     1      -6.985  -2.054 -34.511  1.00  0.00     0.037 A 
HETATM   25  C   UNL     1      -7.353  -0.962 -33.719  1.00  0.00     0.011 A 
BRANCH  23  26
HETATM   26  O   UNL     1      -5.386  -3.541 -35.360  1.00  0.00    -0.356 OA
HETATM   27  C   UNL     1      -6.401  -4.543 -35.381  1.00  0.00     0.210 C 
ENDBRANCH  23  26
ENDBRANCH  15  20
TORSDOF 2
ENDMDL
MODEL 7
REMARK VINA RESULT:      -8.1      4.622      8.317
REMARK  2 active torsions:
REMARK  status: ('A' for Active; 'I' for Inactive)
REMARK    1  A    between atoms: C_15  and  C_16 
REMARK    2  A    between atoms: C_19  and  O_20 
ROOT
HETATM    1  C   UNL     1      -6.123  -4.153 -36.070  1.00  0.00     0.048 C 
HETATM    2  C   UNL     1      -5.799  -3.192 -34.962  1.00  0.00    -0.061 A 
HETATM    3  C   UNL     1      -6.809  -2.374 -34.428  1.00  0.00     0.021 A 
HETATM    4  C   UNL     1      -6.499  -1.451 -33.410  1.00  0.00    -0.000 A 
HETATM    5  C   UNL     1      -5.182  -1.384 -32.945  1.00  0.00     0.043 A 
HETATM    6  N   UNL     1      -5.143  -0.441 -31.939  1.00  0.00    -0.353 N 
HETATM    7  H   UNL     1      -4.320  -0.173 -31.415  1.00  0.00     0.166 HD
HETATM    8  C   UNL     1      -6.362   0.154 -31.836  1.00  0.00     0.066 A 
HETATM    9  C   UNL     1      -7.244  -0.472 -32.698  1.00  0.00    -0.017 A 
HETATM   10  C   UNL     1      -8.685  -0.050 -32.807  1.00  0.00     0.043 C 
HETATM   11  C   UNL     1      -9.069   1.015 -31.732  1.00  0.00     0.018 C 
HETATM   12  C   UNL     1      -7.930   2.037 -31.541  1.00  0.00     0.065 A 
HETATM   13  C   UNL     1      -6.763   1.252 -31.028  1.00  0.00     0.082 A 
HETATM   14  N   UNL     1      -6.319   1.542 -29.853  1.00  0.00    -0.203 NA
HETATM   15  C   UNL     1      -8.061   3.072 -30.418  1.00  0.00     0.121 A 
HETATM   16  N   UNL     1      -7.078   2.585 -29.425  1.00  0.00    -0.207 NA
HETATM   17  C   UNL     1      -4.154  -2.168 -33.479  1.00  0.00     0.031 A 
HETATM   18  C   UNL     1      -4.486  -3.063 -34.501  1.00  0.00     0.009 A 
HETATM   19  H   UNL     1      -7.507   2.401 -28.518  1.00  0.00     0.149 HD
ENDROOT
BRANCH  15  20
HETATM   20  C   UNL     1      -7.726   4.490 -30.886  1.00  0.00    -0.038 A 
HETATM   21  C   UNL     1      -7.741   5.573 -29.989  1.00  0.00     0.011 A 
HETATM   22  C   UNL     1      -7.543   6.886 -30.435  1.00  0.00     0.037 A 
HETATM   23  C   UNL     1      -7.297   7.133 -31.783  1.00  0.00     0.068 A 
HETATM   24  C   UNL     1      -7.172   6.067 -32.667  1.00  0.00     0.037 A 
HETATM   25  C   UNL     1      -7.388   4.758 -32.225  1.00  0.00     0.011 A 
BRANCH  23  26
HETATM   26  O   UNL     1      -7.121   8.382 -32.313  1.00  0.00    -0.356 OA
HETATM   27  C   UNL     1      -8.015   9.355 -31.776  1.00  0.00     0.210 C 
ENDBRANCH  23  26
ENDBRANCH  15  20
TORSDOF 2
ENDMDL
MODEL 8
REMARK VINA RESULT:      -7.9      3.905      5.096
REMARK  2 active torsions:
REMARK  status: ('A' for Active; 'I' for Inactive)
REMARK    1  A    between atoms: C_15  and  C_16 
REMARK    2  A    between atoms: C_19  and  O_20 
ROOT
HETATM    1  C   UNL     1      -1.160   5.420 -34.099  1.00  0.00     0.048 C 
HETATM    2  C   UNL     1      -2.494   5.342 -33.414  1.00  0.00    -0.061 A 
HETATM    3  C   UNL     1      -3.158   4.107 -33.315  1.00  0.00     0.021 A 
HETATM    4  C   UNL     1      -4.423   4.039 -32.700  1.00  0.00    -0.000 A 
HETATM    5  C   UNL     1      -4.985   5.214 -32.188  1.00  0.00     0.043 A 
HETATM    6  N   UNL     1      -6.195   4.882 -31.614  1.00  0.00    -0.353 N 
HETATM    7  H   UNL     1      -6.830   5.528 -31.166  1.00  0.00     0.166 HD
HETATM    8  C   UNL     1      -6.452   3.566 -31.845  1.00  0.00     0.066 A 
HETATM    9  C   UNL     1      -5.362   2.995 -32.475  1.00  0.00    -0.017 A 
HETATM   10  C   UNL     1      -5.334   1.539 -32.853  1.00  0.00     0.043 C 
HETATM   11  C   UNL     1      -6.568   0.762 -32.297  1.00  0.00     0.018 C 
HETATM   12  C   UNL     1      -7.849   1.613 -32.414  1.00  0.00     0.065 A 
HETATM   13  C   UNL     1      -7.620   2.812 -31.549  1.00  0.00     0.082 A 
HETATM   14  N   UNL     1      -8.404   2.978 -30.538  1.00  0.00    -0.203 NA
HETATM   15  C   UNL     1      -9.139   1.078 -31.781  1.00  0.00     0.121 A 
HETATM   16  N   UNL     1      -9.298   1.957 -30.601  1.00  0.00    -0.207 NA
HETATM   17  C   UNL     1      -4.357   6.458 -32.300  1.00  0.00     0.031 A 
HETATM   18  C   UNL     1      -3.109   6.501 -32.930  1.00  0.00     0.009 A 
HETATM   19  H   UNL     1      -9.336   1.426 -29.730  1.00  0.00     0.149 HD
ENDROOT
BRANCH  15  20
HETATM   20  C   UNL     1     -10.342   1.185 -32.722  1.00  0.00    -0.038 A 
HETATM   21  C   UNL     1     -10.711   2.416 -33.293  1.00  0.00     0.011 A 
HETATM   22  C   UNL     1     -11.873   2.536 -34.064  1.00  0.00     0.037 A 
HETATM   23  C   UNL     1     -12.670   1.419 -34.303  1.00  0.00     0.068 A 
HETATM   24  C   UNL     1     -12.265   0.173 -33.837  1.00  0.00     0.037 A 
HETATM   25  C   UNL     1     -11.114   0.056 -33.051  1.00  0.00     0.011 A 
BRANCH  23  26
HETATM   26  O   UNL     1     -13.835   1.448 -35.019  1.00  0.00    -0.356 OA
HETATM   27  C   UNL     1     -14.908   0.759 -34.380  1.00  0.00     0.210 C 
ENDBRANCH  23  26
ENDBRANCH  15  20
TORSDOF 2
ENDMDL
MODEL 9
REMARK VINA RESULT:      -7.8      3.295      4.332
REMARK  2 active torsions:
REMARK  status: ('A' for Active; 'I' for Inactive)
REMARK    1  A    between atoms: C_15  and  C_16 
REMARK    2  A    between atoms: C_19  and  O_20 
ROOT
HETATM    1  C   UNL     1       0.128   6.703 -31.979  1.00  0.00     0.048 C 
HETATM    2  C   UNL     1      -1.192   6.226 -31.446  1.00  0.00    -0.061 A 
HETATM    3  C   UNL     1      -1.683   4.963 -31.822  1.00  0.00     0.021 A 
HETATM    4  C   UNL     1      -2.935   4.528 -31.346  1.00  0.00    -0.000 A 
HETATM    5  C   UNL     1      -3.658   5.368 -30.493  1.00  0.00     0.043 A 
HETATM    6  N   UNL     1      -4.819   4.710 -30.144  1.00  0.00    -0.353 N 
HETATM    7  H   UNL     1      -5.542   5.073 -29.538  1.00  0.00     0.166 HD
HETATM    8  C   UNL     1      -4.891   3.538 -30.832  1.00  0.00     0.066 A 
HETATM    9  C   UNL     1      -3.726   3.364 -31.554  1.00  0.00    -0.017 A 
HETATM   10  C   UNL     1      -3.494   2.150 -32.412  1.00  0.00     0.043 C 
HETATM   11  C   UNL     1      -4.618   1.081 -32.235  1.00  0.00     0.018 C 
HETATM   12  C   UNL     1      -6.001   1.754 -32.127  1.00  0.00     0.065 A 
HETATM   13  C   UNL     1      -5.950   2.591 -30.887  1.00  0.00     0.082 A 
HETATM   14  N   UNL     1      -6.762   2.292 -29.930  1.00  0.00    -0.203 NA
HETATM   15  C   UNL     1      -7.214   0.877 -31.797  1.00  0.00     0.121 A 
HETATM   16  N   UNL     1      -7.507   1.257 -30.397  1.00  0.00    -0.207 NA
HETATM   17  C   UNL     1      -3.204   6.639 -30.128  1.00  0.00     0.031 A 
HETATM   18  C   UNL     1      -1.965   7.055 -30.628  1.00  0.00     0.009 A 
HETATM   19  H   UNL     1      -7.484   0.453 -29.769  1.00  0.00     0.149 HD
ENDROOT
BRANCH  15  20
HETATM   20  C   UNL     1      -8.408   1.159 -32.713  1.00  0.00    -0.038 A 
HETATM   21  C   UNL     1      -8.389   2.231 -33.622  1.00  0.00     0.011 A 
HETATM   22  C   UNL     1      -9.519   2.557 -34.382  1.00  0.00     0.037 A 
HETATM   23  C   UNL     1     -10.679   1.795 -34.266  1.00  0.00     0.068 A 
HETATM   24  C   UNL     1     -10.683   0.667 -33.453  1.00  0.00     0.037 A 
HETATM   25  C   UNL     1      -9.561   0.353 -32.681  1.00  0.00     0.011 A 
BRANCH  23  26
HETATM   26  O   UNL     1     -11.838   2.056 -34.945  1.00  0.00    -0.356 OA
HETATM   27  C   UNL     1     -12.889   1.141 -34.640  1.00  0.00     0.210 C 
ENDBRANCH  23  26
ENDBRANCH  15  20
TORSDOF 2
ENDMDL
MODEL 10
REMARK VINA RESULT:      -7.7     15.833     18.465
REMARK  2 active torsions:
REMARK  status: ('A' for Active; 'I' for Inactive)
REMARK    1  A    between atoms: C_15  and  C_16 
REMARK    2  A    between atoms: C_19  and  O_20 
ROOT
HETATM    1  C   UNL     1      -2.504 -16.975 -44.940  1.00  0.00     0.048 C 
HETATM    2  C   UNL     1      -3.086 -15.989 -43.969  1.00  0.00    -0.061 A 
HETATM    3  C   UNL     1      -2.579 -15.914 -42.660  1.00  0.00     0.021 A 
HETATM    4  C   UNL     1      -3.145 -15.011 -41.739  1.00  0.00    -0.000 A 
HETATM    5  C   UNL     1      -4.199 -14.195 -42.162  1.00  0.00     0.043 A 
HETATM    6  N   UNL     1      -4.551 -13.386 -41.101  1.00  0.00    -0.353 N 
HETATM    7  H   UNL     1      -5.288 -12.693 -41.109  1.00  0.00     0.166 HD
HETATM    8  C   UNL     1      -3.827 -13.744 -40.007  1.00  0.00     0.066 A 
HETATM    9  C   UNL     1      -2.912 -14.716 -40.368  1.00  0.00    -0.017 A 
HETATM   10  C   UNL     1      -1.948 -15.311 -39.376  1.00  0.00     0.043 C 
HETATM   11  C   UNL     1      -1.999 -14.581 -37.997  1.00  0.00     0.018 C 
HETATM   12  C   UNL     1      -3.451 -14.229 -37.616  1.00  0.00     0.065 A 
HETATM   13  C   UNL     1      -3.927 -13.276 -38.668  1.00  0.00     0.082 A 
HETATM   14  N   UNL     1      -4.246 -12.084 -38.294  1.00  0.00    -0.203 NA
HETATM   15  C   UNL     1      -3.689 -13.375 -36.366  1.00  0.00     0.121 A 
HETATM   16  N   UNL     1      -4.084 -12.071 -36.946  1.00  0.00    -0.207 NA
HETATM   17  C   UNL     1      -4.739 -14.270 -43.449  1.00  0.00     0.031 A 
HETATM   18  C   UNL     1      -4.171 -15.188 -44.339  1.00  0.00     0.009 A 
HETATM   19  H   UNL     1      -3.473 -11.314 -36.639  1.00  0.00     0.149 HD
ENDROOT
BRANCH  15  20
HETATM   20  C   UNL     1      -4.791 -13.943 -35.468  1.00  0.00    -0.038 A 
HETATM   21  C   UNL     1      -5.371 -13.166 -34.450  1.00  0.00     0.011 A 
HETATM   22  C   UNL     1      -6.300 -13.717 -33.558  1.00  0.00     0.037 A 
HETATM   23  C   UNL     1      -6.685 -15.049 -33.690  1.00  0.00     0.068 A 
HETATM   24  C   UNL     1      -6.204 -15.803 -34.754  1.00  0.00     0.037 A 
HETATM   25  C   UNL     1      -5.263 -15.258 -35.633  1.00  0.00     0.011 A 
BRANCH  23  26
HETATM   26  O   UNL     1      -7.562 -15.679 -32.849  1.00  0.00    -0.356 OA
HETATM   27  C   UNL     1      -6.940 -16.647 -32.007  1.00  0.00     0.210 C 
ENDBRANCH  23  26
ENDBRANCH  15  20
TORSDOF 2
ENDMDL
