MODEL 1
REMARK VINA RESULT:      -8.3      0.000      0.000
REMARK  5 active torsions:
REMARK  status: ('A' for Active; 'I' for Inactive)
REMARK    1  A    between atoms: C_8  and  C_9 
REMARK    2  A    between atoms: N_10  and  N_11 
REMARK       I    between atoms: N_11  and  C_12 
REMARK    3  A    between atoms: C_12  and  C_13 
REMARK    4  A    between atoms: C_13  and  O_14 
REMARK    5  A    between atoms: O_14  and  C_15 
ROOT
HETATM    1  N   UNL     1      -8.588   1.158 -32.824  1.00  0.00    -0.246 N 
HETATM    2  C   UNL     1      -9.963   0.962 -32.812  1.00  0.00     0.261 C 
HETATM    3  O   UNL     1     -10.544  -0.122 -32.847  1.00  0.00    -0.269 OA
HETATM    4  H   UNL     1      -8.255   2.080 -32.541  1.00  0.00     0.192 HD
ENDROOT
BRANCH   1   5
HETATM    5  N   UNL     1      -7.621   0.181 -32.809  1.00  0.00    -0.184 NA
HETATM    6  C   UNL     1      -6.642   0.258 -33.653  1.00  0.00     0.152 C 
BRANCH   6   7
HETATM    7  C   UNL     1      -5.625  -0.776 -33.670  1.00  0.00     0.011 A 
HETATM    8  C   UNL     1      -5.794  -2.136 -34.089  1.00  0.00     0.004 A 
HETATM    9  C   UNL     1      -6.888  -2.891 -34.565  1.00  0.00     0.014 A 
HETATM   10  C   UNL     1      -4.559  -2.773 -33.953  1.00  0.00     0.043 A 
HETATM   11  C   UNL     1      -6.708  -4.239 -34.890  1.00  0.00     0.001 A 
HETATM   12  C   UNL     1      -5.462  -4.842 -34.750  1.00  0.00     0.002 A 
HETATM   13  C   UNL     1      -4.361  -4.120 -34.278  1.00  0.00     0.030 A 
HETATM   14  N   UNL     1      -3.675  -1.838 -33.468  1.00  0.00    -0.364 N 
HETATM   15  H   UNL     1      -2.699  -2.019 -33.271  1.00  0.00     0.165 HD
HETATM   16  C   UNL     1      -4.304  -0.636 -33.289  1.00  0.00     0.102 A 
ENDBRANCH   6   7
ENDBRANCH   1   5
BRANCH   2  17
HETATM   17  C   UNL     1     -10.754   2.269 -32.835  1.00  0.00     0.280 C 
BRANCH  17  18
HETATM   18  O   UNL     1     -11.813   2.235 -33.784  1.00  0.00    -0.340 OA
BRANCH  18  19
HETATM   19  C   UNL     1     -13.081   2.442 -33.296  1.00  0.00     0.091 A 
HETATM   20  C   UNL     1     -13.990   1.377 -33.411  1.00  0.00     0.068 A 
HETATM   21 CL   UNL     1     -13.531  -0.114 -34.156  1.00  0.00    -0.081 Cl
HETATM   22  C   UNL     1     -15.299   1.498 -32.936  1.00  0.00     0.046 A 
HETATM   23  C   UNL     1     -15.701   2.684 -32.331  1.00  0.00     0.012 A 
HETATM   24 BR   UNL     1     -17.468   2.859 -31.682  1.00  0.00    -0.051 Br
HETATM   25  C   UNL     1     -14.808   3.746 -32.196  1.00  0.00     0.022 A 
HETATM   26  C   UNL     1     -13.500   3.624 -32.676  1.00  0.00     0.040 A 
ENDBRANCH  18  19
ENDBRANCH  17  18
ENDBRANCH   2  17
TORSDOF 5
ENDMDL
MODEL 2
REMARK VINA RESULT:      -8.3      8.183     10.251
REMARK  5 active torsions:
REMARK  status: ('A' for Active; 'I' for Inactive)
REMARK    1  A    between atoms: C_8  and  C_9 
REMARK    2  A    between atoms: N_10  and  N_11 
REMARK       I    between atoms: N_11  and  C_12 
REMARK    3  A    between atoms: C_12  and  C_13 
REMARK    4  A    between atoms: C_13  and  O_14 
REMARK    5  A    between atoms: O_14  and  C_15 
ROOT
HETATM    1  N   UNL     1      -3.047   3.231 -31.147  1.00  0.00    -0.246 N 
HETATM    2  C   UNL     1      -2.687   4.297 -31.961  1.00  0.00     0.261 C 
HETATM    3  O   UNL     1      -2.192   4.220 -33.085  1.00  0.00    -0.269 OA
HETATM    4  H   UNL     1      -3.665   3.442 -30.364  1.00  0.00     0.192 HD
ENDROOT
BRANCH   1   5
HETATM    5  N   UNL     1      -2.981   1.896 -31.468  1.00  0.00    -0.184 NA
HETATM    6  C   UNL     1      -3.991   1.345 -32.062  1.00  0.00     0.152 C 
BRANCH   6   7
HETATM    7  C   UNL     1      -3.953  -0.067 -32.387  1.00  0.00     0.011 A 
HETATM    8  C   UNL     1      -4.817  -0.761 -33.295  1.00  0.00     0.004 A 
HETATM    9  C   UNL     1      -5.910  -0.376 -34.101  1.00  0.00     0.014 A 
HETATM   10  C   UNL     1      -4.419  -2.099 -33.314  1.00  0.00     0.043 A 
HETATM   11  C   UNL     1      -6.555  -1.332 -34.893  1.00  0.00     0.001 A 
HETATM   12  C   UNL     1      -6.129  -2.657 -34.893  1.00  0.00     0.002 A 
HETATM   13  C   UNL     1      -5.051  -3.068 -34.103  1.00  0.00     0.030 A 
HETATM   14  N   UNL     1      -3.356  -2.215 -32.448  1.00  0.00    -0.364 N 
HETATM   15  H   UNL     1      -2.863  -3.077 -32.259  1.00  0.00     0.165 HD
HETATM   16  C   UNL     1      -3.070  -1.003 -31.882  1.00  0.00     0.102 A 
ENDBRANCH   6   7
ENDBRANCH   1   5
BRANCH   2  17
HETATM   17  C   UNL     1      -2.887   5.655 -31.291  1.00  0.00     0.280 C 
BRANCH  17  18
HETATM   18  O   UNL     1      -1.830   6.559 -31.591  1.00  0.00    -0.340 OA
BRANCH  18  19
HETATM   19  C   UNL     1      -1.205   7.149 -30.520  1.00  0.00     0.091 A 
HETATM   20  C   UNL     1       0.042   6.624 -30.139  1.00  0.00     0.068 A 
HETATM   21 CL   UNL     1       0.738   5.280 -30.974  1.00  0.00    -0.081 Cl
HETATM   22  C   UNL     1       0.751   7.168 -29.064  1.00  0.00     0.046 A 
HETATM   23  C   UNL     1       0.219   8.249 -28.370  1.00  0.00     0.012 A 
HETATM   24 BR   UNL     1       1.169   8.994 -26.916  1.00  0.00    -0.051 Br
HETATM   25  C   UNL     1      -1.010   8.792 -28.743  1.00  0.00     0.022 A 
HETATM   26  C   UNL     1      -1.719   8.244 -29.816  1.00  0.00     0.040 A 
ENDBRANCH  18  19
ENDBRANCH  17  18
ENDBRANCH   2  17
TORSDOF 5
ENDMDL
MODEL 3
REMARK VINA RESULT:      -8.1      8.780     10.922
REMARK  5 active torsions:
REMARK  status: ('A' for Active; 'I' for Inactive)
REMARK    1  A    between atoms: C_8  and  C_9 
REMARK    2  A    between atoms: N_10  and  N_11 
REMARK       I    between atoms: N_11  and  C_12 
REMARK    3  A    between atoms: C_12  and  C_13 
REMARK    4  A    between atoms: C_13  and  O_14 
REMARK    5  A    between atoms: O_14  and  C_15 
ROOT
HETATM    1  N   UNL     1      -2.657   4.277 -31.135  1.00  0.00    -0.246 N 
HETATM    2  C   UNL     1      -1.531   5.088 -31.194  1.00  0.00     0.261 C 
HETATM    3  O   UNL     1      -0.386   4.725 -31.457  1.00  0.00    -0.269 OA
HETATM    4  H   UNL     1      -3.561   4.748 -31.154  1.00  0.00     0.192 HD
ENDROOT
BRANCH   1   5
HETATM    5  N   UNL     1      -2.716   2.934 -31.425  1.00  0.00    -0.184 NA
HETATM    6  C   UNL     1      -3.869   2.397 -31.666  1.00  0.00     0.152 C 
BRANCH   6   7
HETATM    7  C   UNL     1      -3.956   0.978 -31.948  1.00  0.00     0.011 A 
HETATM    8  C   UNL     1      -4.848   0.341 -32.872  1.00  0.00     0.004 A 
HETATM    9  C   UNL     1      -5.866   0.803 -33.733  1.00  0.00     0.014 A 
HETATM   10  C   UNL     1      -4.582  -1.029 -32.836  1.00  0.00     0.043 A 
HETATM   11  C   UNL     1      -6.571  -0.111 -34.524  1.00  0.00     0.001 A 
HETATM   12  C   UNL     1      -6.276  -1.471 -34.468  1.00  0.00     0.002 A 
HETATM   13  C   UNL     1      -5.275  -1.957 -33.622  1.00  0.00     0.030 A 
HETATM   14  N   UNL     1      -3.570  -1.219 -31.923  1.00  0.00    -0.364 N 
HETATM   15  H   UNL     1      -3.170  -2.118 -31.689  1.00  0.00     0.165 HD
HETATM   16  C   UNL     1      -3.189  -0.022 -31.380  1.00  0.00     0.102 A 
ENDBRANCH   6   7
ENDBRANCH   1   5
BRANCH   2  17
HETATM   17  C   UNL     1      -1.817   6.538 -30.807  1.00  0.00     0.280 C 
BRANCH  17  18
HETATM   18  O   UNL     1      -2.118   6.672 -29.423  1.00  0.00    -0.340 OA
BRANCH  18  19
HETATM   19  C   UNL     1      -1.109   7.145 -28.619  1.00  0.00     0.091 A 
HETATM   20  C   UNL     1      -1.366   7.200 -27.239  1.00  0.00     0.068 A 
HETATM   21 CL   UNL     1      -2.895   6.715 -26.594  1.00  0.00    -0.081 Cl
HETATM   22  C   UNL     1      -0.394   7.662 -26.347  1.00  0.00     0.046 A 
HETATM   23  C   UNL     1       0.847   8.060 -26.833  1.00  0.00     0.012 A 
HETATM   24 BR   UNL     1       2.170   8.684 -25.636  1.00  0.00    -0.051 Br
HETATM   25  C   UNL     1       1.124   7.999 -28.197  1.00  0.00     0.022 A 
HETATM   26  C   UNL     1       0.148   7.540 -29.088  1.00  0.00     0.040 A 
ENDBRANCH  18  19
ENDBRANCH  17  18
ENDBRANCH   2  17
TORSDOF 5
ENDMDL
MODEL 4
REMARK VINA RESULT:      -8.0      7.551     10.050
REMARK  5 active torsions:
REMARK  status: ('A' for Active; 'I' for Inactive)
REMARK    1  A    between atoms: C_8  and  C_9 
REMARK    2  A    between atoms: N_10  and  N_11 
REMARK       I    between atoms: N_11  and  C_12 
REMARK    3  A    between atoms: C_12  and  C_13 
REMARK    4  A    between atoms: C_13  and  O_14 
REMARK    5  A    between atoms: O_14  and  C_15 
ROOT
HETATM    1  N   UNL     1      -4.007   2.359 -31.929  1.00  0.00    -0.246 N 
HETATM    2  C   UNL     1      -3.087   3.287 -32.400  1.00  0.00     0.261 C 
HETATM    3  O   UNL     1      -2.702   3.404 -33.562  1.00  0.00    -0.269 OA
HETATM    4  H   UNL     1      -4.410   2.540 -31.010  1.00  0.00     0.192 HD
ENDROOT
BRANCH   1   5
HETATM    5  N   UNL     1      -4.709   1.446 -32.681  1.00  0.00    -0.184 NA
HETATM    6  C   UNL     1      -4.316   0.212 -32.693  1.00  0.00     0.152 C 
BRANCH   6   7
HETATM    7  C   UNL     1      -5.027  -0.760 -33.499  1.00  0.00     0.011 A 
HETATM    8  C   UNL     1      -4.711  -2.151 -33.639  1.00  0.00     0.004 A 
HETATM    9  C   UNL     1      -3.698  -2.987 -33.122  1.00  0.00     0.014 A 
HETATM   10  C   UNL     1      -5.660  -2.712 -34.497  1.00  0.00     0.043 A 
HETATM   11  C   UNL     1      -3.674  -4.341 -33.471  1.00  0.00     0.001 A 
HETATM   12  C   UNL     1      -4.639  -4.871 -34.324  1.00  0.00     0.002 A 
HETATM   13  C   UNL     1      -5.652  -4.066 -34.854  1.00  0.00     0.030 A 
HETATM   14  N   UNL     1      -6.517  -1.702 -34.866  1.00  0.00    -0.364 N 
HETATM   15  H   UNL     1      -7.306  -1.819 -35.487  1.00  0.00     0.165 HD
HETATM   16  C   UNL     1      -6.144  -0.524 -34.277  1.00  0.00     0.102 A 
ENDBRANCH   6   7
ENDBRANCH   1   5
BRANCH   2  17
HETATM   17  C   UNL     1      -2.489   4.151 -31.292  1.00  0.00     0.280 C 
BRANCH  17  18
HETATM   18  O   UNL     1      -1.173   4.591 -31.608  1.00  0.00    -0.340 OA
BRANCH  18  19
HETATM   19  C   UNL     1      -0.568   5.422 -30.697  1.00  0.00     0.091 A 
HETATM   20  C   UNL     1      -0.783   6.802 -30.852  1.00  0.00     0.068 A 
HETATM   21 CL   UNL     1      -1.749   7.417 -32.147  1.00  0.00    -0.081 Cl
HETATM   22  C   UNL     1      -0.211   7.720 -29.966  1.00  0.00     0.046 A 
HETATM   23  C   UNL     1       0.572   7.258 -28.913  1.00  0.00     0.012 A 
HETATM   24 BR   UNL     1       1.349   8.490 -27.708  1.00  0.00    -0.051 Br
HETATM   25  C   UNL     1       0.784   5.892 -28.737  1.00  0.00     0.022 A 
HETATM   26  C   UNL     1       0.214   4.976 -29.626  1.00  0.00     0.040 A 
ENDBRANCH  18  19
ENDBRANCH  17  18
ENDBRANCH   2  17
TORSDOF 5
ENDMDL
MODEL 5
REMARK VINA RESULT:      -7.8      2.095      2.330
REMARK  5 active torsions:
REMARK  status: ('A' for Active; 'I' for Inactive)
REMARK    1  A    between atoms: C_8  and  C_9 
REMARK    2  A    between atoms: N_10  and  N_11 
REMARK       I    between atoms: N_11  and  C_12 
REMARK    3  A    between atoms: C_12  and  C_13 
REMARK    4  A    between atoms: C_13  and  O_14 
REMARK    5  A    between atoms: O_14  and  C_15 
ROOT
HETATM    1  N   UNL     1      -8.606   1.535 -31.293  1.00  0.00    -0.246 N 
HETATM    2  C   UNL     1      -8.551   2.874 -30.928  1.00  0.00     0.261 C 
HETATM    3  O   UNL     1      -7.532   3.526 -30.704  1.00  0.00    -0.269 OA
HETATM    4  H   UNL     1      -9.488   1.204 -31.683  1.00  0.00     0.192 HD
ENDROOT
BRANCH   1   5
HETATM    5  N   UNL     1      -7.536   0.708 -31.539  1.00  0.00    -0.184 NA
HETATM    6  C   UNL     1      -7.054   0.649 -32.739  1.00  0.00     0.152 C 
BRANCH   6   7
HETATM    7  C   UNL     1      -5.942  -0.236 -33.025  1.00  0.00     0.011 A 
HETATM    8  C   UNL     1      -6.006  -1.504 -33.689  1.00  0.00     0.004 A 
HETATM    9  C   UNL     1      -7.054  -2.280 -34.230  1.00  0.00     0.014 A 
HETATM   10  C   UNL     1      -4.705  -2.005 -33.762  1.00  0.00     0.043 A 
HETATM   11  C   UNL     1      -6.765  -3.513 -34.823  1.00  0.00     0.001 A 
HETATM   12  C   UNL     1      -5.456  -3.981 -34.886  1.00  0.00     0.002 A 
HETATM   13  C   UNL     1      -4.398  -3.236 -34.356  1.00  0.00     0.030 A 
HETATM   14  N   UNL     1      -3.882  -1.080 -33.164  1.00  0.00    -0.364 N 
HETATM   15  H   UNL     1      -2.880  -1.179 -33.070  1.00  0.00     0.165 HD
HETATM   16  C   UNL     1      -4.614  -0.015 -32.713  1.00  0.00     0.102 A 
ENDBRANCH   6   7
ENDBRANCH   1   5
BRANCH   2  17
HETATM   17  C   UNL     1      -9.932   3.498 -30.733  1.00  0.00     0.280 C 
BRANCH  17  18
HETATM   18  O   UNL     1     -10.483   3.969 -31.956  1.00  0.00    -0.340 OA
BRANCH  18  19
HETATM   19  C   UNL     1     -11.572   3.287 -32.442  1.00  0.00     0.091 A 
HETATM   20  C   UNL     1     -11.361   2.456 -33.555  1.00  0.00     0.068 A 
HETATM   21 CL   UNL     1      -9.800   2.323 -34.287  1.00  0.00    -0.081 Cl
HETATM   22  C   UNL     1     -12.411   1.720 -34.110  1.00  0.00     0.046 A 
HETATM   23  C   UNL     1     -13.679   1.804 -33.545  1.00  0.00     0.012 A 
HETATM   24 BR   UNL     1     -15.107   0.811 -34.285  1.00  0.00    -0.051 Br
HETATM   25  C   UNL     1     -13.904   2.612 -32.432  1.00  0.00     0.022 A 
HETATM   26  C   UNL     1     -12.853   3.351 -31.881  1.00  0.00     0.040 A 
ENDBRANCH  18  19
ENDBRANCH  17  18
ENDBRANCH   2  17
TORSDOF 5
ENDMDL
MODEL 6
REMARK VINA RESULT:      -7.8      8.406     10.745
REMARK  5 active torsions:
REMARK  status: ('A' for Active; 'I' for Inactive)
REMARK    1  A    between atoms: C_8  and  C_9 
REMARK    2  A    between atoms: N_10  and  N_11 
REMARK       I    between atoms: N_11  and  C_12 
REMARK    3  A    between atoms: C_12  and  C_13 
REMARK    4  A    between atoms: C_13  and  O_14 
REMARK    5  A    between atoms: O_14  and  C_15 
ROOT
HETATM    1  N   UNL     1      -3.121   3.647 -31.372  1.00  0.00    -0.246 N 
HETATM    2  C   UNL     1      -2.165   4.444 -31.989  1.00  0.00     0.261 C 
HETATM    3  O   UNL     1      -2.079   4.676 -33.194  1.00  0.00    -0.269 OA
HETATM    4  H   UNL     1      -3.218   3.748 -30.362  1.00  0.00     0.192 HD
ENDROOT
BRANCH   1   5
HETATM    5  N   UNL     1      -4.186   3.026 -31.980  1.00  0.00    -0.184 NA
HETATM    6  C   UNL     1      -4.128   1.750 -32.193  1.00  0.00     0.152 C 
BRANCH   6   7
HETATM    7  C   UNL     1      -5.230   1.080 -32.855  1.00  0.00     0.011 A 
HETATM    8  C   UNL     1      -5.217  -0.238 -33.418  1.00  0.00     0.004 A 
HETATM    9  C   UNL     1      -4.237  -1.247 -33.538  1.00  0.00     0.014 A 
HETATM   10  C   UNL     1      -6.488  -0.483 -33.940  1.00  0.00     0.043 A 
HETATM   11  C   UNL     1      -4.562  -2.454 -34.165  1.00  0.00     0.001 A 
HETATM   12  C   UNL     1      -5.841  -2.669 -34.670  1.00  0.00     0.002 A 
HETATM   13  C   UNL     1      -6.831  -1.687 -34.568  1.00  0.00     0.030 A 
HETATM   14  N   UNL     1      -7.243   0.643 -33.709  1.00  0.00    -0.364 N 
HETATM   15  H   UNL     1      -8.211   0.751 -33.982  1.00  0.00     0.165 HD
HETATM   16  C   UNL     1      -6.497   1.590 -33.062  1.00  0.00     0.102 A 
ENDBRANCH   6   7
ENDBRANCH   1   5
BRANCH   2  17
HETATM   17  C   UNL     1      -1.115   4.980 -31.017  1.00  0.00     0.280 C 
BRANCH  17  18
HETATM   18  O   UNL     1      -1.466   6.259 -30.503  1.00  0.00    -0.340 OA
BRANCH  18  19
HETATM   19  C   UNL     1      -0.685   6.746 -29.484  1.00  0.00     0.091 A 
HETATM   20  C   UNL     1      -0.854   8.098 -29.141  1.00  0.00     0.068 A 
HETATM   21 CL   UNL     1      -1.983   9.100 -29.984  1.00  0.00    -0.081 Cl
HETATM   22  C   UNL     1      -0.105   8.676 -28.111  1.00  0.00     0.046 A 
HETATM   23  C   UNL     1       0.812   7.897 -27.413  1.00  0.00     0.012 A 
HETATM   24 BR   UNL     1       1.830   8.666 -26.017  1.00  0.00    -0.051 Br
HETATM   25  C   UNL     1       0.983   6.551 -27.731  1.00  0.00     0.022 A 
HETATM   26  C   UNL     1       0.236   5.977 -28.764  1.00  0.00     0.040 A 
ENDBRANCH  18  19
ENDBRANCH  17  18
ENDBRANCH   2  17
TORSDOF 5
ENDMDL
MODEL 7
REMARK VINA RESULT:      -7.7      7.158      9.803
REMARK  5 active torsions:
REMARK  status: ('A' for Active; 'I' for Inactive)
REMARK    1  A    between atoms: C_8  and  C_9 
REMARK    2  A    between atoms: N_10  and  N_11 
REMARK       I    between atoms: N_11  and  C_12 
REMARK    3  A    between atoms: C_12  and  C_13 
REMARK    4  A    between atoms: C_13  and  O_14 
REMARK    5  A    between atoms: O_14  and  C_15 
ROOT
HETATM    1  N   UNL     1      -3.993   2.961 -31.849  1.00  0.00    -0.246 N 
HETATM    2  C   UNL     1      -5.091   2.448 -31.171  1.00  0.00     0.261 C 
HETATM    3  O   UNL     1      -5.252   2.434 -29.952  1.00  0.00    -0.269 OA
HETATM    4  H   UNL     1      -4.110   3.128 -32.849  1.00  0.00     0.192 HD
ENDROOT
BRANCH   1   5
HETATM    5  N   UNL     1      -2.916   3.610 -31.293  1.00  0.00    -0.184 NA
HETATM    6  C   UNL     1      -2.503   4.712 -31.834  1.00  0.00     0.152 C 
BRANCH   6   7
HETATM    7  C   UNL     1      -1.353   5.398 -31.278  1.00  0.00     0.011 A 
HETATM    8  C   UNL     1      -1.365   6.386 -30.239  1.00  0.00     0.004 A 
HETATM    9  C   UNL     1      -2.382   6.999 -29.476  1.00  0.00     0.014 A 
HETATM   10  C   UNL     1      -0.042   6.767 -30.008  1.00  0.00     0.043 A 
HETATM   11  C   UNL     1      -2.043   7.957 -28.516  1.00  0.00     0.001 A 
HETATM   12  C   UNL     1      -0.713   8.311 -28.306  1.00  0.00     0.002 A 
HETATM   13  C   UNL     1       0.315   7.723 -29.049  1.00  0.00     0.030 A 
HETATM   14  N   UNL     1       0.743   6.043 -30.875  1.00  0.00    -0.364 N 
HETATM   15  H   UNL     1       1.750   6.115 -30.932  1.00  0.00     0.165 HD
HETATM   16  C   UNL     1      -0.033   5.221 -31.645  1.00  0.00     0.102 A 
ENDBRANCH   6   7
ENDBRANCH   1   5
BRANCH   2  17
HETATM   17  C   UNL     1      -6.111   1.786 -32.097  1.00  0.00     0.280 C 
BRANCH  17  18
HETATM   18  O   UNL     1      -5.535   1.406 -33.341  1.00  0.00    -0.340 OA
BRANCH  18  19
HETATM   19  C   UNL     1      -5.769   0.118 -33.757  1.00  0.00     0.091 A 
HETATM   20  C   UNL     1      -4.718  -0.802 -33.608  1.00  0.00     0.068 A 
HETATM   21 CL   UNL     1      -3.193  -0.319 -32.951  1.00  0.00    -0.081 Cl
HETATM   22  C   UNL     1      -4.871  -2.136 -33.999  1.00  0.00     0.046 A 
HETATM   23  C   UNL     1      -6.084  -2.557 -34.532  1.00  0.00     0.012 A 
HETATM   24 BR   UNL     1      -6.305  -4.358 -35.062  1.00  0.00    -0.051 Br
HETATM   25  C   UNL     1      -7.143  -1.662 -34.673  1.00  0.00     0.022 A 
HETATM   26  C   UNL     1      -6.986  -0.328 -34.285  1.00  0.00     0.040 A 
ENDBRANCH  18  19
ENDBRANCH  17  18
ENDBRANCH   2  17
TORSDOF 5
ENDMDL
MODEL 8
REMARK VINA RESULT:      -7.7      6.050      8.699
REMARK  5 active torsions:
REMARK  status: ('A' for Active; 'I' for Inactive)
REMARK    1  A    between atoms: C_8  and  C_9 
REMARK    2  A    between atoms: N_10  and  N_11 
REMARK       I    between atoms: N_11  and  C_12 
REMARK    3  A    between atoms: C_12  and  C_13 
REMARK    4  A    between atoms: C_13  and  O_14 
REMARK    5  A    between atoms: O_14  and  C_15 
ROOT
HETATM    1  N   UNL     1      -3.614   1.662 -32.367  1.00  0.00    -0.246 N 
HETATM    2  C   UNL     1      -3.288   0.338 -32.102  1.00  0.00     0.261 C 
HETATM    3  O   UNL     1      -2.592  -0.067 -31.172  1.00  0.00    -0.269 OA
HETATM    4  H   UNL     1      -4.389   1.822 -33.010  1.00  0.00     0.192 HD
ENDROOT
BRANCH   1   5
HETATM    5  N   UNL     1      -3.280   2.757 -31.605  1.00  0.00    -0.184 NA
HETATM    6  C   UNL     1      -3.548   3.940 -32.059  1.00  0.00     0.152 C 
BRANCH   6   7
HETATM    7  C   UNL     1      -3.181   5.108 -31.282  1.00  0.00     0.011 A 
HETATM    8  C   UNL     1      -1.856   5.604 -31.057  1.00  0.00     0.004 A 
HETATM    9  C   UNL     1      -0.567   5.180 -31.445  1.00  0.00     0.014 A 
HETATM   10  C   UNL     1      -1.966   6.751 -30.268  1.00  0.00     0.043 A 
HETATM   11  C   UNL     1       0.554   5.913 -31.040  1.00  0.00     0.001 A 
HETATM   12  C   UNL     1       0.408   7.056 -30.259  1.00  0.00     0.002 A 
HETATM   13  C   UNL     1      -0.856   7.498 -29.857  1.00  0.00     0.030 A 
HETATM   14  N   UNL     1      -3.305   6.943 -30.021  1.00  0.00    -0.364 N 
HETATM   15  H   UNL     1      -3.684   7.702 -29.470  1.00  0.00     0.165 HD
HETATM   16  C   UNL     1      -4.045   5.959 -30.620  1.00  0.00     0.102 A 
ENDBRANCH   6   7
ENDBRANCH   1   5
BRANCH   2  17
HETATM   17  C   UNL     1      -3.817  -0.631 -33.157  1.00  0.00     0.280 C 
BRANCH  17  18
HETATM   18  O   UNL     1      -5.011  -1.279 -32.735  1.00  0.00    -0.340 OA
BRANCH  18  19
HETATM   19  C   UNL     1      -6.194  -0.702 -33.127  1.00  0.00     0.091 A 
HETATM   20  C   UNL     1      -6.978  -0.108 -32.124  1.00  0.00     0.068 A 
HETATM   21 CL   UNL     1      -6.477  -0.127 -30.470  1.00  0.00    -0.081 Cl
HETATM   22  C   UNL     1      -8.194   0.509 -32.434  1.00  0.00     0.046 A 
HETATM   23  C   UNL     1      -8.626   0.542 -33.756  1.00  0.00     0.012 A 
HETATM   24 BR   UNL     1     -10.267   1.374 -34.189  1.00  0.00    -0.051 Br
HETATM   25  C   UNL     1      -7.855  -0.031 -34.766  1.00  0.00     0.022 A 
HETATM   26  C   UNL     1      -6.641  -0.650 -34.453  1.00  0.00     0.040 A 
ENDBRANCH  18  19
ENDBRANCH  17  18
ENDBRANCH   2  17
TORSDOF 5
ENDMDL
MODEL 9
REMARK VINA RESULT:      -7.7      6.574      9.278
REMARK  5 active torsions:
REMARK  status: ('A' for Active; 'I' for Inactive)
REMARK    1  A    between atoms: C_8  and  C_9 
REMARK    2  A    between atoms: N_10  and  N_11 
REMARK       I    between atoms: N_11  and  C_12 
REMARK    3  A    between atoms: C_12  and  C_13 
REMARK    4  A    between atoms: C_13  and  O_14 
REMARK    5  A    between atoms: O_14  and  C_15 
ROOT
HETATM    1  N   UNL     1      -4.999   3.194 -33.237  1.00  0.00    -0.246 N 
HETATM    2  C   UNL     1      -6.322   3.215 -33.660  1.00  0.00     0.261 C 
HETATM    3  O   UNL     1      -6.960   4.208 -34.005  1.00  0.00    -0.269 OA
HETATM    4  H   UNL     1      -4.537   2.285 -33.225  1.00  0.00     0.192 HD
ENDROOT
BRANCH   1   5
HETATM    5  N   UNL     1      -4.137   4.265 -33.189  1.00  0.00    -0.184 NA
HETATM    6  C   UNL     1      -2.876   4.044 -32.993  1.00  0.00     0.152 C 
BRANCH   6   7
HETATM    7  C   UNL     1      -1.955   5.160 -32.913  1.00  0.00     0.011 A 
HETATM    8  C   UNL     1      -1.099   5.487 -31.811  1.00  0.00     0.004 A 
HETATM    9  C   UNL     1      -0.877   4.922 -30.536  1.00  0.00     0.014 A 
HETATM   10  C   UNL     1      -0.376   6.627 -32.165  1.00  0.00     0.043 A 
HETATM   11  C   UNL     1       0.055   5.508 -29.674  1.00  0.00     0.001 A 
HETATM   12  C   UNL     1       0.764   6.642 -30.061  1.00  0.00     0.002 A 
HETATM   13  C   UNL     1       0.562   7.225 -31.315  1.00  0.00     0.030 A 
HETATM   14  N   UNL     1      -0.778   6.982 -33.432  1.00  0.00    -0.364 N 
HETATM   15  H   UNL     1      -0.420   7.776 -33.946  1.00  0.00     0.165 HD
HETATM   16  C   UNL     1      -1.729   6.111 -33.890  1.00  0.00     0.102 A 
ENDBRANCH   6   7
ENDBRANCH   1   5
BRANCH   2  17
HETATM   17  C   UNL     1      -6.995   1.845 -33.586  1.00  0.00     0.280 C 
BRANCH  17  18
HETATM   18  O   UNL     1      -6.171   0.879 -32.945  1.00  0.00    -0.340 OA
BRANCH  18  19
HETATM   19  C   UNL     1      -6.161  -0.380 -33.494  1.00  0.00     0.091 A 
HETATM   20  C   UNL     1      -4.915  -1.020 -33.600  1.00  0.00     0.068 A 
HETATM   21 CL   UNL     1      -3.462  -0.240 -33.079  1.00  0.00    -0.081 Cl
HETATM   22  C   UNL     1      -4.812  -2.305 -34.140  1.00  0.00     0.046 A 
HETATM   23  C   UNL     1      -5.961  -2.961 -34.569  1.00  0.00     0.012 A 
HETATM   24 BR   UNL     1      -5.836  -4.699 -35.300  1.00  0.00    -0.051 Br
HETATM   25  C   UNL     1      -7.207  -2.346 -34.459  1.00  0.00     0.022 A 
HETATM   26  C   UNL     1      -7.307  -1.059 -33.922  1.00  0.00     0.040 A 
ENDBRANCH  18  19
ENDBRANCH  17  18
ENDBRANCH   2  17
TORSDOF 5
ENDMDL
MODEL 10
REMARK VINA RESULT:      -7.6      7.691      9.701
REMARK  5 active torsions:
REMARK  status: ('A' for Active; 'I' for Inactive)
REMARK    1  A    between atoms: C_8  and  C_9 
REMARK    2  A    between atoms: N_10  and  N_11 
REMARK       I    between atoms: N_11  and  C_12 
REMARK    3  A    between atoms: C_12  and  C_13 
REMARK    4  A    between atoms: C_13  and  O_14 
REMARK    5  A    between atoms: O_14  and  C_15 
ROOT
HETATM    1  N   UNL     1      -5.131   4.355 -32.732  1.00  0.00    -0.246 N 
HETATM    2  C   UNL     1      -4.515   5.516 -33.180  1.00  0.00     0.261 C 
HETATM    3  O   UNL     1      -4.214   5.778 -34.343  1.00  0.00    -0.269 OA
HETATM    4  H   UNL     1      -5.539   4.384 -31.798  1.00  0.00     0.192 HD
ENDROOT
BRANCH   1   5
HETATM    5  N   UNL     1      -5.581   3.314 -33.510  1.00  0.00    -0.184 NA
HETATM    6  C   UNL     1      -5.756   2.154 -32.962  1.00  0.00     0.152 C 
BRANCH   6   7
HETATM    7  C   UNL     1      -6.204   1.037 -33.769  1.00  0.00     0.011 A 
HETATM    8  C   UNL     1      -5.634  -0.277 -33.806  1.00  0.00     0.004 A 
HETATM    9  C   UNL     1      -4.540  -0.894 -33.160  1.00  0.00     0.014 A 
HETATM   10  C   UNL     1      -6.384  -1.035 -34.707  1.00  0.00     0.043 A 
HETATM   11  C   UNL     1      -4.243  -2.233 -33.432  1.00  0.00     0.001 A 
HETATM   12  C   UNL     1      -5.015  -2.963 -34.331  1.00  0.00     0.002 A 
HETATM   13  C   UNL     1      -6.102  -2.378 -34.988  1.00  0.00     0.030 A 
HETATM   14  N   UNL     1      -7.370  -0.214 -35.202  1.00  0.00    -0.364 N 
HETATM   15  H   UNL     1      -8.066  -0.496 -35.879  1.00  0.00     0.165 HD
HETATM   16  C   UNL     1      -7.269   1.034 -34.650  1.00  0.00     0.102 A 
ENDBRANCH   6   7
ENDBRANCH   1   5
BRANCH   2  17
HETATM   17  C   UNL     1      -4.141   6.470 -32.046  1.00  0.00     0.280 C 
BRANCH  17  18
HETATM   18  O   UNL     1      -2.949   7.193 -32.329  1.00  0.00    -0.340 OA
BRANCH  18  19
HETATM   19  C   UNL     1      -2.092   7.400 -31.275  1.00  0.00     0.091 A 
HETATM   20  C   UNL     1      -0.964   6.567 -31.197  1.00  0.00     0.068 A 
HETATM   21 CL   UNL     1      -0.687   5.325 -32.368  1.00  0.00    -0.081 Cl
HETATM   22  C   UNL     1      -0.035   6.711 -30.162  1.00  0.00     0.046 A 
HETATM   23  C   UNL     1      -0.229   7.700 -29.203  1.00  0.00     0.012 A 
HETATM   24 BR   UNL     1       1.020   7.907 -27.799  1.00  0.00    -0.051 Br
HETATM   25  C   UNL     1      -1.335   8.544 -29.272  1.00  0.00     0.022 A 
HETATM   26  C   UNL     1      -2.264   8.396 -30.307  1.00  0.00     0.040 A 
ENDBRANCH  18  19
ENDBRANCH  17  18
ENDBRANCH   2  17
TORSDOF 5
ENDMDL
