MODEL 1
REMARK VINA RESULT:      -7.5      0.000      0.000
REMARK  4 active torsions:
REMARK  status: ('A' for Active; 'I' for Inactive)
REMARK    1  A    between atoms: C_6  and  C_7 
REMARK    2  A    between atoms: C_7  and  N_8 
REMARK    3  A    between atoms: N_8  and  C_9 
REMARK    4  A    between atoms: C_9  and  C_10 
ROOT
HETATM    1  C   UNL     1      -8.462   0.595 -32.458  1.00  0.00     0.327 C 
ENDROOT
BRANCH   1   2
HETATM    2  N   UNL     1      -7.301   0.582 -33.357  1.00  0.00     0.097 N 
HETATM    3  H   UNL     1      -7.514   0.007 -34.176  1.00  0.00     0.317 HD
BRANCH   2   4
HETATM    4  C   UNL     1      -6.109  -0.016 -32.717  1.00  0.00     0.252 C 
HETATM    5  C   UNL     1      -6.288  -0.248 -31.212  1.00  0.00     0.048 C 
BRANCH   4   6
HETATM    6  C   UNL     1      -5.821  -1.304 -33.430  1.00  0.00     0.006 A 
HETATM    7  C   UNL     1      -4.664  -2.064 -33.342  1.00  0.00     0.058 A 
HETATM    8  O   UNL     1      -4.773  -3.192 -34.094  1.00  0.00    -0.320 OA
HETATM    9  C   UNL     1      -3.392  -1.907 -32.603  1.00  0.00     0.077 C 
HETATM   10  C   UNL     1      -6.009  -3.189 -34.656  1.00  0.00     0.050 A 
HETATM   11  C   UNL     1      -6.360  -4.360 -35.485  1.00  0.00     0.076 C 
HETATM   12  C   UNL     1      -6.689  -2.050 -34.288  1.00  0.00     0.044 A 
ENDBRANCH   4   6
ENDBRANCH   2   4
ENDBRANCH   1   2
BRANCH   1  13
HETATM   13  C   UNL     1      -9.667   1.175 -33.173  1.00  0.00     0.044 A 
HETATM   14  N   UNL     1     -10.832   0.435 -33.076  1.00  0.00    -0.338 N 
HETATM   15  H   UNL     1     -10.828  -0.427 -32.525  1.00  0.00     0.168 HD
HETATM   16  C   UNL     1     -11.932   0.849 -33.653  1.00  0.00     0.158 A 
HETATM   17  N   UNL     1     -11.972   1.975 -34.337  1.00  0.00    -0.269 N 
HETATM   18  S   UNL     1     -13.446   0.001 -33.598  1.00  0.00    -0.064 SA
HETATM   19  C   UNL     1     -10.861   2.827 -34.500  1.00  0.00     0.255 A 
HETATM   20  C   UNL     1     -13.219   2.234 -34.868  1.00  0.00     0.109 A 
HETATM   21  O   UNL     1     -10.935   3.863 -35.133  1.00  0.00    -0.268 OA
HETATM   22  C   UNL     1      -9.641   2.338 -33.839  1.00  0.00     0.101 A 
HETATM   23  C   UNL     1     -14.123   1.289 -34.575  1.00  0.00     0.071 A 
ENDBRANCH   1  13
TORSDOF 4
ENDMDL
MODEL 2
REMARK VINA RESULT:      -7.4      5.339      8.199
REMARK  4 active torsions:
REMARK  status: ('A' for Active; 'I' for Inactive)
REMARK    1  A    between atoms: C_6  and  C_7 
REMARK    2  A    between atoms: C_7  and  N_8 
REMARK    3  A    between atoms: N_8  and  C_9 
REMARK    4  A    between atoms: C_9  and  C_10 
ROOT
HETATM    1  C   UNL     1      -4.505   1.913 -30.919  1.00  0.00     0.327 C 
ENDROOT
BRANCH   1   2
HETATM    2  N   UNL     1      -3.268   2.676 -31.137  1.00  0.00     0.097 N 
HETATM    3  H   UNL     1      -3.164   3.370 -30.393  1.00  0.00     0.317 HD
BRANCH   2   4
HETATM    4  C   UNL     1      -3.295   3.422 -32.414  1.00  0.00     0.252 C 
HETATM    5  C   UNL     1      -4.632   4.124 -32.673  1.00  0.00     0.048 C 
BRANCH   4   6
HETATM    6  C   UNL     1      -2.167   4.411 -32.374  1.00  0.00     0.006 A 
HETATM    7  C   UNL     1      -1.620   5.094 -33.450  1.00  0.00     0.058 A 
HETATM    8  O   UNL     1      -0.641   5.941 -33.033  1.00  0.00    -0.320 OA
HETATM    9  C   UNL     1      -1.895   5.099 -34.904  1.00  0.00     0.077 C 
HETATM   10  C   UNL     1      -0.560   5.836 -31.682  1.00  0.00     0.050 A 
HETATM   11  C   UNL     1       0.418   6.714 -31.008  1.00  0.00     0.076 C 
HETATM   12  C   UNL     1      -1.468   4.905 -31.228  1.00  0.00     0.044 A 
ENDBRANCH   4   6
ENDBRANCH   2   4
ENDBRANCH   1   2
BRANCH   1  13
HETATM   13  C   UNL     1      -4.427   0.580 -31.638  1.00  0.00     0.044 A 
HETATM   14  N   UNL     1      -5.334   0.403 -32.667  1.00  0.00    -0.338 N 
HETATM   15  H   UNL     1      -5.976   1.166 -32.899  1.00  0.00     0.168 HD
HETATM   16  C   UNL     1      -5.348  -0.710 -33.356  1.00  0.00     0.158 A 
HETATM   17  N   UNL     1      -4.507  -1.691 -33.101  1.00  0.00    -0.269 N 
HETATM   18  S   UNL     1      -6.442  -1.038 -34.664  1.00  0.00    -0.064 SA
HETATM   19  C   UNL     1      -3.525  -1.633 -32.090  1.00  0.00     0.255 A 
HETATM   20  C   UNL     1      -4.683  -2.777 -33.934  1.00  0.00     0.109 A 
HETATM   21  O   UNL     1      -2.760  -2.556 -31.886  1.00  0.00    -0.268 OA
HETATM   22  C   UNL     1      -3.531  -0.370 -31.336  1.00  0.00     0.101 A 
HETATM   23  C   UNL     1      -5.669  -2.603 -34.825  1.00  0.00     0.071 A 
ENDBRANCH   1  13
TORSDOF 4
ENDMDL
MODEL 3
REMARK VINA RESULT:      -7.3      1.739      1.957
REMARK  4 active torsions:
REMARK  status: ('A' for Active; 'I' for Inactive)
REMARK    1  A    between atoms: C_6  and  C_7 
REMARK    2  A    between atoms: C_7  and  N_8 
REMARK    3  A    between atoms: N_8  and  C_9 
REMARK    4  A    between atoms: C_9  and  C_10 
ROOT
HETATM    1  C   UNL     1      -7.503   2.047 -33.359  1.00  0.00     0.327 C 
ENDROOT
BRANCH   1   2
HETATM    2  N   UNL     1      -6.635   1.160 -34.146  1.00  0.00     0.097 N 
HETATM    3  H   UNL     1      -7.197   0.402 -34.542  1.00  0.00     0.317 HD
BRANCH   2   4
HETATM    4  C   UNL     1      -5.590   0.525 -33.315  1.00  0.00     0.252 C 
HETATM    5  C   UNL     1      -5.864   0.641 -31.811  1.00  0.00     0.048 C 
BRANCH   4   6
HETATM    6  C   UNL     1      -5.500  -0.912 -33.735  1.00  0.00     0.006 A 
HETATM    7  C   UNL     1      -4.529  -1.830 -33.362  1.00  0.00     0.058 A 
HETATM    8  O   UNL     1      -4.791  -3.051 -33.901  1.00  0.00    -0.320 OA
HETATM    9  C   UNL     1      -3.323  -1.752 -32.509  1.00  0.00     0.077 C 
HETATM   10  C   UNL     1      -5.946  -2.945 -34.606  1.00  0.00     0.050 A 
HETATM   11  C   UNL     1      -6.446  -4.180 -35.244  1.00  0.00     0.076 C 
HETATM   12  C   UNL     1      -6.418  -1.653 -34.545  1.00  0.00     0.044 A 
ENDBRANCH   4   6
ENDBRANCH   2   4
ENDBRANCH   1   2
BRANCH   1  13
HETATM   13  C   UNL     1      -8.944   1.582 -33.454  1.00  0.00     0.044 A 
HETATM   14  N   UNL     1      -9.814   2.461 -34.074  1.00  0.00    -0.338 N 
HETATM   15  H   UNL     1      -9.449   3.341 -34.446  1.00  0.00     0.168 HD
HETATM   16  C   UNL     1     -11.079   2.155 -34.212  1.00  0.00     0.158 A 
HETATM   17  N   UNL     1     -11.566   1.011 -33.776  1.00  0.00    -0.269 N 
HETATM   18  S   UNL     1     -12.257   3.181 -34.971  1.00  0.00    -0.064 SA
HETATM   19  C   UNL     1     -10.785   0.024 -33.140  1.00  0.00     0.255 A 
HETATM   20  C   UNL     1     -12.919   0.878 -34.015  1.00  0.00     0.109 A 
HETATM   21  O   UNL     1     -11.266  -1.024 -32.755  1.00  0.00    -0.268 OA
HETATM   22  C   UNL     1      -9.368   0.394 -33.002  1.00  0.00     0.101 A 
HETATM   23  C   UNL     1     -13.449   1.939 -34.641  1.00  0.00     0.071 A 
ENDBRANCH   1  13
TORSDOF 4
ENDMDL
MODEL 4
REMARK VINA RESULT:      -7.3      4.860      6.654
REMARK  4 active torsions:
REMARK  status: ('A' for Active; 'I' for Inactive)
REMARK    1  A    between atoms: C_6  and  C_7 
REMARK    2  A    between atoms: C_7  and  N_8 
REMARK    3  A    between atoms: N_8  and  C_9 
REMARK    4  A    between atoms: C_9  and  C_10 
ROOT
HETATM    1  C   UNL     1      -4.457   1.565 -31.152  1.00  0.00     0.327 C 
ENDROOT
BRANCH   1   2
HETATM    2  N   UNL     1      -5.160   0.507 -31.889  1.00  0.00     0.097 N 
HETATM    3  H   UNL     1      -5.412  -0.245 -31.243  1.00  0.00     0.317 HD
BRANCH   2   4
HETATM    4  C   UNL     1      -4.309  -0.100 -32.936  1.00  0.00     0.252 C 
HETATM    5  C   UNL     1      -3.066  -0.798 -32.371  1.00  0.00     0.048 C 
BRANCH   4   6
HETATM    6  C   UNL     1      -5.166  -1.065 -33.701  1.00  0.00     0.006 A 
HETATM    7  C   UNL     1      -6.260  -0.758 -34.496  1.00  0.00     0.058 A 
HETATM    8  O   UNL     1      -6.767  -1.882 -35.071  1.00  0.00    -0.320 OA
HETATM    9  C   UNL     1      -6.946   0.505 -34.848  1.00  0.00     0.077 C 
HETATM   10  C   UNL     1      -5.992  -2.925 -34.675  1.00  0.00     0.050 A 
HETATM   11  C   UNL     1      -6.339  -4.251 -35.225  1.00  0.00     0.076 C 
HETATM   12  C   UNL     1      -5.002  -2.480 -33.828  1.00  0.00     0.044 A 
ENDBRANCH   4   6
ENDBRANCH   2   4
ENDBRANCH   1   2
BRANCH   1  13
HETATM   13  C   UNL     1      -4.233   2.765 -32.052  1.00  0.00     0.044 A 
HETATM   14  N   UNL     1      -2.983   3.351 -31.965  1.00  0.00    -0.338 N 
HETATM   15  H   UNL     1      -2.287   2.944 -31.335  1.00  0.00     0.168 HD
HETATM   16  C   UNL     1      -2.684   4.390 -32.703  1.00  0.00     0.158 A 
HETATM   17  N   UNL     1      -3.550   4.909 -33.549  1.00  0.00    -0.269 N 
HETATM   18  S   UNL     1      -1.150   5.203 -32.673  1.00  0.00    -0.064 SA
HETATM   19  C   UNL     1      -4.850   4.400 -33.744  1.00  0.00     0.255 A 
HETATM   20  C   UNL     1      -3.046   5.999 -34.231  1.00  0.00     0.109 A 
HETATM   21  O   UNL     1      -5.622   4.900 -34.540  1.00  0.00    -0.268 OA
HETATM   22  C   UNL     1      -5.156   3.231 -32.905  1.00  0.00     0.101 A 
HETATM   23  C   UNL     1      -1.784   6.295 -33.889  1.00  0.00     0.071 A 
ENDBRANCH   1  13
TORSDOF 4
ENDMDL
MODEL 5
REMARK VINA RESULT:      -7.3      1.884      2.036
REMARK  4 active torsions:
REMARK  status: ('A' for Active; 'I' for Inactive)
REMARK    1  A    between atoms: C_6  and  C_7 
REMARK    2  A    between atoms: C_7  and  N_8 
REMARK    3  A    between atoms: N_8  and  C_9 
REMARK    4  A    between atoms: C_9  and  C_10 
ROOT
HETATM    1  C   UNL     1      -9.366   0.396 -32.604  1.00  0.00     0.327 C 
ENDROOT
BRANCH   1   2
HETATM    2  N   UNL     1      -8.418   0.099 -33.685  1.00  0.00     0.097 N 
HETATM    3  H   UNL     1      -8.644  -0.811 -34.093  1.00  0.00     0.317 HD
BRANCH   2   4
HETATM    4  C   UNL     1      -7.026   0.011 -33.194  1.00  0.00     0.252 C 
HETATM    5  C   UNL     1      -6.929  -0.026 -31.665  1.00  0.00     0.048 C 
BRANCH   4   6
HETATM    6  C   UNL     1      -6.417  -1.219 -33.801  1.00  0.00     0.006 A 
HETATM    7  C   UNL     1      -5.071  -1.548 -33.842  1.00  0.00     0.058 A 
HETATM    8  O   UNL     1      -4.891  -2.761 -34.433  1.00  0.00    -0.320 OA
HETATM    9  C   UNL     1      -3.839  -0.878 -33.369  1.00  0.00     0.077 C 
HETATM   10  C   UNL     1      -6.119  -3.241 -34.757  1.00  0.00     0.050 A 
HETATM   11  C   UNL     1      -6.162  -4.582 -35.375  1.00  0.00     0.076 C 
HETATM   12  C   UNL     1      -7.089  -2.331 -34.400  1.00  0.00     0.044 A 
ENDBRANCH   4   6
ENDBRANCH   2   4
ENDBRANCH   1   2
BRANCH   1  13
HETATM   13  C   UNL     1     -10.434   1.354 -33.097  1.00  0.00     0.044 A 
HETATM   14  N   UNL     1     -10.679   2.444 -32.283  1.00  0.00    -0.338 N 
HETATM   15  H   UNL     1     -10.129   2.560 -31.428  1.00  0.00     0.168 HD
HETATM   16  C   UNL     1     -11.578   3.335 -32.618  1.00  0.00     0.158 A 
HETATM   17  N   UNL     1     -12.274   3.229 -33.733  1.00  0.00    -0.269 N 
HETATM   18  S   UNL     1     -11.967   4.739 -31.673  1.00  0.00    -0.064 SA
HETATM   19  C   UNL     1     -12.112   2.175 -34.655  1.00  0.00     0.255 A 
HETATM   20  C   UNL     1     -13.170   4.264 -33.905  1.00  0.00     0.109 A 
HETATM   21  O   UNL     1     -12.766   2.112 -35.678  1.00  0.00    -0.268 OA
HETATM   22  C   UNL     1     -11.093   1.193 -34.253  1.00  0.00     0.101 A 
HETATM   23  C   UNL     1     -13.142   5.157 -32.905  1.00  0.00     0.071 A 
ENDBRANCH   1  13
TORSDOF 4
ENDMDL
MODEL 6
REMARK VINA RESULT:      -7.3      2.196      2.891
REMARK  4 active torsions:
REMARK  status: ('A' for Active; 'I' for Inactive)
REMARK    1  A    between atoms: C_6  and  C_7 
REMARK    2  A    between atoms: C_7  and  N_8 
REMARK    3  A    between atoms: N_8  and  C_9 
REMARK    4  A    between atoms: C_9  and  C_10 
ROOT
HETATM    1  C   UNL     1      -6.896   1.865 -31.240  1.00  0.00     0.327 C 
ENDROOT
BRANCH   1   2
HETATM    2  N   UNL     1      -5.987   0.724 -31.415  1.00  0.00     0.097 N 
HETATM    3  H   UNL     1      -5.315   0.706 -30.645  1.00  0.00     0.317 HD
BRANCH   2   4
HETATM    4  C   UNL     1      -5.200   0.828 -32.663  1.00  0.00     0.252 C 
HETATM    5  C   UNL     1      -3.696   0.993 -32.413  1.00  0.00     0.048 C 
BRANCH   4   6
HETATM    6  C   UNL     1      -5.478  -0.407 -33.468  1.00  0.00     0.006 A 
HETATM    7  C   UNL     1      -6.302  -0.509 -34.579  1.00  0.00     0.058 A 
HETATM    8  O   UNL     1      -6.280  -1.774 -35.079  1.00  0.00    -0.320 OA
HETATM    9  C   UNL     1      -7.150   0.455 -35.314  1.00  0.00     0.077 C 
HETATM   10  C   UNL     1      -5.423  -2.498 -34.314  1.00  0.00     0.050 A 
HETATM   11  C   UNL     1      -5.210  -3.904 -34.713  1.00  0.00     0.076 C 
HETATM   12  C   UNL     1      -4.910  -1.711 -33.308  1.00  0.00     0.044 A 
ENDBRANCH   4   6
ENDBRANCH   2   4
ENDBRANCH   1   2
BRANCH   1  13
HETATM   13  C   UNL     1      -8.179   1.630 -32.013  1.00  0.00     0.044 A 
HETATM   14  N   UNL     1      -8.600   2.684 -32.804  1.00  0.00    -0.338 N 
HETATM   15  H   UNL     1      -8.030   3.533 -32.845  1.00  0.00     0.168 HD
HETATM   16  C   UNL     1      -9.693   2.584 -33.517  1.00  0.00     0.158 A 
HETATM   17  N   UNL     1     -10.425   1.488 -33.511  1.00  0.00    -0.269 N 
HETATM   18  S   UNL     1     -10.313   3.842 -34.541  1.00  0.00    -0.064 SA
HETATM   19  C   UNL     1     -10.100   0.339 -32.761  1.00  0.00     0.255 A 
HETATM   20  C   UNL     1     -11.536   1.581 -34.324  1.00  0.00     0.109 A 
HETATM   21  O   UNL     1     -10.795  -0.659 -32.784  1.00  0.00    -0.268 OA
HETATM   22  C   UNL     1      -8.866   0.480 -31.973  1.00  0.00     0.101 A 
HETATM   23  C   UNL     1     -11.634   2.764 -34.948  1.00  0.00     0.071 A 
ENDBRANCH   1  13
TORSDOF 4
ENDMDL
MODEL 7
REMARK VINA RESULT:      -7.1      5.629      7.485
REMARK  4 active torsions:
REMARK  status: ('A' for Active; 'I' for Inactive)
REMARK    1  A    between atoms: C_6  and  C_7 
REMARK    2  A    between atoms: C_7  and  N_8 
REMARK    3  A    between atoms: N_8  and  C_9 
REMARK    4  A    between atoms: C_9  and  C_10 
ROOT
HETATM    1  C   UNL     1      -4.144   2.207 -31.459  1.00  0.00     0.327 C 
ENDROOT
BRANCH   1   2
HETATM    2  N   UNL     1      -4.811   1.500 -32.561  1.00  0.00     0.097 N 
HETATM    3  H   UNL     1      -5.413   2.154 -33.067  1.00  0.00     0.317 HD
BRANCH   2   4
HETATM    4  C   UNL     1      -5.683   0.409 -32.074  1.00  0.00     0.252 C 
HETATM    5  C   UNL     1      -7.176   0.747 -32.164  1.00  0.00     0.048 C 
BRANCH   4   6
HETATM    6  C   UNL     1      -5.358  -0.813 -32.881  1.00  0.00     0.006 A 
HETATM    7  C   UNL     1      -4.222  -1.601 -32.780  1.00  0.00     0.058 A 
HETATM    8  O   UNL     1      -4.288  -2.653 -33.640  1.00  0.00    -0.320 OA
HETATM    9  C   UNL     1      -3.007  -1.539 -31.937  1.00  0.00     0.077 C 
HETATM   10  C   UNL     1      -5.478  -2.572 -34.289  1.00  0.00     0.050 A 
HETATM   11  C   UNL     1      -5.781  -3.654 -35.248  1.00  0.00     0.076 C 
HETATM   12  C   UNL     1      -6.169  -1.459 -33.868  1.00  0.00     0.044 A 
ENDBRANCH   4   6
ENDBRANCH   2   4
ENDBRANCH   1   2
BRANCH   1  13
HETATM   13  C   UNL     1      -3.491   3.474 -31.975  1.00  0.00     0.044 A 
HETATM   14  N   UNL     1      -2.403   3.923 -31.248  1.00  0.00    -0.338 N 
HETATM   15  H   UNL     1      -2.089   3.382 -30.438  1.00  0.00     0.168 HD
HETATM   16  C   UNL     1      -1.763   5.006 -31.610  1.00  0.00     0.158 A 
HETATM   17  N   UNL     1      -2.123   5.700 -32.671  1.00  0.00    -0.269 N 
HETATM   18  S   UNL     1      -0.389   5.658 -30.772  1.00  0.00    -0.064 SA
HETATM   19  C   UNL     1      -3.203   5.344 -33.504  1.00  0.00     0.255 A 
HETATM   20  C   UNL     1      -1.326   6.806 -32.884  1.00  0.00     0.109 A 
HETATM   21  O   UNL     1      -3.505   6.005 -34.480  1.00  0.00    -0.268 OA
HETATM   22  C   UNL     1      -3.901   4.122 -33.074  1.00  0.00     0.101 A 
HETATM   23  C   UNL     1      -0.354   6.938 -31.969  1.00  0.00     0.071 A 
ENDBRANCH   1  13
TORSDOF 4
ENDMDL
MODEL 8
REMARK VINA RESULT:      -6.8      4.685      6.968
REMARK  4 active torsions:
REMARK  status: ('A' for Active; 'I' for Inactive)
REMARK    1  A    between atoms: C_6  and  C_7 
REMARK    2  A    between atoms: C_7  and  N_8 
REMARK    3  A    between atoms: N_8  and  C_9 
REMARK    4  A    between atoms: C_9  and  C_10 
ROOT
HETATM    1  C   UNL     1      -6.666   3.070 -33.826  1.00  0.00     0.327 C 
ENDROOT
BRANCH   1   2
HETATM    2  N   UNL     1      -7.492   2.604 -32.705  1.00  0.00     0.097 N 
HETATM    3  H   UNL     1      -6.884   2.297 -31.942  1.00  0.00     0.317 HD
BRANCH   2   4
HETATM    4  C   UNL     1      -8.329   1.443 -33.076  1.00  0.00     0.252 C 
HETATM    5  C   UNL     1      -9.185   1.692 -34.323  1.00  0.00     0.048 C 
BRANCH   4   6
HETATM    6  C   UNL     1      -7.406   0.278 -33.282  1.00  0.00     0.006 A 
HETATM    7  C   UNL     1      -6.638  -0.357 -32.317  1.00  0.00     0.058 A 
HETATM    8  O   UNL     1      -5.956  -1.403 -32.858  1.00  0.00    -0.320 OA
HETATM    9  C   UNL     1      -6.438  -0.144 -30.867  1.00  0.00     0.077 C 
HETATM   10  C   UNL     1      -6.294  -1.473 -34.171  1.00  0.00     0.050 A 
HETATM   11  C   UNL     1      -5.697  -2.578 -34.948  1.00  0.00     0.076 C 
HETATM   12  C   UNL     1      -7.173  -0.461 -34.485  1.00  0.00     0.044 A 
ENDBRANCH   4   6
ENDBRANCH   2   4
ENDBRANCH   1   2
BRANCH   1  13
HETATM   13  C   UNL     1      -5.266   3.394 -33.341  1.00  0.00     0.044 A 
HETATM   14  N   UNL     1      -4.671   4.494 -33.930  1.00  0.00    -0.338 N 
HETATM   15  H   UNL     1      -5.197   5.032 -34.624  1.00  0.00     0.168 HD
HETATM   16  C   UNL     1      -3.465   4.864 -33.579  1.00  0.00     0.158 A 
HETATM   17  N   UNL     1      -2.781   4.211 -32.661  1.00  0.00    -0.269 N 
HETATM   18  S   UNL     1      -2.623   6.225 -34.253  1.00  0.00    -0.064 SA
HETATM   19  C   UNL     1      -3.277   3.084 -31.976  1.00  0.00     0.255 A 
HETATM   20  C   UNL     1      -1.533   4.755 -32.435  1.00  0.00     0.109 A 
HETATM   21  O   UNL     1      -2.621   2.509 -31.128  1.00  0.00    -0.268 OA
HETATM   22  C   UNL     1      -4.635   2.694 -32.388  1.00  0.00     0.101 A 
HETATM   23  C   UNL     1      -1.282   5.831 -33.196  1.00  0.00     0.071 A 
ENDBRANCH   1  13
TORSDOF 4
ENDMDL
MODEL 9
REMARK VINA RESULT:      -6.8      2.105      3.012
REMARK  4 active torsions:
REMARK  status: ('A' for Active; 'I' for Inactive)
REMARK    1  A    between atoms: C_6  and  C_7 
REMARK    2  A    between atoms: C_7  and  N_8 
REMARK    3  A    between atoms: N_8  and  C_9 
REMARK    4  A    between atoms: C_9  and  C_10 
ROOT
HETATM    1  C   UNL     1      -8.734   1.636 -33.568  1.00  0.00     0.327 C 
ENDROOT
BRANCH   1   2
HETATM    2  N   UNL     1      -8.221   0.404 -32.954  1.00  0.00     0.097 N 
HETATM    3  H   UNL     1      -7.486   0.641 -32.283  1.00  0.00     0.317 HD
BRANCH   2   4
HETATM    4  C   UNL     1      -7.609  -0.501 -33.952  1.00  0.00     0.252 C 
HETATM    5  C   UNL     1      -7.524   0.118 -35.352  1.00  0.00     0.048 C 
BRANCH   4   6
HETATM    6  C   UNL     1      -6.246  -0.868 -33.443  1.00  0.00     0.006 A 
HETATM    7  C   UNL     1      -5.449  -1.916 -33.877  1.00  0.00     0.058 A 
HETATM    8  O   UNL     1      -4.259  -1.919 -33.219  1.00  0.00    -0.320 OA
HETATM    9  C   UNL     1      -5.622  -2.979 -34.893  1.00  0.00     0.077 C 
HETATM   10  C   UNL     1      -4.261  -0.859 -32.370  1.00  0.00     0.050 A 
HETATM   11  C   UNL     1      -3.032  -0.644 -31.580  1.00  0.00     0.076 C 
HETATM   12  C   UNL     1      -5.459  -0.186 -32.461  1.00  0.00     0.044 A 
ENDBRANCH   4   6
ENDBRANCH   2   4
ENDBRANCH   1   2
BRANCH   1  13
HETATM   13  C   UNL     1     -10.243   1.694 -33.433  1.00  0.00     0.044 A 
HETATM   14  N   UNL     1     -10.749   2.861 -32.892  1.00  0.00    -0.338 N 
HETATM   15  H   UNL     1     -10.103   3.613 -32.639  1.00  0.00     0.168 HD
HETATM   16  C   UNL     1     -12.040   3.017 -32.737  1.00  0.00     0.158 A 
HETATM   17  N   UNL     1     -12.896   2.079 -33.089  1.00  0.00    -0.269 N 
HETATM   18  S   UNL     1     -12.782   4.437 -32.068  1.00  0.00    -0.064 SA
HETATM   19  C   UNL     1     -12.513   0.850 -33.664  1.00  0.00     0.255 A 
HETATM   20  C   UNL     1     -14.208   2.432 -32.844  1.00  0.00     0.109 A 
HETATM   21  O   UNL     1     -13.331   0.009 -33.984  1.00  0.00    -0.268 OA
HETATM   22  C   UNL     1     -11.058   0.706 -33.829  1.00  0.00     0.101 A 
HETATM   23  C   UNL     1     -14.332   3.652 -32.302  1.00  0.00     0.071 A 
ENDBRANCH   1  13
TORSDOF 4
ENDMDL
MODEL 10
REMARK VINA RESULT:      -6.7      5.762      7.818
REMARK  4 active torsions:
REMARK  status: ('A' for Active; 'I' for Inactive)
REMARK    1  A    between atoms: C_6  and  C_7 
REMARK    2  A    between atoms: C_7  and  N_8 
REMARK    3  A    between atoms: N_8  and  C_9 
REMARK    4  A    between atoms: C_9  and  C_10 
ROOT
HETATM    1  C   UNL     1      -3.520   2.250 -31.253  1.00  0.00     0.327 C 
ENDROOT
BRANCH   1   2
HETATM    2  N   UNL     1      -4.962   2.073 -31.474  1.00  0.00     0.097 N 
HETATM    3  H   UNL     1      -5.476   2.746 -30.901  1.00  0.00     0.317 HD
BRANCH   2   4
HETATM    4  C   UNL     1      -5.425   0.729 -31.069  1.00  0.00     0.252 C 
HETATM    5  C   UNL     1      -5.760   0.632 -29.576  1.00  0.00     0.048 C 
BRANCH   4   6
HETATM    6  C   UNL     1      -6.622   0.398 -31.910  1.00  0.00     0.006 A 
HETATM    7  C   UNL     1      -6.647  -0.392 -33.050  1.00  0.00     0.058 A 
HETATM    8  O   UNL     1      -7.916  -0.507 -33.526  1.00  0.00    -0.320 OA
HETATM    9  C   UNL     1      -5.610  -1.125 -33.808  1.00  0.00     0.077 C 
HETATM   10  C   UNL     1      -8.730   0.185 -32.688  1.00  0.00     0.050 A 
HETATM   11  C   UNL     1     -10.174   0.154 -32.995  1.00  0.00     0.076 C 
HETATM   12  C   UNL     1      -7.986   0.766 -31.685  1.00  0.00     0.044 A 
ENDBRANCH   4   6
ENDBRANCH   2   4
ENDBRANCH   1   2
BRANCH   1  13
HETATM   13  C   UNL     1      -3.046   3.531 -31.912  1.00  0.00     0.044 A 
HETATM   14  N   UNL     1      -2.968   4.635 -31.083  1.00  0.00    -0.338 N 
HETATM   15  H   UNL     1      -3.203   4.530 -30.093  1.00  0.00     0.168 HD
HETATM   16  C   UNL     1      -2.565   5.790 -31.550  1.00  0.00     0.158 A 
HETATM   17  N   UNL     1      -2.221   5.942 -32.813  1.00  0.00    -0.269 N 
HETATM   18  S   UNL     1      -2.430   7.237 -30.601  1.00  0.00    -0.064 SA
HETATM   19  C   UNL     1      -2.243   4.896 -33.758  1.00  0.00     0.255 A 
HETATM   20  C   UNL     1      -1.829   7.232 -33.109  1.00  0.00     0.109 A 
HETATM   21  O   UNL     1      -1.912   5.071 -34.915  1.00  0.00    -0.268 OA
HETATM   22  C   UNL     1      -2.695   3.611 -33.203  1.00  0.00     0.101 A 
HETATM   23  C   UNL     1      -1.879   8.053 -32.051  1.00  0.00     0.071 A 
ENDBRANCH   1  13
TORSDOF 4
ENDMDL
