MODEL 1
REMARK VINA RESULT:      -9.4      0.000      0.000
REMARK  5 active torsions:
REMARK  status: ('A' for Active; 'I' for Inactive)
REMARK    1  A    between atoms: C_4  and  O_5 
REMARK    2  A    between atoms: O_5  and  C_6 
REMARK    3  A    between atoms: C_6  and  C_7 
REMARK       I    between atoms: C_7  and  N_8 
REMARK    4  A    between atoms: N_8  and  C_9 
REMARK    5  A    between atoms: C_11  and  C_12 
ROOT
HETATM    1  C   UNL     1      -3.697   2.480 -32.036  1.00  0.00     0.035 A 
HETATM    2  C   UNL     1      -3.964   1.290 -32.723  1.00  0.00     0.045 A 
HETATM    3  C   UNL     1      -4.974   0.413 -32.290  1.00  0.00     0.019 A 
HETATM    4  C   UNL     1      -5.719   0.753 -31.152  1.00  0.00     0.016 A 
HETATM    5  C   UNL     1      -5.467   1.938 -30.465  1.00  0.00     0.003 A 
HETATM    6  C   UNL     1      -4.460   2.797 -30.907  1.00  0.00     0.029 A 
ENDROOT
BRANCH   1   7
HETATM    7  N   UNL     1      -2.702   3.400 -32.416  1.00  0.00    -0.325 N 
HETATM    8  C   UNL     1      -2.814   4.470 -33.289  1.00  0.00     0.251 C 
HETATM    9  O   UNL     1      -3.817   4.800 -33.916  1.00  0.00    -0.270 OA
HETATM   10  H   UNL     1      -1.765   3.241 -32.055  1.00  0.00     0.169 HD
BRANCH   8  11
HETATM   11  C   UNL     1      -1.525   5.303 -33.374  1.00  0.00     0.217 C 
HETATM   12  C   UNL     1      -1.191   5.542 -34.842  1.00  0.00     0.050 C 
BRANCH  11  13
HETATM   13  O   UNL     1      -1.696   6.592 -32.766  1.00  0.00    -0.337 OA
BRANCH  13  14
HETATM   14  C   UNL     1      -1.122   6.676 -31.526  1.00  0.00     0.070 A 
HETATM   15  C   UNL     1      -1.467   7.776 -30.743  1.00  0.00     0.043 A 
HETATM   16  C   UNL     1      -0.924   7.926 -29.462  1.00  0.00    -0.059 A 
HETATM   17  C   UNL     1      -1.280   9.107 -28.609  1.00  0.00     0.048 C 
HETATM   18  C   UNL     1      -0.063   6.938 -28.967  1.00  0.00     0.013 A 
HETATM   19  C   UNL     1       0.267   5.815 -29.741  1.00  0.00    -0.059 A 
HETATM   20  C   UNL     1      -0.276   5.685 -31.024  1.00  0.00     0.043 A 
HETATM   21  C   UNL     1       1.168   4.757 -29.174  1.00  0.00     0.048 C 
ENDBRANCH  13  14
ENDBRANCH  11  13
ENDBRANCH   8  11
ENDBRANCH   1   7
BRANCH   3  22
HETATM   22  C   UNL     1      -5.260  -0.840 -32.988  1.00  0.00     0.181 A 
HETATM   23  O   UNL     1      -4.237  -1.754 -33.058  1.00  0.00    -0.289 OA
HETATM   24  C   UNL     1      -4.775  -2.800 -33.746  1.00  0.00     0.106 A 
HETATM   25  C   UNL     1      -6.084  -2.475 -34.057  1.00  0.00     0.093 A 
HETATM   26  C   UNL     1      -4.149  -3.992 -34.090  1.00  0.00     0.040 A 
HETATM   27  N   UNL     1      -6.381  -1.225 -33.576  1.00  0.00    -0.221 NA
HETATM   28  C   UNL     1      -6.861  -3.400 -34.765  1.00  0.00     0.034 A 
HETATM   29  C   UNL     1      -6.268  -4.620 -35.130  1.00  0.00     0.002 A 
HETATM   30  C   UNL     1      -4.938  -4.907 -34.799  1.00  0.00     0.003 A 
ENDBRANCH   3  22
TORSDOF 5
ENDMDL
MODEL 2
REMARK VINA RESULT:      -9.4      1.740     10.032
REMARK  5 active torsions:
REMARK  status: ('A' for Active; 'I' for Inactive)
REMARK    1  A    between atoms: C_4  and  O_5 
REMARK    2  A    between atoms: O_5  and  C_6 
REMARK    3  A    between atoms: C_6  and  C_7 
REMARK       I    between atoms: C_7  and  N_8 
REMARK    4  A    between atoms: N_8  and  C_9 
REMARK    5  A    between atoms: C_11  and  C_12 
ROOT
HETATM    1  C   UNL     1      -2.899   3.654 -32.529  1.00  0.00     0.035 A 
HETATM    2  C   UNL     1      -2.352   4.301 -31.416  1.00  0.00     0.045 A 
HETATM    3  C   UNL     1      -1.456   5.374 -31.567  1.00  0.00     0.019 A 
HETATM    4  C   UNL     1      -1.119   5.792 -32.863  1.00  0.00     0.016 A 
HETATM    5  C   UNL     1      -1.663   5.159 -33.978  1.00  0.00     0.003 A 
HETATM    6  C   UNL     1      -2.549   4.095 -33.810  1.00  0.00     0.029 A 
ENDROOT
BRANCH   1   7
HETATM    7  N   UNL     1      -3.800   2.576 -32.447  1.00  0.00    -0.325 N 
HETATM    8  C   UNL     1      -5.147   2.560 -32.769  1.00  0.00     0.251 C 
HETATM    9  O   UNL     1      -5.814   3.509 -33.172  1.00  0.00    -0.270 OA
HETATM   10  H   UNL     1      -3.446   1.708 -32.052  1.00  0.00     0.169 HD
BRANCH   8  11
HETATM   11  C   UNL     1      -5.773   1.162 -32.634  1.00  0.00     0.217 C 
HETATM   12  C   UNL     1      -7.173   1.305 -32.049  1.00  0.00     0.050 C 
BRANCH  11  13
HETATM   13  O   UNL     1      -5.915   0.528 -33.914  1.00  0.00    -0.337 OA
BRANCH  13  14
HETATM   14  C   UNL     1      -5.511  -0.780 -33.906  1.00  0.00     0.070 A 
HETATM   15  C   UNL     1      -4.498  -1.123 -33.012  1.00  0.00     0.043 A 
HETATM   16  C   UNL     1      -4.036  -2.443 -32.943  1.00  0.00    -0.059 A 
HETATM   17  C   UNL     1      -2.943  -2.827 -31.992  1.00  0.00     0.048 C 
HETATM   18  C   UNL     1      -4.633  -3.416 -33.756  1.00  0.00     0.013 A 
HETATM   19  C   UNL     1      -5.671  -3.081 -34.639  1.00  0.00    -0.059 A 
HETATM   20  C   UNL     1      -6.114  -1.755 -34.703  1.00  0.00     0.043 A 
HETATM   21  C   UNL     1      -6.312  -4.150 -35.476  1.00  0.00     0.048 C 
ENDBRANCH  13  14
ENDBRANCH  11  13
ENDBRANCH   8  11
ENDBRANCH   1   7
BRANCH   3  22
HETATM   22  C   UNL     1      -0.866   6.057 -30.417  1.00  0.00     0.181 A 
HETATM   23  O   UNL     1      -1.311   7.331 -30.161  1.00  0.00    -0.289 OA
HETATM   24  C   UNL     1      -0.608   7.712 -29.058  1.00  0.00     0.106 A 
HETATM   25  C   UNL     1       0.221   6.663 -28.700  1.00  0.00     0.093 A 
HETATM   26  C   UNL     1      -0.685   8.927 -28.389  1.00  0.00     0.040 A 
HETATM   27  N   UNL     1       0.054   5.618 -29.573  1.00  0.00    -0.221 NA
HETATM   28  C   UNL     1       1.050   6.807 -27.581  1.00  0.00     0.034 A 
HETATM   29  C   UNL     1       1.001   8.019 -26.873  1.00  0.00     0.002 A 
HETATM   30  C   UNL     1       0.151   9.058 -27.273  1.00  0.00     0.003 A 
ENDBRANCH   3  22
TORSDOF 5
ENDMDL
MODEL 3
REMARK VINA RESULT:      -9.4      1.792      2.583
REMARK  5 active torsions:
REMARK  status: ('A' for Active; 'I' for Inactive)
REMARK    1  A    between atoms: C_4  and  O_5 
REMARK    2  A    between atoms: O_5  and  C_6 
REMARK    3  A    between atoms: C_6  and  C_7 
REMARK       I    between atoms: C_7  and  N_8 
REMARK    4  A    between atoms: N_8  and  C_9 
REMARK    5  A    between atoms: C_11  and  C_12 
ROOT
HETATM    1  C   UNL     1      -3.640   3.503 -31.650  1.00  0.00     0.035 A 
HETATM    2  C   UNL     1      -3.704   2.178 -32.094  1.00  0.00     0.045 A 
HETATM    3  C   UNL     1      -4.867   1.671 -32.701  1.00  0.00     0.019 A 
HETATM    4  C   UNL     1      -5.969   2.522 -32.861  1.00  0.00     0.016 A 
HETATM    5  C   UNL     1      -5.914   3.846 -32.430  1.00  0.00     0.003 A 
HETATM    6  C   UNL     1      -4.753   4.333 -31.827  1.00  0.00     0.029 A 
ENDROOT
BRANCH   1   7
HETATM    7  N   UNL     1      -2.509   4.072 -31.035  1.00  0.00    -0.325 N 
HETATM    8  C   UNL     1      -1.475   4.775 -31.629  1.00  0.00     0.251 C 
HETATM    9  O   UNL     1      -1.347   5.016 -32.827  1.00  0.00    -0.270 OA
HETATM   10  H   UNL     1      -2.395   3.907 -30.038  1.00  0.00     0.169 HD
BRANCH   8  11
HETATM   11  C   UNL     1      -0.465   5.321 -30.607  1.00  0.00     0.217 C 
HETATM   12  C   UNL     1       0.944   4.980 -31.078  1.00  0.00     0.050 C 
BRANCH  11  13
HETATM   13  O   UNL     1      -0.540   6.752 -30.511  1.00  0.00    -0.337 OA
BRANCH  13  14
HETATM   14  C   UNL     1      -0.482   7.202 -29.219  1.00  0.00     0.070 A 
HETATM   15  C   UNL     1      -1.656   7.132 -28.472  1.00  0.00     0.043 A 
HETATM   16  C   UNL     1      -1.672   7.568 -27.143  1.00  0.00    -0.059 A 
HETATM   17  C   UNL     1      -2.930   7.506 -26.327  1.00  0.00     0.048 C 
HETATM   18  C   UNL     1      -0.485   8.037 -26.565  1.00  0.00     0.013 A 
HETATM   19  C   UNL     1       0.707   8.084 -27.304  1.00  0.00    -0.059 A 
HETATM   20  C   UNL     1       0.703   7.654 -28.636  1.00  0.00     0.043 A 
HETATM   21  C   UNL     1       1.971   8.563 -26.652  1.00  0.00     0.048 C 
ENDBRANCH  13  14
ENDBRANCH  11  13
ENDBRANCH   8  11
ENDBRANCH   1   7
BRANCH   3  22
HETATM   22  C   UNL     1      -4.956   0.286 -33.162  1.00  0.00     0.181 A 
HETATM   23  O   UNL     1      -6.161  -0.111 -33.689  1.00  0.00    -0.289 OA
HETATM   24  C   UNL     1      -5.960  -1.415 -34.028  1.00  0.00     0.106 A 
HETATM   25  C   UNL     1      -4.657  -1.744 -33.696  1.00  0.00     0.093 A 
HETATM   26  C   UNL     1      -6.876  -2.285 -34.606  1.00  0.00     0.040 A 
HETATM   27  N   UNL     1      -4.030  -0.658 -33.140  1.00  0.00    -0.221 NA
HETATM   28  C   UNL     1      -4.200  -3.042 -33.955  1.00  0.00     0.034 A 
HETATM   29  C   UNL     1      -5.093  -3.953 -34.541  1.00  0.00     0.002 A 
HETATM   30  C   UNL     1      -6.405  -3.581 -34.858  1.00  0.00     0.003 A 
ENDBRANCH   3  22
TORSDOF 5
ENDMDL
MODEL 4
REMARK VINA RESULT:      -9.0      2.278     10.309
REMARK  5 active torsions:
REMARK  status: ('A' for Active; 'I' for Inactive)
REMARK    1  A    between atoms: C_4  and  O_5 
REMARK    2  A    between atoms: O_5  and  C_6 
REMARK    3  A    between atoms: C_6  and  C_7 
REMARK       I    between atoms: C_7  and  N_8 
REMARK    4  A    between atoms: N_8  and  C_9 
REMARK    5  A    between atoms: C_11  and  C_12 
ROOT
HETATM    1  C   UNL     1      -2.169   4.436 -32.308  1.00  0.00     0.035 A 
HETATM    2  C   UNL     1      -1.823   5.227 -31.207  1.00  0.00     0.045 A 
HETATM    3  C   UNL     1      -1.312   6.525 -31.378  1.00  0.00     0.019 A 
HETATM    4  C   UNL     1      -1.155   7.021 -32.681  1.00  0.00     0.016 A 
HETATM    5  C   UNL     1      -1.502   6.244 -33.784  1.00  0.00     0.003 A 
HETATM    6  C   UNL     1      -2.007   4.957 -33.596  1.00  0.00     0.029 A 
ENDROOT
BRANCH   1   7
HETATM    7  N   UNL     1      -2.685   3.130 -32.206  1.00  0.00    -0.325 N 
HETATM    8  C   UNL     1      -3.941   2.738 -31.773  1.00  0.00     0.251 C 
HETATM    9  O   UNL     1      -4.840   3.474 -31.374  1.00  0.00    -0.270 OA
HETATM   10  H   UNL     1      -2.051   2.365 -32.421  1.00  0.00     0.169 HD
BRANCH   8  11
HETATM   11  C   UNL     1      -4.165   1.222 -31.895  1.00  0.00     0.217 C 
HETATM   12  C   UNL     1      -3.060   0.500 -31.132  1.00  0.00     0.050 C 
BRANCH  11  13
HETATM   13  O   UNL     1      -5.412   0.828 -31.303  1.00  0.00    -0.337 OA
BRANCH  13  14
HETATM   14  C   UNL     1      -6.229   0.163 -32.176  1.00  0.00     0.070 A 
HETATM   15  C   UNL     1      -7.558   0.576 -32.237  1.00  0.00     0.043 A 
HETATM   16  C   UNL     1      -8.452  -0.053 -33.111  1.00  0.00    -0.059 A 
HETATM   17  C   UNL     1      -9.888   0.375 -33.184  1.00  0.00     0.048 C 
HETATM   18  C   UNL     1      -7.982  -1.073 -33.948  1.00  0.00     0.013 A 
HETATM   19  C   UNL     1      -6.638  -1.476 -33.910  1.00  0.00    -0.059 A 
HETATM   20  C   UNL     1      -5.760  -0.843 -33.023  1.00  0.00     0.043 A 
HETATM   21  C   UNL     1      -6.155  -2.551 -34.838  1.00  0.00     0.048 C 
ENDBRANCH  13  14
ENDBRANCH  11  13
ENDBRANCH   8  11
ENDBRANCH   1   7
BRANCH   3  22
HETATM   22  C   UNL     1      -0.936   7.364 -30.241  1.00  0.00     0.181 A 
HETATM   23  O   UNL     1       0.314   7.157 -29.710  1.00  0.00    -0.289 OA
HETATM   24  C   UNL     1       0.393   8.056 -28.689  1.00  0.00     0.106 A 
HETATM   25  C   UNL     1      -0.800   8.759 -28.650  1.00  0.00     0.093 A 
HETATM   26  C   UNL     1       1.462   8.258 -27.825  1.00  0.00     0.040 A 
HETATM   27  N   UNL     1      -1.639   8.307 -29.636  1.00  0.00    -0.221 NA
HETATM   28  C   UNL     1      -0.966   9.755 -27.680  1.00  0.00     0.034 A 
HETATM   29  C   UNL     1       0.092   9.994 -26.789  1.00  0.00     0.002 A 
HETATM   30  C   UNL     1       1.281   9.257 -26.860  1.00  0.00     0.003 A 
ENDBRANCH   3  22
TORSDOF 5
ENDMDL
MODEL 5
REMARK VINA RESULT:      -8.9      2.092      9.837
REMARK  5 active torsions:
REMARK  status: ('A' for Active; 'I' for Inactive)
REMARK    1  A    between atoms: C_4  and  O_5 
REMARK    2  A    between atoms: O_5  and  C_6 
REMARK    3  A    between atoms: C_6  and  C_7 
REMARK       I    between atoms: C_7  and  N_8 
REMARK    4  A    between atoms: N_8  and  C_9 
REMARK    5  A    between atoms: C_11  and  C_12 
ROOT
HETATM    1  C   UNL     1      -3.349   4.319 -32.701  1.00  0.00     0.035 A 
HETATM    2  C   UNL     1      -2.982   5.042 -31.561  1.00  0.00     0.045 A 
HETATM    3  C   UNL     1      -1.856   5.884 -31.567  1.00  0.00     0.019 A 
HETATM    4  C   UNL     1      -1.102   5.992 -32.744  1.00  0.00     0.016 A 
HETATM    5  C   UNL     1      -1.463   5.282 -33.887  1.00  0.00     0.003 A 
HETATM    6  C   UNL     1      -2.582   4.449 -33.864  1.00  0.00     0.029 A 
ENDROOT
BRANCH   1   7
HETATM    7  N   UNL     1      -4.463   3.460 -32.762  1.00  0.00    -0.325 N 
HETATM    8  C   UNL     1      -5.602   3.589 -33.540  1.00  0.00     0.251 C 
HETATM    9  O   UNL     1      -5.857   4.505 -34.317  1.00  0.00    -0.270 OA
HETATM   10  H   UNL     1      -4.473   2.672 -32.120  1.00  0.00     0.169 HD
BRANCH   8  11
HETATM   11  C   UNL     1      -6.557   2.393 -33.397  1.00  0.00     0.217 C 
HETATM   12  C   UNL     1      -7.992   2.906 -33.414  1.00  0.00     0.050 C 
BRANCH  11  13
HETATM   13  O   UNL     1      -6.422   1.483 -34.498  1.00  0.00    -0.337 OA
BRANCH  13  14
HETATM   14  C   UNL     1      -5.934   0.261 -34.121  1.00  0.00     0.070 A 
HETATM   15  C   UNL     1      -6.550  -0.862 -34.671  1.00  0.00     0.043 A 
HETATM   16  C   UNL     1      -6.103  -2.146 -34.337  1.00  0.00    -0.059 A 
HETATM   17  C   UNL     1      -6.759  -3.365 -34.914  1.00  0.00     0.048 C 
HETATM   18  C   UNL     1      -5.006  -2.281 -33.476  1.00  0.00     0.013 A 
HETATM   19  C   UNL     1      -4.365  -1.154 -32.941  1.00  0.00    -0.059 A 
HETATM   20  C   UNL     1      -4.832   0.122 -33.277  1.00  0.00     0.043 A 
HETATM   21  C   UNL     1      -3.173  -1.328 -32.045  1.00  0.00     0.048 C 
ENDBRANCH  13  14
ENDBRANCH  11  13
ENDBRANCH   8  11
ENDBRANCH   1   7
BRANCH   3  22
HETATM   22  C   UNL     1      -1.450   6.640 -30.383  1.00  0.00     0.181 A 
HETATM   23  O   UNL     1      -0.106   6.882 -30.238  1.00  0.00    -0.289 OA
HETATM   24  C   UNL     1      -0.020   7.588 -29.076  1.00  0.00     0.106 A 
HETATM   25  C   UNL     1      -1.303   7.741 -28.577  1.00  0.00     0.093 A 
HETATM   26  C   UNL     1       1.130   8.082 -28.473  1.00  0.00     0.040 A 
HETATM   27  N   UNL     1      -2.203   7.129 -29.412  1.00  0.00    -0.221 NA
HETATM   28  C   UNL     1      -1.484   8.445 -27.380  1.00  0.00     0.034 A 
HETATM   29  C   UNL     1      -0.348   8.964 -26.740  1.00  0.00     0.002 A 
HETATM   30  C   UNL     1       0.933   8.784 -27.277  1.00  0.00     0.003 A 
ENDBRANCH   3  22
TORSDOF 5
ENDMDL
MODEL 6
REMARK VINA RESULT:      -8.9      2.549      3.527
REMARK  5 active torsions:
REMARK  status: ('A' for Active; 'I' for Inactive)
REMARK    1  A    between atoms: C_4  and  O_5 
REMARK    2  A    between atoms: O_5  and  C_6 
REMARK    3  A    between atoms: C_6  and  C_7 
REMARK       I    between atoms: C_7  and  N_8 
REMARK    4  A    between atoms: N_8  and  C_9 
REMARK    5  A    between atoms: C_11  and  C_12 
ROOT
HETATM    1  C   UNL     1      -6.832   2.903 -33.513  1.00  0.00     0.035 A 
HETATM    2  C   UNL     1      -6.236   1.641 -33.607  1.00  0.00     0.045 A 
HETATM    3  C   UNL     1      -6.967   0.523 -34.044  1.00  0.00     0.019 A 
HETATM    4  C   UNL     1      -8.315   0.694 -34.392  1.00  0.00     0.016 A 
HETATM    5  C   UNL     1      -8.917   1.947 -34.309  1.00  0.00     0.003 A 
HETATM    6  C   UNL     1      -8.177   3.046 -33.872  1.00  0.00     0.029 A 
ENDROOT
BRANCH   1   7
HETATM    7  N   UNL     1      -6.158   4.061 -33.083  1.00  0.00    -0.325 N 
HETATM    8  C   UNL     1      -6.309   4.746 -31.889  1.00  0.00     0.251 C 
HETATM    9  O   UNL     1      -7.090   4.472 -30.982  1.00  0.00    -0.270 OA
HETATM   10  H   UNL     1      -5.515   4.492 -33.743  1.00  0.00     0.169 HD
BRANCH   8  11
HETATM   11  C   UNL     1      -5.321   5.916 -31.746  1.00  0.00     0.217 C 
HETATM   12  C   UNL     1      -6.070   7.128 -31.204  1.00  0.00     0.050 C 
BRANCH  11  13
HETATM   13  O   UNL     1      -4.281   5.608 -30.806  1.00  0.00    -0.337 OA
BRANCH  13  14
HETATM   14  C   UNL     1      -3.027   5.794 -31.322  1.00  0.00     0.070 A 
HETATM   15  C   UNL     1      -2.849   5.496 -32.672  1.00  0.00     0.043 A 
HETATM   16  C   UNL     1      -1.595   5.667 -33.272  1.00  0.00    -0.059 A 
HETATM   17  C   UNL     1      -1.385   5.344 -34.722  1.00  0.00     0.048 C 
HETATM   18  C   UNL     1      -0.538   6.175 -32.506  1.00  0.00     0.013 A 
HETATM   19  C   UNL     1      -0.718   6.502 -31.154  1.00  0.00    -0.059 A 
HETATM   20  C   UNL     1      -1.975   6.316 -30.567  1.00  0.00     0.043 A 
HETATM   21  C   UNL     1       0.424   7.073 -30.365  1.00  0.00     0.048 C 
ENDBRANCH  13  14
ENDBRANCH  11  13
ENDBRANCH   8  11
ENDBRANCH   1   7
BRANCH   3  22
HETATM   22  C   UNL     1      -6.364  -0.806 -34.139  1.00  0.00     0.181 A 
HETATM   23  O   UNL     1      -7.134  -1.792 -34.706  1.00  0.00    -0.289 OA
HETATM   24  C   UNL     1      -6.337  -2.897 -34.666  1.00  0.00     0.106 A 
HETATM   25  C   UNL     1      -5.135  -2.533 -34.083  1.00  0.00     0.093 A 
HETATM   26  C   UNL     1      -6.645  -4.174 -35.119  1.00  0.00     0.040 A 
HETATM   27  N   UNL     1      -5.165  -1.203 -33.746  1.00  0.00    -0.221 NA
HETATM   28  C   UNL     1      -4.135  -3.501 -33.932  1.00  0.00     0.034 A 
HETATM   29  C   UNL     1      -4.404  -4.805 -34.380  1.00  0.00     0.002 A 
HETATM   30  C   UNL     1      -5.636  -5.133 -34.960  1.00  0.00     0.003 A 
ENDBRANCH   3  22
TORSDOF 5
ENDMDL
MODEL 7
REMARK VINA RESULT:      -8.9      2.696      3.559
REMARK  5 active torsions:
REMARK  status: ('A' for Active; 'I' for Inactive)
REMARK    1  A    between atoms: C_4  and  O_5 
REMARK    2  A    between atoms: O_5  and  C_6 
REMARK    3  A    between atoms: C_6  and  C_7 
REMARK       I    between atoms: C_7  and  N_8 
REMARK    4  A    between atoms: N_8  and  C_9 
REMARK    5  A    between atoms: C_11  and  C_12 
ROOT
HETATM    1  C   UNL     1      -7.402   3.048 -33.749  1.00  0.00     0.035 A 
HETATM    2  C   UNL     1      -6.701   1.839 -33.812  1.00  0.00     0.045 A 
HETATM    3  C   UNL     1      -7.361   0.631 -34.098  1.00  0.00     0.019 A 
HETATM    4  C   UNL     1      -8.745   0.656 -34.323  1.00  0.00     0.016 A 
HETATM    5  C   UNL     1      -9.452   1.856 -34.269  1.00  0.00     0.003 A 
HETATM    6  C   UNL     1      -8.782   3.046 -33.983  1.00  0.00     0.029 A 
ENDROOT
BRANCH   1   7
HETATM    7  N   UNL     1      -6.803   4.291 -33.468  1.00  0.00    -0.325 N 
HETATM    8  C   UNL     1      -6.229   4.716 -32.281  1.00  0.00     0.251 C 
HETATM    9  O   UNL     1      -6.159   4.079 -31.234  1.00  0.00    -0.270 OA
HETATM   10  H   UNL     1      -6.836   4.994 -34.202  1.00  0.00     0.169 HD
BRANCH   8  11
HETATM   11  C   UNL     1      -5.592   6.110 -32.396  1.00  0.00     0.217 C 
HETATM   12  C   UNL     1      -6.686   7.163 -32.252  1.00  0.00     0.050 C 
BRANCH  11  13
HETATM   13  O   UNL     1      -4.645   6.340 -31.342  1.00  0.00    -0.337 OA
BRANCH  13  14
HETATM   14  C   UNL     1      -3.348   6.319 -31.779  1.00  0.00     0.070 A 
HETATM   15  C   UNL     1      -2.367   6.696 -30.863  1.00  0.00     0.043 A 
HETATM   16  C   UNL     1      -1.018   6.694 -31.236  1.00  0.00    -0.059 A 
HETATM   17  C   UNL     1       0.049   7.104 -30.265  1.00  0.00     0.048 C 
HETATM   18  C   UNL     1      -0.668   6.272 -32.525  1.00  0.00     0.013 A 
HETATM   19  C   UNL     1      -1.649   5.866 -33.442  1.00  0.00    -0.059 A 
HETATM   20  C   UNL     1      -2.995   5.884 -33.057  1.00  0.00     0.043 A 
HETATM   21  C   UNL     1      -1.244   5.390 -34.806  1.00  0.00     0.048 C 
ENDBRANCH  13  14
ENDBRANCH  11  13
ENDBRANCH   8  11
ENDBRANCH   1   7
BRANCH   3  22
HETATM   22  C   UNL     1      -6.647  -0.643 -34.158  1.00  0.00     0.181 A 
HETATM   23  O   UNL     1      -7.345  -1.717 -34.654  1.00  0.00    -0.289 OA
HETATM   24  C   UNL     1      -6.454  -2.746 -34.597  1.00  0.00     0.106 A 
HETATM   25  C   UNL     1      -5.270  -2.254 -34.075  1.00  0.00     0.093 A 
HETATM   26  C   UNL     1      -6.663  -4.064 -34.984  1.00  0.00     0.040 A 
HETATM   27  N   UNL     1      -5.405  -0.918 -33.794  1.00  0.00    -0.221 NA
HETATM   28  C   UNL     1      -4.184  -3.125 -33.920  1.00  0.00     0.034 A 
HETATM   29  C   UNL     1      -4.352  -4.465 -34.303  1.00  0.00     0.002 A 
HETATM   30  C   UNL     1      -5.569  -4.924 -34.823  1.00  0.00     0.003 A 
ENDBRANCH   3  22
TORSDOF 5
ENDMDL
MODEL 8
REMARK VINA RESULT:      -8.9      2.719      9.396
REMARK  5 active torsions:
REMARK  status: ('A' for Active; 'I' for Inactive)
REMARK    1  A    between atoms: C_4  and  O_5 
REMARK    2  A    between atoms: O_5  and  C_6 
REMARK    3  A    between atoms: C_6  and  C_7 
REMARK       I    between atoms: C_7  and  N_8 
REMARK    4  A    between atoms: N_8  and  C_9 
REMARK    5  A    between atoms: C_11  and  C_12 
ROOT
HETATM    1  C   UNL     1      -6.586   3.683 -32.564  1.00  0.00     0.035 A 
HETATM    2  C   UNL     1      -5.318   4.058 -32.107  1.00  0.00     0.045 A 
HETATM    3  C   UNL     1      -4.976   5.412 -31.943  1.00  0.00     0.019 A 
HETATM    4  C   UNL     1      -5.936   6.390 -32.242  1.00  0.00     0.016 A 
HETATM    5  C   UNL     1      -7.204   6.027 -32.691  1.00  0.00     0.003 A 
HETATM    6  C   UNL     1      -7.526   4.679 -32.850  1.00  0.00     0.029 A 
ENDROOT
BRANCH   1   7
HETATM    7  N   UNL     1      -6.991   2.348 -32.750  1.00  0.00    -0.325 N 
HETATM    8  C   UNL     1      -7.969   1.647 -32.064  1.00  0.00     0.251 C 
HETATM    9  O   UNL     1      -8.658   2.068 -31.138  1.00  0.00    -0.270 OA
HETATM   10  H   UNL     1      -6.473   1.800 -33.432  1.00  0.00     0.169 HD
BRANCH   8  11
HETATM   11  C   UNL     1      -8.187   0.232 -32.622  1.00  0.00     0.217 C 
HETATM   12  C   UNL     1      -9.683  -0.004 -32.795  1.00  0.00     0.050 C 
BRANCH  11  13
HETATM   13  O   UNL     1      -7.585   0.083 -33.918  1.00  0.00    -0.337 OA
BRANCH  13  14
HETATM   14  C   UNL     1      -6.692  -0.952 -33.973  1.00  0.00     0.070 A 
HETATM   15  C   UNL     1      -5.527  -0.822 -33.218  1.00  0.00     0.043 A 
HETATM   16  C   UNL     1      -4.569  -1.842 -33.220  1.00  0.00    -0.059 A 
HETATM   17  C   UNL     1      -3.307  -1.716 -32.419  1.00  0.00     0.048 C 
HETATM   18  C   UNL     1      -4.816  -3.007 -33.959  1.00  0.00     0.013 A 
HETATM   19  C   UNL     1      -5.998  -3.154 -34.700  1.00  0.00    -0.059 A 
HETATM   20  C   UNL     1      -6.942  -2.120 -34.695  1.00  0.00     0.043 A 
HETATM   21  C   UNL     1      -6.250  -4.424 -35.459  1.00  0.00     0.048 C 
ENDBRANCH  13  14
ENDBRANCH  11  13
ENDBRANCH   8  11
ENDBRANCH   1   7
BRANCH   3  22
HETATM   22  C   UNL     1      -3.653   5.824 -31.477  1.00  0.00     0.181 A 
HETATM   23  O   UNL     1      -2.581   5.119 -31.965  1.00  0.00    -0.289 OA
HETATM   24  C   UNL     1      -1.502   5.707 -31.377  1.00  0.00     0.106 A 
HETATM   25  C   UNL     1      -1.965   6.731 -30.569  1.00  0.00     0.093 A 
HETATM   26  C   UNL     1      -0.165   5.365 -31.538  1.00  0.00     0.040 A 
HETATM   27  N   UNL     1      -3.334   6.793 -30.635  1.00  0.00    -0.221 NA
HETATM   28  C   UNL     1      -1.039   7.500 -29.853  1.00  0.00     0.034 A 
HETATM   29  C   UNL     1       0.323   7.190 -29.989  1.00  0.00     0.002 A 
HETATM   30  C   UNL     1       0.750   6.142 -30.814  1.00  0.00     0.003 A 
ENDBRANCH   3  22
TORSDOF 5
ENDMDL
MODEL 9
REMARK VINA RESULT:      -8.8      2.088      2.442
REMARK  5 active torsions:
REMARK  status: ('A' for Active; 'I' for Inactive)
REMARK    1  A    between atoms: C_4  and  O_5 
REMARK    2  A    between atoms: O_5  and  C_6 
REMARK    3  A    between atoms: C_6  and  C_7 
REMARK       I    between atoms: C_7  and  N_8 
REMARK    4  A    between atoms: N_8  and  C_9 
REMARK    5  A    between atoms: C_11  and  C_12 
ROOT
HETATM    1  C   UNL     1      -6.148   3.001 -33.183  1.00  0.00     0.035 A 
HETATM    2  C   UNL     1      -5.685   1.687 -33.312  1.00  0.00     0.045 A 
HETATM    3  C   UNL     1      -6.495   0.684 -33.874  1.00  0.00     0.019 A 
HETATM    4  C   UNL     1      -7.783   1.025 -34.311  1.00  0.00     0.016 A 
HETATM    5  C   UNL     1      -8.251   2.332 -34.194  1.00  0.00     0.003 A 
HETATM    6  C   UNL     1      -7.435   3.315 -33.632  1.00  0.00     0.029 A 
ENDROOT
BRANCH   1   7
HETATM    7  N   UNL     1      -5.390   4.050 -32.630  1.00  0.00    -0.325 N 
HETATM    8  C   UNL     1      -4.706   5.055 -33.296  1.00  0.00     0.251 C 
HETATM    9  O   UNL     1      -4.621   5.200 -34.512  1.00  0.00    -0.270 OA
HETATM   10  H   UNL     1      -5.274   4.053 -31.620  1.00  0.00     0.169 HD
BRANCH   8  11
HETATM   11  C   UNL     1      -4.071   6.075 -32.337  1.00  0.00     0.217 C 
HETATM   12  C   UNL     1      -5.130   7.097 -31.937  1.00  0.00     0.050 C 
BRANCH  11  13
HETATM   13  O   UNL     1      -3.616   5.446 -31.130  1.00  0.00    -0.337 OA
BRANCH  13  14
HETATM   14  C   UNL     1      -2.365   5.856 -30.755  1.00  0.00     0.070 A 
HETATM   15  C   UNL     1      -2.288   6.999 -29.961  1.00  0.00     0.043 A 
HETATM   16  C   UNL     1      -1.043   7.476 -29.534  1.00  0.00    -0.059 A 
HETATM   17  C   UNL     1      -0.941   8.708 -28.684  1.00  0.00     0.048 C 
HETATM   18  C   UNL     1       0.114   6.768 -29.883  1.00  0.00     0.013 A 
HETATM   19  C   UNL     1       0.040   5.603 -30.661  1.00  0.00    -0.059 A 
HETATM   20  C   UNL     1      -1.212   5.145 -31.088  1.00  0.00     0.043 A 
HETATM   21  C   UNL     1       1.293   4.848 -30.996  1.00  0.00     0.048 C 
ENDBRANCH  13  14
ENDBRANCH  11  13
ENDBRANCH   8  11
ENDBRANCH   1   7
BRANCH   3  22
HETATM   22  C   UNL     1      -6.034  -0.697 -34.007  1.00  0.00     0.181 A 
HETATM   23  O   UNL     1      -6.906  -1.585 -34.587  1.00  0.00    -0.289 OA
HETATM   24  C   UNL     1      -6.228  -2.766 -34.583  1.00  0.00     0.106 A 
HETATM   25  C   UNL     1      -4.989  -2.542 -34.008  1.00  0.00     0.093 A 
HETATM   26  C   UNL     1      -6.670  -3.993 -35.062  1.00  0.00     0.040 A 
HETATM   27  N   UNL     1      -4.878  -1.225 -33.640  1.00  0.00    -0.221 NA
HETATM   28  C   UNL     1      -4.092  -3.612 -33.893  1.00  0.00     0.034 A 
HETATM   29  C   UNL     1      -4.499  -4.869 -34.368  1.00  0.00     0.002 A 
HETATM   30  C   UNL     1      -5.764  -5.054 -34.939  1.00  0.00     0.003 A 
ENDBRANCH   3  22
TORSDOF 5
ENDMDL
MODEL 10
REMARK VINA RESULT:      -8.6      5.020      7.557
REMARK  5 active torsions:
REMARK  status: ('A' for Active; 'I' for Inactive)
REMARK    1  A    between atoms: C_4  and  O_5 
REMARK    2  A    between atoms: O_5  and  C_6 
REMARK    3  A    between atoms: C_6  and  C_7 
REMARK       I    between atoms: C_7  and  N_8 
REMARK    4  A    between atoms: N_8  and  C_9 
REMARK    5  A    between atoms: C_11  and  C_12 
ROOT
HETATM    1  C   UNL     1      -5.861   2.737 -32.495  1.00  0.00     0.035 A 
HETATM    2  C   UNL     1      -5.846   1.396 -32.896  1.00  0.00     0.045 A 
HETATM    3  C   UNL     1      -4.710   0.592 -32.695  1.00  0.00     0.019 A 
HETATM    4  C   UNL     1      -3.585   1.157 -32.078  1.00  0.00     0.016 A 
HETATM    5  C   UNL     1      -3.592   2.489 -31.669  1.00  0.00     0.003 A 
HETATM    6  C   UNL     1      -4.727   3.274 -31.877  1.00  0.00     0.029 A 
ENDROOT
BRANCH   1   7
HETATM    7  N   UNL     1      -6.964   3.595 -32.666  1.00  0.00    -0.325 N 
HETATM    8  C   UNL     1      -7.092   4.658 -33.545  1.00  0.00     0.251 C 
HETATM    9  O   UNL     1      -6.241   5.063 -34.333  1.00  0.00    -0.270 OA
HETATM   10  H   UNL     1      -7.751   3.466 -32.036  1.00  0.00     0.169 HD
BRANCH   8  11
HETATM   11  C   UNL     1      -8.489   5.298 -33.502  1.00  0.00     0.217 C 
HETATM   12  C   UNL     1      -8.409   6.599 -32.711  1.00  0.00     0.050 C 
BRANCH  11  13
HETATM   13  O   UNL     1      -8.950   5.635 -34.819  1.00  0.00    -0.337 OA
BRANCH  13  14
HETATM   14  C   UNL     1     -10.235   5.226 -35.053  1.00  0.00     0.070 A 
HETATM   15  C   UNL     1     -10.489   3.859 -34.962  1.00  0.00     0.043 A 
HETATM   16  C   UNL     1     -11.781   3.366 -35.183  1.00  0.00    -0.059 A 
HETATM   17  C   UNL     1     -12.070   1.897 -35.096  1.00  0.00     0.048 C 
HETATM   18  C   UNL     1     -12.816   4.269 -35.457  1.00  0.00     0.013 A 
HETATM   19  C   UNL     1     -12.571   5.649 -35.523  1.00  0.00    -0.059 A 
HETATM   20  C   UNL     1     -11.272   6.124 -35.310  1.00  0.00     0.043 A 
HETATM   21  C   UNL     1     -13.705   6.596 -35.789  1.00  0.00     0.048 C 
ENDBRANCH  13  14
ENDBRANCH  11  13
ENDBRANCH   8  11
ENDBRANCH   1   7
BRANCH   3  22
HETATM   22  C   UNL     1      -4.671  -0.808 -33.116  1.00  0.00     0.181 A 
HETATM   23  O   UNL     1      -3.776  -1.622 -32.466  1.00  0.00    -0.289 OA
HETATM   24  C   UNL     1      -3.953  -2.841 -33.048  1.00  0.00     0.106 A 
HETATM   25  C   UNL     1      -4.938  -2.711 -34.013  1.00  0.00     0.093 A 
HETATM   26  C   UNL     1      -3.285  -4.021 -32.751  1.00  0.00     0.040 A 
HETATM   27  N   UNL     1      -5.382  -1.413 -34.053  1.00  0.00    -0.221 NA
HETATM   28  C   UNL     1      -5.310  -3.838 -34.756  1.00  0.00     0.034 A 
HETATM   29  C   UNL     1      -4.661  -5.053 -34.485  1.00  0.00     0.002 A 
HETATM   30  C   UNL     1      -3.667  -5.140 -33.502  1.00  0.00     0.003 A 
ENDBRANCH   3  22
TORSDOF 5
ENDMDL
