MODEL 1
REMARK VINA RESULT:      -8.4      0.000      0.000
REMARK  9 active torsions:
REMARK  status: ('A' for Active; 'I' for Inactive)
REMARK    1  A    between atoms: C_2  and  N_3 
REMARK    2  A    between atoms: C_2  and  C_23 
REMARK       I    between atoms: N_3  and  C_4 
REMARK       I    between atoms: C_4  and  N_5 
REMARK    3  A    between atoms: N_5  and  C_6 
REMARK    4  A    between atoms: C_6  and  C_7 
REMARK    5  A    between atoms: C_7  and  N_8 
REMARK    6  A    between atoms: C_7  and  C_14 
REMARK    7  A    between atoms: C_16  and  O_17 
REMARK    8  A    between atoms: C_23  and  C_24 
REMARK    9  A    between atoms: C_27  and  O_28 
ROOT
HETATM    1  N   UNL     1      -8.139   1.883 -33.860  1.00  0.00    -0.339 N 
HETATM    2  C   UNL     1      -7.252   2.893 -33.751  1.00  0.00     0.316 C 
HETATM    3  N   UNL     1      -5.979   2.574 -33.398  1.00  0.00    -0.341 N 
HETATM    4  O   UNL     1      -7.590   4.045 -34.001  1.00  0.00    -0.248 OA
HETATM    5  H   UNL     1      -9.070   2.223 -34.077  1.00  0.00     0.164 HD
HETATM    6  H   UNL     1      -5.839   1.652 -33.010  1.00  0.00     0.164 HD
ENDROOT
BRANCH   3   7
HETATM    7  C   UNL     1      -5.047   3.613 -32.960  1.00  0.00     0.162 C 
BRANCH   7   8
HETATM    8  C   UNL     1      -3.658   3.089 -32.487  1.00  0.00     0.238 C 
BRANCH   8   9
HETATM    9  N   UNL     1      -3.722   2.529 -31.064  1.00  0.00    -0.061 N 
HETATM   10  H   UNL     1      -2.975   3.013 -30.547  1.00  0.00     0.280 HD
HETATM   11  C   UNL     1      -3.531   1.030 -30.953  1.00  0.00     0.236 C 
HETATM   12  C   UNL     1      -4.941   0.492 -30.854  1.00  0.00     0.029 C 
HETATM   13  C   UNL     1      -5.600   1.484 -29.923  1.00  0.00     0.029 C 
HETATM   14  C   UNL     1      -5.031   2.834 -30.334  1.00  0.00     0.236 C 
ENDBRANCH   8   9
BRANCH   8  15
HETATM   15  C   UNL     1      -2.619   4.188 -32.672  1.00  0.00    -0.023 A 
HETATM   16  C   UNL     1      -1.851   4.603 -31.563  1.00  0.00     0.046 A 
HETATM   17  C   UNL     1      -0.886   5.604 -31.696  1.00  0.00     0.068 A 
HETATM   18  C   UNL     1      -0.684   6.195 -32.943  1.00  0.00     0.037 A 
HETATM   19  C   UNL     1      -1.429   5.793 -34.051  1.00  0.00     0.003 A 
HETATM   20  C   UNL     1      -2.390   4.793 -33.919  1.00  0.00     0.009 A 
BRANCH  17  21
HETATM   21  O   UNL     1      -0.087   6.089 -30.701  1.00  0.00    -0.356 OA
HETATM   22  C   UNL     1       0.427   5.163 -29.752  1.00  0.00     0.210 C 
ENDBRANCH  17  21
ENDBRANCH   8  15
ENDBRANCH   7   8
ENDBRANCH   3   7
BRANCH   1  23
HETATM   23  C   UNL     1      -8.017   0.453 -33.559  1.00  0.00     0.086 C 
HETATM   24  C   UNL     1      -9.333  -0.081 -32.987  1.00  0.00     0.032 C 
BRANCH  23  25
HETATM   25  C   UNL     1      -7.650  -0.361 -34.820  1.00  0.00     0.063 C 
BRANCH  25  26
HETATM   26  C   UNL     1      -6.592  -1.414 -34.587  1.00  0.00    -0.056 A 
HETATM   27  C   UNL     1      -6.834  -2.753 -34.933  1.00  0.00     0.010 A 
HETATM   28  C   UNL     1      -5.843  -3.722 -34.752  1.00  0.00     0.037 A 
HETATM   29  C   UNL     1      -4.614  -3.353 -34.216  1.00  0.00     0.065 A 
HETATM   30  C   UNL     1      -4.361  -2.036 -33.857  1.00  0.00     0.037 A 
HETATM   31  C   UNL     1      -5.346  -1.065 -34.048  1.00  0.00     0.010 A 
BRANCH  29  32
HETATM   32  O   UNL     1      -3.617  -4.263 -34.032  1.00  0.00    -0.361 OA
HETATM   33  H   UNL     1      -3.488  -4.398 -33.078  1.00  0.00     0.217 HD
ENDBRANCH  29  32
ENDBRANCH  25  26
ENDBRANCH  23  25
ENDBRANCH   1  23
TORSDOF 9
ENDMDL
MODEL 2
REMARK VINA RESULT:      -8.3      2.236      7.452
REMARK  9 active torsions:
REMARK  status: ('A' for Active; 'I' for Inactive)
REMARK    1  A    between atoms: C_2  and  N_3 
REMARK    2  A    between atoms: C_2  and  C_23 
REMARK       I    between atoms: N_3  and  C_4 
REMARK       I    between atoms: C_4  and  N_5 
REMARK    3  A    between atoms: N_5  and  C_6 
REMARK    4  A    between atoms: C_6  and  C_7 
REMARK    5  A    between atoms: C_7  and  N_8 
REMARK    6  A    between atoms: C_7  and  C_14 
REMARK    7  A    between atoms: C_16  and  O_17 
REMARK    8  A    between atoms: C_23  and  C_24 
REMARK    9  A    between atoms: C_27  and  O_28 
ROOT
HETATM    1  N   UNL     1      -3.844   1.927 -30.922  1.00  0.00    -0.339 N 
HETATM    2  C   UNL     1      -3.362   0.821 -31.524  1.00  0.00     0.316 C 
HETATM    3  N   UNL     1      -3.862   0.506 -32.747  1.00  0.00    -0.341 N 
HETATM    4  O   UNL     1      -2.480   0.158 -30.990  1.00  0.00    -0.248 OA
HETATM    5  H   UNL     1      -3.450   2.052 -29.995  1.00  0.00     0.164 HD
HETATM    6  H   UNL     1      -4.719   0.970 -33.015  1.00  0.00     0.164 HD
ENDROOT
BRANCH   3   7
HETATM    7  C   UNL     1      -3.632  -0.818 -33.325  1.00  0.00     0.162 C 
BRANCH   7   8
HETATM    8  C   UNL     1      -4.912  -1.691 -33.491  1.00  0.00     0.238 C 
BRANCH   8   9
HETATM    9  N   UNL     1      -4.734  -2.751 -34.581  1.00  0.00    -0.061 N 
HETATM   10  H   UNL     1      -4.145  -2.307 -35.299  1.00  0.00     0.280 HD
HETATM   11  C   UNL     1      -6.019  -3.246 -35.213  1.00  0.00     0.236 C 
HETATM   12  C   UNL     1      -6.301  -4.543 -34.486  1.00  0.00     0.029 C 
HETATM   13  C   UNL     1      -4.929  -5.169 -34.399  1.00  0.00     0.029 C 
HETATM   14  C   UNL     1      -3.992  -4.003 -34.115  1.00  0.00     0.236 C 
ENDBRANCH   8   9
BRANCH   8  15
HETATM   15  C   UNL     1      -6.116  -0.780 -33.705  1.00  0.00    -0.023 A 
HETATM   16  C   UNL     1      -6.921  -0.432 -32.600  1.00  0.00     0.046 A 
HETATM   17  C   UNL     1      -8.028   0.404 -32.758  1.00  0.00     0.068 A 
HETATM   18  C   UNL     1      -8.335   0.897 -34.025  1.00  0.00     0.037 A 
HETATM   19  C   UNL     1      -7.548   0.568 -35.128  1.00  0.00     0.003 A 
HETATM   20  C   UNL     1      -6.441  -0.264 -34.971  1.00  0.00     0.009 A 
BRANCH  17  21
HETATM   21  O   UNL     1      -8.879   0.808 -31.770  1.00  0.00    -0.356 OA
HETATM   22  C   UNL     1      -9.500   2.080 -31.909  1.00  0.00     0.210 C 
ENDBRANCH  17  21
ENDBRANCH   8  15
ENDBRANCH   7   8
ENDBRANCH   3   7
BRANCH   1  23
HETATM   23  C   UNL     1      -4.926   2.842 -31.302  1.00  0.00     0.086 C 
HETATM   24  C   UNL     1      -6.123   2.664 -30.362  1.00  0.00     0.032 C 
BRANCH  23  25
HETATM   25  C   UNL     1      -4.464   4.315 -31.253  1.00  0.00     0.063 C 
BRANCH  25  26
HETATM   26  C   UNL     1      -3.484   4.689 -32.342  1.00  0.00    -0.056 A 
HETATM   27  C   UNL     1      -2.123   4.855 -32.045  1.00  0.00     0.010 A 
HETATM   28  C   UNL     1      -1.209   5.165 -33.056  1.00  0.00     0.037 A 
HETATM   29  C   UNL     1      -1.660   5.318 -34.362  1.00  0.00     0.065 A 
HETATM   30  C   UNL     1      -3.005   5.170 -34.673  1.00  0.00     0.037 A 
HETATM   31  C   UNL     1      -3.917   4.849 -33.666  1.00  0.00     0.010 A 
BRANCH  29  32
HETATM   32  O   UNL     1      -0.804   5.610 -35.381  1.00  0.00    -0.361 OA
HETATM   33  H   UNL     1      -0.140   4.903 -35.446  1.00  0.00     0.217 HD
ENDBRANCH  29  32
ENDBRANCH  25  26
ENDBRANCH  23  25
ENDBRANCH   1  23
TORSDOF 9
ENDMDL
MODEL 3
REMARK VINA RESULT:      -8.2      4.764      8.560
REMARK  9 active torsions:
REMARK  status: ('A' for Active; 'I' for Inactive)
REMARK    1  A    between atoms: C_2  and  N_3 
REMARK    2  A    between atoms: C_2  and  C_23 
REMARK       I    between atoms: N_3  and  C_4 
REMARK       I    between atoms: C_4  and  N_5 
REMARK    3  A    between atoms: N_5  and  C_6 
REMARK    4  A    between atoms: C_6  and  C_7 
REMARK    5  A    between atoms: C_7  and  N_8 
REMARK    6  A    between atoms: C_7  and  C_14 
REMARK    7  A    between atoms: C_16  and  O_17 
REMARK    8  A    between atoms: C_23  and  C_24 
REMARK    9  A    between atoms: C_27  and  O_28 
ROOT
HETATM    1  N   UNL     1      -7.911  -0.309 -32.571  1.00  0.00    -0.339 N 
HETATM    2  C   UNL     1      -9.088   0.305 -32.811  1.00  0.00     0.316 C 
HETATM    3  N   UNL     1      -9.046   1.550 -33.353  1.00  0.00    -0.341 N 
HETATM    4  O   UNL     1     -10.146  -0.268 -32.578  1.00  0.00    -0.248 OA
HETATM    5  H   UNL     1      -8.043  -1.209 -32.120  1.00  0.00     0.164 HD
HETATM    6  H   UNL     1      -8.154   2.026 -33.315  1.00  0.00     0.164 HD
ENDROOT
BRANCH   3   7
HETATM    7  C   UNL     1     -10.237   2.399 -33.357  1.00  0.00     0.162 C 
BRANCH   7   8
HETATM    8  C   UNL     1     -11.166   2.217 -34.594  1.00  0.00     0.238 C 
BRANCH   8   9
HETATM    9  N   UNL     1     -11.079   3.414 -35.545  1.00  0.00    -0.061 N 
HETATM   10  H   UNL     1     -10.598   3.061 -36.384  1.00  0.00     0.280 HD
HETATM   11  C   UNL     1     -10.336   4.616 -35.000  1.00  0.00     0.236 C 
HETATM   12  C   UNL     1     -11.437   5.530 -34.510  1.00  0.00     0.029 C 
HETATM   13  C   UNL     1     -12.468   5.410 -35.609  1.00  0.00     0.029 C 
HETATM   14  C   UNL     1     -12.438   3.941 -36.006  1.00  0.00     0.236 C 
ENDBRANCH   8   9
BRANCH   8  15
HETATM   15  C   UNL     1     -12.581   1.909 -34.117  1.00  0.00    -0.023 A 
HETATM   16  C   UNL     1     -13.144   2.690 -33.086  1.00  0.00     0.046 A 
HETATM   17  C   UNL     1     -14.439   2.440 -32.627  1.00  0.00     0.068 A 
HETATM   18  C   UNL     1     -15.178   1.405 -33.200  1.00  0.00     0.037 A 
HETATM   19  C   UNL     1     -14.639   0.627 -34.224  1.00  0.00     0.003 A 
HETATM   20  C   UNL     1     -13.348   0.878 -34.684  1.00  0.00     0.009 A 
BRANCH  17  21
HETATM   21  O   UNL     1     -15.089   3.122 -31.639  1.00  0.00    -0.356 OA
HETATM   22  C   UNL     1     -16.394   3.615 -31.921  1.00  0.00     0.210 C 
ENDBRANCH  17  21
ENDBRANCH   8  15
ENDBRANCH   7   8
ENDBRANCH   3   7
BRANCH   1  23
HETATM   23  C   UNL     1      -6.530   0.168 -32.691  1.00  0.00     0.086 C 
HETATM   24  C   UNL     1      -5.668  -0.420 -31.569  1.00  0.00     0.032 C 
BRANCH  23  25
HETATM   25  C   UNL     1      -5.915  -0.221 -34.054  1.00  0.00     0.063 C 
BRANCH  25  26
HETATM   26  C   UNL     1      -5.685  -1.705 -34.224  1.00  0.00    -0.056 A 
HETATM   27  C   UNL     1      -6.740  -2.547 -34.606  1.00  0.00     0.010 A 
HETATM   28  C   UNL     1      -6.521  -3.915 -34.800  1.00  0.00     0.037 A 
HETATM   29  C   UNL     1      -5.250  -4.439 -34.601  1.00  0.00     0.065 A 
HETATM   30  C   UNL     1      -4.196  -3.623 -34.210  1.00  0.00     0.037 A 
HETATM   31  C   UNL     1      -4.411  -2.256 -34.027  1.00  0.00     0.010 A 
BRANCH  29  32
HETATM   32  O   UNL     1      -4.989  -5.763 -34.787  1.00  0.00    -0.361 OA
HETATM   33  H   UNL     1      -5.335  -6.032 -35.655  1.00  0.00     0.217 HD
ENDBRANCH  29  32
ENDBRANCH  25  26
ENDBRANCH  23  25
ENDBRANCH   1  23
TORSDOF 9
ENDMDL
MODEL 4
REMARK VINA RESULT:      -8.1      3.563      7.135
REMARK  9 active torsions:
REMARK  status: ('A' for Active; 'I' for Inactive)
REMARK    1  A    between atoms: C_2  and  N_3 
REMARK    2  A    between atoms: C_2  and  C_23 
REMARK       I    between atoms: N_3  and  C_4 
REMARK       I    between atoms: C_4  and  N_5 
REMARK    3  A    between atoms: N_5  and  C_6 
REMARK    4  A    between atoms: C_6  and  C_7 
REMARK    5  A    between atoms: C_7  and  N_8 
REMARK    6  A    between atoms: C_7  and  C_14 
REMARK    7  A    between atoms: C_16  and  O_17 
REMARK    8  A    between atoms: C_23  and  C_24 
REMARK    9  A    between atoms: C_27  and  O_28 
ROOT
HETATM    1  N   UNL     1      -5.212  -0.188 -31.390  1.00  0.00    -0.339 N 
HETATM    2  C   UNL     1      -6.533  -0.052 -31.156  1.00  0.00     0.316 C 
HETATM    3  N   UNL     1      -7.334   0.209 -32.223  1.00  0.00    -0.341 N 
HETATM    4  O   UNL     1      -6.982  -0.197 -30.025  1.00  0.00    -0.248 OA
HETATM    5  H   UNL     1      -4.691  -0.330 -30.531  1.00  0.00     0.164 HD
HETATM    6  H   UNL     1      -6.871   0.521 -33.066  1.00  0.00     0.164 HD
ENDROOT
BRANCH   3   7
HETATM    7  C   UNL     1      -8.707   0.674 -32.025  1.00  0.00     0.162 C 
BRANCH   7   8
HETATM    8  C   UNL     1      -9.091   1.944 -32.840  1.00  0.00     0.238 C 
BRANCH   8   9
HETATM    9  N   UNL     1      -9.009   3.210 -31.983  1.00  0.00    -0.061 N 
HETATM   10  H   UNL     1      -9.863   3.742 -32.200  1.00  0.00     0.280 HD
HETATM   11  C   UNL     1      -7.792   4.078 -32.232  1.00  0.00     0.236 C 
HETATM   12  C   UNL     1      -6.837   3.686 -31.127  1.00  0.00     0.029 C 
HETATM   13  C   UNL     1      -7.755   3.579 -29.931  1.00  0.00     0.029 C 
HETATM   14  C   UNL     1      -9.025   2.943 -30.478  1.00  0.00     0.236 C 
ENDBRANCH   8   9
BRANCH   8  15
HETATM   15  C   UNL     1     -10.452   1.728 -33.493  1.00  0.00    -0.023 A 
HETATM   16  C   UNL     1     -10.960   2.712 -34.367  1.00  0.00     0.046 A 
HETATM   17  C   UNL     1     -12.201   2.546 -34.986  1.00  0.00     0.068 A 
HETATM   18  C   UNL     1     -12.940   1.391 -34.733  1.00  0.00     0.037 A 
HETATM   19  C   UNL     1     -12.451   0.406 -33.876  1.00  0.00     0.003 A 
HETATM   20  C   UNL     1     -11.213   0.570 -33.260  1.00  0.00     0.009 A 
BRANCH  17  21
HETATM   21  O   UNL     1     -12.796   3.424 -35.846  1.00  0.00    -0.356 OA
HETATM   22  C   UNL     1     -12.635   4.814 -35.590  1.00  0.00     0.210 C 
ENDBRANCH  17  21
ENDBRANCH   8  15
ENDBRANCH   7   8
ENDBRANCH   3   7
BRANCH   1  23
HETATM   23  C   UNL     1      -4.421  -0.000 -32.611  1.00  0.00     0.086 C 
HETATM   24  C   UNL     1      -3.443   1.165 -32.433  1.00  0.00     0.032 C 
BRANCH  23  25
HETATM   25  C   UNL     1      -3.625  -1.275 -32.970  1.00  0.00     0.063 C 
BRANCH  25  26
HETATM   26  C   UNL     1      -4.440  -2.328 -33.685  1.00  0.00    -0.056 A 
HETATM   27  C   UNL     1      -4.007  -3.663 -33.712  1.00  0.00     0.010 A 
HETATM   28  C   UNL     1      -4.777  -4.646 -34.341  1.00  0.00     0.037 A 
HETATM   29  C   UNL     1      -5.974  -4.290 -34.951  1.00  0.00     0.065 A 
HETATM   30  C   UNL     1      -6.413  -2.973 -34.945  1.00  0.00     0.037 A 
HETATM   31  C   UNL     1      -5.650  -1.993 -34.307  1.00  0.00     0.010 A 
BRANCH  29  32
HETATM   32  O   UNL     1      -6.761  -5.217 -35.567  1.00  0.00    -0.361 OA
HETATM   33  H   UNL     1      -6.194  -5.832 -36.061  1.00  0.00     0.217 HD
ENDBRANCH  29  32
ENDBRANCH  25  26
ENDBRANCH  23  25
ENDBRANCH   1  23
TORSDOF 9
ENDMDL
MODEL 5
REMARK VINA RESULT:      -8.0      1.771      2.340
REMARK  9 active torsions:
REMARK  status: ('A' for Active; 'I' for Inactive)
REMARK    1  A    between atoms: C_2  and  N_3 
REMARK    2  A    between atoms: C_2  and  C_23 
REMARK       I    between atoms: N_3  and  C_4 
REMARK       I    between atoms: C_4  and  N_5 
REMARK    3  A    between atoms: N_5  and  C_6 
REMARK    4  A    between atoms: C_6  and  C_7 
REMARK    5  A    between atoms: C_7  and  N_8 
REMARK    6  A    between atoms: C_7  and  C_14 
REMARK    7  A    between atoms: C_16  and  O_17 
REMARK    8  A    between atoms: C_23  and  C_24 
REMARK    9  A    between atoms: C_27  and  O_28 
ROOT
HETATM    1  N   UNL     1      -6.834  -0.214 -32.111  1.00  0.00    -0.339 N 
HETATM    2  C   UNL     1      -5.738   0.391 -31.612  1.00  0.00     0.316 C 
HETATM    3  N   UNL     1      -5.091   1.277 -32.414  1.00  0.00    -0.341 N 
HETATM    4  O   UNL     1      -5.375   0.168 -30.463  1.00  0.00    -0.248 OA
HETATM    5  H   UNL     1      -7.218  -0.892 -31.461  1.00  0.00     0.164 HD
HETATM    6  H   UNL     1      -5.322   1.243 -33.398  1.00  0.00     0.164 HD
ENDROOT
BRANCH   3   7
HETATM    7  C   UNL     1      -3.743   1.736 -32.079  1.00  0.00     0.162 C 
BRANCH   7   8
HETATM    8  C   UNL     1      -3.682   3.122 -31.369  1.00  0.00     0.238 C 
BRANCH   8   9
HETATM    9  N   UNL     1      -5.080   3.713 -31.166  1.00  0.00    -0.061 N 
HETATM   10  H   UNL     1      -5.699   3.166 -31.780  1.00  0.00     0.280 HD
HETATM   11  C   UNL     1      -5.210   5.186 -31.494  1.00  0.00     0.236 C 
HETATM   12  C   UNL     1      -5.106   5.866 -30.146  1.00  0.00     0.029 C 
HETATM   13  C   UNL     1      -5.940   4.965 -29.266  1.00  0.00     0.029 C 
HETATM   14  C   UNL     1      -5.619   3.556 -29.744  1.00  0.00     0.236 C 
ENDBRANCH   8   9
BRANCH   8  15
HETATM   15  C   UNL     1      -2.731   4.035 -32.135  1.00  0.00    -0.023 A 
HETATM   16  C   UNL     1      -1.736   4.742 -31.426  1.00  0.00     0.046 A 
HETATM   17  C   UNL     1      -0.845   5.583 -32.095  1.00  0.00     0.068 A 
HETATM   18  C   UNL     1      -0.945   5.722 -33.479  1.00  0.00     0.037 A 
HETATM   19  C   UNL     1      -1.919   5.027 -34.196  1.00  0.00     0.003 A 
HETATM   20  C   UNL     1      -2.807   4.186 -33.530  1.00  0.00     0.009 A 
BRANCH  17  21
HETATM   21  O   UNL     1       0.154   6.316 -31.522  1.00  0.00    -0.356 OA
HETATM   22  C   UNL     1      -0.145   7.020 -30.322  1.00  0.00     0.210 C 
ENDBRANCH  17  21
ENDBRANCH   8  15
ENDBRANCH   7   8
ENDBRANCH   3   7
BRANCH   1  23
HETATM   23  C   UNL     1      -7.433  -0.179 -33.450  1.00  0.00     0.086 C 
HETATM   24  C   UNL     1      -7.998   1.214 -33.741  1.00  0.00     0.032 C 
BRANCH  23  25
HETATM   25  C   UNL     1      -6.399  -0.539 -34.540  1.00  0.00     0.063 C 
BRANCH  25  26
HETATM   26  C   UNL     1      -5.950  -1.982 -34.511  1.00  0.00    -0.056 A 
HETATM   27  C   UNL     1      -6.843  -3.011 -34.850  1.00  0.00     0.010 A 
HETATM   28  C   UNL     1      -6.420  -4.343 -34.859  1.00  0.00     0.037 A 
HETATM   29  C   UNL     1      -5.107  -4.646 -34.517  1.00  0.00     0.065 A 
HETATM   30  C   UNL     1      -4.213  -3.643 -34.167  1.00  0.00     0.037 A 
HETATM   31  C   UNL     1      -4.631  -2.312 -34.169  1.00  0.00     0.010 A 
BRANCH  29  32
HETATM   32  O   UNL     1      -4.649  -5.929 -34.522  1.00  0.00    -0.361 OA
HETATM   33  H   UNL     1      -3.689  -5.920 -34.363  1.00  0.00     0.217 HD
ENDBRANCH  29  32
ENDBRANCH  25  26
ENDBRANCH  23  25
ENDBRANCH   1  23
TORSDOF 9
ENDMDL
MODEL 6
REMARK VINA RESULT:      -8.0      2.811      5.272
REMARK  9 active torsions:
REMARK  status: ('A' for Active; 'I' for Inactive)
REMARK    1  A    between atoms: C_2  and  N_3 
REMARK    2  A    between atoms: C_2  and  C_23 
REMARK       I    between atoms: N_3  and  C_4 
REMARK       I    between atoms: C_4  and  N_5 
REMARK    3  A    between atoms: N_5  and  C_6 
REMARK    4  A    between atoms: C_6  and  C_7 
REMARK    5  A    between atoms: C_7  and  N_8 
REMARK    6  A    between atoms: C_7  and  C_14 
REMARK    7  A    between atoms: C_16  and  O_17 
REMARK    8  A    between atoms: C_23  and  C_24 
REMARK    9  A    between atoms: C_27  and  O_28 
ROOT
HETATM    1  N   UNL     1      -5.235  -0.039 -31.458  1.00  0.00    -0.339 N 
HETATM    2  C   UNL     1      -6.518   0.050 -31.053  1.00  0.00     0.316 C 
HETATM    3  N   UNL     1      -7.433   0.476 -31.962  1.00  0.00    -0.341 N 
HETATM    4  O   UNL     1      -6.834  -0.281 -29.916  1.00  0.00    -0.248 OA
HETATM    5  H   UNL     1      -4.620  -0.316 -30.700  1.00  0.00     0.164 HD
HETATM    6  H   UNL     1      -7.067   0.924 -32.791  1.00  0.00     0.164 HD
ENDROOT
BRANCH   3   7
HETATM    7  C   UNL     1      -8.768   0.894 -31.533  1.00  0.00     0.162 C 
BRANCH   7   8
HETATM    8  C   UNL     1      -9.207   2.301 -32.037  1.00  0.00     0.238 C 
BRANCH   8   9
HETATM    9  N   UNL     1      -9.953   2.214 -33.371  1.00  0.00    -0.061 N 
HETATM   10  H   UNL     1      -9.229   2.319 -34.095  1.00  0.00     0.280 HD
HETATM   11  C   UNL     1     -11.032   3.258 -33.574  1.00  0.00     0.236 C 
HETATM   12  C   UNL     1     -12.308   2.532 -33.211  1.00  0.00     0.029 C 
HETATM   13  C   UNL     1     -12.101   1.177 -33.848  1.00  0.00     0.029 C 
HETATM   14  C   UNL     1     -10.629   0.866 -33.617  1.00  0.00     0.236 C 
ENDBRANCH   8   9
BRANCH   8  15
HETATM   15  C   UNL     1      -7.993   3.224 -32.067  1.00  0.00    -0.023 A 
HETATM   16  C   UNL     1      -7.446   3.601 -33.312  1.00  0.00     0.046 A 
HETATM   17  C   UNL     1      -6.339   4.448 -33.379  1.00  0.00     0.068 A 
HETATM   18  C   UNL     1      -5.771   4.923 -32.197  1.00  0.00     0.037 A 
HETATM   19  C   UNL     1      -6.302   4.566 -30.958  1.00  0.00     0.003 A 
HETATM   20  C   UNL     1      -7.409   3.722 -30.891  1.00  0.00     0.009 A 
BRANCH  17  21
HETATM   21  O   UNL     1      -5.722   4.880 -34.518  1.00  0.00    -0.356 OA
HETATM   22  C   UNL     1      -4.309   5.043 -34.486  1.00  0.00     0.210 C 
ENDBRANCH  17  21
ENDBRANCH   8  15
ENDBRANCH   7   8
ENDBRANCH   3   7
BRANCH   1  23
HETATM   23  C   UNL     1      -4.589   0.350 -32.716  1.00  0.00     0.086 C 
HETATM   24  C   UNL     1      -3.661   1.547 -32.485  1.00  0.00     0.032 C 
BRANCH  23  25
HETATM   25  C   UNL     1      -3.767  -0.814 -33.313  1.00  0.00     0.063 C 
BRANCH  25  26
HETATM   26  C   UNL     1      -4.609  -1.950 -33.847  1.00  0.00    -0.056 A 
HETATM   27  C   UNL     1      -5.898  -1.706 -34.345  1.00  0.00     0.010 A 
HETATM   28  C   UNL     1      -6.663  -2.750 -34.874  1.00  0.00     0.037 A 
HETATM   29  C   UNL     1      -6.143  -4.039 -34.893  1.00  0.00     0.065 A 
HETATM   30  C   UNL     1      -4.875  -4.301 -34.392  1.00  0.00     0.037 A 
HETATM   31  C   UNL     1      -4.105  -3.259 -33.875  1.00  0.00     0.010 A 
BRANCH  29  32
HETATM   32  O   UNL     1      -6.850  -5.084 -35.406  1.00  0.00    -0.361 OA
HETATM   33  H   UNL     1      -6.870  -5.802 -34.751  1.00  0.00     0.217 HD
ENDBRANCH  29  32
ENDBRANCH  25  26
ENDBRANCH  23  25
ENDBRANCH   1  23
TORSDOF 9
ENDMDL
MODEL 7
REMARK VINA RESULT:      -7.9      2.419      5.818
REMARK  9 active torsions:
REMARK  status: ('A' for Active; 'I' for Inactive)
REMARK    1  A    between atoms: C_2  and  N_3 
REMARK    2  A    between atoms: C_2  and  C_23 
REMARK       I    between atoms: N_3  and  C_4 
REMARK       I    between atoms: C_4  and  N_5 
REMARK    3  A    between atoms: N_5  and  C_6 
REMARK    4  A    between atoms: C_6  and  C_7 
REMARK    5  A    between atoms: C_7  and  N_8 
REMARK    6  A    between atoms: C_7  and  C_14 
REMARK    7  A    between atoms: C_16  and  O_17 
REMARK    8  A    between atoms: C_23  and  C_24 
REMARK    9  A    between atoms: C_27  and  O_28 
ROOT
HETATM    1  N   UNL     1      -3.518  -1.441 -32.699  1.00  0.00    -0.339 N 
HETATM    2  C   UNL     1      -3.227  -0.262 -32.113  1.00  0.00     0.316 C 
HETATM    3  N   UNL     1      -3.986   0.812 -32.455  1.00  0.00    -0.341 N 
HETATM    4  O   UNL     1      -2.334  -0.188 -31.277  1.00  0.00    -0.248 OA
HETATM    5  H   UNL     1      -2.869  -2.169 -32.420  1.00  0.00     0.164 HD
HETATM    6  H   UNL     1      -4.547   0.717 -33.291  1.00  0.00     0.164 HD
ENDROOT
BRANCH   3   7
HETATM    7  C   UNL     1      -3.552   2.167 -32.115  1.00  0.00     0.162 C 
BRANCH   7   8
HETATM    8  C   UNL     1      -4.426   3.306 -32.721  1.00  0.00     0.238 C 
BRANCH   8   9
HETATM    9  N   UNL     1      -3.648   4.620 -32.822  1.00  0.00    -0.061 N 
HETATM   10  H   UNL     1      -3.748   5.068 -31.901  1.00  0.00     0.280 HD
HETATM   11  C   UNL     1      -4.124   5.568 -33.904  1.00  0.00     0.236 C 
HETATM   12  C   UNL     1      -3.168   5.317 -35.049  1.00  0.00     0.029 C 
HETATM   13  C   UNL     1      -1.838   5.203 -34.341  1.00  0.00     0.029 C 
HETATM   14  C   UNL     1      -2.149   4.437 -33.062  1.00  0.00     0.236 C 
ENDBRANCH   8   9
BRANCH   8  15
HETATM   15  C   UNL     1      -5.724   3.416 -31.928  1.00  0.00    -0.023 A 
HETATM   16  C   UNL     1      -6.934   3.644 -32.618  1.00  0.00     0.046 A 
HETATM   17  C   UNL     1      -8.142   3.745 -31.926  1.00  0.00     0.068 A 
HETATM   18  C   UNL     1      -8.146   3.620 -30.537  1.00  0.00     0.037 A 
HETATM   19  C   UNL     1      -6.960   3.390 -29.839  1.00  0.00     0.003 A 
HETATM   20  C   UNL     1      -5.755   3.286 -30.530  1.00  0.00     0.009 A 
BRANCH  17  21
HETATM   21  O   UNL     1      -9.371   3.964 -32.479  1.00  0.00    -0.356 OA
HETATM   22  C   UNL     1     -10.515   3.555 -31.738  1.00  0.00     0.210 C 
ENDBRANCH  17  21
ENDBRANCH   8  15
ENDBRANCH   7   8
ENDBRANCH   3   7
BRANCH   1  23
HETATM   23  C   UNL     1      -4.471  -1.784 -33.760  1.00  0.00     0.086 C 
HETATM   24  C   UNL     1      -4.044  -3.080 -34.456  1.00  0.00     0.032 C 
BRANCH  23  25
HETATM   25  C   UNL     1      -5.900  -1.962 -33.199  1.00  0.00     0.063 C 
BRANCH  25  26
HETATM   26  C   UNL     1      -6.870  -0.887 -33.630  1.00  0.00    -0.056 A 
HETATM   27  C   UNL     1      -6.721  -0.254 -34.874  1.00  0.00     0.010 A 
HETATM   28  C   UNL     1      -7.638   0.716 -35.291  1.00  0.00     0.037 A 
HETATM   29  C   UNL     1      -8.697   1.059 -34.459  1.00  0.00     0.065 A 
HETATM   30  C   UNL     1      -8.853   0.453 -33.220  1.00  0.00     0.037 A 
HETATM   31  C   UNL     1      -7.945  -0.524 -32.807  1.00  0.00     0.010 A 
BRANCH  29  32
HETATM   32  O   UNL     1      -9.619   1.991 -34.828  1.00  0.00    -0.361 OA
HETATM   33  H   UNL     1      -9.830   1.868 -35.769  1.00  0.00     0.217 HD
ENDBRANCH  29  32
ENDBRANCH  25  26
ENDBRANCH  23  25
ENDBRANCH   1  23
TORSDOF 9
ENDMDL
MODEL 8
REMARK VINA RESULT:      -7.8      1.689      8.115
REMARK  9 active torsions:
REMARK  status: ('A' for Active; 'I' for Inactive)
REMARK    1  A    between atoms: C_2  and  N_3 
REMARK    2  A    between atoms: C_2  and  C_23 
REMARK       I    between atoms: N_3  and  C_4 
REMARK       I    between atoms: C_4  and  N_5 
REMARK    3  A    between atoms: N_5  and  C_6 
REMARK    4  A    between atoms: C_6  and  C_7 
REMARK    5  A    between atoms: C_7  and  N_8 
REMARK    6  A    between atoms: C_7  and  C_14 
REMARK    7  A    between atoms: C_16  and  O_17 
REMARK    8  A    between atoms: C_23  and  C_24 
REMARK    9  A    between atoms: C_27  and  O_28 
ROOT
HETATM    1  N   UNL     1      -3.119   4.600 -32.340  1.00  0.00    -0.339 N 
HETATM    2  C   UNL     1      -3.804   3.554 -31.835  1.00  0.00     0.316 C 
HETATM    3  N   UNL     1      -3.811   2.402 -32.557  1.00  0.00    -0.341 N 
HETATM    4  O   UNL     1      -4.362   3.644 -30.747  1.00  0.00    -0.248 OA
HETATM    5  H   UNL     1      -3.213   5.426 -31.758  1.00  0.00     0.164 HD
HETATM    6  H   UNL     1      -3.516   2.476 -33.521  1.00  0.00     0.164 HD
ENDROOT
BRANCH   3   7
HETATM    7  C   UNL     1      -4.766   1.338 -32.249  1.00  0.00     0.162 C 
BRANCH   7   8
HETATM    8  C   UNL     1      -5.831   1.074 -33.355  1.00  0.00     0.238 C 
BRANCH   8   9
HETATM    9  N   UNL     1      -7.229   1.512 -32.907  1.00  0.00    -0.061 N 
HETATM   10  H   UNL     1      -7.843   0.712 -33.112  1.00  0.00     0.280 HD
HETATM   11  C   UNL     1      -7.763   2.754 -33.591  1.00  0.00     0.236 C 
HETATM   12  C   UNL     1      -7.479   3.861 -32.600  1.00  0.00     0.029 C 
HETATM   13  C   UNL     1      -7.841   3.216 -31.282  1.00  0.00     0.029 C 
HETATM   14  C   UNL     1      -7.343   1.783 -31.407  1.00  0.00     0.236 C 
ENDBRANCH   8   9
BRANCH   8  15
HETATM   15  C   UNL     1      -5.752  -0.385 -33.789  1.00  0.00    -0.023 A 
HETATM   16  C   UNL     1      -4.638  -1.159 -33.399  1.00  0.00     0.046 A 
HETATM   17  C   UNL     1      -4.534  -2.500 -33.774  1.00  0.00     0.068 A 
HETATM   18  C   UNL     1      -5.545  -3.074 -34.543  1.00  0.00     0.037 A 
HETATM   19  C   UNL     1      -6.656  -2.326 -34.933  1.00  0.00     0.003 A 
HETATM   20  C   UNL     1      -6.762  -0.989 -34.557  1.00  0.00     0.009 A 
BRANCH  17  21
HETATM   21  O   UNL     1      -3.509  -3.346 -33.462  1.00  0.00    -0.356 OA
HETATM   22  C   UNL     1      -3.731  -4.743 -33.617  1.00  0.00     0.210 C 
ENDBRANCH  17  21
ENDBRANCH   8  15
ENDBRANCH   7   8
ENDBRANCH   3   7
BRANCH   1  23
HETATM   23  C   UNL     1      -2.434   4.777 -33.624  1.00  0.00     0.086 C 
HETATM   24  C   UNL     1      -3.425   5.252 -34.691  1.00  0.00     0.032 C 
BRANCH  23  25
HETATM   25  C   UNL     1      -1.285   5.805 -33.514  1.00  0.00     0.063 C 
BRANCH  25  26
HETATM   26  C   UNL     1      -0.787   6.022 -32.104  1.00  0.00    -0.056 A 
HETATM   27  C   UNL     1      -1.096   7.205 -31.415  1.00  0.00     0.010 A 
HETATM   28  C   UNL     1      -0.668   7.393 -30.098  1.00  0.00     0.037 A 
HETATM   29  C   UNL     1       0.080   6.400 -29.474  1.00  0.00     0.065 A 
HETATM   30  C   UNL     1       0.406   5.229 -30.143  1.00  0.00     0.037 A 
HETATM   31  C   UNL     1      -0.031   5.035 -31.455  1.00  0.00     0.010 A 
BRANCH  29  32
HETATM   32  O   UNL     1       0.510   6.536 -28.188  1.00  0.00    -0.361 OA
HETATM   33  H   UNL     1       0.654   5.652 -27.811  1.00  0.00     0.217 HD
ENDBRANCH  29  32
ENDBRANCH  25  26
ENDBRANCH  23  25
ENDBRANCH   1  23
TORSDOF 9
ENDMDL
MODEL 9
REMARK VINA RESULT:      -7.8      2.601      9.034
REMARK  9 active torsions:
REMARK  status: ('A' for Active; 'I' for Inactive)
REMARK    1  A    between atoms: C_2  and  N_3 
REMARK    2  A    between atoms: C_2  and  C_23 
REMARK       I    between atoms: N_3  and  C_4 
REMARK       I    between atoms: C_4  and  N_5 
REMARK    3  A    between atoms: N_5  and  C_6 
REMARK    4  A    between atoms: C_6  and  C_7 
REMARK    5  A    between atoms: C_7  and  N_8 
REMARK    6  A    between atoms: C_7  and  C_14 
REMARK    7  A    between atoms: C_16  and  O_17 
REMARK    8  A    between atoms: C_23  and  C_24 
REMARK    9  A    between atoms: C_27  and  O_28 
ROOT
HETATM    1  N   UNL     1      -1.280   5.123 -31.913  1.00  0.00    -0.339 N 
HETATM    2  C   UNL     1      -2.221   4.235 -32.292  1.00  0.00     0.316 C 
HETATM    3  N   UNL     1      -2.746   3.429 -31.332  1.00  0.00    -0.341 N 
HETATM    4  O   UNL     1      -2.604   4.195 -33.456  1.00  0.00    -0.248 OA
HETATM    5  H   UNL     1      -0.914   5.642 -32.704  1.00  0.00     0.164 HD
HETATM    6  H   UNL     1      -2.234   3.378 -30.461  1.00  0.00     0.164 HD
ENDROOT
BRANCH   3   7
HETATM    7  C   UNL     1      -3.527   2.248 -31.698  1.00  0.00     0.162 C 
BRANCH   7   8
HETATM    8  C   UNL     1      -5.054   2.504 -31.878  1.00  0.00     0.238 C 
BRANCH   8   9
HETATM    9  N   UNL     1      -5.797   2.442 -30.541  1.00  0.00    -0.061 N 
HETATM   10  H   UNL     1      -5.230   1.827 -29.942  1.00  0.00     0.280 HD
HETATM   11  C   UNL     1      -7.215   1.914 -30.617  1.00  0.00     0.236 C 
HETATM   12  C   UNL     1      -8.065   3.165 -30.635  1.00  0.00     0.029 C 
HETATM   13  C   UNL     1      -7.381   4.035 -29.607  1.00  0.00     0.029 C 
HETATM   14  C   UNL     1      -5.895   3.788 -29.823  1.00  0.00     0.236 C 
ENDBRANCH   8   9
BRANCH   8  15
HETATM   15  C   UNL     1      -5.600   1.549 -32.933  1.00  0.00    -0.023 A 
HETATM   16  C   UNL     1      -5.220   0.190 -32.895  1.00  0.00     0.046 A 
HETATM   17  C   UNL     1      -5.705  -0.714 -33.841  1.00  0.00     0.068 A 
HETATM   18  C   UNL     1      -6.575  -0.263 -34.833  1.00  0.00     0.037 A 
HETATM   19  C   UNL     1      -6.966   1.075 -34.883  1.00  0.00     0.003 A 
HETATM   20  C   UNL     1      -6.484   1.977 -33.937  1.00  0.00     0.009 A 
BRANCH  17  21
HETATM   21  O   UNL     1      -5.409  -2.046 -33.908  1.00  0.00    -0.356 OA
HETATM   22  C   UNL     1      -4.126  -2.463 -33.457  1.00  0.00     0.210 C 
ENDBRANCH  17  21
ENDBRANCH   8  15
ENDBRANCH   7   8
ENDBRANCH   3   7
BRANCH   1  23
HETATM   23  C   UNL     1      -0.607   5.328 -30.626  1.00  0.00     0.086 C 
HETATM   24  C   UNL     1       0.885   5.007 -30.753  1.00  0.00     0.032 C 
BRANCH  23  25
HETATM   25  C   UNL     1      -0.768   6.783 -30.131  1.00  0.00     0.063 C 
BRANCH  25  26
HETATM   26  C   UNL     1      -0.022   7.084 -28.851  1.00  0.00    -0.056 A 
HETATM   27  C   UNL     1       0.956   8.089 -28.818  1.00  0.00     0.010 A 
HETATM   28  C   UNL     1       1.621   8.394 -27.627  1.00  0.00     0.037 A 
HETATM   29  C   UNL     1       1.314   7.684 -26.471  1.00  0.00     0.065 A 
HETATM   30  C   UNL     1       0.358   6.677 -26.488  1.00  0.00     0.037 A 
HETATM   31  C   UNL     1      -0.315   6.380 -27.674  1.00  0.00     0.010 A 
BRANCH  29  32
HETATM   32  O   UNL     1       1.929   7.953 -25.286  1.00  0.00    -0.361 OA
HETATM   33  H   UNL     1       1.284   7.847 -24.566  1.00  0.00     0.217 HD
ENDBRANCH  29  32
ENDBRANCH  25  26
ENDBRANCH  23  25
ENDBRANCH   1  23
TORSDOF 9
ENDMDL
MODEL 10
REMARK VINA RESULT:      -7.7      1.859      3.901
REMARK  9 active torsions:
REMARK  status: ('A' for Active; 'I' for Inactive)
REMARK    1  A    between atoms: C_2  and  N_3 
REMARK    2  A    between atoms: C_2  and  C_23 
REMARK       I    between atoms: N_3  and  C_4 
REMARK       I    between atoms: C_4  and  N_5 
REMARK    3  A    between atoms: N_5  and  C_6 
REMARK    4  A    between atoms: C_6  and  C_7 
REMARK    5  A    between atoms: C_7  and  N_8 
REMARK    6  A    between atoms: C_7  and  C_14 
REMARK    7  A    between atoms: C_16  and  O_17 
REMARK    8  A    between atoms: C_23  and  C_24 
REMARK    9  A    between atoms: C_27  and  O_28 
ROOT
HETATM    1  N   UNL     1      -8.131   2.800 -33.693  1.00  0.00    -0.339 N 
HETATM    2  C   UNL     1      -7.378   3.860 -34.053  1.00  0.00     0.316 C 
HETATM    3  N   UNL     1      -6.045   3.653 -34.222  1.00  0.00    -0.341 N 
HETATM    4  O   UNL     1      -7.898   4.951 -34.254  1.00  0.00    -0.248 OA
HETATM    5  H   UNL     1      -9.099   3.062 -33.543  1.00  0.00     0.164 HD
HETATM    6  H   UNL     1      -5.673   2.796 -33.837  1.00  0.00     0.164 HD
ENDROOT
BRANCH   3   7
HETATM    7  C   UNL     1      -5.123   4.785 -34.304  1.00  0.00     0.162 C 
BRANCH   7   8
HETATM    8  C   UNL     1      -4.127   4.905 -33.112  1.00  0.00     0.238 C 
BRANCH   8   9
HETATM    9  N   UNL     1      -2.709   4.496 -33.518  1.00  0.00    -0.061 N 
HETATM   10  H   UNL     1      -2.739   3.472 -33.618  1.00  0.00     0.280 HD
HETATM   11  C   UNL     1      -1.621   4.880 -32.536  1.00  0.00     0.236 C 
HETATM   12  C   UNL     1      -1.045   6.153 -33.115  1.00  0.00     0.029 C 
HETATM   13  C   UNL     1      -0.987   5.838 -34.592  1.00  0.00     0.029 C 
HETATM   14  C   UNL     1      -2.264   5.057 -34.869  1.00  0.00     0.236 C 
ENDBRANCH   8   9
BRANCH   8  15
HETATM   15  C   UNL     1      -4.676   4.128 -31.920  1.00  0.00    -0.023 A 
HETATM   16  C   UNL     1      -5.432   4.811 -30.943  1.00  0.00     0.046 A 
HETATM   17  C   UNL     1      -5.955   4.131 -29.841  1.00  0.00     0.068 A 
HETATM   18  C   UNL     1      -5.723   2.762 -29.711  1.00  0.00     0.037 A 
HETATM   19  C   UNL     1      -4.983   2.071 -30.670  1.00  0.00     0.003 A 
HETATM   20  C   UNL     1      -4.464   2.748 -31.771  1.00  0.00     0.009 A 
BRANCH  17  21
HETATM   21  O   UNL     1      -6.696   4.680 -28.834  1.00  0.00    -0.356 OA
HETATM   22  C   UNL     1      -6.100   5.713 -28.059  1.00  0.00     0.210 C 
ENDBRANCH  17  21
ENDBRANCH   8  15
ENDBRANCH   7   8
ENDBRANCH   3   7
BRANCH   1  23
HETATM   23  C   UNL     1      -7.759   1.428 -33.331  1.00  0.00     0.086 C 
HETATM   24  C   UNL     1      -8.830   0.812 -32.426  1.00  0.00     0.032 C 
BRANCH  23  25
HETATM   25  C   UNL     1      -7.589   0.540 -34.584  1.00  0.00     0.063 C 
BRANCH  25  26
HETATM   26  C   UNL     1      -6.617  -0.602 -34.401  1.00  0.00    -0.056 A 
HETATM   27  C   UNL     1      -6.925  -1.882 -34.889  1.00  0.00     0.010 A 
HETATM   28  C   UNL     1      -6.012  -2.932 -34.753  1.00  0.00     0.037 A 
HETATM   29  C   UNL     1      -4.796  -2.703 -34.119  1.00  0.00     0.065 A 
HETATM   30  C   UNL     1      -4.479  -1.447 -33.619  1.00  0.00     0.037 A 
HETATM   31  C   UNL     1      -5.385  -0.395 -33.764  1.00  0.00     0.010 A 
BRANCH  29  32
HETATM   32  O   UNL     1      -3.872  -3.694 -33.973  1.00  0.00    -0.361 OA
HETATM   33  H   UNL     1      -4.335  -4.529 -33.788  1.00  0.00     0.217 HD
ENDBRANCH  29  32
ENDBRANCH  25  26
ENDBRANCH  23  25
ENDBRANCH   1  23
TORSDOF 9
ENDMDL
