MODEL 1
REMARK VINA RESULT:      -9.4      0.000      0.000
REMARK  4 active torsions:
REMARK  status: ('A' for Active; 'I' for Inactive)
REMARK    1  A    between atoms: C_7  and  C_8 
REMARK    2  A    between atoms: C_10  and  O_11 
REMARK    3  A    between atoms: C_17  and  C_18 
REMARK    4  A    between atoms: C_25  and  C_26 
REMARK       I    between atoms: C_26  and  N_27 
ROOT
HETATM    1  C   UNL     1     -10.175   2.514 -34.249  1.00  0.00     0.070 C 
HETATM    2  C   UNL     1      -8.739   2.312 -33.834  1.00  0.00     0.037 C 
HETATM    3  N   UNL     1      -7.819   3.202 -34.388  1.00  0.00    -0.192 N 
HETATM    4  C   UNL     1      -6.546   3.295 -33.959  1.00  0.00     0.726 A 
HETATM    5  N   UNL     1      -6.069   2.358 -33.093  1.00  0.00    -0.083 N 
HETATM    6  N   UNL     1      -4.819   2.645 -32.684  1.00  0.00    -0.135 NA
HETATM    7  C   UNL     1      -4.557   3.755 -33.403  1.00  0.00     0.199 A 
HETATM    8  N   UNL     1      -5.613   4.180 -34.194  1.00  0.00    -0.041 NA
HETATM    9  C   UNL     1      -6.833   1.190 -32.650  1.00  0.00     0.202 C 
HETATM   10  C   UNL     1      -8.315   1.340 -32.981  1.00  0.00     0.062 C 
HETATM   11  H   UNL     1      -8.196   3.972 -34.937  1.00  0.00     0.184 HD
ENDROOT
BRANCH   7  12
HETATM   12  C   UNL     1      -3.280   4.465 -33.361  1.00  0.00     0.017 A 
HETATM   13  C   UNL     1      -2.417   4.300 -32.265  1.00  0.00     0.052 A 
HETATM   14  C   UNL     1      -1.196   4.979 -32.211  1.00  0.00     0.069 A 
HETATM   15  C   UNL     1      -0.836   5.823 -33.264  1.00  0.00     0.037 A 
HETATM   16  C   UNL     1      -1.681   5.996 -34.358  1.00  0.00     0.004 A 
HETATM   17  C   UNL     1      -2.899   5.319 -34.406  1.00  0.00     0.015 A 
BRANCH  14  18
HETATM   18  O   UNL     1      -0.278   4.903 -31.201  1.00  0.00    -0.356 OA
HETATM   19  C   UNL     1       0.307   6.126 -30.771  1.00  0.00     0.210 C 
ENDBRANCH  14  18
ENDBRANCH   7  12
BRANCH   9  20
HETATM   20  C   UNL     1      -6.187  -0.065 -33.246  1.00  0.00    -0.028 A 
HETATM   21  C   UNL     1      -6.739  -0.645 -34.404  1.00  0.00     0.012 A 
HETATM   22  C   UNL     1      -6.176  -1.796 -34.960  1.00  0.00     0.043 A 
HETATM   23  C   UNL     1      -5.066  -2.376 -34.360  1.00  0.00     0.116 A 
HETATM   24  F   UNL     1      -4.526  -3.478 -34.895  1.00  0.00    -0.206 F 
HETATM   25  C   UNL     1      -4.512  -1.832 -33.208  1.00  0.00     0.043 A 
HETATM   26  C   UNL     1      -5.073  -0.684 -32.646  1.00  0.00     0.012 A 
ENDBRANCH   9  20
BRANCH  10  27
HETATM   27  C   UNL     1      -9.294   0.519 -32.218  1.00  0.00     0.249 C 
HETATM   28  N   UNL     1      -9.494   0.836 -30.913  1.00  0.00    -0.366 N 
HETATM   29  H   UNL     1      -8.915   1.459 -30.369  1.00  0.00     0.159 HD
HETATM   30  H   UNL     1     -10.131   0.238 -30.401  1.00  0.00     0.159 HD
HETATM   31  O   UNL     1      -9.935  -0.392 -32.727  1.00  0.00    -0.268 OA
ENDBRANCH  10  27
TORSDOF 4
ENDMDL
MODEL 2
REMARK VINA RESULT:      -9.4      1.494      1.561
REMARK  4 active torsions:
REMARK  status: ('A' for Active; 'I' for Inactive)
REMARK    1  A    between atoms: C_7  and  C_8 
REMARK    2  A    between atoms: C_10  and  O_11 
REMARK    3  A    between atoms: C_17  and  C_18 
REMARK    4  A    between atoms: C_25  and  C_26 
REMARK       I    between atoms: C_26  and  N_27 
ROOT
HETATM    1  C   UNL     1     -10.301   3.346 -33.706  1.00  0.00     0.070 C 
HETATM    2  C   UNL     1      -8.825   3.184 -33.440  1.00  0.00     0.037 C 
HETATM    3  N   UNL     1      -7.985   4.039 -34.153  1.00  0.00    -0.192 N 
HETATM    4  C   UNL     1      -6.674   4.170 -33.876  1.00  0.00     0.726 A 
HETATM    5  N   UNL     1      -6.091   3.301 -33.004  1.00  0.00    -0.083 N 
HETATM    6  N   UNL     1      -4.808   3.624 -32.758  1.00  0.00    -0.135 NA
HETATM    7  C   UNL     1      -4.643   4.682 -33.576  1.00  0.00     0.199 A 
HETATM    8  N   UNL     1      -5.785   5.043 -34.274  1.00  0.00    -0.041 NA
HETATM    9  C   UNL     1      -6.784   2.161 -32.399  1.00  0.00     0.202 C 
HETATM   10  C   UNL     1      -8.296   2.278 -32.573  1.00  0.00     0.062 C 
HETATM   11  H   UNL     1      -8.431   4.765 -34.709  1.00  0.00     0.184 HD
ENDROOT
BRANCH   7  12
HETATM   12  C   UNL     1      -3.379   5.401 -33.726  1.00  0.00     0.017 A 
HETATM   13  C   UNL     1      -3.185   6.630 -33.072  1.00  0.00     0.052 A 
HETATM   14  C   UNL     1      -1.983   7.329 -33.213  1.00  0.00     0.069 A 
HETATM   15  C   UNL     1      -0.968   6.793 -34.009  1.00  0.00     0.037 A 
HETATM   16  C   UNL     1      -1.145   5.576 -34.663  1.00  0.00     0.004 A 
HETATM   17  C   UNL     1      -2.348   4.883 -34.522  1.00  0.00     0.015 A 
BRANCH  14  18
HETATM   18  O   UNL     1      -1.678   8.529 -32.632  1.00  0.00    -0.356 OA
HETATM   19  C   UNL     1      -2.215   8.772 -31.338  1.00  0.00     0.210 C 
ENDBRANCH  14  18
ENDBRANCH   7  12
BRANCH   9  20
HETATM   20  C   UNL     1      -6.190   0.872 -32.974  1.00  0.00    -0.028 A 
HETATM   21  C   UNL     1      -6.700   0.350 -34.177  1.00  0.00     0.012 A 
HETATM   22  C   UNL     1      -6.184  -0.831 -34.716  1.00  0.00     0.043 A 
HETATM   23  C   UNL     1      -5.161  -1.498 -34.053  1.00  0.00     0.116 A 
HETATM   24  F   UNL     1      -4.666  -2.628 -34.571  1.00  0.00    -0.206 F 
HETATM   25  C   UNL     1      -4.651  -1.012 -32.857  1.00  0.00     0.043 A 
HETATM   26  C   UNL     1      -5.166   0.165 -32.312  1.00  0.00     0.012 A 
ENDBRANCH   9  20
BRANCH  10  27
HETATM   27  C   UNL     1      -9.173   1.507 -31.651  1.00  0.00     0.249 C 
HETATM   28  N   UNL     1      -9.584   2.125 -30.515  1.00  0.00    -0.366 N 
HETATM   29  H   UNL     1      -9.210   2.990 -30.153  1.00  0.00     0.159 HD
HETATM   30  H   UNL     1     -10.143   1.568 -29.880  1.00  0.00     0.159 HD
HETATM   31  O   UNL     1      -9.554   0.368 -31.895  1.00  0.00    -0.268 OA
ENDBRANCH  10  27
TORSDOF 4
ENDMDL
MODEL 3
REMARK VINA RESULT:      -9.2      3.377      6.929
REMARK  4 active torsions:
REMARK  status: ('A' for Active; 'I' for Inactive)
REMARK    1  A    between atoms: C_7  and  C_8 
REMARK    2  A    between atoms: C_10  and  O_11 
REMARK    3  A    between atoms: C_17  and  C_18 
REMARK    4  A    between atoms: C_25  and  C_26 
REMARK       I    between atoms: C_26  and  N_27 
ROOT
HETATM    1  C   UNL     1      -6.025   4.749 -28.714  1.00  0.00     0.070 C 
HETATM    2  C   UNL     1      -5.853   4.116 -30.073  1.00  0.00     0.037 C 
HETATM    3  N   UNL     1      -5.609   2.743 -30.073  1.00  0.00    -0.192 N 
HETATM    4  C   UNL     1      -5.646   1.997 -31.194  1.00  0.00     0.726 A 
HETATM    5  N   UNL     1      -5.727   2.621 -32.402  1.00  0.00    -0.083 N 
HETATM    6  N   UNL     1      -5.855   1.740 -33.412  1.00  0.00    -0.135 NA
HETATM    7  C   UNL     1      -5.775   0.569 -32.749  1.00  0.00     0.199 A 
HETATM    8  N   UNL     1      -5.653   0.702 -31.375  1.00  0.00    -0.041 NA
HETATM    9  C   UNL     1      -5.694   4.075 -32.576  1.00  0.00     0.202 C 
HETATM   10  C   UNL     1      -5.921   4.795 -31.250  1.00  0.00     0.062 C 
HETATM   11  H   UNL     1      -5.669   2.264 -29.178  1.00  0.00     0.184 HD
ENDROOT
BRANCH   7  12
HETATM   12  C   UNL     1      -5.818  -0.737 -33.404  1.00  0.00     0.017 A 
HETATM   13  C   UNL     1      -4.658  -1.524 -33.486  1.00  0.00     0.052 A 
HETATM   14  C   UNL     1      -4.686  -2.772 -34.116  1.00  0.00     0.069 A 
HETATM   15  C   UNL     1      -5.885  -3.235 -34.663  1.00  0.00     0.037 A 
HETATM   16  C   UNL     1      -7.045  -2.467 -34.590  1.00  0.00     0.004 A 
HETATM   17  C   UNL     1      -7.011  -1.221 -33.963  1.00  0.00     0.015 A 
BRANCH  14  18
HETATM   18  O   UNL     1      -3.626  -3.624 -34.260  1.00  0.00    -0.356 OA
HETATM   19  C   UNL     1      -3.706  -4.869 -33.577  1.00  0.00     0.210 C 
ENDBRANCH  14  18
ENDBRANCH   7  12
BRANCH   9  20
HETATM   20  C   UNL     1      -4.381   4.450 -33.271  1.00  0.00    -0.028 A 
HETATM   21  C   UNL     1      -4.416   5.011 -34.561  1.00  0.00     0.012 A 
HETATM   22  C   UNL     1      -3.233   5.351 -35.221  1.00  0.00     0.043 A 
HETATM   23  C   UNL     1      -2.011   5.125 -34.600  1.00  0.00     0.116 A 
HETATM   24  F   UNL     1      -0.878   5.453 -35.233  1.00  0.00    -0.206 F 
HETATM   25  C   UNL     1      -1.949   4.558 -33.334  1.00  0.00     0.043 A 
HETATM   26  C   UNL     1      -3.128   4.213 -32.671  1.00  0.00     0.012 A 
ENDBRANCH   9  20
BRANCH  10  27
HETATM   27  C   UNL     1      -6.387   6.208 -31.287  1.00  0.00     0.249 C 
HETATM   28  N   UNL     1      -5.439   7.180 -31.279  1.00  0.00    -0.366 N 
HETATM   29  H   UNL     1      -4.460   7.039 -31.074  1.00  0.00     0.159 HD
HETATM   30  H   UNL     1      -5.777   8.134 -31.260  1.00  0.00     0.159 HD
HETATM   31  O   UNL     1      -7.571   6.515 -31.355  1.00  0.00    -0.268 OA
ENDBRANCH  10  27
TORSDOF 4
ENDMDL
MODEL 4
REMARK VINA RESULT:      -8.9      2.860      4.503
REMARK  4 active torsions:
REMARK  status: ('A' for Active; 'I' for Inactive)
REMARK    1  A    between atoms: C_7  and  C_8 
REMARK    2  A    between atoms: C_10  and  O_11 
REMARK    3  A    between atoms: C_17  and  C_18 
REMARK    4  A    between atoms: C_25  and  C_26 
REMARK       I    between atoms: C_26  and  N_27 
ROOT
HETATM    1  C   UNL     1      -3.112  -3.289 -31.819  1.00  0.00     0.070 C 
HETATM    2  C   UNL     1      -3.615  -1.911 -32.174  1.00  0.00     0.037 C 
HETATM    3  N   UNL     1      -3.208  -0.883 -31.325  1.00  0.00    -0.192 N 
HETATM    4  C   UNL     1      -3.389   0.419 -31.620  1.00  0.00     0.726 A 
HETATM    5  N   UNL     1      -4.170   0.755 -32.684  1.00  0.00    -0.083 N 
HETATM    6  N   UNL     1      -4.170   2.083 -32.905  1.00  0.00    -0.135 NA
HETATM    7  C   UNL     1      -3.410   2.518 -31.882  1.00  0.00     0.199 A 
HETATM    8  N   UNL     1      -2.909   1.507 -31.077  1.00  0.00    -0.041 NA
HETATM    9  C   UNL     1      -4.907  -0.216 -33.496  1.00  0.00     0.202 C 
HETATM   10  C   UNL     1      -4.416  -1.638 -33.239  1.00  0.00     0.062 C 
HETATM   11  H   UNL     1      -2.529  -1.120 -30.605  1.00  0.00     0.184 HD
ENDROOT
BRANCH   7  12
HETATM   12  C   UNL     1      -3.122   3.929 -31.629  1.00  0.00     0.017 A 
HETATM   13  C   UNL     1      -1.879   4.472 -31.994  1.00  0.00     0.052 A 
HETATM   14  C   UNL     1      -1.591   5.819 -31.752  1.00  0.00     0.069 A 
HETATM   15  C   UNL     1      -2.556   6.626 -31.145  1.00  0.00     0.037 A 
HETATM   16  C   UNL     1      -3.794   6.103 -30.778  1.00  0.00     0.004 A 
HETATM   17  C   UNL     1      -4.076   4.758 -31.020  1.00  0.00     0.015 A 
BRANCH  14  18
HETATM   18  O   UNL     1      -0.422   6.459 -32.057  1.00  0.00    -0.356 OA
HETATM   19  C   UNL     1       0.416   6.820 -30.966  1.00  0.00     0.210 C 
ENDBRANCH  14  18
ENDBRANCH   7  12
BRANCH   9  20
HETATM   20  C   UNL     1      -6.406  -0.020 -33.243  1.00  0.00    -0.028 A 
HETATM   21  C   UNL     1      -7.278   0.139 -34.336  1.00  0.00     0.012 A 
HETATM   22  C   UNL     1      -8.646   0.331 -34.132  1.00  0.00     0.043 A 
HETATM   23  C   UNL     1      -9.148   0.371 -32.838  1.00  0.00     0.116 A 
HETATM   24  F   UNL     1     -10.460   0.553 -32.644  1.00  0.00    -0.206 F 
HETATM   25  C   UNL     1      -8.306   0.231 -31.742  1.00  0.00     0.043 A 
HETATM   26  C   UNL     1      -6.938   0.044 -31.940  1.00  0.00     0.012 A 
ENDBRANCH   9  20
BRANCH  10  27
HETATM   27  C   UNL     1      -4.688  -2.675 -34.272  1.00  0.00     0.249 C 
HETATM   28  N   UNL     1      -5.937  -3.205 -34.312  1.00  0.00    -0.366 N 
HETATM   29  H   UNL     1      -6.643  -3.091 -33.599  1.00  0.00     0.159 HD
HETATM   30  H   UNL     1      -6.089  -3.940 -34.993  1.00  0.00     0.159 HD
HETATM   31  O   UNL     1      -3.849  -3.033 -35.089  1.00  0.00    -0.268 OA
ENDBRANCH  10  27
TORSDOF 4
ENDMDL
MODEL 5
REMARK VINA RESULT:      -8.6      3.528      6.673
REMARK  4 active torsions:
REMARK  status: ('A' for Active; 'I' for Inactive)
REMARK    1  A    between atoms: C_7  and  C_8 
REMARK    2  A    between atoms: C_10  and  O_11 
REMARK    3  A    between atoms: C_17  and  C_18 
REMARK    4  A    between atoms: C_25  and  C_26 
REMARK       I    between atoms: C_26  and  N_27 
ROOT
HETATM    1  C   UNL     1      -4.946   5.129 -31.436  1.00  0.00     0.070 C 
HETATM    2  C   UNL     1      -5.465   3.721 -31.598  1.00  0.00     0.037 C 
HETATM    3  N   UNL     1      -4.631   2.848 -32.296  1.00  0.00    -0.192 N 
HETATM    4  C   UNL     1      -4.844   1.519 -32.341  1.00  0.00     0.726 A 
HETATM    5  N   UNL     1      -6.018   1.019 -31.862  1.00  0.00    -0.083 N 
HETATM    6  N   UNL     1      -6.036  -0.327 -31.887  1.00  0.00    -0.135 NA
HETATM    7  C   UNL     1      -4.849  -0.593 -32.467  1.00  0.00     0.199 A 
HETATM    8  N   UNL     1      -4.090   0.532 -32.751  1.00  0.00    -0.041 NA
HETATM    9  C   UNL     1      -7.118   1.849 -31.367  1.00  0.00     0.202 C 
HETATM   10  C   UNL     1      -6.660   3.284 -31.118  1.00  0.00     0.062 C 
HETATM   11  H   UNL     1      -3.707   3.193 -32.545  1.00  0.00     0.184 HD
ENDROOT
BRANCH   7  12
HETATM   12  C   UNL     1      -4.382  -1.944 -32.772  1.00  0.00     0.017 A 
HETATM   13  C   UNL     1      -4.970  -2.675 -33.818  1.00  0.00     0.052 A 
HETATM   14  C   UNL     1      -4.536  -3.970 -34.114  1.00  0.00     0.069 A 
HETATM   15  C   UNL     1      -3.503  -4.535 -33.362  1.00  0.00     0.037 A 
HETATM   16  C   UNL     1      -2.909  -3.823 -32.322  1.00  0.00     0.004 A 
HETATM   17  C   UNL     1      -3.348  -2.532 -32.028  1.00  0.00     0.015 A 
BRANCH  14  18
HETATM   18  O   UNL     1      -5.030  -4.778 -35.101  1.00  0.00    -0.356 OA
HETATM   19  C   UNL     1      -6.407  -4.629 -35.424  1.00  0.00     0.210 C 
ENDBRANCH  14  18
ENDBRANCH   7  12
BRANCH   9  20
HETATM   20  C   UNL     1      -8.291   1.732 -32.344  1.00  0.00    -0.028 A 
HETATM   21  C   UNL     1      -8.419   2.666 -33.389  1.00  0.00     0.012 A 
HETATM   22  C   UNL     1      -9.486   2.588 -34.287  1.00  0.00     0.043 A 
HETATM   23  C   UNL     1     -10.433   1.583 -34.141  1.00  0.00     0.116 A 
HETATM   24  F   UNL     1     -11.455   1.508 -35.003  1.00  0.00    -0.206 F 
HETATM   25  C   UNL     1     -10.339   0.658 -33.109  1.00  0.00     0.043 A 
HETATM   26  C   UNL     1      -9.276   0.734 -32.207  1.00  0.00     0.012 A 
ENDBRANCH   9  20
BRANCH  10  27
HETATM   27  C   UNL     1      -7.465   4.130 -30.196  1.00  0.00     0.249 C 
HETATM   28  N   UNL     1      -7.164   4.075 -28.873  1.00  0.00    -0.366 N 
HETATM   29  H   UNL     1      -6.569   3.386 -28.438  1.00  0.00     0.159 HD
HETATM   30  H   UNL     1      -7.752   4.624 -28.258  1.00  0.00     0.159 HD
HETATM   31  O   UNL     1      -8.348   4.884 -30.587  1.00  0.00    -0.268 OA
ENDBRANCH  10  27
TORSDOF 4
ENDMDL
MODEL 6
REMARK VINA RESULT:      -8.4      1.312      1.723
REMARK  4 active torsions:
REMARK  status: ('A' for Active; 'I' for Inactive)
REMARK    1  A    between atoms: C_7  and  C_8 
REMARK    2  A    between atoms: C_10  and  O_11 
REMARK    3  A    between atoms: C_17  and  C_18 
REMARK    4  A    between atoms: C_25  and  C_26 
REMARK       I    between atoms: C_26  and  N_27 
ROOT
HETATM    1  C   UNL     1      -9.620   3.368 -33.872  1.00  0.00     0.070 C 
HETATM    2  C   UNL     1      -8.231   3.226 -33.299  1.00  0.00     0.037 C 
HETATM    3  N   UNL     1      -7.263   4.067 -33.848  1.00  0.00    -0.192 N 
HETATM    4  C   UNL     1      -6.039   4.217 -33.308  1.00  0.00     0.726 A 
HETATM    5  N   UNL     1      -5.648   3.378 -32.308  1.00  0.00    -0.083 N 
HETATM    6  N   UNL     1      -4.445   3.719 -31.811  1.00  0.00    -0.135 NA
HETATM    7  C   UNL     1      -4.116   4.754 -32.609  1.00  0.00     0.199 A 
HETATM    8  N   UNL     1      -5.089   5.085 -33.538  1.00  0.00    -0.041 NA
HETATM    9  C   UNL     1      -6.450   2.251 -31.827  1.00  0.00     0.202 C 
HETATM   10  C   UNL     1      -7.893   2.350 -32.315  1.00  0.00     0.062 C 
HETATM   11  H   UNL     1      -7.586   4.773 -34.506  1.00  0.00     0.184 HD
ENDROOT
BRANCH   7  12
HETATM   12  C   UNL     1      -2.850   5.479 -32.513  1.00  0.00     0.017 A 
HETATM   13  C   UNL     1      -2.063   5.376 -31.354  1.00  0.00     0.052 A 
HETATM   14  C   UNL     1      -0.855   6.071 -31.250  1.00  0.00     0.069 A 
HETATM   15  C   UNL     1      -0.429   6.868 -32.315  1.00  0.00     0.037 A 
HETATM   16  C   UNL     1      -1.198   6.979 -33.472  1.00  0.00     0.004 A 
HETATM   17  C   UNL     1      -2.405   6.287 -33.570  1.00  0.00     0.015 A 
BRANCH  14  18
HETATM   18  O   UNL     1      -0.007   6.053 -30.176  1.00  0.00    -0.356 OA
HETATM   19  C   UNL     1       0.667   4.830 -29.910  1.00  0.00     0.210 C 
ENDBRANCH  14  18
ENDBRANCH   7  12
BRANCH   9  20
HETATM   20  C   UNL     1      -5.747   0.950 -32.227  1.00  0.00    -0.028 A 
HETATM   21  C   UNL     1      -4.893   0.313 -31.307  1.00  0.00     0.012 A 
HETATM   22  C   UNL     1      -4.230  -0.867 -31.651  1.00  0.00     0.043 A 
HETATM   23  C   UNL     1      -4.412  -1.413 -32.915  1.00  0.00     0.116 A 
HETATM   24  F   UNL     1      -3.777  -2.545 -33.243  1.00  0.00    -0.206 F 
HETATM   25  C   UNL     1      -5.237  -0.796 -33.846  1.00  0.00     0.043 A 
HETATM   26  C   UNL     1      -5.898   0.386 -33.509  1.00  0.00     0.012 A 
ENDBRANCH   9  20
BRANCH  10  27
HETATM   27  C   UNL     1      -8.941   1.598 -31.573  1.00  0.00     0.249 C 
HETATM   28  N   UNL     1      -9.504   2.206 -30.497  1.00  0.00    -0.366 N 
HETATM   29  H   UNL     1      -9.155   3.042 -30.051  1.00  0.00     0.159 HD
HETATM   30  H   UNL     1     -10.182   1.661 -29.980  1.00  0.00     0.159 HD
HETATM   31  O   UNL     1      -9.327   0.487 -31.913  1.00  0.00    -0.268 OA
ENDBRANCH  10  27
TORSDOF 4
ENDMDL
MODEL 7
REMARK VINA RESULT:      -8.3      4.615      6.445
REMARK  4 active torsions:
REMARK  status: ('A' for Active; 'I' for Inactive)
REMARK    1  A    between atoms: C_7  and  C_8 
REMARK    2  A    between atoms: C_10  and  O_11 
REMARK    3  A    between atoms: C_17  and  C_18 
REMARK    4  A    between atoms: C_25  and  C_26 
REMARK       I    between atoms: C_26  and  N_27 
ROOT
HETATM    1  C   UNL     1      -9.029   5.821 -30.243  1.00  0.00     0.070 C 
HETATM    2  C   UNL     1      -9.108   4.531 -31.022  1.00  0.00     0.037 C 
HETATM    3  N   UNL     1      -7.890   4.019 -31.468  1.00  0.00    -0.192 N 
HETATM    4  C   UNL     1      -7.765   2.782 -31.984  1.00  0.00     0.726 A 
HETATM    5  N   UNL     1      -8.889   2.068 -32.271  1.00  0.00    -0.083 N 
HETATM    6  N   UNL     1      -8.597   0.820 -32.684  1.00  0.00    -0.135 NA
HETATM    7  C   UNL     1      -7.250   0.856 -32.693  1.00  0.00     0.199 A 
HETATM    8  N   UNL     1      -6.712   2.057 -32.257  1.00  0.00    -0.041 NA
HETATM    9  C   UNL     1     -10.249   2.592 -32.131  1.00  0.00     0.202 C 
HETATM   10  C   UNL     1     -10.266   3.873 -31.301  1.00  0.00     0.062 C 
HETATM   11  H   UNL     1      -7.047   4.492 -31.148  1.00  0.00     0.184 HD
ENDROOT
BRANCH   7  12
HETATM   12  C   UNL     1      -6.412  -0.264 -33.116  1.00  0.00     0.017 A 
HETATM   13  C   UNL     1      -5.200  -0.527 -32.458  1.00  0.00     0.052 A 
HETATM   14  C   UNL     1      -4.388  -1.593 -32.859  1.00  0.00     0.069 A 
HETATM   15  C   UNL     1      -4.796  -2.401 -33.922  1.00  0.00     0.037 A 
HETATM   16  C   UNL     1      -5.996  -2.154 -34.585  1.00  0.00     0.004 A 
HETATM   17  C   UNL     1      -6.801  -1.088 -34.183  1.00  0.00     0.015 A 
BRANCH  14  18
HETATM   18  O   UNL     1      -3.190  -1.945 -32.301  1.00  0.00    -0.356 OA
HETATM   19  C   UNL     1      -3.058  -3.291 -31.860  1.00  0.00     0.210 C 
ENDBRANCH  14  18
ENDBRANCH   7  12
BRANCH   9  20
HETATM   20  C   UNL     1     -10.853   2.751 -33.530  1.00  0.00    -0.028 A 
HETATM   21  C   UNL     1     -10.521   3.878 -34.304  1.00  0.00     0.012 A 
HETATM   22  C   UNL     1     -11.067   4.052 -35.578  1.00  0.00     0.043 A 
HETATM   23  C   UNL     1     -11.952   3.106 -36.081  1.00  0.00     0.116 A 
HETATM   24  F   UNL     1     -12.473   3.273 -37.302  1.00  0.00    -0.206 F 
HETATM   25  C   UNL     1     -12.307   1.993 -35.330  1.00  0.00     0.043 A 
HETATM   26  C   UNL     1     -11.767   1.816 -34.056  1.00  0.00     0.012 A 
ENDBRANCH   9  20
BRANCH  10  27
HETATM   27  C   UNL     1     -11.546   4.282 -30.661  1.00  0.00     0.249 C 
HETATM   28  N   UNL     1     -12.013   3.510 -29.647  1.00  0.00    -0.366 N 
HETATM   29  H   UNL     1     -11.668   2.592 -29.406  1.00  0.00     0.159 HD
HETATM   30  H   UNL     1     -12.907   3.780 -29.256  1.00  0.00     0.159 HD
HETATM   31  O   UNL     1     -12.161   5.288 -30.991  1.00  0.00    -0.268 OA
ENDBRANCH  10  27
TORSDOF 4
ENDMDL
MODEL 8
REMARK VINA RESULT:      -8.2      2.897      7.830
REMARK  4 active torsions:
REMARK  status: ('A' for Active; 'I' for Inactive)
REMARK    1  A    between atoms: C_7  and  C_8 
REMARK    2  A    between atoms: C_10  and  O_11 
REMARK    3  A    between atoms: C_17  and  C_18 
REMARK    4  A    between atoms: C_25  and  C_26 
REMARK       I    between atoms: C_26  and  N_27 
ROOT
HETATM    1  C   UNL     1      -5.725   4.835 -30.748  1.00  0.00     0.070 C 
HETATM    2  C   UNL     1      -6.578   3.992 -31.663  1.00  0.00     0.037 C 
HETATM    3  N   UNL     1      -7.857   3.696 -31.194  1.00  0.00    -0.192 N 
HETATM    4  C   UNL     1      -8.808   3.144 -31.970  1.00  0.00     0.726 A 
HETATM    5  N   UNL     1      -8.466   2.671 -33.201  1.00  0.00    -0.083 N 
HETATM    6  N   UNL     1      -9.541   2.243 -33.889  1.00  0.00    -0.135 NA
HETATM    7  C   UNL     1     -10.521   2.423 -32.982  1.00  0.00     0.199 A 
HETATM    8  N   UNL     1     -10.093   2.986 -31.789  1.00  0.00    -0.041 NA
HETATM    9  C   UNL     1      -7.095   2.645 -33.715  1.00  0.00     0.202 C 
HETATM   10  C   UNL     1      -6.173   3.525 -32.875  1.00  0.00     0.062 C 
HETATM   11  H   UNL     1      -8.148   4.152 -30.332  1.00  0.00     0.184 HD
ENDROOT
BRANCH   7  12
HETATM   12  C   UNL     1     -11.918   2.067 -33.218  1.00  0.00     0.017 A 
HETATM   13  C   UNL     1     -12.949   2.853 -32.675  1.00  0.00     0.052 A 
HETATM   14  C   UNL     1     -14.289   2.518 -32.890  1.00  0.00     0.069 A 
HETATM   15  C   UNL     1     -14.599   1.392 -33.656  1.00  0.00     0.037 A 
HETATM   16  C   UNL     1     -13.589   0.603 -34.202  1.00  0.00     0.004 A 
HETATM   17  C   UNL     1     -12.253   0.940 -33.983  1.00  0.00     0.015 A 
BRANCH  14  18
HETATM   18  O   UNL     1     -15.374   3.200 -32.413  1.00  0.00    -0.356 OA
HETATM   19  C   UNL     1     -16.570   2.453 -32.224  1.00  0.00     0.210 C 
ENDBRANCH  14  18
ENDBRANCH   7  12
BRANCH   9  20
HETATM   20  C   UNL     1      -6.641   1.185 -33.812  1.00  0.00    -0.028 A 
HETATM   21  C   UNL     1      -6.954   0.438 -34.963  1.00  0.00     0.012 A 
HETATM   22  C   UNL     1      -6.563  -0.899 -35.072  1.00  0.00     0.043 A 
HETATM   23  C   UNL     1      -5.864  -1.496 -34.030  1.00  0.00     0.116 A 
HETATM   24  F   UNL     1      -5.488  -2.776 -34.136  1.00  0.00    -0.206 F 
HETATM   25  C   UNL     1      -5.556  -0.785 -32.878  1.00  0.00     0.043 A 
HETATM   26  C   UNL     1      -5.949   0.549 -32.762  1.00  0.00     0.012 A 
ENDBRANCH   9  20
BRANCH  10  27
HETATM   27  C   UNL     1      -4.902   3.999 -33.487  1.00  0.00     0.249 C 
HETATM   28  N   UNL     1      -4.986   4.973 -34.429  1.00  0.00    -0.366 N 
HETATM   29  H   UNL     1      -5.837   5.279 -34.878  1.00  0.00     0.159 HD
HETATM   30  H   UNL     1      -4.114   5.250 -34.864  1.00  0.00     0.159 HD
HETATM   31  O   UNL     1      -3.804   3.572 -33.151  1.00  0.00    -0.268 OA
ENDBRANCH  10  27
TORSDOF 4
ENDMDL
MODEL 9
REMARK VINA RESULT:      -8.1      3.965      6.586
REMARK  4 active torsions:
REMARK  status: ('A' for Active; 'I' for Inactive)
REMARK    1  A    between atoms: C_7  and  C_8 
REMARK    2  A    between atoms: C_10  and  O_11 
REMARK    3  A    between atoms: C_17  and  C_18 
REMARK    4  A    between atoms: C_25  and  C_26 
REMARK       I    between atoms: C_26  and  N_27 
ROOT
HETATM    1  C   UNL     1      -6.329   5.548 -32.460  1.00  0.00     0.070 C 
HETATM    2  C   UNL     1      -6.887   4.152 -32.598  1.00  0.00     0.037 C 
HETATM    3  N   UNL     1      -6.117   3.266 -33.350  1.00  0.00    -0.192 N 
HETATM    4  C   UNL     1      -6.361   1.942 -33.389  1.00  0.00     0.726 A 
HETATM    5  N   UNL     1      -7.513   1.464 -32.840  1.00  0.00    -0.083 N 
HETATM    6  N   UNL     1      -7.561   0.119 -32.871  1.00  0.00    -0.135 NA
HETATM    7  C   UNL     1      -6.418  -0.169 -33.524  1.00  0.00     0.199 A 
HETATM    8  N   UNL     1      -5.655   0.942 -33.849  1.00  0.00    -0.041 NA
HETATM    9  C   UNL     1      -8.562   2.314 -32.273  1.00  0.00     0.202 C 
HETATM   10  C   UNL     1      -8.059   3.737 -32.046  1.00  0.00     0.062 C 
HETATM   11  H   UNL     1      -5.203   3.593 -33.655  1.00  0.00     0.184 HD
ENDROOT
BRANCH   7  12
HETATM   12  C   UNL     1      -6.000  -1.527 -33.865  1.00  0.00     0.017 A 
HETATM   13  C   UNL     1      -4.797  -2.043 -33.357  1.00  0.00     0.052 A 
HETATM   14  C   UNL     1      -4.384  -3.339 -33.681  1.00  0.00     0.069 A 
HETATM   15  C   UNL     1      -5.184  -4.124 -34.515  1.00  0.00     0.037 A 
HETATM   16  C   UNL     1      -6.381  -3.626 -35.027  1.00  0.00     0.004 A 
HETATM   17  C   UNL     1      -6.787  -2.331 -34.702  1.00  0.00     0.015 A 
BRANCH  14  18
HETATM   18  O   UNL     1      -3.237  -3.949 -33.253  1.00  0.00    -0.356 OA
HETATM   19  C   UNL     1      -2.869  -3.745 -31.895  1.00  0.00     0.210 C 
ENDBRANCH  14  18
ENDBRANCH   7  12
BRANCH   9  20
HETATM   20  C   UNL     1      -9.797   2.227 -33.176  1.00  0.00    -0.028 A 
HETATM   21  C   UNL     1     -10.686   1.146 -33.032  1.00  0.00     0.012 A 
HETATM   22  C   UNL     1     -11.812   1.037 -33.851  1.00  0.00     0.043 A 
HETATM   23  C   UNL     1     -12.051   2.003 -34.820  1.00  0.00     0.116 A 
HETATM   24  F   UNL     1     -13.132   1.899 -35.603  1.00  0.00    -0.206 F 
HETATM   25  C   UNL     1     -11.181   3.072 -34.992  1.00  0.00     0.043 A 
HETATM   26  C   UNL     1     -10.052   3.183 -34.180  1.00  0.00     0.012 A 
ENDBRANCH   9  20
BRANCH  10  27
HETATM   27  C   UNL     1      -8.787   4.594 -31.071  1.00  0.00     0.249 C 
HETATM   28  N   UNL     1      -8.422   4.506 -29.766  1.00  0.00    -0.366 N 
HETATM   29  H   UNL     1      -7.830   3.790 -29.373  1.00  0.00     0.159 HD
HETATM   30  H   UNL     1      -8.959   5.064 -29.114  1.00  0.00     0.159 HD
HETATM   31  O   UNL     1      -9.662   5.384 -31.405  1.00  0.00    -0.268 OA
ENDBRANCH  10  27
TORSDOF 4
ENDMDL
MODEL 10
REMARK VINA RESULT:      -7.7      2.446      7.312
REMARK  4 active torsions:
REMARK  status: ('A' for Active; 'I' for Inactive)
REMARK    1  A    between atoms: C_7  and  C_8 
REMARK    2  A    between atoms: C_10  and  O_11 
REMARK    3  A    between atoms: C_17  and  C_18 
REMARK    4  A    between atoms: C_25  and  C_26 
REMARK       I    between atoms: C_26  and  N_27 
ROOT
HETATM    1  C   UNL     1      -4.469   5.525 -30.444  1.00  0.00     0.070 C 
HETATM    2  C   UNL     1      -5.174   4.449 -31.233  1.00  0.00     0.037 C 
HETATM    3  N   UNL     1      -6.500   4.208 -30.874  1.00  0.00    -0.192 N 
HETATM    4  C   UNL     1      -7.326   3.443 -31.612  1.00  0.00     0.726 A 
HETATM    5  N   UNL     1      -6.811   2.712 -32.640  1.00  0.00    -0.083 N 
HETATM    6  N   UNL     1      -7.775   2.082 -33.338  1.00  0.00    -0.135 NA
HETATM    7  C   UNL     1      -8.872   2.421 -32.633  1.00  0.00     0.199 A 
HETATM    8  N   UNL     1      -8.621   3.267 -31.564  1.00  0.00    -0.041 NA
HETATM    9  C   UNL     1      -5.383   2.635 -32.953  1.00  0.00     0.202 C 
HETATM   10  C   UNL     1      -4.600   3.732 -32.237  1.00  0.00     0.062 C 
HETATM   11  H   UNL     1      -6.914   4.838 -30.191  1.00  0.00     0.184 HD
ENDROOT
BRANCH   7  12
HETATM   12  C   UNL     1     -10.218   1.950 -32.954  1.00  0.00     0.017 A 
HETATM   13  C   UNL     1     -11.292   2.855 -32.991  1.00  0.00     0.052 A 
HETATM   14  C   UNL     1     -12.584   2.415 -33.291  1.00  0.00     0.069 A 
HETATM   15  C   UNL     1     -12.802   1.061 -33.560  1.00  0.00     0.037 A 
HETATM   16  C   UNL     1     -11.747   0.151 -33.528  1.00  0.00     0.004 A 
HETATM   17  C   UNL     1     -10.459   0.595 -33.226  1.00  0.00     0.015 A 
BRANCH  14  18
HETATM   18  O   UNL     1     -13.706   3.195 -33.354  1.00  0.00    -0.356 OA
HETATM   19  C   UNL     1     -14.309   3.554 -32.118  1.00  0.00     0.210 C 
ENDBRANCH  14  18
ENDBRANCH   7  12
BRANCH   9  20
HETATM   20  C   UNL     1      -4.894   1.217 -32.640  1.00  0.00    -0.028 A 
HETATM   21  C   UNL     1      -4.192   0.974 -31.445  1.00  0.00     0.012 A 
HETATM   22  C   UNL     1      -3.725  -0.307 -31.142  1.00  0.00     0.043 A 
HETATM   23  C   UNL     1      -3.952  -1.348 -32.033  1.00  0.00     0.116 A 
HETATM   24  F   UNL     1      -3.506  -2.576 -31.741  1.00  0.00    -0.206 F 
HETATM   25  C   UNL     1      -4.629  -1.131 -33.226  1.00  0.00     0.043 A 
HETATM   26  C   UNL     1      -5.093   0.148 -33.536  1.00  0.00     0.012 A 
ENDBRANCH   9  20
BRANCH  10  27
HETATM   27  C   UNL     1      -3.266   4.112 -32.776  1.00  0.00     0.249 C 
HETATM   28  N   UNL     1      -3.239   4.915 -33.870  1.00  0.00    -0.366 N 
HETATM   29  H   UNL     1      -4.034   5.133 -34.454  1.00  0.00     0.159 HD
HETATM   30  H   UNL     1      -2.324   5.126 -34.248  1.00  0.00     0.159 HD
HETATM   31  O   UNL     1      -2.214   3.759 -32.256  1.00  0.00    -0.268 OA
ENDBRANCH  10  27
TORSDOF 4
ENDMDL
