MODEL 1
REMARK VINA RESULT:     -10.2      0.000      0.000
REMARK  9 active torsions:
REMARK  status: ('A' for Active; 'I' for Inactive)
REMARK    1  A    between atoms: N_2  and  C_5 
REMARK    2  A    between atoms: C_10  and  N_11 
REMARK       I    between atoms: N_11  and  C_12 
REMARK    3  A    between atoms: C_12  and  C_14 
REMARK    4  A    between atoms: C_18  and  C_19 
REMARK    5  A    between atoms: C_19  and  N_20 
REMARK       I    between atoms: N_20  and  C_21 
REMARK    6  A    between atoms: C_21  and  C_23 
REMARK    7  A    between atoms: N_26  and  C_34 
REMARK    8  A    between atoms: C_27  and  C_28 
REMARK    9  A    between atoms: C_38  and  N_39 
ROOT
HETATM    1  C   UNL     1      -3.370   2.782 -32.339  1.00  0.00     0.161 C 
ENDROOT
BRANCH   1   2
HETATM    2  C   UNL     1      -2.549   3.989 -32.711  1.00  0.00    -0.040 A 
HETATM    3  C   UNL     1      -2.533   4.447 -34.036  1.00  0.00     0.009 A 
HETATM    4  C   UNL     1      -1.804   5.582 -34.385  1.00  0.00     0.002 A 
HETATM    5  C   UNL     1      -1.073   6.266 -33.414  1.00  0.00     0.017 A 
HETATM    6  C   UNL     1      -1.065   5.820 -32.085  1.00  0.00     0.033 A 
HETATM    7  C   UNL     1      -1.823   4.693 -31.733  1.00  0.00     0.026 A 
BRANCH   6   8
HETATM    8  C   UNL     1      -0.253   6.596 -31.096  1.00  0.00     0.257 C 
HETATM    9  N   UNL     1      -0.822   6.754 -29.851  1.00  0.00    -0.301 N 
HETATM   10  H   UNL     1      -1.713   6.334 -29.636  1.00  0.00     0.171 HD
HETATM   11  O   UNL     1       0.849   7.000 -31.450  1.00  0.00    -0.267 OA
BRANCH   9  12
HETATM   12  C   UNL     1      -0.266   7.394 -28.772  1.00  0.00     0.174 A 
HETATM   13  N   UNL     1      -0.531   8.659 -28.515  1.00  0.00    -0.228 NA
HETATM   14  C   UNL     1       0.144   9.052 -27.383  1.00  0.00     0.050 A 
HETATM   15  C   UNL     1       0.026  10.438 -26.845  1.00  0.00     0.062 C 
HETATM   16  C   UNL     1       0.890   8.065 -26.776  1.00  0.00     0.013 A 
HETATM   17  C   UNL     1       1.112  10.715 -25.784  1.00  0.00     0.039 C 
HETATM   18  C   UNL     1       1.259   9.522 -24.809  1.00  0.00     0.192 C 
HETATM   19  C   UNL     1       1.701   8.226 -25.537  1.00  0.00     0.081 C 
HETATM   20  S   UNL     1       0.791   6.625 -27.668  1.00  0.00    -0.055 SA
BRANCH  18  21
HETATM   21  N   UNL     1       2.184   9.895 -23.647  1.00  0.00    -0.074 N 
HETATM   22  C   UNL     1       3.256   8.857 -23.405  1.00  0.00     0.269 C 
HETATM   23  H   UNL     1       1.595   9.868 -22.803  1.00  0.00     0.279 HD
HETATM   24  C   UNL     1       2.776  11.281 -23.680  1.00  0.00     0.269 C 
ENDBRANCH  18  21
ENDBRANCH   9  12
ENDBRANCH   6   8
ENDBRANCH   1   2
BRANCH   1  25
HETATM   25  N   UNL     1      -4.777   3.050 -32.482  1.00  0.00    -0.351 N 
HETATM   26  C   UNL     1      -5.648   2.849 -31.432  1.00  0.00     0.274 C 
HETATM   27  O   UNL     1      -5.264   2.584 -30.298  1.00  0.00    -0.266 OA
HETATM   28  H   UNL     1      -5.178   3.150 -33.408  1.00  0.00     0.163 HD
BRANCH  26  29
HETATM   29  C   UNL     1      -7.051   2.957 -31.819  1.00  0.00     0.177 A 
HETATM   30  N   UNL     1      -7.861   3.939 -31.310  1.00  0.00    -0.124 NA
HETATM   31  N   UNL     1      -9.066   3.794 -31.830  1.00  0.00    -0.058 NA
HETATM   32  N   UNL     1      -9.055   2.743 -32.703  1.00  0.00    -0.188 N 
HETATM   33  C   UNL     1      -7.783   2.159 -32.689  1.00  0.00     0.109 A 
BRANCH  32  34
HETATM   34  C   UNL     1     -10.204   2.410 -33.466  1.00  0.00     0.230 A 
HETATM   35  N   UNL     1     -10.753   3.280 -34.312  1.00  0.00    -0.081 NA
HETATM   36  O   UNL     1     -11.849   2.601 -34.839  1.00  0.00    -0.103 OA
HETATM   37  N   UNL     1     -11.954   1.321 -34.303  1.00  0.00    -0.083 NA
HETATM   38  C   UNL     1     -10.934   1.206 -33.455  1.00  0.00     0.201 A 
BRANCH  38  39
HETATM   39  N   UNL     1     -10.673   0.101 -32.731  1.00  0.00    -0.379 N 
HETATM   40  H   UNL     1     -11.402  -0.591 -32.596  1.00  0.00     0.158 HD
HETATM   41  H   UNL     1      -9.921   0.073 -32.045  1.00  0.00     0.158 HD
ENDBRANCH  38  39
ENDBRANCH  32  34
BRANCH  33  42
HETATM   42  C   UNL     1      -7.388   0.962 -33.425  1.00  0.00    -0.005 A 
HETATM   43  C   UNL     1      -7.015  -0.201 -32.741  1.00  0.00     0.014 A 
HETATM   44  C   UNL     1      -6.645  -1.346 -33.450  1.00  0.00     0.001 A 
HETATM   45  C   UNL     1      -6.647  -1.337 -34.844  1.00  0.00     0.000 A 
HETATM   46  C   UNL     1      -7.025  -0.185 -35.532  1.00  0.00     0.001 A 
HETATM   47  C   UNL     1      -7.400   0.959 -34.826  1.00  0.00     0.014 A 
ENDBRANCH  33  42
ENDBRANCH  26  29
ENDBRANCH   1  25
TORSDOF 9
ENDMDL
MODEL 2
REMARK VINA RESULT:     -10.1      2.682      3.731
REMARK  9 active torsions:
REMARK  status: ('A' for Active; 'I' for Inactive)
REMARK    1  A    between atoms: N_2  and  C_5 
REMARK    2  A    between atoms: C_10  and  N_11 
REMARK       I    between atoms: N_11  and  C_12 
REMARK    3  A    between atoms: C_12  and  C_14 
REMARK    4  A    between atoms: C_18  and  C_19 
REMARK    5  A    between atoms: C_19  and  N_20 
REMARK       I    between atoms: N_20  and  C_21 
REMARK    6  A    between atoms: C_21  and  C_23 
REMARK    7  A    between atoms: N_26  and  C_34 
REMARK    8  A    between atoms: C_27  and  C_28 
REMARK    9  A    between atoms: C_38  and  N_39 
ROOT
HETATM    1  C   UNL     1      -4.917   4.241 -32.503  1.00  0.00     0.161 C 
ENDROOT
BRANCH   1   2
HETATM    2  C   UNL     1      -3.596   4.843 -32.906  1.00  0.00    -0.040 A 
HETATM    3  C   UNL     1      -3.195   4.822 -34.250  1.00  0.00     0.009 A 
HETATM    4  C   UNL     1      -1.992   5.407 -34.639  1.00  0.00     0.002 A 
HETATM    5  C   UNL     1      -1.169   6.007 -33.687  1.00  0.00     0.017 A 
HETATM    6  C   UNL     1      -1.544   6.030 -32.336  1.00  0.00     0.033 A 
HETATM    7  C   UNL     1      -2.770   5.466 -31.953  1.00  0.00     0.026 A 
BRANCH   6   8
HETATM    8  C   UNL     1      -0.611   6.685 -31.367  1.00  0.00     0.257 C 
HETATM    9  N   UNL     1      -1.153   7.007 -30.143  1.00  0.00    -0.301 N 
HETATM   10  H   UNL     1      -2.111   6.775 -29.927  1.00  0.00     0.171 HD
HETATM   11  O   UNL     1       0.552   6.855 -31.716  1.00  0.00    -0.267 OA
BRANCH   9  12
HETATM   12  C   UNL     1      -0.498   7.581 -29.081  1.00  0.00     0.174 A 
HETATM   13  N   UNL     1      -0.806   8.791 -28.661  1.00  0.00    -0.228 NA
HETATM   14  C   UNL     1      -0.011   9.124 -27.589  1.00  0.00     0.050 A 
HETATM   15  C   UNL     1      -0.143  10.438 -26.897  1.00  0.00     0.062 C 
HETATM   16  C   UNL     1       0.872   8.143 -27.191  1.00  0.00     0.013 A 
HETATM   17  C   UNL     1       1.057  10.695 -25.960  1.00  0.00     0.039 C 
HETATM   18  C   UNL     1       1.411   9.428 -25.144  1.00  0.00     0.192 C 
HETATM   19  C   UNL     1       1.831   8.247 -26.056  1.00  0.00     0.081 C 
HETATM   20  S   UNL     1       0.745   6.793 -28.210  1.00  0.00    -0.055 SA
BRANCH  18  21
HETATM   21  N   UNL     1       2.459   9.757 -24.077  1.00  0.00    -0.074 N 
HETATM   22  C   UNL     1       2.671  11.245 -23.915  1.00  0.00     0.269 C 
HETATM   23  H   UNL     1       3.352   9.401 -24.446  1.00  0.00     0.279 HD
HETATM   24  C   UNL     1       2.282   9.090 -22.737  1.00  0.00     0.269 C 
ENDBRANCH  18  21
ENDBRANCH   9  12
ENDBRANCH   6   8
ENDBRANCH   1   2
BRANCH   1  25
HETATM   25  N   UNL     1      -4.999   2.860 -32.903  1.00  0.00    -0.351 N 
HETATM   26  C   UNL     1      -4.667   1.847 -32.029  1.00  0.00     0.274 C 
HETATM   27  O   UNL     1      -4.437   2.049 -30.842  1.00  0.00    -0.266 OA
HETATM   28  H   UNL     1      -5.060   2.625 -33.888  1.00  0.00     0.163 HD
BRANCH  26  29
HETATM   29  C   UNL     1      -4.596   0.537 -32.667  1.00  0.00     0.177 A 
HETATM   30  N   UNL     1      -3.406  -0.130 -32.804  1.00  0.00    -0.124 NA
HETATM   31  N   UNL     1      -3.640  -1.277 -33.413  1.00  0.00    -0.058 NA
HETATM   32  N   UNL     1      -4.980  -1.392 -33.655  1.00  0.00    -0.188 N 
HETATM   33  C   UNL     1      -5.617  -0.223 -33.223  1.00  0.00     0.109 A 
BRANCH  32  34
HETATM   34  C   UNL     1      -5.524  -2.568 -34.233  1.00  0.00     0.230 A 
HETATM   35  N   UNL     1      -6.762  -2.593 -34.725  1.00  0.00    -0.081 NA
HETATM   36  O   UNL     1      -6.927  -3.902 -35.171  1.00  0.00    -0.103 OA
HETATM   37  N   UNL     1      -5.782  -4.661 -34.943  1.00  0.00    -0.083 NA
HETATM   38  C   UNL     1      -4.916  -3.832 -34.364  1.00  0.00     0.201 A 
BRANCH  38  39
HETATM   39  N   UNL     1      -3.671  -4.180 -33.987  1.00  0.00    -0.379 N 
HETATM   40  H   UNL     1      -3.501  -5.113 -33.625  1.00  0.00     0.158 HD
HETATM   41  H   UNL     1      -2.974  -3.485 -33.729  1.00  0.00     0.158 HD
ENDBRANCH  38  39
ENDBRANCH  32  34
BRANCH  33  42
HETATM   42  C   UNL     1      -7.036   0.079 -33.376  1.00  0.00    -0.005 A 
HETATM   43  C   UNL     1      -7.919  -0.091 -32.302  1.00  0.00     0.014 A 
HETATM   44  C   UNL     1      -9.275   0.206 -32.452  1.00  0.00     0.001 A 
HETATM   45  C   UNL     1      -9.758   0.677 -33.672  1.00  0.00     0.000 A 
HETATM   46  C   UNL     1      -8.884   0.857 -34.743  1.00  0.00     0.001 A 
HETATM   47  C   UNL     1      -7.528   0.565 -34.596  1.00  0.00     0.014 A 
ENDBRANCH  33  42
ENDBRANCH  26  29
ENDBRANCH   1  25
TORSDOF 9
ENDMDL
MODEL 3
REMARK VINA RESULT:     -10.0      3.947     11.129
REMARK  9 active torsions:
REMARK  status: ('A' for Active; 'I' for Inactive)
REMARK    1  A    between atoms: N_2  and  C_5 
REMARK    2  A    between atoms: C_10  and  N_11 
REMARK       I    between atoms: N_11  and  C_12 
REMARK    3  A    between atoms: C_12  and  C_14 
REMARK    4  A    between atoms: C_18  and  C_19 
REMARK    5  A    between atoms: C_19  and  N_20 
REMARK       I    between atoms: N_20  and  C_21 
REMARK    6  A    between atoms: C_21  and  C_23 
REMARK    7  A    between atoms: N_26  and  C_34 
REMARK    8  A    between atoms: C_27  and  C_28 
REMARK    9  A    between atoms: C_38  and  N_39 
ROOT
HETATM    1  C   UNL     1      -6.217   9.052 -31.317  1.00  0.00     0.161 C 
ENDROOT
BRANCH   1   2
HETATM    2  C   UNL     1      -7.093   7.886 -31.694  1.00  0.00    -0.040 A 
HETATM    3  C   UNL     1      -8.470   7.928 -31.430  1.00  0.00     0.009 A 
HETATM    4  C   UNL     1      -9.295   6.869 -31.806  1.00  0.00     0.002 A 
HETATM    5  C   UNL     1      -8.751   5.752 -32.438  1.00  0.00     0.017 A 
HETATM    6  C   UNL     1      -7.375   5.684 -32.702  1.00  0.00     0.033 A 
HETATM    7  C   UNL     1      -6.553   6.764 -32.348  1.00  0.00     0.026 A 
BRANCH   6   8
HETATM    8  C   UNL     1      -6.857   4.453 -33.377  1.00  0.00     0.257 C 
HETATM    9  N   UNL     1      -6.980   3.284 -32.659  1.00  0.00    -0.301 N 
HETATM   10  H   UNL     1      -7.426   3.280 -31.754  1.00  0.00     0.171 HD
HETATM   11  O   UNL     1      -6.398   4.570 -34.508  1.00  0.00    -0.267 OA
BRANCH   9  12
HETATM   12  C   UNL     1      -6.612   2.027 -33.071  1.00  0.00     0.174 A 
HETATM   13  N   UNL     1      -5.502   1.464 -32.639  1.00  0.00    -0.228 NA
HETATM   14  C   UNL     1      -5.372   0.213 -33.196  1.00  0.00     0.050 A 
HETATM   15  C   UNL     1      -4.209  -0.666 -32.879  1.00  0.00     0.062 C 
HETATM   16  C   UNL     1      -6.407  -0.169 -34.022  1.00  0.00     0.013 A 
HETATM   17  C   UNL     1      -4.128  -1.854 -33.861  1.00  0.00     0.039 C 
HETATM   18  C   UNL     1      -5.524  -2.480 -34.098  1.00  0.00     0.192 C 
HETATM   19  C   UNL     1      -6.514  -1.472 -34.736  1.00  0.00     0.081 C 
HETATM   20  S   UNL     1      -7.544   1.084 -34.150  1.00  0.00    -0.055 SA
BRANCH  18  21
HETATM   21  N   UNL     1      -5.396  -3.776 -34.904  1.00  0.00    -0.074 N 
HETATM   22  C   UNL     1      -4.481  -4.781 -34.242  1.00  0.00     0.269 C 
HETATM   23  H   UNL     1      -4.915  -3.516 -35.776  1.00  0.00     0.279 HD
HETATM   24  C   UNL     1      -6.686  -4.427 -35.334  1.00  0.00     0.269 C 
ENDBRANCH  18  21
ENDBRANCH   9  12
ENDBRANCH   6   8
ENDBRANCH   1   2
BRANCH   1  25
HETATM   25  N   UNL     1      -4.995   8.604 -30.701  1.00  0.00    -0.351 N 
HETATM   26  C   UNL     1      -3.843   9.356 -30.780  1.00  0.00     0.274 C 
HETATM   27  O   UNL     1      -3.829  10.495 -31.234  1.00  0.00    -0.266 OA
HETATM   28  H   UNL     1      -4.901   7.634 -30.422  1.00  0.00     0.163 HD
BRANCH  26  29
HETATM   29  C   UNL     1      -2.661   8.651 -30.297  1.00  0.00     0.177 A 
HETATM   30  N   UNL     1      -1.974   9.077 -29.190  1.00  0.00    -0.124 NA
HETATM   31  N   UNL     1      -0.959   8.257 -28.990  1.00  0.00    -0.058 NA
HETATM   32  N   UNL     1      -0.983   7.272 -29.937  1.00  0.00    -0.188 N 
HETATM   33  C   UNL     1      -2.044   7.520 -30.817  1.00  0.00     0.109 A 
BRANCH  32  34
HETATM   34  C   UNL     1      -0.047   6.207 -29.912  1.00  0.00     0.230 A 
HETATM   35  N   UNL     1       0.518   5.751 -31.030  1.00  0.00    -0.081 NA
HETATM   36  O   UNL     1       1.340   4.712 -30.599  1.00  0.00    -0.103 OA
HETATM   37  N   UNL     1       1.264   4.548 -29.220  1.00  0.00    -0.083 NA
HETATM   38  C   UNL     1       0.406   5.474 -28.798  1.00  0.00     0.201 A 
BRANCH  38  39
HETATM   39  N   UNL     1       0.060   5.656 -27.509  1.00  0.00    -0.379 N 
HETATM   40  H   UNL     1       0.691   5.351 -26.776  1.00  0.00     0.158 HD
HETATM   41  H   UNL     1      -0.911   5.765 -27.223  1.00  0.00     0.158 HD
ENDBRANCH  38  39
ENDBRANCH  32  34
BRANCH  33  42
HETATM   42  C   UNL     1      -2.358   6.741 -32.010  1.00  0.00    -0.005 A 
HETATM   43  C   UNL     1      -3.022   5.513 -31.902  1.00  0.00     0.014 A 
HETATM   44  C   UNL     1      -3.328   4.776 -33.047  1.00  0.00     0.001 A 
HETATM   45  C   UNL     1      -2.976   5.260 -34.306  1.00  0.00     0.000 A 
HETATM   46  C   UNL     1      -2.323   6.486 -34.423  1.00  0.00     0.001 A 
HETATM   47  C   UNL     1      -2.020   7.228 -33.281  1.00  0.00     0.014 A 
ENDBRANCH  33  42
ENDBRANCH  26  29
ENDBRANCH   1  25
TORSDOF 9
ENDMDL
MODEL 4
REMARK VINA RESULT:     -10.0      6.865     11.770
REMARK  9 active torsions:
REMARK  status: ('A' for Active; 'I' for Inactive)
REMARK    1  A    between atoms: N_2  and  C_5 
REMARK    2  A    between atoms: C_10  and  N_11 
REMARK       I    between atoms: N_11  and  C_12 
REMARK    3  A    between atoms: C_12  and  C_14 
REMARK    4  A    between atoms: C_18  and  C_19 
REMARK    5  A    between atoms: C_19  and  N_20 
REMARK       I    between atoms: N_20  and  C_21 
REMARK    6  A    between atoms: C_21  and  C_23 
REMARK    7  A    between atoms: N_26  and  C_34 
REMARK    8  A    between atoms: C_27  and  C_28 
REMARK    9  A    between atoms: C_38  and  N_39 
ROOT
HETATM    1  C   UNL     1      -5.554   2.423 -30.465  1.00  0.00     0.161 C 
ENDROOT
BRANCH   1   2
HETATM    2  C   UNL     1      -6.588   3.129 -31.302  1.00  0.00    -0.040 A 
HETATM    3  C   UNL     1      -6.211   3.763 -32.495  1.00  0.00     0.009 A 
HETATM    4  C   UNL     1      -7.164   4.391 -33.295  1.00  0.00     0.002 A 
HETATM    5  C   UNL     1      -8.502   4.403 -32.905  1.00  0.00     0.017 A 
HETATM    6  C   UNL     1      -8.900   3.786 -31.710  1.00  0.00     0.033 A 
HETATM    7  C   UNL     1      -7.942   3.131 -30.922  1.00  0.00     0.026 A 
BRANCH   6   8
HETATM    8  C   UNL     1     -10.351   3.843 -31.348  1.00  0.00     0.257 C 
HETATM    9  N   UNL     1     -11.228   3.902 -32.408  1.00  0.00    -0.301 N 
HETATM   10  H   UNL     1     -10.889   3.872 -33.358  1.00  0.00     0.171 HD
HETATM   11  O   UNL     1     -10.647   3.804 -30.159  1.00  0.00    -0.267 OA
BRANCH   9  12
HETATM   12  C   UNL     1     -12.599   3.930 -32.337  1.00  0.00     0.174 A 
HETATM   13  N   UNL     1     -13.306   2.818 -32.330  1.00  0.00    -0.228 NA
HETATM   14  C   UNL     1     -14.645   3.123 -32.248  1.00  0.00     0.050 A 
HETATM   15  C   UNL     1     -15.688   2.058 -32.211  1.00  0.00     0.062 C 
HETATM   16  C   UNL     1     -14.932   4.468 -32.161  1.00  0.00     0.013 A 
HETATM   17  C   UNL     1     -17.094   2.650 -32.446  1.00  0.00     0.039 C 
HETATM   18  C   UNL     1     -17.295   3.951 -31.634  1.00  0.00     0.192 C 
HETATM   19  C   UNL     1     -16.295   5.060 -32.051  1.00  0.00     0.081 C 
HETATM   20  S   UNL     1     -13.503   5.378 -32.238  1.00  0.00    -0.055 SA
BRANCH  18  21
HETATM   21  N   UNL     1     -18.755   4.408 -31.713  1.00  0.00    -0.074 N 
HETATM   22  C   UNL     1     -18.946   5.824 -31.220  1.00  0.00     0.269 C 
HETATM   23  H   UNL     1     -19.267   3.822 -31.039  1.00  0.00     0.279 HD
HETATM   24  C   UNL     1     -19.450   4.201 -33.035  1.00  0.00     0.269 C 
ENDBRANCH  18  21
ENDBRANCH   9  12
ENDBRANCH   6   8
ENDBRANCH   1   2
BRANCH   1  25
HETATM   25  N   UNL     1      -5.299   1.098 -30.967  1.00  0.00    -0.351 N 
HETATM   26  C   UNL     1      -4.088   0.779 -31.544  1.00  0.00     0.274 C 
HETATM   27  O   UNL     1      -3.127   1.540 -31.525  1.00  0.00    -0.266 OA
HETATM   28  H   UNL     1      -6.074   0.463 -31.128  1.00  0.00     0.163 HD
BRANCH  26  29
HETATM   29  C   UNL     1      -4.086  -0.529 -32.191  1.00  0.00     0.177 A 
HETATM   30  N   UNL     1      -3.046  -1.407 -32.030  1.00  0.00    -0.124 NA
HETATM   31  N   UNL     1      -3.310  -2.498 -32.725  1.00  0.00    -0.058 NA
HETATM   32  N   UNL     1      -4.533  -2.365 -33.322  1.00  0.00    -0.188 N 
HETATM   33  C   UNL     1      -5.040  -1.092 -33.030  1.00  0.00     0.109 A 
BRANCH  32  34
HETATM   34  C   UNL     1      -5.104  -3.425 -34.070  1.00  0.00     0.230 A 
HETATM   35  N   UNL     1      -6.296  -3.302 -34.654  1.00  0.00    -0.081 NA
HETATM   36  O   UNL     1      -6.510  -4.539 -35.259  1.00  0.00    -0.103 OA
HETATM   37  N   UNL     1      -5.443  -5.402 -35.033  1.00  0.00    -0.083 NA
HETATM   38  C   UNL     1      -4.574  -4.710 -34.299  1.00  0.00     0.201 A 
BRANCH  38  39
HETATM   39  N   UNL     1      -3.391  -5.191 -33.872  1.00  0.00    -0.379 N 
HETATM   40  H   UNL     1      -2.533  -4.728 -34.153  1.00  0.00     0.158 HD
HETATM   41  H   UNL     1      -3.280  -6.158 -33.574  1.00  0.00     0.158 HD
ENDBRANCH  38  39
ENDBRANCH  32  34
BRANCH  33  42
HETATM   42  C   UNL     1      -6.285  -0.534 -33.546  1.00  0.00    -0.005 A 
HETATM   43  C   UNL     1      -7.455  -0.581 -32.779  1.00  0.00     0.014 A 
HETATM   44  C   UNL     1      -8.643  -0.038 -33.275  1.00  0.00     0.001 A 
HETATM   45  C   UNL     1      -8.669   0.556 -34.535  1.00  0.00     0.000 A 
HETATM   46  C   UNL     1      -7.506   0.614 -35.301  1.00  0.00     0.001 A 
HETATM   47  C   UNL     1      -6.316   0.077 -34.807  1.00  0.00     0.014 A 
ENDBRANCH  33  42
ENDBRANCH  26  29
ENDBRANCH   1  25
TORSDOF 9
ENDMDL
MODEL 5
REMARK VINA RESULT:      -9.8      5.121     11.976
REMARK  9 active torsions:
REMARK  status: ('A' for Active; 'I' for Inactive)
REMARK    1  A    between atoms: N_2  and  C_5 
REMARK    2  A    between atoms: C_10  and  N_11 
REMARK       I    between atoms: N_11  and  C_12 
REMARK    3  A    between atoms: C_12  and  C_14 
REMARK    4  A    between atoms: C_18  and  C_19 
REMARK    5  A    between atoms: C_19  and  N_20 
REMARK       I    between atoms: N_20  and  C_21 
REMARK    6  A    between atoms: C_21  and  C_23 
REMARK    7  A    between atoms: N_26  and  C_34 
REMARK    8  A    between atoms: C_27  and  C_28 
REMARK    9  A    between atoms: C_38  and  N_39 
ROOT
HETATM    1  C   UNL     1      -5.393  -0.185 -32.218  1.00  0.00     0.161 C 
ENDROOT
BRANCH   1   2
HETATM    2  C   UNL     1      -6.609   0.165 -33.035  1.00  0.00    -0.040 A 
HETATM    3  C   UNL     1      -6.709  -0.265 -34.366  1.00  0.00     0.009 A 
HETATM    4  C   UNL     1      -7.844   0.025 -35.120  1.00  0.00     0.002 A 
HETATM    5  C   UNL     1      -8.887   0.758 -34.556  1.00  0.00     0.017 A 
HETATM    6  C   UNL     1      -8.804   1.207 -33.230  1.00  0.00     0.033 A 
HETATM    7  C   UNL     1      -7.672   0.889 -32.466  1.00  0.00     0.026 A 
BRANCH   6   8
HETATM    8  C   UNL     1      -9.956   1.995 -32.690  1.00  0.00     0.257 C 
HETATM    9  N   UNL     1     -11.107   1.962 -33.447  1.00  0.00    -0.301 N 
HETATM   10  H   UNL     1     -11.154   1.408 -34.288  1.00  0.00     0.171 HD
HETATM   11  O   UNL     1      -9.803   2.574 -31.621  1.00  0.00    -0.267 OA
BRANCH   9  12
HETATM   12  C   UNL     1     -12.300   2.573 -33.150  1.00  0.00     0.174 A 
HETATM   13  N   UNL     1     -13.367   1.870 -32.829  1.00  0.00    -0.228 NA
HETATM   14  C   UNL     1     -14.420   2.718 -32.575  1.00  0.00     0.050 A 
HETATM   15  C   UNL     1     -15.761   2.201 -32.177  1.00  0.00     0.062 C 
HETATM   16  C   UNL     1     -14.126   4.060 -32.677  1.00  0.00     0.013 A 
HETATM   17  C   UNL     1     -16.832   3.308 -32.269  1.00  0.00     0.039 C 
HETATM   18  C   UNL     1     -16.314   4.639 -31.673  1.00  0.00     0.192 C 
HETATM   19  C   UNL     1     -15.080   5.180 -32.441  1.00  0.00     0.081 C 
HETATM   20  S   UNL     1     -12.510   4.270 -33.152  1.00  0.00    -0.055 SA
BRANCH  18  21
HETATM   21  N   UNL     1     -17.451   5.661 -31.582  1.00  0.00    -0.074 N 
HETATM   22  C   UNL     1     -18.523   5.427 -32.621  1.00  0.00     0.269 C 
HETATM   23  H   UNL     1     -17.032   6.567 -31.835  1.00  0.00     0.279 HD
HETATM   24  C   UNL     1     -18.059   5.866 -30.218  1.00  0.00     0.269 C 
ENDBRANCH  18  21
ENDBRANCH   9  12
ENDBRANCH   6   8
ENDBRANCH   1   2
BRANCH   1  25
HETATM   25  N   UNL     1      -4.453   0.905 -32.196  1.00  0.00    -0.351 N 
HETATM   26  C   UNL     1      -4.485   1.849 -31.192  1.00  0.00     0.274 C 
HETATM   27  O   UNL     1      -5.197   1.734 -30.201  1.00  0.00    -0.266 OA
HETATM   28  H   UNL     1      -3.926   1.131 -33.032  1.00  0.00     0.163 HD
BRANCH  26  29
HETATM   29  C   UNL     1      -3.614   2.992 -31.449  1.00  0.00     0.177 A 
HETATM   30  N   UNL     1      -2.287   2.972 -31.106  1.00  0.00    -0.124 NA
HETATM   31  N   UNL     1      -1.752   4.129 -31.451  1.00  0.00    -0.058 NA
HETATM   32  N   UNL     1      -2.705   4.905 -32.048  1.00  0.00    -0.188 N 
HETATM   33  C   UNL     1      -3.924   4.217 -32.025  1.00  0.00     0.109 A 
BRANCH  32  34
HETATM   34  C   UNL     1      -2.384   6.176 -32.589  1.00  0.00     0.230 A 
HETATM   35  N   UNL     1      -2.237   7.247 -31.810  1.00  0.00    -0.081 NA
HETATM   36  O   UNL     1      -1.955   8.281 -32.699  1.00  0.00    -0.103 OA
HETATM   37  N   UNL     1      -1.935   7.825 -34.013  1.00  0.00    -0.083 NA
HETATM   38  C   UNL     1      -2.200   6.522 -33.942  1.00  0.00     0.201 A 
BRANCH  38  39
HETATM   39  N   UNL     1      -2.263   5.703 -35.008  1.00  0.00    -0.379 N 
HETATM   40  H   UNL     1      -2.961   4.967 -35.031  1.00  0.00     0.158 HD
HETATM   41  H   UNL     1      -1.465   5.558 -35.623  1.00  0.00     0.158 HD
ENDBRANCH  38  39
ENDBRANCH  32  34
BRANCH  33  42
HETATM   42  C   UNL     1      -5.204   4.738 -32.494  1.00  0.00    -0.005 A 
HETATM   43  C   UNL     1      -5.716   5.933 -31.977  1.00  0.00     0.014 A 
HETATM   44  C   UNL     1      -6.938   6.432 -32.434  1.00  0.00     0.001 A 
HETATM   45  C   UNL     1      -7.653   5.742 -33.412  1.00  0.00     0.000 A 
HETATM   46  C   UNL     1      -7.146   4.556 -33.939  1.00  0.00     0.001 A 
HETATM   47  C   UNL     1      -5.923   4.057 -33.487  1.00  0.00     0.014 A 
ENDBRANCH  33  42
ENDBRANCH  26  29
ENDBRANCH   1  25
TORSDOF 9
ENDMDL
MODEL 6
REMARK VINA RESULT:      -9.6      5.072     11.376
REMARK  9 active torsions:
REMARK  status: ('A' for Active; 'I' for Inactive)
REMARK    1  A    between atoms: N_2  and  C_5 
REMARK    2  A    between atoms: C_10  and  N_11 
REMARK       I    between atoms: N_11  and  C_12 
REMARK    3  A    between atoms: C_12  and  C_14 
REMARK    4  A    between atoms: C_18  and  C_19 
REMARK    5  A    between atoms: C_19  and  N_20 
REMARK       I    between atoms: N_20  and  C_21 
REMARK    6  A    between atoms: C_21  and  C_23 
REMARK    7  A    between atoms: N_26  and  C_34 
REMARK    8  A    between atoms: C_27  and  C_28 
REMARK    9  A    between atoms: C_38  and  N_39 
ROOT
HETATM    1  C   UNL     1      -5.294  -0.148 -31.566  1.00  0.00     0.161 C 
ENDROOT
BRANCH   1   2
HETATM    2  C   UNL     1      -6.217  -0.139 -32.757  1.00  0.00    -0.040 A 
HETATM    3  C   UNL     1      -5.903  -0.899 -33.893  1.00  0.00     0.009 A 
HETATM    4  C   UNL     1      -6.766  -0.925 -34.988  1.00  0.00     0.002 A 
HETATM    5  C   UNL     1      -7.945  -0.182 -34.963  1.00  0.00     0.017 A 
HETATM    6  C   UNL     1      -8.274   0.593 -33.842  1.00  0.00     0.033 A 
HETATM    7  C   UNL     1      -7.416   0.594 -32.731  1.00  0.00     0.026 A 
BRANCH   6   8
HETATM    8  C   UNL     1      -9.551   1.372 -33.885  1.00  0.00     0.257 C 
HETATM    9  N   UNL     1      -9.416   2.727 -34.092  1.00  0.00    -0.301 N 
HETATM   10  H   UNL     1      -8.505   3.137 -34.237  1.00  0.00     0.171 HD
HETATM   11  O   UNL     1     -10.603   0.755 -33.765  1.00  0.00    -0.267 OA
BRANCH   9  12
HETATM   12  C   UNL     1     -10.431   3.644 -34.203  1.00  0.00     0.174 A 
HETATM   13  N   UNL     1     -10.705   4.482 -33.223  1.00  0.00    -0.228 NA
HETATM   14  C   UNL     1     -11.755   5.292 -33.589  1.00  0.00     0.050 A 
HETATM   15  C   UNL     1     -12.280   6.350 -32.677  1.00  0.00     0.062 C 
HETATM   16  C   UNL     1     -12.243   5.077 -34.859  1.00  0.00     0.013 A 
HETATM   17  C   UNL     1     -13.639   6.886 -33.175  1.00  0.00     0.039 C 
HETATM   18  C   UNL     1     -13.618   7.130 -34.704  1.00  0.00     0.192 C 
HETATM   19  C   UNL     1     -13.363   5.823 -35.498  1.00  0.00     0.081 C 
HETATM   20  S   UNL     1     -11.408   3.797 -35.597  1.00  0.00    -0.055 SA
BRANCH  18  21
HETATM   21  N   UNL     1     -14.893   7.854 -35.145  1.00  0.00    -0.074 N 
HETATM   22  C   UNL     1     -15.290   7.514 -36.563  1.00  0.00     0.269 C 
HETATM   23  H   UNL     1     -14.650   8.854 -35.172  1.00  0.00     0.279 HD
HETATM   24  C   UNL     1     -16.076   7.752 -34.217  1.00  0.00     0.269 C 
ENDBRANCH  18  21
ENDBRANCH   9  12
ENDBRANCH   6   8
ENDBRANCH   1   2
BRANCH   1  25
HETATM   25  N   UNL     1      -4.369   0.954 -31.620  1.00  0.00    -0.351 N 
HETATM   26  C   UNL     1      -4.636   2.137 -30.965  1.00  0.00     0.274 C 
HETATM   27  O   UNL     1      -5.578   2.265 -30.192  1.00  0.00    -0.266 OA
HETATM   28  H   UNL     1      -3.643   0.965 -32.328  1.00  0.00     0.163 HD
BRANCH  26  29
HETATM   29  C   UNL     1      -3.706   3.207 -31.310  1.00  0.00     0.177 A 
HETATM   30  N   UNL     1      -2.349   3.041 -31.201  1.00  0.00    -0.124 NA
HETATM   31  N   UNL     1      -1.762   4.162 -31.574  1.00  0.00    -0.058 NA
HETATM   32  N   UNL     1      -2.715   5.063 -31.959  1.00  0.00    -0.188 N 
HETATM   33  C   UNL     1      -3.978   4.492 -31.763  1.00  0.00     0.109 A 
BRANCH  32  34
HETATM   34  C   UNL     1      -2.358   6.332 -32.483  1.00  0.00     0.230 A 
HETATM   35  N   UNL     1      -2.569   7.453 -31.795  1.00  0.00    -0.081 NA
HETATM   36  O   UNL     1      -2.115   8.464 -32.639  1.00  0.00    -0.103 OA
HETATM   37  N   UNL     1      -1.632   7.942 -33.835  1.00  0.00    -0.083 NA
HETATM   38  C   UNL     1      -1.783   6.623 -33.735  1.00  0.00     0.201 A 
BRANCH  38  39
HETATM   39  N   UNL     1      -1.424   5.746 -34.691  1.00  0.00    -0.379 N 
HETATM   40  H   UNL     1      -2.068   5.541 -35.448  1.00  0.00     0.158 HD
HETATM   41  H   UNL     1      -0.711   5.037 -34.530  1.00  0.00     0.158 HD
ENDBRANCH  38  39
ENDBRANCH  32  34
BRANCH  33  42
HETATM   42  C   UNL     1      -5.257   5.161 -31.979  1.00  0.00    -0.005 A 
HETATM   43  C   UNL     1      -5.969   4.964 -33.169  1.00  0.00     0.014 A 
HETATM   44  C   UNL     1      -7.196   5.600 -33.368  1.00  0.00     0.001 A 
HETATM   45  C   UNL     1      -7.720   6.434 -32.382  1.00  0.00     0.000 A 
HETATM   46  C   UNL     1      -7.022   6.628 -31.191  1.00  0.00     0.001 A 
HETATM   47  C   UNL     1      -5.798   5.990 -30.987  1.00  0.00     0.014 A 
ENDBRANCH  33  42
ENDBRANCH  26  29
ENDBRANCH   1  25
TORSDOF 9
ENDMDL
MODEL 7
REMARK VINA RESULT:      -9.4      3.942     12.263
REMARK  9 active torsions:
REMARK  status: ('A' for Active; 'I' for Inactive)
REMARK    1  A    between atoms: N_2  and  C_5 
REMARK    2  A    between atoms: C_10  and  N_11 
REMARK       I    between atoms: N_11  and  C_12 
REMARK    3  A    between atoms: C_12  and  C_14 
REMARK    4  A    between atoms: C_18  and  C_19 
REMARK    5  A    between atoms: C_19  and  N_20 
REMARK       I    between atoms: N_20  and  C_21 
REMARK    6  A    between atoms: C_21  and  C_23 
REMARK    7  A    between atoms: N_26  and  C_34 
REMARK    8  A    between atoms: C_27  and  C_28 
REMARK    9  A    between atoms: C_38  and  N_39 
ROOT
HETATM    1  C   UNL     1      -5.834   7.301 -29.170  1.00  0.00     0.161 C 
ENDROOT
BRANCH   1   2
HETATM    2  C   UNL     1      -4.942   6.856 -30.299  1.00  0.00    -0.040 A 
HETATM    3  C   UNL     1      -3.798   7.600 -30.625  1.00  0.00     0.009 A 
HETATM    4  C   UNL     1      -2.947   7.180 -31.645  1.00  0.00     0.002 A 
HETATM    5  C   UNL     1      -3.237   6.018 -32.359  1.00  0.00     0.017 A 
HETATM    6  C   UNL     1      -4.381   5.265 -32.059  1.00  0.00     0.033 A 
HETATM    7  C   UNL     1      -5.220   5.677 -31.012  1.00  0.00     0.026 A 
BRANCH   6   8
HETATM    8  C   UNL     1      -4.635   4.033 -32.870  1.00  0.00     0.257 C 
HETATM    9  N   UNL     1      -4.534   2.840 -32.189  1.00  0.00    -0.301 N 
HETATM   10  H   UNL     1      -4.334   2.828 -31.200  1.00  0.00     0.171 HD
HETATM   11  O   UNL     1      -4.938   4.176 -34.049  1.00  0.00    -0.267 OA
BRANCH   9  12
HETATM   12  C   UNL     1      -4.751   1.585 -32.700  1.00  0.00     0.174 A 
HETATM   13  N   UNL     1      -5.833   1.308 -33.399  1.00  0.00    -0.228 NA
HETATM   14  C   UNL     1      -5.803  -0.009 -33.795  1.00  0.00     0.050 A 
HETATM   15  C   UNL     1      -6.899  -0.604 -34.613  1.00  0.00     0.062 C 
HETATM   16  C   UNL     1      -4.677  -0.707 -33.416  1.00  0.00     0.013 A 
HETATM   17  C   UNL     1      -6.793  -2.144 -34.646  1.00  0.00     0.039 C 
HETATM   18  C   UNL     1      -5.331  -2.599 -34.871  1.00  0.00     0.192 C 
HETATM   19  C   UNL     1      -4.394  -2.136 -33.726  1.00  0.00     0.081 C 
HETATM   20  S   UNL     1      -3.655   0.288 -32.497  1.00  0.00    -0.055 SA
BRANCH  18  21
HETATM   21  N   UNL     1      -5.275  -4.111 -35.108  1.00  0.00    -0.074 N 
HETATM   22  C   UNL     1      -4.455  -4.831 -34.063  1.00  0.00     0.269 C 
HETATM   23  H   UNL     1      -4.753  -4.236 -35.986  1.00  0.00     0.279 HD
HETATM   24  C   UNL     1      -6.597  -4.804 -35.325  1.00  0.00     0.269 C 
ENDBRANCH  18  21
ENDBRANCH   9  12
ENDBRANCH   6   8
ENDBRANCH   1   2
BRANCH   1  25
HETATM   25  N   UNL     1      -5.064   7.874 -28.096  1.00  0.00    -0.351 N 
HETATM   26  C   UNL     1      -4.880   7.193 -26.913  1.00  0.00     0.274 C 
HETATM   27  O   UNL     1      -5.221   6.025 -26.763  1.00  0.00    -0.266 OA
HETATM   28  H   UNL     1      -4.861   8.868 -28.100  1.00  0.00     0.163 HD
BRANCH  26  29
HETATM   29  C   UNL     1      -4.270   8.009 -25.868  1.00  0.00     0.177 A 
HETATM   30  N   UNL     1      -5.018   8.558 -24.859  1.00  0.00    -0.124 NA
HETATM   31  N   UNL     1      -4.212   9.240 -24.067  1.00  0.00    -0.058 NA
HETATM   32  N   UNL     1      -2.929   9.124 -24.525  1.00  0.00    -0.188 N 
HETATM   33  C   UNL     1      -2.939   8.371 -25.705  1.00  0.00     0.109 A 
BRANCH  32  34
HETATM   34  C   UNL     1      -1.842   9.697 -23.816  1.00  0.00     0.230 A 
HETATM   35  N   UNL     1      -1.482   9.250 -22.613  1.00  0.00    -0.081 NA
HETATM   36  O   UNL     1      -0.414  10.066 -22.250  1.00  0.00    -0.103 OA
HETATM   37  N   UNL     1      -0.137  11.004 -23.239  1.00  0.00    -0.083 NA
HETATM   38  C   UNL     1      -1.021  10.772 -24.208  1.00  0.00     0.201 A 
BRANCH  38  39
HETATM   39  N   UNL     1      -1.082  11.467 -25.359  1.00  0.00    -0.379 N 
HETATM   40  H   UNL     1      -0.915  12.467 -25.348  1.00  0.00     0.158 HD
HETATM   41  H   UNL     1      -1.604  11.127 -26.165  1.00  0.00     0.158 HD
ENDBRANCH  38  39
ENDBRANCH  32  34
BRANCH  33  42
HETATM   42  C   UNL     1      -1.779   8.088 -26.544  1.00  0.00    -0.005 A 
HETATM   43  C   UNL     1      -0.880   7.073 -26.194  1.00  0.00     0.014 A 
HETATM   44  C   UNL     1       0.224   6.802 -27.004  1.00  0.00     0.001 A 
HETATM   45  C   UNL     1       0.437   7.539 -28.168  1.00  0.00     0.000 A 
HETATM   46  C   UNL     1      -0.458   8.546 -28.527  1.00  0.00     0.001 A 
HETATM   47  C   UNL     1      -1.565   8.816 -27.722  1.00  0.00     0.014 A 
ENDBRANCH  33  42
ENDBRANCH  26  29
ENDBRANCH   1  25
TORSDOF 9
ENDMDL
MODEL 8
REMARK VINA RESULT:      -9.4      3.137      4.883
REMARK  9 active torsions:
REMARK  status: ('A' for Active; 'I' for Inactive)
REMARK    1  A    between atoms: N_2  and  C_5 
REMARK    2  A    between atoms: C_10  and  N_11 
REMARK       I    between atoms: N_11  and  C_12 
REMARK    3  A    between atoms: C_12  and  C_14 
REMARK    4  A    between atoms: C_18  and  C_19 
REMARK    5  A    between atoms: C_19  and  N_20 
REMARK       I    between atoms: N_20  and  C_21 
REMARK    6  A    between atoms: C_21  and  C_23 
REMARK    7  A    between atoms: N_26  and  C_34 
REMARK    8  A    between atoms: C_27  and  C_28 
REMARK    9  A    between atoms: C_38  and  N_39 
ROOT
HETATM    1  C   UNL     1      -7.311   4.436 -33.511  1.00  0.00     0.161 C 
ENDROOT
BRANCH   1   2
HETATM    2  C   UNL     1      -6.846   4.639 -32.093  1.00  0.00    -0.040 A 
HETATM    3  C   UNL     1      -7.456   3.933 -31.046  1.00  0.00     0.009 A 
HETATM    4  C   UNL     1      -7.012   4.087 -29.734  1.00  0.00     0.002 A 
HETATM    5  C   UNL     1      -5.960   4.959 -29.453  1.00  0.00     0.017 A 
HETATM    6  C   UNL     1      -5.343   5.684 -30.482  1.00  0.00     0.033 A 
HETATM    7  C   UNL     1      -5.775   5.504 -31.805  1.00  0.00     0.026 A 
BRANCH   6   8
HETATM    8  C   UNL     1      -4.225   6.607 -30.109  1.00  0.00     0.257 C 
HETATM    9  N   UNL     1      -3.676   6.403 -28.863  1.00  0.00    -0.301 N 
HETATM   10  H   UNL     1      -4.000   5.651 -28.274  1.00  0.00     0.171 HD
HETATM   11  O   UNL     1      -3.870   7.439 -30.935  1.00  0.00    -0.267 OA
BRANCH   9  12
HETATM   12  C   UNL     1      -2.627   7.093 -28.307  1.00  0.00     0.174 A 
HETATM   13  N   UNL     1      -1.418   7.036 -28.828  1.00  0.00    -0.228 NA
HETATM   14  C   UNL     1      -0.559   7.816 -28.089  1.00  0.00     0.050 A 
HETATM   15  C   UNL     1       0.881   7.951 -28.451  1.00  0.00     0.062 C 
HETATM   16  C   UNL     1      -1.140   8.482 -27.032  1.00  0.00     0.013 A 
HETATM   17  C   UNL     1       1.683   8.601 -27.303  1.00  0.00     0.039 C 
HETATM   18  C   UNL     1       0.924   9.810 -26.705  1.00  0.00     0.192 C 
HETATM   19  C   UNL     1      -0.437   9.396 -26.088  1.00  0.00     0.081 C 
HETATM   20  S   UNL     1      -2.786   8.085 -26.924  1.00  0.00    -0.055 SA
BRANCH  18  21
HETATM   21  N   UNL     1       1.818  10.565 -25.717  1.00  0.00    -0.074 N 
HETATM   22  C   UNL     1       1.042  11.543 -24.866  1.00  0.00     0.269 C 
HETATM   23  H   UNL     1       2.438  11.150 -26.294  1.00  0.00     0.279 HD
HETATM   24  C   UNL     1       2.736   9.723 -24.868  1.00  0.00     0.269 C 
ENDBRANCH  18  21
ENDBRANCH   9  12
ENDBRANCH   6   8
ENDBRANCH   1   2
BRANCH   1  25
HETATM   25  N   UNL     1      -6.964   3.122 -33.987  1.00  0.00    -0.351 N 
HETATM   26  C   UNL     1      -7.924   2.144 -34.134  1.00  0.00     0.274 C 
HETATM   27  O   UNL     1      -9.123   2.374 -34.019  1.00  0.00    -0.266 OA
HETATM   28  H   UNL     1      -5.994   2.827 -33.983  1.00  0.00     0.163 HD
BRANCH  26  29
HETATM   29  C   UNL     1      -7.364   0.825 -34.409  1.00  0.00     0.177 A 
HETATM   30  N   UNL     1      -7.654   0.151 -35.567  1.00  0.00    -0.124 NA
HETATM   31  N   UNL     1      -7.017  -1.005 -35.545  1.00  0.00    -0.058 NA
HETATM   32  N   UNL     1      -6.281  -1.092 -34.396  1.00  0.00    -0.188 N 
HETATM   33  C   UNL     1      -6.515   0.054 -33.625  1.00  0.00     0.109 A 
BRANCH  32  34
HETATM   34  C   UNL     1      -5.433  -2.201 -34.149  1.00  0.00     0.230 A 
HETATM   35  N   UNL     1      -4.217  -2.045 -33.627  1.00  0.00    -0.081 NA
HETATM   36  O   UNL     1      -3.704  -3.339 -33.562  1.00  0.00    -0.103 OA
HETATM   37  N   UNL     1      -4.617  -4.269 -34.048  1.00  0.00    -0.083 NA
HETATM   38  C   UNL     1      -5.687  -3.562 -34.410  1.00  0.00     0.201 A 
BRANCH  38  39
HETATM   39  N   UNL     1      -6.808  -4.097 -34.927  1.00  0.00    -0.379 N 
HETATM   40  H   UNL     1      -7.467  -3.500 -35.416  1.00  0.00     0.158 HD
HETATM   41  H   UNL     1      -7.198  -4.971 -34.578  1.00  0.00     0.158 HD
ENDBRANCH  38  39
ENDBRANCH  32  34
BRANCH  33  42
HETATM   42  C   UNL     1      -5.978   0.306 -32.293  1.00  0.00    -0.005 A 
HETATM   43  C   UNL     1      -4.741   0.943 -32.135  1.00  0.00     0.014 A 
HETATM   44  C   UNL     1      -4.235   1.190 -30.857  1.00  0.00     0.001 A 
HETATM   45  C   UNL     1      -4.959   0.804 -29.730  1.00  0.00     0.000 A 
HETATM   46  C   UNL     1      -6.195   0.176 -29.879  1.00  0.00     0.001 A 
HETATM   47  C   UNL     1      -6.706  -0.067 -31.155  1.00  0.00     0.014 A 
ENDBRANCH  33  42
ENDBRANCH  26  29
ENDBRANCH   1  25
TORSDOF 9
ENDMDL
MODEL 9
REMARK VINA RESULT:      -9.4      3.538     11.988
REMARK  9 active torsions:
REMARK  status: ('A' for Active; 'I' for Inactive)
REMARK    1  A    between atoms: N_2  and  C_5 
REMARK    2  A    between atoms: C_10  and  N_11 
REMARK       I    between atoms: N_11  and  C_12 
REMARK    3  A    between atoms: C_12  and  C_14 
REMARK    4  A    between atoms: C_18  and  C_19 
REMARK    5  A    between atoms: C_19  and  N_20 
REMARK       I    between atoms: N_20  and  C_21 
REMARK    6  A    between atoms: C_21  and  C_23 
REMARK    7  A    between atoms: N_26  and  C_34 
REMARK    8  A    between atoms: C_27  and  C_28 
REMARK    9  A    between atoms: C_38  and  N_39 
ROOT
HETATM    1  C   UNL     1      -1.100   4.682 -31.827  1.00  0.00     0.161 C 
ENDROOT
BRANCH   1   2
HETATM    2  C   UNL     1      -2.265   4.823 -32.770  1.00  0.00    -0.040 A 
HETATM    3  C   UNL     1      -2.067   5.338 -34.060  1.00  0.00     0.009 A 
HETATM    4  C   UNL     1      -3.132   5.441 -34.952  1.00  0.00     0.002 A 
HETATM    5  C   UNL     1      -4.409   5.041 -34.562  1.00  0.00     0.017 A 
HETATM    6  C   UNL     1      -4.633   4.534 -33.274  1.00  0.00     0.033 A 
HETATM    7  C   UNL     1      -3.553   4.406 -32.388  1.00  0.00     0.026 A 
BRANCH   6   8
HETATM    8  C   UNL     1      -6.030   4.131 -32.919  1.00  0.00     0.257 C 
HETATM    9  N   UNL     1      -6.901   4.003 -33.978  1.00  0.00    -0.301 N 
HETATM   10  H   UNL     1      -6.583   4.144 -34.925  1.00  0.00     0.171 HD
HETATM   11  O   UNL     1      -6.283   3.920 -31.738  1.00  0.00    -0.267 OA
BRANCH   9  12
HETATM   12  C   UNL     1      -8.217   3.617 -33.915  1.00  0.00     0.174 A 
HETATM   13  N   UNL     1      -8.552   2.354 -33.750  1.00  0.00    -0.228 NA
HETATM   14  C   UNL     1      -9.922   2.240 -33.716  1.00  0.00     0.050 A 
HETATM   15  C   UNL     1     -10.593   0.921 -33.529  1.00  0.00     0.062 C 
HETATM   16  C   UNL     1     -10.610   3.430 -33.824  1.00  0.00     0.013 A 
HETATM   17  C   UNL     1     -12.100   1.014 -33.850  1.00  0.00     0.039 C 
HETATM   18  C   UNL     1     -12.725   2.288 -33.233  1.00  0.00     0.192 C 
HETATM   19  C   UNL     1     -12.091   3.583 -33.803  1.00  0.00     0.081 C 
HETATM   20  S   UNL     1      -9.522   4.716 -34.027  1.00  0.00    -0.055 SA
BRANCH  18  21
HETATM   21  N   UNL     1     -14.249   2.258 -33.380  1.00  0.00    -0.074 N 
HETATM   22  C   UNL     1     -14.739   1.006 -34.070  1.00  0.00     0.269 C 
HETATM   23  H   UNL     1     -14.481   3.024 -34.027  1.00  0.00     0.279 HD
HETATM   24  C   UNL     1     -15.048   2.531 -32.131  1.00  0.00     0.269 C 
ENDBRANCH  18  21
ENDBRANCH   9  12
ENDBRANCH   6   8
ENDBRANCH   1   2
BRANCH   1  25
HETATM   25  N   UNL     1      -1.354   5.365 -30.585  1.00  0.00    -0.351 N 
HETATM   26  C   UNL     1      -0.420   6.221 -30.041  1.00  0.00     0.274 C 
HETATM   27  O   UNL     1       0.592   6.562 -30.644  1.00  0.00    -0.266 OA
HETATM   28  H   UNL     1      -2.101   5.043 -29.979  1.00  0.00     0.163 HD
BRANCH  26  29
HETATM   29  C   UNL     1      -0.749   6.646 -28.685  1.00  0.00     0.177 A 
HETATM   30  N   UNL     1      -0.159   6.069 -27.590  1.00  0.00    -0.124 NA
HETATM   31  N   UNL     1      -0.644   6.644 -26.505  1.00  0.00    -0.058 NA
HETATM   32  N   UNL     1      -1.530   7.619 -26.871  1.00  0.00    -0.188 N 
HETATM   33  C   UNL     1      -1.649   7.618 -28.266  1.00  0.00     0.109 A 
BRANCH  32  34
HETATM   34  C   UNL     1      -2.145   8.453 -25.903  1.00  0.00     0.230 A 
HETATM   35  N   UNL     1      -1.504   9.495 -25.373  1.00  0.00    -0.081 NA
HETATM   36  O   UNL     1      -2.416  10.033 -24.468  1.00  0.00    -0.103 OA
HETATM   37  N   UNL     1      -3.604   9.309 -24.457  1.00  0.00    -0.083 NA
HETATM   38  C   UNL     1      -3.434   8.333 -25.347  1.00  0.00     0.201 A 
BRANCH  38  39
HETATM   39  N   UNL     1      -4.366   7.408 -25.644  1.00  0.00    -0.379 N 
HETATM   40  H   UNL     1      -5.326   7.555 -25.350  1.00  0.00     0.158 HD
HETATM   41  H   UNL     1      -4.120   6.440 -25.840  1.00  0.00     0.158 HD
ENDBRANCH  38  39
ENDBRANCH  32  34
BRANCH  33  42
HETATM   42  C   UNL     1      -2.554   8.457 -29.043  1.00  0.00    -0.005 A 
HETATM   43  C   UNL     1      -2.177   9.752 -29.418  1.00  0.00     0.014 A 
HETATM   44  C   UNL     1      -3.044  10.549 -30.168  1.00  0.00     0.001 A 
HETATM   45  C   UNL     1      -4.291  10.058 -30.550  1.00  0.00     0.000 A 
HETATM   46  C   UNL     1      -4.671   8.767 -30.188  1.00  0.00     0.001 A 
HETATM   47  C   UNL     1      -3.805   7.966 -29.443  1.00  0.00     0.014 A 
ENDBRANCH  33  42
ENDBRANCH  26  29
ENDBRANCH   1  25
TORSDOF 9
ENDMDL
MODEL 10
REMARK VINA RESULT:      -9.3      2.446      3.929
REMARK  9 active torsions:
REMARK  status: ('A' for Active; 'I' for Inactive)
REMARK    1  A    between atoms: N_2  and  C_5 
REMARK    2  A    between atoms: C_10  and  N_11 
REMARK       I    between atoms: N_11  and  C_12 
REMARK    3  A    between atoms: C_12  and  C_14 
REMARK    4  A    between atoms: C_18  and  C_19 
REMARK    5  A    between atoms: C_19  and  N_20 
REMARK       I    between atoms: N_20  and  C_21 
REMARK    6  A    between atoms: C_21  and  C_23 
REMARK    7  A    between atoms: N_26  and  C_34 
REMARK    8  A    between atoms: C_27  and  C_28 
REMARK    9  A    between atoms: C_38  and  N_39 
ROOT
HETATM    1  C   UNL     1      -5.653   7.256 -30.229  1.00  0.00     0.161 C 
ENDROOT
BRANCH   1   2
HETATM    2  C   UNL     1      -4.167   7.387 -30.438  1.00  0.00    -0.040 A 
HETATM    3  C   UNL     1      -3.652   7.565 -31.730  1.00  0.00     0.009 A 
HETATM    4  C   UNL     1      -2.282   7.722 -31.931  1.00  0.00     0.002 A 
HETATM    5  C   UNL     1      -1.410   7.689 -30.844  1.00  0.00     0.017 A 
HETATM    6  C   UNL     1      -1.901   7.501 -29.544  1.00  0.00     0.033 A 
HETATM    7  C   UNL     1      -3.284   7.372 -29.343  1.00  0.00     0.026 A 
BRANCH   6   8
HETATM    8  C   UNL     1      -0.909   7.469 -28.424  1.00  0.00     0.257 C 
HETATM    9  N   UNL     1      -0.679   8.674 -27.798  1.00  0.00    -0.301 N 
HETATM   10  H   UNL     1      -1.186   9.502 -28.073  1.00  0.00     0.171 HD
HETATM   11  O   UNL     1      -0.408   6.389 -28.134  1.00  0.00    -0.267 OA
BRANCH   9  12
HETATM   12  C   UNL     1       0.156   8.897 -26.731  1.00  0.00     0.174 A 
HETATM   13  N   UNL     1      -0.293   9.421 -25.609  1.00  0.00    -0.228 NA
HETATM   14  C   UNL     1       0.738   9.533 -24.706  1.00  0.00     0.050 A 
HETATM   15  C   UNL     1       0.523  10.088 -23.338  1.00  0.00     0.062 C 
HETATM   16  C   UNL     1       1.954   9.058 -25.147  1.00  0.00     0.013 A 
HETATM   17  C   UNL     1       1.868  10.406 -22.651  1.00  0.00     0.039 C 
HETATM   18  C   UNL     1       2.890   9.263 -22.864  1.00  0.00     0.192 C 
HETATM   19  C   UNL     1       3.221   9.051 -24.364  1.00  0.00     0.081 C 
HETATM   20  S   UNL     1       1.821   8.508 -26.747  1.00  0.00    -0.055 SA
BRANCH  18  21
HETATM   21  N   UNL     1       4.137   9.496 -22.007  1.00  0.00    -0.074 N 
HETATM   22  C   UNL     1       4.693   8.213 -21.434  1.00  0.00     0.269 C 
HETATM   23  H   UNL     1       3.817  10.034 -21.190  1.00  0.00     0.279 HD
HETATM   24  C   UNL     1       5.232  10.324 -22.631  1.00  0.00     0.269 C 
ENDBRANCH  18  21
ENDBRANCH   9  12
ENDBRANCH   6   8
ENDBRANCH   1   2
BRANCH   1  25
HETATM   25  N   UNL     1      -6.140   6.006 -30.752  1.00  0.00    -0.351 N 
HETATM   26  C   UNL     1      -6.056   4.846 -30.011  1.00  0.00     0.274 C 
HETATM   27  O   UNL     1      -5.712   4.838 -28.834  1.00  0.00    -0.266 OA
HETATM   28  H   UNL     1      -6.320   5.913 -31.745  1.00  0.00     0.163 HD
BRANCH  26  29
HETATM   29  C   UNL     1      -6.390   3.649 -30.776  1.00  0.00     0.177 A 
HETATM   30  N   UNL     1      -7.320   2.747 -30.327  1.00  0.00    -0.124 NA
HETATM   31  N   UNL     1      -7.415   1.773 -31.213  1.00  0.00    -0.058 NA
HETATM   32  N   UNL     1      -6.579   2.036 -32.262  1.00  0.00    -0.188 N 
HETATM   33  C   UNL     1      -5.876   3.216 -31.992  1.00  0.00     0.109 A 
BRANCH  32  34
HETATM   34  C   UNL     1      -6.539   1.188 -33.398  1.00  0.00     0.230 A 
HETATM   35  N   UNL     1      -6.978   1.597 -34.588  1.00  0.00    -0.081 NA
HETATM   36  O   UNL     1      -6.794   0.494 -35.419  1.00  0.00    -0.103 OA
HETATM   37  N   UNL     1      -6.244  -0.577 -34.721  1.00  0.00    -0.083 NA
HETATM   38  C   UNL     1      -6.086  -0.144 -33.471  1.00  0.00     0.201 A 
BRANCH  38  39
HETATM   39  N   UNL     1      -5.568  -0.884 -32.474  1.00  0.00    -0.379 N 
HETATM   40  H   UNL     1      -6.186  -1.277 -31.771  1.00  0.00     0.158 HD
HETATM   41  H   UNL     1      -4.594  -0.799 -32.190  1.00  0.00     0.158 HD
ENDBRANCH  38  39
ENDBRANCH  32  34
BRANCH  33  42
HETATM   42  C   UNL     1      -4.830   3.793 -32.829  1.00  0.00    -0.005 A 
HETATM   43  C   UNL     1      -5.161   4.539 -33.967  1.00  0.00     0.014 A 
HETATM   44  C   UNL     1      -4.156   5.095 -34.761  1.00  0.00     0.001 A 
HETATM   45  C   UNL     1      -2.816   4.913 -34.424  1.00  0.00     0.000 A 
HETATM   46  C   UNL     1      -2.478   4.178 -33.288  1.00  0.00     0.001 A 
HETATM   47  C   UNL     1      -3.480   3.625 -32.490  1.00  0.00     0.014 A 
ENDBRANCH  33  42
ENDBRANCH  26  29
ENDBRANCH   1  25
TORSDOF 9
ENDMDL
