MODEL 1
REMARK VINA RESULT:      -8.3      0.000      0.000
REMARK  9 active torsions:
REMARK  status: ('A' for Active; 'I' for Inactive)
REMARK    1  A    between atoms: C_3  and  O_4 
REMARK    2  A    between atoms: O_4  and  C_5 
REMARK    3  A    between atoms: C_5  and  C_6 
REMARK    4  A    between atoms: N_7  and  C_8 
REMARK    5  A    between atoms: C_8  and  C_9 
REMARK    6  A    between atoms: C_9  and  C_10 
REMARK    7  A    between atoms: C_16  and  S_17 
REMARK    8  A    between atoms: S_17  and  C_18 
REMARK    9  A    between atoms: C_18  and  C_19 
REMARK       I    between atoms: C_19  and  N_20 
ROOT
HETATM    1  C   UNL     1      -4.024   0.513 -31.926  1.00  0.00     0.155 A 
HETATM    2  N   UNL     1      -4.543   1.753 -32.251  1.00  0.00    -0.309 N 
HETATM    3  C   UNL     1      -3.636   2.652 -31.744  1.00  0.00     0.192 A 
HETATM    4  N   UNL     1      -2.673   2.016 -31.121  1.00  0.00    -0.123 NA
HETATM    5  N   UNL     1      -2.908   0.680 -31.240  1.00  0.00    -0.132 NA
ENDROOT
BRANCH   1   6
HETATM    6  C   UNL     1      -4.632  -0.815 -32.218  1.00  0.00     0.256 C 
BRANCH   6   7
HETATM    7  O   UNL     1      -4.451  -1.085 -33.606  1.00  0.00    -0.343 OA
BRANCH   7   8
HETATM    8  C   UNL     1      -4.910  -2.309 -34.023  1.00  0.00     0.075 A 
HETATM    9  C   UNL     1      -6.194  -2.337 -34.591  1.00  0.00    -0.029 A 
HETATM   10  C   UNL     1      -6.993  -1.077 -34.774  1.00  0.00     0.051 C 
HETATM   11  C   UNL     1      -6.708  -3.556 -35.061  1.00  0.00     0.009 A 
HETATM   12  C   UNL     1      -5.973  -4.734 -34.934  1.00  0.00     0.001 A 
HETATM   13  C   UNL     1      -4.716  -4.706 -34.336  1.00  0.00     0.003 A 
HETATM   14  C   UNL     1      -4.186  -3.499 -33.876  1.00  0.00     0.037 A 
ENDBRANCH   7   8
ENDBRANCH   6   7
ENDBRANCH   1   6
BRANCH   2  15
HETATM   15  C   UNL     1      -5.779   2.038 -32.964  1.00  0.00     0.137 C 
BRANCH  15  16
HETATM   16  C   UNL     1      -6.983   2.239 -32.033  1.00  0.00     0.059 C 
BRANCH  16  17
HETATM   17  C   UNL     1      -8.306   1.708 -32.532  1.00  0.00    -0.057 A 
HETATM   18  C   UNL     1      -8.848   0.510 -32.050  1.00  0.00     0.007 A 
HETATM   19  C   UNL     1     -10.025  -0.009 -32.592  1.00  0.00     0.001 A 
HETATM   20  C   UNL     1     -10.672   0.654 -33.633  1.00  0.00     0.000 A 
HETATM   21  C   UNL     1     -10.145   1.843 -34.128  1.00  0.00     0.001 A 
HETATM   22  C   UNL     1      -8.971   2.368 -33.582  1.00  0.00     0.007 A 
ENDBRANCH  16  17
ENDBRANCH  15  16
ENDBRANCH   2  15
BRANCH   3  23
HETATM   23  S   UNL     1      -3.742   4.371 -31.889  1.00  0.00    -0.081 SA
BRANCH  23  24
HETATM   24  C   UNL     1      -2.237   4.738 -32.841  1.00  0.00     0.185 C 
BRANCH  24  25
HETATM   25  C   UNL     1      -1.181   5.412 -31.981  1.00  0.00     0.226 C 
HETATM   26  N   UNL     1      -1.037   4.874 -30.718  1.00  0.00    -0.365 N 
HETATM   27  C   UNL     1      -0.041   5.376 -29.807  1.00  0.00     0.149 C 
HETATM   28  H   UNL     1      -1.330   3.903 -30.603  1.00  0.00     0.161 HD
HETATM   29  O   UNL     1      -0.534   6.381 -32.376  1.00  0.00    -0.273 OA
ENDBRANCH  24  25
ENDBRANCH  23  24
ENDBRANCH   3  23
TORSDOF 9
ENDMDL
MODEL 2
REMARK VINA RESULT:      -8.3      2.344      6.026
REMARK  9 active torsions:
REMARK  status: ('A' for Active; 'I' for Inactive)
REMARK    1  A    between atoms: C_3  and  O_4 
REMARK    2  A    between atoms: O_4  and  C_5 
REMARK    3  A    between atoms: C_5  and  C_6 
REMARK    4  A    between atoms: N_7  and  C_8 
REMARK    5  A    between atoms: C_8  and  C_9 
REMARK    6  A    between atoms: C_9  and  C_10 
REMARK    7  A    between atoms: C_16  and  S_17 
REMARK    8  A    between atoms: S_17  and  C_18 
REMARK    9  A    between atoms: C_18  and  C_19 
REMARK       I    between atoms: C_19  and  N_20 
ROOT
HETATM    1  C   UNL     1      -5.020   0.083 -31.828  1.00  0.00     0.155 A 
HETATM    2  N   UNL     1      -5.220   1.448 -31.929  1.00  0.00    -0.309 N 
HETATM    3  C   UNL     1      -6.335   1.694 -31.166  1.00  0.00     0.192 A 
HETATM    4  N   UNL     1      -6.804   0.569 -30.680  1.00  0.00    -0.123 NA
HETATM    5  N   UNL     1      -5.980  -0.438 -31.085  1.00  0.00    -0.132 NA
ENDROOT
BRANCH   1   6
HETATM    6  C   UNL     1      -3.954  -0.717 -32.492  1.00  0.00     0.256 C 
BRANCH   6   7
HETATM    7  O   UNL     1      -4.339  -0.922 -33.849  1.00  0.00    -0.343 OA
BRANCH   7   8
HETATM    8  C   UNL     1      -4.840  -2.169 -34.126  1.00  0.00     0.075 A 
HETATM    9  C   UNL     1      -6.179  -2.228 -34.547  1.00  0.00    -0.029 A 
HETATM   10  C   UNL     1      -6.994  -0.979 -34.728  1.00  0.00     0.051 C 
HETATM   11  C   UNL     1      -6.739  -3.473 -34.871  1.00  0.00     0.009 A 
HETATM   12  C   UNL     1      -5.993  -4.644 -34.744  1.00  0.00     0.001 A 
HETATM   13  C   UNL     1      -4.678  -4.583 -34.292  1.00  0.00     0.003 A 
HETATM   14  C   UNL     1      -4.103  -3.351 -33.978  1.00  0.00     0.037 A 
ENDBRANCH   7   8
ENDBRANCH   6   7
ENDBRANCH   1   6
BRANCH   2  15
HETATM   15  C   UNL     1      -4.426   2.406 -32.685  1.00  0.00     0.137 C 
BRANCH  15  16
HETATM   16  C   UNL     1      -3.217   2.940 -31.905  1.00  0.00     0.059 C 
BRANCH  16  17
HETATM   17  C   UNL     1      -2.528   4.150 -32.492  1.00  0.00    -0.057 A 
HETATM   18  C   UNL     1      -2.740   4.545 -33.819  1.00  0.00     0.007 A 
HETATM   19  C   UNL     1      -2.024   5.610 -34.368  1.00  0.00     0.001 A 
HETATM   20  C   UNL     1      -1.074   6.287 -33.605  1.00  0.00     0.000 A 
HETATM   21  C   UNL     1      -0.847   5.903 -32.287  1.00  0.00     0.001 A 
HETATM   22  C   UNL     1      -1.568   4.843 -31.733  1.00  0.00     0.007 A 
ENDBRANCH  16  17
ENDBRANCH  15  16
ENDBRANCH   2  15
BRANCH   3  23
HETATM   23  S   UNL     1      -7.034   3.250 -30.885  1.00  0.00    -0.081 SA
BRANCH  23  24
HETATM   24  C   UNL     1      -8.785   2.815 -30.663  1.00  0.00     0.185 C 
BRANCH  24  25
HETATM   25  C   UNL     1      -9.411   2.328 -31.960  1.00  0.00     0.226 C 
HETATM   26  N   UNL     1      -9.720   0.983 -31.980  1.00  0.00    -0.365 N 
HETATM   27  C   UNL     1     -10.364   0.388 -33.123  1.00  0.00     0.149 C 
HETATM   28  H   UNL     1      -9.870   0.539 -31.074  1.00  0.00     0.161 HD
HETATM   29  O   UNL     1      -9.592   3.074 -32.920  1.00  0.00    -0.273 OA
ENDBRANCH  24  25
ENDBRANCH  23  24
ENDBRANCH   3  23
TORSDOF 9
ENDMDL
MODEL 3
REMARK VINA RESULT:      -8.0      4.293      8.163
REMARK  9 active torsions:
REMARK  status: ('A' for Active; 'I' for Inactive)
REMARK    1  A    between atoms: C_3  and  O_4 
REMARK    2  A    between atoms: O_4  and  C_5 
REMARK    3  A    between atoms: C_5  and  C_6 
REMARK    4  A    between atoms: N_7  and  C_8 
REMARK    5  A    between atoms: C_8  and  C_9 
REMARK    6  A    between atoms: C_9  and  C_10 
REMARK    7  A    between atoms: C_16  and  S_17 
REMARK    8  A    between atoms: S_17  and  C_18 
REMARK    9  A    between atoms: C_18  and  C_19 
REMARK       I    between atoms: C_19  and  N_20 
ROOT
HETATM    1  C   UNL     1      -9.340   2.430 -31.797  1.00  0.00     0.155 A 
HETATM    2  N   UNL     1      -9.722   1.552 -32.795  1.00  0.00    -0.309 N 
HETATM    3  C   UNL     1     -10.860   2.107 -33.329  1.00  0.00     0.192 A 
HETATM    4  N   UNL     1     -11.172   3.204 -32.681  1.00  0.00    -0.123 NA
HETATM    5  N   UNL     1     -10.219   3.413 -31.729  1.00  0.00    -0.132 NA
ENDROOT
BRANCH   1   6
HETATM    6  C   UNL     1      -8.175   2.289 -30.879  1.00  0.00     0.256 C 
BRANCH   6   7
HETATM    7  O   UNL     1      -7.051   2.912 -31.496  1.00  0.00    -0.343 OA
BRANCH   7   8
HETATM    8  C   UNL     1      -5.882   2.200 -31.422  1.00  0.00     0.075 A 
HETATM    9  C   UNL     1      -4.818   2.654 -32.220  1.00  0.00    -0.029 A 
HETATM   10  C   UNL     1      -4.953   3.889 -33.067  1.00  0.00     0.051 C 
HETATM   11  C   UNL     1      -3.588   1.983 -32.168  1.00  0.00     0.009 A 
HETATM   12  C   UNL     1      -3.427   0.854 -31.364  1.00  0.00     0.001 A 
HETATM   13  C   UNL     1      -4.495   0.386 -30.604  1.00  0.00     0.003 A 
HETATM   14  C   UNL     1      -5.721   1.052 -30.635  1.00  0.00     0.037 A 
ENDBRANCH   7   8
ENDBRANCH   6   7
ENDBRANCH   1   6
BRANCH   2  15
HETATM   15  C   UNL     1      -9.067   0.311 -33.183  1.00  0.00     0.137 C 
BRANCH  15  16
HETATM   16  C   UNL     1      -7.883   0.525 -34.138  1.00  0.00     0.059 C 
BRANCH  16  17
HETATM   17  C   UNL     1      -6.933  -0.639 -34.291  1.00  0.00    -0.057 A 
HETATM   18  C   UNL     1      -7.389  -1.923 -34.617  1.00  0.00     0.007 A 
HETATM   19  C   UNL     1      -6.506  -3.003 -34.662  1.00  0.00     0.001 A 
HETATM   20  C   UNL     1      -5.156  -2.819 -34.369  1.00  0.00     0.000 A 
HETATM   21  C   UNL     1      -4.687  -1.552 -34.037  1.00  0.00     0.001 A 
HETATM   22  C   UNL     1      -5.569  -0.469 -33.998  1.00  0.00     0.007 A 
ENDBRANCH  16  17
ENDBRANCH  15  16
ENDBRANCH   2  15
BRANCH   3  23
HETATM   23  S   UNL     1     -11.762   1.460 -34.653  1.00  0.00    -0.081 SA
BRANCH  23  24
HETATM   24  C   UNL     1     -12.875   0.308 -33.793  1.00  0.00     0.185 C 
BRANCH  24  25
HETATM   25  C   UNL     1     -14.284   0.868 -33.681  1.00  0.00     0.226 C 
HETATM   26  N   UNL     1     -14.546   1.533 -32.500  1.00  0.00    -0.365 N 
HETATM   27  C   UNL     1     -15.823   2.161 -32.272  1.00  0.00     0.149 C 
HETATM   28  H   UNL     1     -13.740   1.919 -32.009  1.00  0.00     0.161 HD
HETATM   29  O   UNL     1     -15.125   0.707 -34.563  1.00  0.00    -0.273 OA
ENDBRANCH  24  25
ENDBRANCH  23  24
ENDBRANCH   3  23
TORSDOF 9
ENDMDL
MODEL 4
REMARK VINA RESULT:      -8.0      2.518      7.757
REMARK  9 active torsions:
REMARK  status: ('A' for Active; 'I' for Inactive)
REMARK    1  A    between atoms: C_3  and  O_4 
REMARK    2  A    between atoms: O_4  and  C_5 
REMARK    3  A    between atoms: C_5  and  C_6 
REMARK    4  A    between atoms: N_7  and  C_8 
REMARK    5  A    between atoms: C_8  and  C_9 
REMARK    6  A    between atoms: C_9  and  C_10 
REMARK    7  A    between atoms: C_16  and  S_17 
REMARK    8  A    between atoms: S_17  and  C_18 
REMARK    9  A    between atoms: C_18  and  C_19 
REMARK       I    between atoms: C_19  and  N_20 
ROOT
HETATM    1  C   UNL     1      -4.780   2.201 -31.981  1.00  0.00     0.155 A 
HETATM    2  N   UNL     1      -5.643   1.123 -32.036  1.00  0.00    -0.309 N 
HETATM    3  C   UNL     1      -6.864   1.636 -31.669  1.00  0.00     0.192 A 
HETATM    4  N   UNL     1      -6.744   2.908 -31.369  1.00  0.00    -0.123 NA
HETATM    5  N   UNL     1      -5.445   3.265 -31.570  1.00  0.00    -0.132 NA
ENDROOT
BRANCH   1   6
HETATM    6  C   UNL     1      -3.316   2.190 -32.259  1.00  0.00     0.256 C 
BRANCH   6   7
HETATM    7  O   UNL     1      -2.746   3.350 -31.658  1.00  0.00    -0.343 OA
BRANCH   7   8
HETATM    8  C   UNL     1      -2.268   4.284 -32.542  1.00  0.00     0.075 A 
HETATM    9  C   UNL     1      -1.326   5.198 -32.041  1.00  0.00    -0.029 A 
HETATM   10  C   UNL     1      -0.839   5.114 -30.621  1.00  0.00     0.051 C 
HETATM   11  C   UNL     1      -0.781   6.161 -32.903  1.00  0.00     0.009 A 
HETATM   12  C   UNL     1      -1.192   6.239 -34.234  1.00  0.00     0.001 A 
HETATM   13  C   UNL     1      -2.153   5.354 -34.715  1.00  0.00     0.003 A 
HETATM   14  C   UNL     1      -2.694   4.382 -33.872  1.00  0.00     0.037 A 
ENDBRANCH   7   8
ENDBRANCH   6   7
ENDBRANCH   1   6
BRANCH   2  15
HETATM   15  C   UNL     1      -5.325  -0.251 -32.396  1.00  0.00     0.137 C 
BRANCH  15  16
HETATM   16  C   UNL     1      -5.684  -0.596 -33.849  1.00  0.00     0.059 C 
BRANCH  16  17
HETATM   17  C   UNL     1      -5.618  -2.058 -34.221  1.00  0.00    -0.057 A 
HETATM   18  C   UNL     1      -6.747  -2.756 -34.668  1.00  0.00     0.007 A 
HETATM   19  C   UNL     1      -6.685  -4.128 -34.918  1.00  0.00     0.001 A 
HETATM   20  C   UNL     1      -5.497  -4.826 -34.713  1.00  0.00     0.000 A 
HETATM   21  C   UNL     1      -4.366  -4.150 -34.264  1.00  0.00     0.001 A 
HETATM   22  C   UNL     1      -4.425  -2.776 -34.020  1.00  0.00     0.007 A 
ENDBRANCH  16  17
ENDBRANCH  15  16
ENDBRANCH   2  15
BRANCH   3  23
HETATM   23  S   UNL     1      -8.344   0.747 -31.601  1.00  0.00    -0.081 SA
BRANCH  23  24
HETATM   24  C   UNL     1      -9.533   1.995 -32.182  1.00  0.00     0.185 C 
BRANCH  24  25
HETATM   25  C   UNL     1     -10.363   1.479 -33.345  1.00  0.00     0.226 C 
HETATM   26  N   UNL     1     -11.726   1.479 -33.125  1.00  0.00    -0.365 N 
HETATM   27  C   UNL     1     -12.643   1.064 -34.155  1.00  0.00     0.149 C 
HETATM   28  H   UNL     1     -12.072   2.138 -32.427  1.00  0.00     0.161 HD
HETATM   29  O   UNL     1      -9.850   1.065 -34.383  1.00  0.00    -0.273 OA
ENDBRANCH  24  25
ENDBRANCH  23  24
ENDBRANCH   3  23
TORSDOF 9
ENDMDL
MODEL 5
REMARK VINA RESULT:      -7.9      2.441      7.999
REMARK  9 active torsions:
REMARK  status: ('A' for Active; 'I' for Inactive)
REMARK    1  A    between atoms: C_3  and  O_4 
REMARK    2  A    between atoms: O_4  and  C_5 
REMARK    3  A    between atoms: C_5  and  C_6 
REMARK    4  A    between atoms: N_7  and  C_8 
REMARK    5  A    between atoms: C_8  and  C_9 
REMARK    6  A    between atoms: C_9  and  C_10 
REMARK    7  A    between atoms: C_16  and  S_17 
REMARK    8  A    between atoms: S_17  and  C_18 
REMARK    9  A    between atoms: C_18  and  C_19 
REMARK       I    between atoms: C_19  and  N_20 
ROOT
HETATM    1  C   UNL     1      -4.517   2.414 -32.215  1.00  0.00     0.155 A 
HETATM    2  N   UNL     1      -5.117   1.194 -31.965  1.00  0.00    -0.309 N 
HETATM    3  C   UNL     1      -6.266   1.211 -32.719  1.00  0.00     0.192 A 
HETATM    4  N   UNL     1      -6.380   2.363 -33.337  1.00  0.00    -0.123 NA
HETATM    5  N   UNL     1      -5.285   3.113 -33.031  1.00  0.00    -0.132 NA
ENDROOT
BRANCH   1   6
HETATM    6  C   UNL     1      -3.249   2.925 -31.623  1.00  0.00     0.256 C 
BRANCH   6   7
HETATM    7  O   UNL     1      -2.445   3.440 -32.682  1.00  0.00    -0.343 OA
BRANCH   7   8
HETATM    8  C   UNL     1      -1.817   4.628 -32.408  1.00  0.00     0.075 A 
HETATM    9  C   UNL     1      -1.524   5.451 -33.507  1.00  0.00    -0.029 A 
HETATM   10  C   UNL     1      -1.928   5.062 -34.902  1.00  0.00     0.051 C 
HETATM   11  C   UNL     1      -0.906   6.692 -33.288  1.00  0.00     0.009 A 
HETATM   12  C   UNL     1      -0.551   7.091 -32.000  1.00  0.00     0.001 A 
HETATM   13  C   UNL     1      -0.810   6.255 -30.918  1.00  0.00     0.003 A 
HETATM   14  C   UNL     1      -1.437   5.024 -31.119  1.00  0.00     0.037 A 
ENDBRANCH   7   8
ENDBRANCH   6   7
ENDBRANCH   1   6
BRANCH   2  15
HETATM   15  C   UNL     1      -4.639   0.133 -31.090  1.00  0.00     0.137 C 
BRANCH  15  16
HETATM   16  C   UNL     1      -3.351  -0.533 -31.595  1.00  0.00     0.059 C 
BRANCH  16  17
HETATM   17  C   UNL     1      -3.531  -1.764 -32.452  1.00  0.00    -0.057 A 
HETATM   18  C   UNL     1      -4.223  -1.719 -33.668  1.00  0.00     0.007 A 
HETATM   19  C   UNL     1      -4.457  -2.885 -34.399  1.00  0.00     0.001 A 
HETATM   20  C   UNL     1      -4.015  -4.116 -33.919  1.00  0.00     0.000 A 
HETATM   21  C   UNL     1      -3.331  -4.180 -32.709  1.00  0.00     0.001 A 
HETATM   22  C   UNL     1      -3.089  -3.013 -31.980  1.00  0.00     0.007 A 
ENDBRANCH  16  17
ENDBRANCH  15  16
ENDBRANCH   2  15
BRANCH   3  23
HETATM   23  S   UNL     1      -7.406  -0.083 -32.837  1.00  0.00    -0.081 SA
BRANCH  23  24
HETATM   24  C   UNL     1      -8.886   0.683 -32.109  1.00  0.00     0.185 C 
BRANCH  24  25
HETATM   25  C   UNL     1      -9.857   1.154 -33.180  1.00  0.00     0.226 C 
HETATM   26  N   UNL     1     -11.004   1.748 -32.695  1.00  0.00    -0.365 N 
HETATM   27  C   UNL     1     -11.994   2.289 -33.592  1.00  0.00     0.149 C 
HETATM   28  H   UNL     1     -10.943   2.158 -31.763  1.00  0.00     0.161 HD
HETATM   29  O   UNL     1      -9.643   0.984 -34.379  1.00  0.00    -0.273 OA
ENDBRANCH  24  25
ENDBRANCH  23  24
ENDBRANCH   3  23
TORSDOF 9
ENDMDL
MODEL 6
REMARK VINA RESULT:      -7.8      2.094      5.518
REMARK  9 active torsions:
REMARK  status: ('A' for Active; 'I' for Inactive)
REMARK    1  A    between atoms: C_3  and  O_4 
REMARK    2  A    between atoms: O_4  and  C_5 
REMARK    3  A    between atoms: C_5  and  C_6 
REMARK    4  A    between atoms: N_7  and  C_8 
REMARK    5  A    between atoms: C_8  and  C_9 
REMARK    6  A    between atoms: C_9  and  C_10 
REMARK    7  A    between atoms: C_16  and  S_17 
REMARK    8  A    between atoms: S_17  and  C_18 
REMARK    9  A    between atoms: C_18  and  C_19 
REMARK       I    between atoms: C_19  and  N_20 
ROOT
HETATM    1  C   UNL     1      -6.867   2.408 -33.632  1.00  0.00     0.155 A 
HETATM    2  N   UNL     1      -5.876   1.779 -32.901  1.00  0.00    -0.309 N 
HETATM    3  C   UNL     1      -4.924   2.749 -32.700  1.00  0.00     0.192 A 
HETATM    4  N   UNL     1      -5.282   3.860 -33.298  1.00  0.00    -0.123 NA
HETATM    5  N   UNL     1      -6.499   3.653 -33.875  1.00  0.00    -0.132 NA
ENDROOT
BRANCH   1   6
HETATM    6  C   UNL     1      -8.125   1.796 -34.145  1.00  0.00     0.256 C 
BRANCH   6   7
HETATM    7  O   UNL     1      -9.182   2.731 -33.945  1.00  0.00    -0.343 OA
BRANCH   7   8
HETATM    8  C   UNL     1     -10.445   2.219 -34.101  1.00  0.00     0.075 A 
HETATM    9  C   UNL     1     -11.337   2.976 -34.879  1.00  0.00    -0.029 A 
HETATM   10  C   UNL     1     -10.902   4.253 -35.542  1.00  0.00     0.051 C 
HETATM   11  C   UNL     1     -12.636   2.491 -35.097  1.00  0.00     0.009 A 
HETATM   12  C   UNL     1     -13.053   1.292 -34.520  1.00  0.00     0.001 A 
HETATM   13  C   UNL     1     -12.176   0.565 -33.720  1.00  0.00     0.003 A 
HETATM   14  C   UNL     1     -10.877   1.028 -33.506  1.00  0.00     0.037 A 
ENDBRANCH   7   8
ENDBRANCH   6   7
ENDBRANCH   1   6
BRANCH   2  15
HETATM   15  C   UNL     1      -5.847   0.394 -32.453  1.00  0.00     0.137 C 
BRANCH  15  16
HETATM   16  C   UNL     1      -4.789  -0.454 -33.174  1.00  0.00     0.059 C 
BRANCH  16  17
HETATM   17  C   UNL     1      -5.259  -1.782 -33.717  1.00  0.00    -0.057 A 
HETATM   18  C   UNL     1      -4.367  -2.835 -33.958  1.00  0.00     0.007 A 
HETATM   19  C   UNL     1      -4.808  -4.022 -34.546  1.00  0.00     0.001 A 
HETATM   20  C   UNL     1      -6.144  -4.170 -34.915  1.00  0.00     0.000 A 
HETATM   21  C   UNL     1      -7.042  -3.132 -34.687  1.00  0.00     0.001 A 
HETATM   22  C   UNL     1      -6.604  -1.946 -34.092  1.00  0.00     0.007 A 
ENDBRANCH  16  17
ENDBRANCH  15  16
ENDBRANCH   2  15
BRANCH   3  23
HETATM   23  S   UNL     1      -3.462   2.547 -31.800  1.00  0.00    -0.081 SA
BRANCH  23  24
HETATM   24  C   UNL     1      -2.984   4.277 -31.511  1.00  0.00     0.185 C 
BRANCH  24  25
HETATM   25  C   UNL     1      -1.864   4.712 -32.442  1.00  0.00     0.226 C 
HETATM   26  N   UNL     1      -2.262   4.969 -33.739  1.00  0.00    -0.365 N 
HETATM   27  C   UNL     1      -1.320   5.439 -34.723  1.00  0.00     0.149 C 
HETATM   28  H   UNL     1      -3.242   5.220 -33.871  1.00  0.00     0.161 HD
HETATM   29  O   UNL     1      -0.695   4.793 -32.069  1.00  0.00    -0.273 OA
ENDBRANCH  24  25
ENDBRANCH  23  24
ENDBRANCH   3  23
TORSDOF 9
ENDMDL
MODEL 7
REMARK VINA RESULT:      -7.8      1.340      2.240
REMARK  9 active torsions:
REMARK  status: ('A' for Active; 'I' for Inactive)
REMARK    1  A    between atoms: C_3  and  O_4 
REMARK    2  A    between atoms: O_4  and  C_5 
REMARK    3  A    between atoms: C_5  and  C_6 
REMARK    4  A    between atoms: N_7  and  C_8 
REMARK    5  A    between atoms: C_8  and  C_9 
REMARK    6  A    between atoms: C_9  and  C_10 
REMARK    7  A    between atoms: C_16  and  S_17 
REMARK    8  A    between atoms: S_17  and  C_18 
REMARK    9  A    between atoms: C_18  and  C_19 
REMARK       I    between atoms: C_19  and  N_20 
ROOT
HETATM    1  C   UNL     1      -4.165   0.217 -31.588  1.00  0.00     0.155 A 
HETATM    2  N   UNL     1      -4.994   1.322 -31.532  1.00  0.00    -0.309 N 
HETATM    3  C   UNL     1      -4.151   2.376 -31.274  1.00  0.00     0.192 A 
HETATM    4  N   UNL     1      -2.921   1.943 -31.134  1.00  0.00    -0.123 NA
HETATM    5  N   UNL     1      -2.925   0.595 -31.338  1.00  0.00    -0.132 NA
ENDROOT
BRANCH   1   6
HETATM    6  C   UNL     1      -4.575  -1.198 -31.815  1.00  0.00     0.256 C 
BRANCH   6   7
HETATM    7  O   UNL     1      -4.059  -1.607 -33.079  1.00  0.00    -0.343 OA
BRANCH   7   8
HETATM    8  C   UNL     1      -4.871  -2.455 -33.788  1.00  0.00     0.075 A 
HETATM    9  C   UNL     1      -4.475  -3.802 -33.845  1.00  0.00    -0.029 A 
HETATM   10  C   UNL     1      -3.251  -4.285 -33.119  1.00  0.00     0.051 C 
HETATM   11  C   UNL     1      -5.279  -4.723 -34.534  1.00  0.00     0.009 A 
HETATM   12  C   UNL     1      -6.439  -4.306 -35.187  1.00  0.00     0.001 A 
HETATM   13  C   UNL     1      -6.806  -2.963 -35.159  1.00  0.00     0.003 A 
HETATM   14  C   UNL     1      -6.023  -2.038 -34.466  1.00  0.00     0.037 A 
ENDBRANCH   7   8
ENDBRANCH   6   7
ENDBRANCH   1   6
BRANCH   2  15
HETATM   15  C   UNL     1      -6.440   1.356 -31.703  1.00  0.00     0.137 C 
BRANCH  15  16
HETATM   16  C   UNL     1      -6.881   1.177 -33.163  1.00  0.00     0.059 C 
BRANCH  16  17
HETATM   17  C   UNL     1      -8.370   1.079 -33.399  1.00  0.00    -0.057 A 
HETATM   18  C   UNL     1      -9.073   2.077 -34.087  1.00  0.00     0.007 A 
HETATM   19  C   UNL     1     -10.462   2.013 -34.214  1.00  0.00     0.001 A 
HETATM   20  C   UNL     1     -11.171   0.957 -33.644  1.00  0.00     0.000 A 
HETATM   21  C   UNL     1     -10.489  -0.040 -32.953  1.00  0.00     0.001 A 
HETATM   22  C   UNL     1      -9.099   0.019 -32.832  1.00  0.00     0.007 A 
ENDBRANCH  16  17
ENDBRANCH  15  16
ENDBRANCH   2  15
BRANCH   3  23
HETATM   23  S   UNL     1      -4.630   4.031 -31.139  1.00  0.00    -0.081 SA
BRANCH  23  24
HETATM   24  C   UNL     1      -3.046   4.880 -31.420  1.00  0.00     0.185 C 
BRANCH  24  25
HETATM   25  C   UNL     1      -2.909   5.348 -32.860  1.00  0.00     0.226 C 
HETATM   26  N   UNL     1      -1.784   4.885 -33.512  1.00  0.00    -0.365 N 
HETATM   27  C   UNL     1      -1.546   5.204 -34.896  1.00  0.00     0.149 C 
HETATM   28  H   UNL     1      -1.376   4.021 -33.153  1.00  0.00     0.161 HD
HETATM   29  O   UNL     1      -3.724   6.106 -33.383  1.00  0.00    -0.273 OA
ENDBRANCH  24  25
ENDBRANCH  23  24
ENDBRANCH   3  23
TORSDOF 9
ENDMDL
MODEL 8
REMARK VINA RESULT:      -7.7      2.698      5.366
REMARK  9 active torsions:
REMARK  status: ('A' for Active; 'I' for Inactive)
REMARK    1  A    between atoms: C_3  and  O_4 
REMARK    2  A    between atoms: O_4  and  C_5 
REMARK    3  A    between atoms: C_5  and  C_6 
REMARK    4  A    between atoms: N_7  and  C_8 
REMARK    5  A    between atoms: C_8  and  C_9 
REMARK    6  A    between atoms: C_9  and  C_10 
REMARK    7  A    between atoms: C_16  and  S_17 
REMARK    8  A    between atoms: S_17  and  C_18 
REMARK    9  A    between atoms: C_18  and  C_19 
REMARK       I    between atoms: C_19  and  N_20 
ROOT
HETATM    1  C   UNL     1      -5.182   0.593 -31.777  1.00  0.00     0.155 A 
HETATM    2  N   UNL     1      -4.717   1.881 -31.580  1.00  0.00    -0.309 N 
HETATM    3  C   UNL     1      -5.833   2.604 -31.234  1.00  0.00     0.192 A 
HETATM    4  N   UNL     1      -6.894   1.834 -31.264  1.00  0.00    -0.123 NA
HETATM    5  N   UNL     1      -6.490   0.576 -31.595  1.00  0.00    -0.132 NA
ENDROOT
BRANCH   1   6
HETATM    6  C   UNL     1      -4.384  -0.592 -32.199  1.00  0.00     0.256 C 
BRANCH   6   7
HETATM    7  O   UNL     1      -4.575  -0.774 -33.599  1.00  0.00    -0.343 OA
BRANCH   7   8
HETATM    8  C   UNL     1      -4.952  -2.039 -33.972  1.00  0.00     0.075 A 
HETATM    9  C   UNL     1      -6.243  -2.177 -34.510  1.00  0.00    -0.029 A 
HETATM   10  C   UNL     1      -7.135  -0.983 -34.707  1.00  0.00     0.051 C 
HETATM   11  C   UNL     1      -6.676  -3.442 -34.934  1.00  0.00     0.009 A 
HETATM   12  C   UNL     1      -5.854  -4.560 -34.793  1.00  0.00     0.001 A 
HETATM   13  C   UNL     1      -4.590  -4.424 -34.225  1.00  0.00     0.003 A 
HETATM   14  C   UNL     1      -4.141  -3.169 -33.811  1.00  0.00     0.037 A 
ENDBRANCH   7   8
ENDBRANCH   6   7
ENDBRANCH   1   6
BRANCH   2  15
HETATM   15  C   UNL     1      -3.350   2.361 -31.719  1.00  0.00     0.137 C 
BRANCH  15  16
HETATM   16  C   UNL     1      -3.121   3.178 -32.999  1.00  0.00     0.059 C 
BRANCH  16  17
HETATM   17  C   UNL     1      -2.232   4.391 -32.863  1.00  0.00    -0.057 A 
HETATM   18  C   UNL     1      -1.723   4.795 -31.622  1.00  0.00     0.007 A 
HETATM   19  C   UNL     1      -0.980   5.971 -31.505  1.00  0.00     0.001 A 
HETATM   20  C   UNL     1      -0.745   6.769 -32.624  1.00  0.00     0.000 A 
HETATM   21  C   UNL     1      -1.249   6.385 -33.863  1.00  0.00     0.001 A 
HETATM   22  C   UNL     1      -1.986   5.205 -33.983  1.00  0.00     0.007 A 
ENDBRANCH  16  17
ENDBRANCH  15  16
ENDBRANCH   2  15
BRANCH   3  23
HETATM   23  S   UNL     1      -5.850   4.283 -30.824  1.00  0.00    -0.081 SA
BRANCH  23  24
HETATM   24  C   UNL     1      -7.185   4.331 -29.590  1.00  0.00     0.185 C 
BRANCH  24  25
HETATM   25  C   UNL     1      -6.817   5.206 -28.402  1.00  0.00     0.226 C 
HETATM   26  N   UNL     1      -5.500   5.111 -28.002  1.00  0.00    -0.365 N 
HETATM   27  C   UNL     1      -4.993   5.918 -26.922  1.00  0.00     0.149 C 
HETATM   28  H   UNL     1      -4.833   4.803 -28.711  1.00  0.00     0.161 HD
HETATM   29  O   UNL     1      -7.644   5.913 -27.829  1.00  0.00    -0.273 OA
ENDBRANCH  24  25
ENDBRANCH  23  24
ENDBRANCH   3  23
TORSDOF 9
ENDMDL
MODEL 9
REMARK VINA RESULT:      -7.7      3.804      7.187
REMARK  9 active torsions:
REMARK  status: ('A' for Active; 'I' for Inactive)
REMARK    1  A    between atoms: C_3  and  O_4 
REMARK    2  A    between atoms: O_4  and  C_5 
REMARK    3  A    between atoms: C_5  and  C_6 
REMARK    4  A    between atoms: N_7  and  C_8 
REMARK    5  A    between atoms: C_8  and  C_9 
REMARK    6  A    between atoms: C_9  and  C_10 
REMARK    7  A    between atoms: C_16  and  S_17 
REMARK    8  A    between atoms: S_17  and  C_18 
REMARK    9  A    between atoms: C_18  and  C_19 
REMARK       I    between atoms: C_19  and  N_20 
ROOT
HETATM    1  C   UNL     1      -8.455   0.464 -32.640  1.00  0.00     0.155 A 
HETATM    2  N   UNL     1      -8.772   1.809 -32.695  1.00  0.00    -0.309 N 
HETATM    3  C   UNL     1     -10.117   1.839 -32.970  1.00  0.00     0.192 A 
HETATM    4  N   UNL     1     -10.572   0.617 -33.117  1.00  0.00    -0.123 NA
HETATM    5  N   UNL     1      -9.538  -0.244 -32.904  1.00  0.00    -0.132 NA
ENDROOT
BRANCH   1   6
HETATM    6  C   UNL     1      -7.110  -0.129 -32.398  1.00  0.00     0.256 C 
BRANCH   6   7
HETATM    7  O   UNL     1      -6.451  -0.248 -33.656  1.00  0.00    -0.343 OA
BRANCH   7   8
HETATM    8  C   UNL     1      -6.109  -1.528 -34.012  1.00  0.00     0.075 A 
HETATM    9  C   UNL     1      -4.751  -1.870 -33.900  1.00  0.00    -0.029 A 
HETATM   10  C   UNL     1      -3.743  -0.890 -33.368  1.00  0.00     0.051 C 
HETATM   11  C   UNL     1      -4.345  -3.173 -34.224  1.00  0.00     0.009 A 
HETATM   12  C   UNL     1      -5.267  -4.111 -34.689  1.00  0.00     0.001 A 
HETATM   13  C   UNL     1      -6.605  -3.756 -34.833  1.00  0.00     0.003 A 
HETATM   14  C   UNL     1      -7.026  -2.467 -34.502  1.00  0.00     0.037 A 
ENDBRANCH   7   8
ENDBRANCH   6   7
ENDBRANCH   1   6
BRANCH   2  15
HETATM   15  C   UNL     1      -7.873   2.940 -32.511  1.00  0.00     0.137 C 
BRANCH  15  16
HETATM   16  C   UNL     1      -7.079   3.295 -33.776  1.00  0.00     0.059 C 
BRANCH  16  17
HETATM   17  C   UNL     1      -5.602   3.547 -33.584  1.00  0.00    -0.057 A 
HETATM   18  C   UNL     1      -4.826   2.760 -32.723  1.00  0.00     0.007 A 
HETATM   19  C   UNL     1      -3.485   3.068 -32.490  1.00  0.00     0.001 A 
HETATM   20  C   UNL     1      -2.901   4.174 -33.105  1.00  0.00     0.000 A 
HETATM   21  C   UNL     1      -3.658   4.970 -33.959  1.00  0.00     0.001 A 
HETATM   22  C   UNL     1      -4.999   4.659 -34.198  1.00  0.00     0.007 A 
ENDBRANCH  16  17
ENDBRANCH  15  16
ENDBRANCH   2  15
BRANCH   3  23
HETATM   23  S   UNL     1     -11.079   3.268 -33.111  1.00  0.00    -0.081 SA
BRANCH  23  24
HETATM   24  C   UNL     1     -12.044   2.897 -34.608  1.00  0.00     0.185 C 
BRANCH  24  25
HETATM   25  C   UNL     1     -13.362   2.220 -34.270  1.00  0.00     0.226 C 
HETATM   26  N   UNL     1     -13.866   2.529 -33.024  1.00  0.00    -0.365 N 
HETATM   27  C   UNL     1     -15.133   2.002 -32.585  1.00  0.00     0.149 C 
HETATM   28  H   UNL     1     -13.562   3.415 -32.619  1.00  0.00     0.161 HD
HETATM   29  O   UNL     1     -13.911   1.434 -35.041  1.00  0.00    -0.273 OA
ENDBRANCH  24  25
ENDBRANCH  23  24
ENDBRANCH   3  23
TORSDOF 9
ENDMDL
MODEL 10
REMARK VINA RESULT:      -7.7      2.429      7.251
REMARK  9 active torsions:
REMARK  status: ('A' for Active; 'I' for Inactive)
REMARK    1  A    between atoms: C_3  and  O_4 
REMARK    2  A    between atoms: O_4  and  C_5 
REMARK    3  A    between atoms: C_5  and  C_6 
REMARK    4  A    between atoms: N_7  and  C_8 
REMARK    5  A    between atoms: C_8  and  C_9 
REMARK    6  A    between atoms: C_9  and  C_10 
REMARK    7  A    between atoms: C_16  and  S_17 
REMARK    8  A    between atoms: S_17  and  C_18 
REMARK    9  A    between atoms: C_18  and  C_19 
REMARK       I    between atoms: C_19  and  N_20 
ROOT
HETATM    1  C   UNL     1      -4.779   3.122 -32.686  1.00  0.00     0.155 A 
HETATM    2  N   UNL     1      -5.659   2.071 -32.871  1.00  0.00    -0.309 N 
HETATM    3  C   UNL     1      -6.640   2.580 -33.687  1.00  0.00     0.192 A 
HETATM    4  N   UNL     1      -6.404   3.845 -33.939  1.00  0.00    -0.123 NA
HETATM    5  N   UNL     1      -5.238   4.185 -33.322  1.00  0.00    -0.132 NA
ENDROOT
BRANCH   1   6
HETATM    6  C   UNL     1      -3.544   3.118 -31.854  1.00  0.00     0.256 C 
BRANCH   6   7
HETATM    7  O   UNL     1      -2.440   3.419 -32.704  1.00  0.00    -0.343 OA
BRANCH   7   8
HETATM    8  C   UNL     1      -1.817   4.613 -32.444  1.00  0.00     0.075 A 
HETATM    9  C   UNL     1      -1.582   5.452 -33.546  1.00  0.00    -0.029 A 
HETATM   10  C   UNL     1      -2.040   5.070 -34.926  1.00  0.00     0.051 C 
HETATM   11  C   UNL     1      -0.973   6.698 -33.340  1.00  0.00     0.009 A 
HETATM   12  C   UNL     1      -0.569   7.090 -32.064  1.00  0.00     0.001 A 
HETATM   13  C   UNL     1      -0.770   6.239 -30.981  1.00  0.00     0.003 A 
HETATM   14  C   UNL     1      -1.388   5.002 -31.169  1.00  0.00     0.037 A 
ENDBRANCH   7   8
ENDBRANCH   6   7
ENDBRANCH   1   6
BRANCH   2  15
HETATM   15  C   UNL     1      -5.567   0.729 -32.315  1.00  0.00     0.137 C 
BRANCH  15  16
HETATM   16  C   UNL     1      -4.561  -0.165 -33.053  1.00  0.00     0.059 C 
BRANCH  16  17
HETATM   17  C   UNL     1      -5.105  -1.458 -33.612  1.00  0.00    -0.057 A 
HETATM   18  C   UNL     1      -4.268  -2.537 -33.921  1.00  0.00     0.007 A 
HETATM   19  C   UNL     1      -4.780  -3.688 -34.522  1.00  0.00     0.001 A 
HETATM   20  C   UNL     1      -6.135  -3.773 -34.838  1.00  0.00     0.000 A 
HETATM   21  C   UNL     1      -6.980  -2.708 -34.543  1.00  0.00     0.001 A 
HETATM   22  C   UNL     1      -6.471  -1.558 -33.935  1.00  0.00     0.007 A 
ENDBRANCH  16  17
ENDBRANCH  15  16
ENDBRANCH   2  15
BRANCH   3  23
HETATM   23  S   UNL     1      -7.996   1.696 -34.293  1.00  0.00    -0.081 SA
BRANCH  23  24
HETATM   24  C   UNL     1      -9.376   2.583 -33.507  1.00  0.00     0.185 C 
BRANCH  24  25
HETATM   25  C   UNL     1      -9.147   2.766 -32.016  1.00  0.00     0.226 C 
HETATM   26  N   UNL     1      -8.904   4.068 -31.626  1.00  0.00    -0.365 N 
HETATM   27  C   UNL     1      -8.718   4.403 -30.238  1.00  0.00     0.149 C 
HETATM   28  H   UNL     1      -9.262   4.799 -32.241  1.00  0.00     0.161 HD
HETATM   29  O   UNL     1      -9.147   1.819 -31.232  1.00  0.00    -0.273 OA
ENDBRANCH  24  25
ENDBRANCH  23  24
ENDBRANCH   3  23
TORSDOF 9
ENDMDL
