MODEL 1
REMARK VINA RESULT:      -7.6      0.000      0.000
REMARK  11 active torsions:
REMARK  status: ('A' for Active; 'I' for Inactive)
REMARK    1  A    between atoms: C_2  and  O_3 
REMARK    2  A    between atoms: O_3  and  C_4 
REMARK    3  A    between atoms: C_7  and  C_8 
REMARK       I    between atoms: C_8  and  N_9 
REMARK    4  A    between atoms: N_9  and  C_10 
REMARK    5  A    between atoms: C_10  and  N_11 
REMARK    6  A    between atoms: N_11  and  C_12 
REMARK    7  A    between atoms: C_13  and  C_14 
REMARK       I    between atoms: C_14  and  N_15 
REMARK    8  A    between atoms: N_15  and  C_16 
REMARK    9  A    between atoms: C_16  and  C_17 
REMARK   10  A    between atoms: C_17  and  C_18 
REMARK   11  A    between atoms: C_18  and  O_19 
ROOT
HETATM    1  N   UNL     1      -3.048   4.127 -31.212  1.00  0.00    -0.332 N 
HETATM    2  H   UNL     1      -2.492   3.509 -30.626  1.00  0.00     0.168 HD
ENDROOT
BRANCH   1   3
HETATM    3  C   UNL     1      -4.419   3.873 -31.150  1.00  0.00     0.179 C 
HETATM    4  S   UNL     1      -5.599   5.043 -30.957  1.00  0.00    -0.040 SA
BRANCH   3   5
HETATM    5  N   UNL     1      -4.640   2.502 -31.338  1.00  0.00    -0.299 N 
HETATM    6  C   UNL     1      -3.693   1.486 -31.442  1.00  0.00     0.257 C 
HETATM    7  O   UNL     1      -2.606   1.466 -30.875  1.00  0.00    -0.267 OA
HETATM    8  H   UNL     1      -5.522   2.332 -31.797  1.00  0.00     0.171 HD
BRANCH   6   9
HETATM    9  C   UNL     1      -4.091   0.300 -32.246  1.00  0.00     0.032 A 
HETATM   10  C   UNL     1      -5.164   0.446 -33.135  1.00  0.00     0.020 A 
HETATM   11  C   UNL     1      -5.584  -0.628 -33.926  1.00  0.00     0.038 A 
HETATM   12  C   UNL     1      -4.925  -1.853 -33.845  1.00  0.00     0.068 A 
HETATM   13  C   UNL     1      -3.853  -1.999 -32.958  1.00  0.00     0.038 A 
HETATM   14  C   UNL     1      -3.428  -0.928 -32.164  1.00  0.00     0.020 A 
BRANCH  12  15
HETATM   15  O   UNL     1      -5.223  -2.974 -34.570  1.00  0.00    -0.352 OA
BRANCH  15  16
HETATM   16  C   UNL     1      -6.607  -3.287 -34.732  1.00  0.00     0.171 C 
HETATM   17  C   UNL     1      -6.706  -4.622 -35.449  1.00  0.00     0.034 C 
ENDBRANCH  15  16
ENDBRANCH  12  15
ENDBRANCH   6   9
ENDBRANCH   3   5
ENDBRANCH   1   3
BRANCH   1  18
HETATM   18  C   UNL     1      -2.326   4.807 -32.228  1.00  0.00     0.050 A 
HETATM   19  C   UNL     1      -1.682   6.028 -31.953  1.00  0.00     0.058 A 
HETATM   20  C   UNL     1      -1.088   6.769 -32.987  1.00  0.00     0.019 A 
HETATM   21  C   UNL     1      -1.112   6.289 -34.295  1.00  0.00     0.001 A 
HETATM   22  C   UNL     1      -1.737   5.078 -34.575  1.00  0.00     0.002 A 
HETATM   23  C   UNL     1      -2.348   4.346 -33.552  1.00  0.00     0.030 A 
BRANCH  19  24
HETATM   24  C   UNL     1      -1.543   6.574 -30.579  1.00  0.00     0.253 C 
HETATM   25  N   UNL     1      -0.255   6.899 -30.198  1.00  0.00    -0.357 N 
HETATM   26  H   UNL     1       0.463   6.917 -30.917  1.00  0.00     0.162 HD
HETATM   27  O   UNL     1      -2.529   6.744 -29.875  1.00  0.00    -0.268 OA
BRANCH  25  28
HETATM   28  C   UNL     1       0.002   7.632 -28.972  1.00  0.00     0.125 C 
BRANCH  28  29
HETATM   29  C   UNL     1       0.755   6.777 -27.959  1.00  0.00     0.046 C 
BRANCH  29  30
HETATM   30  C   UNL     1      -0.140   6.379 -26.795  1.00  0.00     0.165 C 
BRANCH  30  31
HETATM   31  O   UNL     1      -1.494   6.309 -27.221  1.00  0.00    -0.401 OA
HETATM   32  H   UNL     1      -1.539   6.650 -28.131  1.00  0.00     0.209 HD
ENDBRANCH  30  31
ENDBRANCH  29  30
ENDBRANCH  28  29
ENDBRANCH  25  28
ENDBRANCH  19  24
ENDBRANCH   1  18
TORSDOF 11
ENDMDL
MODEL 2
REMARK VINA RESULT:      -7.3      3.413      5.587
REMARK  11 active torsions:
REMARK  status: ('A' for Active; 'I' for Inactive)
REMARK    1  A    between atoms: C_2  and  O_3 
REMARK    2  A    between atoms: O_3  and  C_4 
REMARK    3  A    between atoms: C_7  and  C_8 
REMARK       I    between atoms: C_8  and  N_9 
REMARK    4  A    between atoms: N_9  and  C_10 
REMARK    5  A    between atoms: C_10  and  N_11 
REMARK    6  A    between atoms: N_11  and  C_12 
REMARK    7  A    between atoms: C_13  and  C_14 
REMARK       I    between atoms: C_14  and  N_15 
REMARK    8  A    between atoms: N_15  and  C_16 
REMARK    9  A    between atoms: C_16  and  C_17 
REMARK   10  A    between atoms: C_17  and  C_18 
REMARK   11  A    between atoms: C_18  and  O_19 
ROOT
HETATM    1  N   UNL     1      -8.752   4.015 -33.588  1.00  0.00    -0.332 N 
HETATM    2  H   UNL     1      -8.845   4.990 -33.864  1.00  0.00     0.168 HD
ENDROOT
BRANCH   1   3
HETATM    3  C   UNL     1      -9.550   3.144 -34.333  1.00  0.00     0.179 C 
HETATM    4  S   UNL     1     -11.063   3.519 -34.939  1.00  0.00    -0.040 SA
BRANCH   3   5
HETATM    5  N   UNL     1      -8.853   1.946 -34.537  1.00  0.00    -0.299 N 
HETATM    6  C   UNL     1      -8.909   0.780 -33.778  1.00  0.00     0.257 C 
HETATM    7  O   UNL     1      -9.895   0.369 -33.177  1.00  0.00    -0.267 OA
HETATM    8  H   UNL     1      -7.994   2.103 -35.042  1.00  0.00     0.171 HD
BRANCH   6   9
HETATM    9  C   UNL     1      -7.684  -0.064 -33.782  1.00  0.00     0.032 A 
HETATM   10  C   UNL     1      -6.903  -0.083 -32.619  1.00  0.00     0.020 A 
HETATM   11  C   UNL     1      -5.743  -0.862 -32.554  1.00  0.00     0.038 A 
HETATM   12  C   UNL     1      -5.362  -1.638 -33.647  1.00  0.00     0.068 A 
HETATM   13  C   UNL     1      -6.142  -1.619 -34.807  1.00  0.00     0.038 A 
HETATM   14  C   UNL     1      -7.304  -0.843 -34.879  1.00  0.00     0.020 A 
BRANCH  12  15
HETATM   15  O   UNL     1      -4.264  -2.452 -33.709  1.00  0.00    -0.352 OA
BRANCH  15  16
HETATM   16  C   UNL     1      -4.451  -3.742 -34.292  1.00  0.00     0.171 C 
HETATM   17  C   UNL     1      -3.499  -4.708 -33.608  1.00  0.00     0.034 C 
ENDBRANCH  15  16
ENDBRANCH  12  15
ENDBRANCH   6   9
ENDBRANCH   3   5
ENDBRANCH   1   3
BRANCH   1  18
HETATM   18  C   UNL     1      -8.178   3.801 -32.308  1.00  0.00     0.050 A 
HETATM   19  C   UNL     1      -6.789   3.620 -32.168  1.00  0.00     0.058 A 
HETATM   20  C   UNL     1      -6.237   3.271 -30.926  1.00  0.00     0.019 A 
HETATM   21  C   UNL     1      -7.060   3.121 -29.812  1.00  0.00     0.001 A 
HETATM   22  C   UNL     1      -8.433   3.308 -29.938  1.00  0.00     0.002 A 
HETATM   23  C   UNL     1      -8.991   3.636 -31.178  1.00  0.00     0.030 A 
BRANCH  19  24
HETATM   24  C   UNL     1      -5.831   3.835 -33.284  1.00  0.00     0.253 C 
HETATM   25  N   UNL     1      -4.753   4.647 -32.991  1.00  0.00    -0.357 N 
HETATM   26  H   UNL     1      -4.590   4.888 -32.017  1.00  0.00     0.162 HD
HETATM   27  O   UNL     1      -6.001   3.284 -34.363  1.00  0.00    -0.268 OA
BRANCH  25  28
HETATM   28  C   UNL     1      -3.637   4.774 -33.911  1.00  0.00     0.125 C 
BRANCH  28  29
HETATM   29  C   UNL     1      -2.331   4.318 -33.269  1.00  0.00     0.046 C 
BRANCH  29  30
HETATM   30  C   UNL     1      -2.404   4.387 -31.751  1.00  0.00     0.165 C 
BRANCH  30  31
HETATM   31  O   UNL     1      -2.640   3.093 -31.213  1.00  0.00    -0.401 OA
HETATM   32  H   UNL     1      -1.777   2.678 -31.042  1.00  0.00     0.209 HD
ENDBRANCH  30  31
ENDBRANCH  29  30
ENDBRANCH  28  29
ENDBRANCH  25  28
ENDBRANCH  19  24
ENDBRANCH   1  18
TORSDOF 11
ENDMDL
MODEL 3
REMARK VINA RESULT:      -7.2      1.312      1.716
REMARK  11 active torsions:
REMARK  status: ('A' for Active; 'I' for Inactive)
REMARK    1  A    between atoms: C_2  and  O_3 
REMARK    2  A    between atoms: O_3  and  C_4 
REMARK    3  A    between atoms: C_7  and  C_8 
REMARK       I    between atoms: C_8  and  N_9 
REMARK    4  A    between atoms: N_9  and  C_10 
REMARK    5  A    between atoms: C_10  and  N_11 
REMARK    6  A    between atoms: N_11  and  C_12 
REMARK    7  A    between atoms: C_13  and  C_14 
REMARK       I    between atoms: C_14  and  N_15 
REMARK    8  A    between atoms: N_15  and  C_16 
REMARK    9  A    between atoms: C_16  and  C_17 
REMARK   10  A    between atoms: C_17  and  C_18 
REMARK   11  A    between atoms: C_18  and  O_19 
ROOT
HETATM    1  N   UNL     1      -2.910   4.039 -31.276  1.00  0.00    -0.332 N 
HETATM    2  H   UNL     1      -2.303   3.466 -30.694  1.00  0.00     0.168 HD
ENDROOT
BRANCH   1   3
HETATM    3  C   UNL     1      -4.247   3.641 -31.252  1.00  0.00     0.179 C 
HETATM    4  S   UNL     1      -5.441   4.363 -30.330  1.00  0.00    -0.040 SA
BRANCH   3   5
HETATM    5  N   UNL     1      -4.430   2.593 -32.164  1.00  0.00    -0.299 N 
HETATM    6  C   UNL     1      -5.433   2.451 -33.119  1.00  0.00     0.257 C 
HETATM    7  O   UNL     1      -5.983   3.369 -33.716  1.00  0.00    -0.267 OA
HETATM    8  H   UNL     1      -4.016   1.737 -31.826  1.00  0.00     0.171 HD
BRANCH   6   9
HETATM    9  C   UNL     1      -5.790   1.055 -33.490  1.00  0.00     0.032 A 
HETATM   10  C   UNL     1      -5.156   0.016 -32.798  1.00  0.00     0.020 A 
HETATM   11  C   UNL     1      -5.452  -1.319 -33.092  1.00  0.00     0.038 A 
HETATM   12  C   UNL     1      -6.396  -1.625 -34.070  1.00  0.00     0.068 A 
HETATM   13  C   UNL     1      -7.030  -0.587 -34.760  1.00  0.00     0.038 A 
HETATM   14  C   UNL     1      -6.738   0.751 -34.471  1.00  0.00     0.020 A 
BRANCH  12  15
HETATM   15  O   UNL     1      -6.788  -2.882 -34.442  1.00  0.00    -0.352 OA
BRANCH  15  16
HETATM   16  C   UNL     1      -5.914  -3.597 -35.316  1.00  0.00     0.171 C 
HETATM   17  C   UNL     1      -5.416  -4.828 -34.579  1.00  0.00     0.034 C 
ENDBRANCH  15  16
ENDBRANCH  12  15
ENDBRANCH   6   9
ENDBRANCH   3   5
ENDBRANCH   1   3
BRANCH   1  18
HETATM   18  C   UNL     1      -2.244   4.820 -32.257  1.00  0.00     0.050 A 
HETATM   19  C   UNL     1      -1.727   6.088 -31.931  1.00  0.00     0.058 A 
HETATM   20  C   UNL     1      -1.194   6.919 -32.929  1.00  0.00     0.019 A 
HETATM   21  C   UNL     1      -1.151   6.483 -34.252  1.00  0.00     0.001 A 
HETATM   22  C   UNL     1      -1.649   5.227 -34.582  1.00  0.00     0.002 A 
HETATM   23  C   UNL     1      -2.201   4.404 -33.595  1.00  0.00     0.030 A 
BRANCH  19  24
HETATM   24  C   UNL     1      -1.662   6.599 -30.538  1.00  0.00     0.253 C 
HETATM   25  N   UNL     1      -0.507   7.281 -30.210  1.00  0.00    -0.357 N 
HETATM   26  H   UNL     1       0.123   7.541 -30.965  1.00  0.00     0.162 HD
HETATM   27  O   UNL     1      -2.603   6.438 -29.773  1.00  0.00    -0.268 OA
BRANCH  25  28
HETATM   28  C   UNL     1      -0.395   8.012 -28.960  1.00  0.00     0.125 C 
BRANCH  28  29
HETATM   29  C   UNL     1       0.766   7.497 -28.116  1.00  0.00     0.046 C 
BRANCH  29  30
HETATM   30  C   UNL     1       0.273   6.652 -26.951  1.00  0.00     0.165 C 
BRANCH  30  31
HETATM   31  O   UNL     1      -1.033   6.161 -27.221  1.00  0.00    -0.401 OA
HETATM   32  H   UNL     1      -1.165   5.354 -26.694  1.00  0.00     0.209 HD
ENDBRANCH  30  31
ENDBRANCH  29  30
ENDBRANCH  28  29
ENDBRANCH  25  28
ENDBRANCH  19  24
ENDBRANCH   1  18
TORSDOF 11
ENDMDL
MODEL 4
REMARK VINA RESULT:      -7.2      2.952      8.839
REMARK  11 active torsions:
REMARK  status: ('A' for Active; 'I' for Inactive)
REMARK    1  A    between atoms: C_2  and  O_3 
REMARK    2  A    between atoms: O_3  and  C_4 
REMARK    3  A    between atoms: C_7  and  C_8 
REMARK       I    between atoms: C_8  and  N_9 
REMARK    4  A    between atoms: N_9  and  C_10 
REMARK    5  A    between atoms: C_10  and  N_11 
REMARK    6  A    between atoms: N_11  and  C_12 
REMARK    7  A    between atoms: C_13  and  C_14 
REMARK       I    between atoms: C_14  and  N_15 
REMARK    8  A    between atoms: N_15  and  C_16 
REMARK    9  A    between atoms: C_16  and  C_17 
REMARK   10  A    between atoms: C_17  and  C_18 
REMARK   11  A    between atoms: C_18  and  O_19 
ROOT
HETATM    1  N   UNL     1      -4.914   0.440 -33.172  1.00  0.00    -0.332 N 
HETATM    2  H   UNL     1      -4.109   0.944 -33.537  1.00  0.00     0.168 HD
ENDROOT
BRANCH   1   3
HETATM    3  C   UNL     1      -5.349   0.903 -31.930  1.00  0.00     0.179 C 
HETATM    4  S   UNL     1      -6.197  -0.009 -30.813  1.00  0.00    -0.040 SA
BRANCH   3   5
HETATM    5  N   UNL     1      -4.906   2.221 -31.753  1.00  0.00    -0.299 N 
HETATM    6  C   UNL     1      -4.793   3.225 -32.711  1.00  0.00     0.257 C 
HETATM    7  O   UNL     1      -5.519   3.360 -33.689  1.00  0.00    -0.267 OA
HETATM    8  H   UNL     1      -4.287   2.296 -30.959  1.00  0.00     0.171 HD
BRANCH   6   9
HETATM    9  C   UNL     1      -3.752   4.257 -32.458  1.00  0.00     0.032 A 
HETATM   10  C   UNL     1      -2.485   4.055 -33.019  1.00  0.00     0.020 A 
HETATM   11  C   UNL     1      -1.464   4.991 -32.827  1.00  0.00     0.038 A 
HETATM   12  C   UNL     1      -1.706   6.144 -32.083  1.00  0.00     0.068 A 
HETATM   13  C   UNL     1      -2.971   6.346 -31.524  1.00  0.00     0.038 A 
HETATM   14  C   UNL     1      -3.998   5.414 -31.712  1.00  0.00     0.020 A 
BRANCH  12  15
HETATM   15  O   UNL     1      -0.804   7.141 -31.833  1.00  0.00    -0.352 OA
BRANCH  15  16
HETATM   16  C   UNL     1       0.419   6.761 -31.202  1.00  0.00     0.171 C 
HETATM   17  C   UNL     1       0.319   7.119 -29.730  1.00  0.00     0.034 C 
ENDBRANCH  15  16
ENDBRANCH  12  15
ENDBRANCH   6   9
ENDBRANCH   3   5
ENDBRANCH   1   3
BRANCH   1  18
HETATM   18  C   UNL     1      -5.159  -0.823 -33.773  1.00  0.00     0.050 A 
HETATM   19  C   UNL     1      -6.364  -1.068 -34.458  1.00  0.00     0.058 A 
HETATM   20  C   UNL     1      -6.667  -2.354 -34.931  1.00  0.00     0.019 A 
HETATM   21  C   UNL     1      -5.763  -3.399 -34.744  1.00  0.00     0.001 A 
HETATM   22  C   UNL     1      -4.565  -3.164 -34.078  1.00  0.00     0.002 A 
HETATM   23  C   UNL     1      -4.267  -1.889 -33.587  1.00  0.00     0.030 A 
BRANCH  19  24
HETATM   24  C   UNL     1      -7.347   0.002 -34.768  1.00  0.00     0.253 C 
HETATM   25  N   UNL     1      -8.442   0.062 -33.928  1.00  0.00    -0.357 N 
HETATM   26  H   UNL     1      -8.417  -0.488 -33.074  1.00  0.00     0.162 HD
HETATM   27  O   UNL     1      -7.148   0.780 -35.691  1.00  0.00    -0.268 OA
BRANCH  25  28
HETATM   28  C   UNL     1      -9.369   1.178 -33.982  1.00  0.00     0.125 C 
BRANCH  28  29
HETATM   29  C   UNL     1      -8.889   2.343 -33.124  1.00  0.00     0.046 C 
BRANCH  29  30
HETATM   30  C   UNL     1      -9.691   2.453 -31.836  1.00  0.00     0.165 C 
BRANCH  30  31
HETATM   31  O   UNL     1      -9.493   1.294 -31.036  1.00  0.00    -0.401 OA
HETATM   32  H   UNL     1      -9.915   1.450 -30.174  1.00  0.00     0.209 HD
ENDBRANCH  30  31
ENDBRANCH  29  30
ENDBRANCH  28  29
ENDBRANCH  25  28
ENDBRANCH  19  24
ENDBRANCH   1  18
TORSDOF 11
ENDMDL
MODEL 5
REMARK VINA RESULT:      -7.1     17.696     19.107
REMARK  11 active torsions:
REMARK  status: ('A' for Active; 'I' for Inactive)
REMARK    1  A    between atoms: C_2  and  O_3 
REMARK    2  A    between atoms: O_3  and  C_4 
REMARK    3  A    between atoms: C_7  and  C_8 
REMARK       I    between atoms: C_8  and  N_9 
REMARK    4  A    between atoms: N_9  and  C_10 
REMARK    5  A    between atoms: C_10  and  N_11 
REMARK    6  A    between atoms: N_11  and  C_12 
REMARK    7  A    between atoms: C_13  and  C_14 
REMARK       I    between atoms: C_14  and  N_15 
REMARK    8  A    between atoms: N_15  and  C_16 
REMARK    9  A    between atoms: C_16  and  C_17 
REMARK   10  A    between atoms: C_17  and  C_18 
REMARK   11  A    between atoms: C_18  and  O_19 
ROOT
HETATM    1  N   UNL     1      -4.089 -12.675 -39.894  1.00  0.00    -0.332 N 
HETATM    2  H   UNL     1      -3.595 -11.805 -40.082  1.00  0.00     0.168 HD
ENDROOT
BRANCH   1   3
HETATM    3  C   UNL     1      -3.386 -13.814 -40.287  1.00  0.00     0.179 C 
HETATM    4  S   UNL     1      -3.483 -14.522 -41.800  1.00  0.00    -0.040 SA
BRANCH   3   5
HETATM    5  N   UNL     1      -2.551 -14.221 -39.238  1.00  0.00    -0.299 N 
HETATM    6  C   UNL     1      -1.443 -13.557 -38.716  1.00  0.00     0.257 C 
HETATM    7  O   UNL     1      -1.305 -12.341 -38.658  1.00  0.00    -0.267 OA
HETATM    8  H   UNL     1      -2.553 -15.225 -39.135  1.00  0.00     0.171 HD
BRANCH   6   9
HETATM    9  C   UNL     1      -0.393 -14.416 -38.107  1.00  0.00     0.032 A 
HETATM   10  C   UNL     1       0.852 -14.474 -38.746  1.00  0.00     0.020 A 
HETATM   11  C   UNL     1       1.886 -15.256 -38.221  1.00  0.00     0.038 A 
HETATM   12  C   UNL     1       1.687 -15.976 -37.044  1.00  0.00     0.068 A 
HETATM   13  C   UNL     1       0.445 -15.917 -36.406  1.00  0.00     0.038 A 
HETATM   14  C   UNL     1      -0.594 -15.136 -36.925  1.00  0.00     0.020 A 
BRANCH  12  15
HETATM   15  O   UNL     1       2.615 -16.763 -36.419  1.00  0.00    -0.352 OA
BRANCH  15  16
HETATM   16  C   UNL     1       2.370 -17.085 -35.050  1.00  0.00     0.171 C 
HETATM   17  C   UNL     1       3.481 -16.470 -34.217  1.00  0.00     0.034 C 
ENDBRANCH  15  16
ENDBRANCH  12  15
ENDBRANCH   6   9
ENDBRANCH   3   5
ENDBRANCH   1   3
BRANCH   1  18
HETATM   18  C   UNL     1      -5.484 -12.539 -39.663  1.00  0.00     0.050 A 
HETATM   19  C   UNL     1      -6.024 -12.774 -38.385  1.00  0.00     0.058 A 
HETATM   20  C   UNL     1      -7.413 -12.777 -38.188  1.00  0.00     0.019 A 
HETATM   21  C   UNL     1      -8.272 -12.525 -39.255  1.00  0.00     0.001 A 
HETATM   22  C   UNL     1      -7.747 -12.281 -40.521  1.00  0.00     0.002 A 
HETATM   23  C   UNL     1      -6.364 -12.297 -40.727  1.00  0.00     0.030 A 
BRANCH  19  24
HETATM   24  C   UNL     1      -5.181 -12.975 -37.178  1.00  0.00     0.253 C 
HETATM   25  N   UNL     1      -5.633 -13.934 -36.293  1.00  0.00    -0.357 N 
HETATM   26  H   UNL     1      -6.383 -14.548 -36.598  1.00  0.00     0.162 HD
HETATM   27  O   UNL     1      -4.145 -12.340 -37.031  1.00  0.00    -0.268 OA
BRANCH  25  28
HETATM   28  C   UNL     1      -4.808 -14.381 -35.185  1.00  0.00     0.125 C 
BRANCH  28  29
HETATM   29  C   UNL     1      -5.330 -13.856 -33.853  1.00  0.00     0.046 C 
BRANCH  29  30
HETATM   30  C   UNL     1      -6.816 -14.136 -33.689  1.00  0.00     0.165 C 
BRANCH  30  31
HETATM   31  O   UNL     1      -7.579 -13.076 -34.251  1.00  0.00    -0.401 OA
HETATM   32  H   UNL     1      -7.775 -13.306 -35.176  1.00  0.00     0.209 HD
ENDBRANCH  30  31
ENDBRANCH  29  30
ENDBRANCH  28  29
ENDBRANCH  25  28
ENDBRANCH  19  24
ENDBRANCH   1  18
TORSDOF 11
ENDMDL
MODEL 6
REMARK VINA RESULT:      -7.0      2.546      4.363
REMARK  11 active torsions:
REMARK  status: ('A' for Active; 'I' for Inactive)
REMARK    1  A    between atoms: C_2  and  O_3 
REMARK    2  A    between atoms: O_3  and  C_4 
REMARK    3  A    between atoms: C_7  and  C_8 
REMARK       I    between atoms: C_8  and  N_9 
REMARK    4  A    between atoms: N_9  and  C_10 
REMARK    5  A    between atoms: C_10  and  N_11 
REMARK    6  A    between atoms: N_11  and  C_12 
REMARK    7  A    between atoms: C_13  and  C_14 
REMARK       I    between atoms: C_14  and  N_15 
REMARK    8  A    between atoms: N_15  and  C_16 
REMARK    9  A    between atoms: C_16  and  C_17 
REMARK   10  A    between atoms: C_17  and  C_18 
REMARK   11  A    between atoms: C_18  and  O_19 
ROOT
HETATM    1  N   UNL     1      -6.255   3.989 -30.656  1.00  0.00    -0.332 N 
HETATM    2  H   UNL     1      -6.200   4.584 -29.832  1.00  0.00     0.168 HD
ENDROOT
BRANCH   1   3
HETATM    3  C   UNL     1      -7.340   4.280 -31.484  1.00  0.00     0.179 C 
HETATM    4  S   UNL     1      -8.348   5.603 -31.311  1.00  0.00    -0.040 SA
BRANCH   3   5
HETATM    5  N   UNL     1      -7.402   3.324 -32.508  1.00  0.00    -0.299 N 
HETATM    6  C   UNL     1      -8.238   2.214 -32.597  1.00  0.00     0.257 C 
HETATM    7  O   UNL     1      -9.378   2.144 -32.153  1.00  0.00    -0.267 OA
HETATM    8  H   UNL     1      -6.524   3.257 -33.001  1.00  0.00     0.171 HD
BRANCH   6   9
HETATM    9  C   UNL     1      -7.712   1.060 -33.375  1.00  0.00     0.032 A 
HETATM   10  C   UNL     1      -7.345  -0.090 -32.666  1.00  0.00     0.020 A 
HETATM   11  C   UNL     1      -6.852  -1.213 -33.337  1.00  0.00     0.038 A 
HETATM   12  C   UNL     1      -6.735  -1.200 -34.726  1.00  0.00     0.068 A 
HETATM   13  C   UNL     1      -7.102  -0.052 -35.434  1.00  0.00     0.038 A 
HETATM   14  C   UNL     1      -7.597   1.075 -34.768  1.00  0.00     0.020 A 
BRANCH  12  15
HETATM   15  O   UNL     1      -6.283  -2.232 -35.503  1.00  0.00    -0.352 OA
BRANCH  15  16
HETATM   16  C   UNL     1      -5.626  -3.305 -34.829  1.00  0.00     0.171 C 
HETATM   17  C   UNL     1      -6.393  -4.583 -35.122  1.00  0.00     0.034 C 
ENDBRANCH  15  16
ENDBRANCH  12  15
ENDBRANCH   6   9
ENDBRANCH   3   5
ENDBRANCH   1   3
BRANCH   1  18
HETATM   18  C   UNL     1      -5.500   2.789 -30.586  1.00  0.00     0.050 A 
HETATM   19  C   UNL     1      -4.363   2.611 -31.395  1.00  0.00     0.058 A 
HETATM   20  C   UNL     1      -3.699   1.375 -31.428  1.00  0.00     0.019 A 
HETATM   21  C   UNL     1      -4.149   0.317 -30.641  1.00  0.00     0.001 A 
HETATM   22  C   UNL     1      -5.266   0.487 -29.829  1.00  0.00     0.002 A 
HETATM   23  C   UNL     1      -5.944   1.710 -29.808  1.00  0.00     0.030 A 
BRANCH  19  24
HETATM   24  C   UNL     1      -3.770   3.706 -32.205  1.00  0.00     0.253 C 
HETATM   25  N   UNL     1      -2.493   4.086 -31.842  1.00  0.00    -0.357 N 
HETATM   26  H   UNL     1      -1.987   3.494 -31.189  1.00  0.00     0.162 HD
HETATM   27  O   UNL     1      -4.388   4.188 -33.145  1.00  0.00    -0.268 OA
BRANCH  25  28
HETATM   28  C   UNL     1      -1.715   4.990 -32.670  1.00  0.00     0.125 C 
BRANCH  28  29
HETATM   29  C   UNL     1      -0.425   5.412 -31.976  1.00  0.00     0.046 C 
BRANCH  29  30
HETATM   30  C   UNL     1      -0.580   5.401 -30.462  1.00  0.00     0.165 C 
BRANCH  30  31
HETATM   31  O   UNL     1       0.033   4.240 -29.917  1.00  0.00    -0.401 OA
HETATM   32  H   UNL     1       0.674   4.528 -29.244  1.00  0.00     0.209 HD
ENDBRANCH  30  31
ENDBRANCH  29  30
ENDBRANCH  28  29
ENDBRANCH  25  28
ENDBRANCH  19  24
ENDBRANCH   1  18
TORSDOF 11
ENDMDL
MODEL 7
REMARK VINA RESULT:      -7.0      4.411      9.362
REMARK  11 active torsions:
REMARK  status: ('A' for Active; 'I' for Inactive)
REMARK    1  A    between atoms: C_2  and  O_3 
REMARK    2  A    between atoms: O_3  and  C_4 
REMARK    3  A    between atoms: C_7  and  C_8 
REMARK       I    between atoms: C_8  and  N_9 
REMARK    4  A    between atoms: N_9  and  C_10 
REMARK    5  A    between atoms: C_10  and  N_11 
REMARK    6  A    between atoms: N_11  and  C_12 
REMARK    7  A    between atoms: C_13  and  C_14 
REMARK       I    between atoms: C_14  and  N_15 
REMARK    8  A    between atoms: N_15  and  C_16 
REMARK    9  A    between atoms: C_16  and  C_17 
REMARK   10  A    between atoms: C_17  and  C_18 
REMARK   11  A    between atoms: C_18  and  O_19 
ROOT
HETATM    1  N   UNL     1      -8.605   1.619 -30.894  1.00  0.00    -0.332 N 
HETATM    2  H   UNL     1      -9.276   1.110 -30.325  1.00  0.00     0.168 HD
ENDROOT
BRANCH   1   3
HETATM    3  C   UNL     1      -8.796   3.002 -30.884  1.00  0.00     0.179 C 
HETATM    4  S   UNL     1     -10.281   3.759 -30.749  1.00  0.00    -0.040 SA
BRANCH   3   5
HETATM    5  N   UNL     1      -7.548   3.637 -30.940  1.00  0.00    -0.299 N 
HETATM    6  C   UNL     1      -6.877   4.114 -32.063  1.00  0.00     0.257 C 
HETATM    7  O   UNL     1      -7.409   4.570 -33.069  1.00  0.00    -0.267 OA
HETATM    8  H   UNL     1      -6.968   3.375 -30.157  1.00  0.00     0.171 HD
BRANCH   6   9
HETATM    9  C   UNL     1      -5.393   4.143 -31.976  1.00  0.00     0.032 A 
HETATM   10  C   UNL     1      -4.801   5.215 -31.297  1.00  0.00     0.020 A 
HETATM   11  C   UNL     1      -3.411   5.297 -31.171  1.00  0.00     0.038 A 
HETATM   12  C   UNL     1      -2.601   4.300 -31.711  1.00  0.00     0.068 A 
HETATM   13  C   UNL     1      -3.193   3.229 -32.388  1.00  0.00     0.038 A 
HETATM   14  C   UNL     1      -4.583   3.140 -32.518  1.00  0.00     0.020 A 
BRANCH  12  15
HETATM   15  O   UNL     1      -1.236   4.252 -31.646  1.00  0.00    -0.352 OA
BRANCH  15  16
HETATM   16  C   UNL     1      -0.536   5.476 -31.874  1.00  0.00     0.171 C 
HETATM   17  C   UNL     1       0.380   5.721 -30.688  1.00  0.00     0.034 C 
ENDBRANCH  15  16
ENDBRANCH  12  15
ENDBRANCH   6   9
ENDBRANCH   3   5
ENDBRANCH   1   3
BRANCH   1  18
HETATM   18  C   UNL     1      -7.909   0.836 -31.853  1.00  0.00     0.050 A 
HETATM   19  C   UNL     1      -8.452   0.625 -33.134  1.00  0.00     0.058 A 
HETATM   20  C   UNL     1      -7.835  -0.260 -34.032  1.00  0.00     0.019 A 
HETATM   21  C   UNL     1      -6.664  -0.922 -33.669  1.00  0.00     0.001 A 
HETATM   22  C   UNL     1      -6.114  -0.712 -32.408  1.00  0.00     0.002 A 
HETATM   23  C   UNL     1      -6.736   0.153 -31.502  1.00  0.00     0.030 A 
BRANCH  19  24
HETATM   24  C   UNL     1      -9.651   1.347 -33.631  1.00  0.00     0.253 C 
HETATM   25  N   UNL     1     -10.864   0.847 -33.200  1.00  0.00    -0.357 N 
HETATM   26  H   UNL     1     -10.857   0.158 -32.453  1.00  0.00     0.162 HD
HETATM   27  O   UNL     1      -9.531   2.335 -34.342  1.00  0.00    -0.268 OA
BRANCH  25  28
HETATM   28  C   UNL     1     -12.100   1.571 -33.433  1.00  0.00     0.125 C 
BRANCH  28  29
HETATM   29  C   UNL     1     -12.989   0.849 -34.440  1.00  0.00     0.046 C 
BRANCH  29  30
HETATM   30  C   UNL     1     -14.190   0.208 -33.760  1.00  0.00     0.165 C 
BRANCH  30  31
HETATM   31  O   UNL     1     -13.831  -1.060 -33.226  1.00  0.00    -0.401 OA
HETATM   32  H   UNL     1     -12.884  -1.201 -33.402  1.00  0.00     0.209 HD
ENDBRANCH  30  31
ENDBRANCH  29  30
ENDBRANCH  28  29
ENDBRANCH  25  28
ENDBRANCH  19  24
ENDBRANCH   1  18
TORSDOF 11
ENDMDL
MODEL 8
REMARK VINA RESULT:      -6.9      3.010      4.643
REMARK  11 active torsions:
REMARK  status: ('A' for Active; 'I' for Inactive)
REMARK    1  A    between atoms: C_2  and  O_3 
REMARK    2  A    between atoms: O_3  and  C_4 
REMARK    3  A    between atoms: C_7  and  C_8 
REMARK       I    between atoms: C_8  and  N_9 
REMARK    4  A    between atoms: N_9  and  C_10 
REMARK    5  A    between atoms: C_10  and  N_11 
REMARK    6  A    between atoms: N_11  and  C_12 
REMARK    7  A    between atoms: C_13  and  C_14 
REMARK       I    between atoms: C_14  and  N_15 
REMARK    8  A    between atoms: N_15  and  C_16 
REMARK    9  A    between atoms: C_16  and  C_17 
REMARK   10  A    between atoms: C_17  and  C_18 
REMARK   11  A    between atoms: C_18  and  O_19 
ROOT
HETATM    1  N   UNL     1      -6.668   3.353 -29.585  1.00  0.00    -0.332 N 
HETATM    2  H   UNL     1      -5.953   2.630 -29.547  1.00  0.00     0.168 HD
ENDROOT
BRANCH   1   3
HETATM    3  C   UNL     1      -7.834   2.954 -30.240  1.00  0.00     0.179 C 
HETATM    4  S   UNL     1      -9.230   3.869 -30.349  1.00  0.00    -0.040 SA
BRANCH   3   5
HETATM    5  N   UNL     1      -7.618   1.704 -30.837  1.00  0.00    -0.299 N 
HETATM    6  C   UNL     1      -6.550   0.832 -30.642  1.00  0.00     0.257 C 
HETATM    7  O   UNL     1      -5.925   0.696 -29.597  1.00  0.00    -0.267 OA
HETATM    8  H   UNL     1      -8.085   1.638 -31.729  1.00  0.00     0.171 HD
BRANCH   6   9
HETATM    9  C   UNL     1      -6.213  -0.056 -31.787  1.00  0.00     0.032 A 
HETATM   10  C   UNL     1      -4.943  -0.645 -31.801  1.00  0.00     0.020 A 
HETATM   11  C   UNL     1      -4.566  -1.498 -32.844  1.00  0.00     0.038 A 
HETATM   12  C   UNL     1      -5.462  -1.779 -33.873  1.00  0.00     0.068 A 
HETATM   13  C   UNL     1      -6.731  -1.192 -33.857  1.00  0.00     0.038 A 
HETATM   14  C   UNL     1      -7.114  -0.338 -32.817  1.00  0.00     0.020 A 
BRANCH  12  15
HETATM   15  O   UNL     1      -5.226  -2.604 -34.939  1.00  0.00    -0.352 OA
BRANCH  15  16
HETATM   16  C   UNL     1      -5.274  -4.009 -34.690  1.00  0.00     0.171 C 
HETATM   17  C   UNL     1      -6.540  -4.556 -35.326  1.00  0.00     0.034 C 
ENDBRANCH  15  16
ENDBRANCH  12  15
ENDBRANCH   6   9
ENDBRANCH   3   5
ENDBRANCH   1   3
BRANCH   1  18
HETATM   18  C   UNL     1      -6.206   4.673 -29.341  1.00  0.00     0.050 A 
HETATM   19  C   UNL     1      -5.242   5.260 -30.182  1.00  0.00     0.058 A 
HETATM   20  C   UNL     1      -4.683   6.507 -29.864  1.00  0.00     0.019 A 
HETATM   21  C   UNL     1      -5.095   7.187 -28.720  1.00  0.00     0.001 A 
HETATM   22  C   UNL     1      -6.055   6.620 -27.888  1.00  0.00     0.002 A 
HETATM   23  C   UNL     1      -6.600   5.368 -28.189  1.00  0.00     0.030 A 
BRANCH  19  24
HETATM   24  C   UNL     1      -4.803   4.642 -31.460  1.00  0.00     0.253 C 
HETATM   25  N   UNL     1      -3.436   4.514 -31.618  1.00  0.00    -0.357 N 
HETATM   26  H   UNL     1      -2.847   4.676 -30.806  1.00  0.00     0.162 HD
HETATM   27  O   UNL     1      -5.626   4.251 -32.276  1.00  0.00    -0.268 OA
BRANCH  25  28
HETATM   28  C   UNL     1      -2.876   3.744 -32.713  1.00  0.00     0.125 C 
BRANCH  28  29
HETATM   29  C   UNL     1      -2.022   4.616 -33.628  1.00  0.00     0.046 C 
BRANCH  29  30
HETATM   30  C   UNL     1      -2.861   5.264 -34.719  1.00  0.00     0.165 C 
BRANCH  30  31
HETATM   31  O   UNL     1      -2.708   6.677 -34.679  1.00  0.00    -0.401 OA
HETATM   32  H   UNL     1      -3.555   7.078 -34.939  1.00  0.00     0.209 HD
ENDBRANCH  30  31
ENDBRANCH  29  30
ENDBRANCH  28  29
ENDBRANCH  25  28
ENDBRANCH  19  24
ENDBRANCH   1  18
TORSDOF 11
ENDMDL
MODEL 9
REMARK VINA RESULT:      -6.8      2.762      9.076
REMARK  11 active torsions:
REMARK  status: ('A' for Active; 'I' for Inactive)
REMARK    1  A    between atoms: C_2  and  O_3 
REMARK    2  A    between atoms: O_3  and  C_4 
REMARK    3  A    between atoms: C_7  and  C_8 
REMARK       I    between atoms: C_8  and  N_9 
REMARK    4  A    between atoms: N_9  and  C_10 
REMARK    5  A    between atoms: C_10  and  N_11 
REMARK    6  A    between atoms: N_11  and  C_12 
REMARK    7  A    between atoms: C_13  and  C_14 
REMARK       I    between atoms: C_14  and  N_15 
REMARK    8  A    between atoms: N_15  and  C_16 
REMARK    9  A    between atoms: C_16  and  C_17 
REMARK   10  A    between atoms: C_17  and  C_18 
REMARK   11  A    between atoms: C_18  and  O_19 
ROOT
HETATM    1  N   UNL     1      -6.322   2.815 -33.632  1.00  0.00    -0.332 N 
HETATM    2  H   UNL     1      -5.825   2.491 -34.459  1.00  0.00     0.168 HD
ENDROOT
BRANCH   1   3
HETATM    3  C   UNL     1      -6.671   4.165 -33.681  1.00  0.00     0.179 C 
HETATM    4  S   UNL     1      -8.222   4.742 -33.922  1.00  0.00    -0.040 SA
BRANCH   3   5
HETATM    5  N   UNL     1      -5.530   4.941 -33.436  1.00  0.00    -0.299 N 
HETATM    6  C   UNL     1      -4.385   5.058 -34.219  1.00  0.00     0.257 C 
HETATM    7  O   UNL     1      -4.350   4.985 -35.442  1.00  0.00    -0.267 OA
HETATM    8  H   UNL     1      -5.409   5.113 -32.448  1.00  0.00     0.171 HD
BRANCH   6   9
HETATM    9  C   UNL     1      -3.127   5.384 -33.496  1.00  0.00     0.032 A 
HETATM   10  C   UNL     1      -2.793   4.599 -32.385  1.00  0.00     0.020 A 
HETATM   11  C   UNL     1      -1.620   4.847 -31.665  1.00  0.00     0.038 A 
HETATM   12  C   UNL     1      -0.764   5.874 -32.060  1.00  0.00     0.068 A 
HETATM   13  C   UNL     1      -1.097   6.656 -33.170  1.00  0.00     0.038 A 
HETATM   14  C   UNL     1      -2.269   6.414 -33.894  1.00  0.00     0.020 A 
BRANCH  12  15
HETATM   15  O   UNL     1       0.417   6.210 -31.456  1.00  0.00    -0.352 OA
BRANCH  15  16
HETATM   16  C   UNL     1       0.481   6.059 -30.038  1.00  0.00     0.171 C 
HETATM   17  C   UNL     1       0.178   7.407 -29.407  1.00  0.00     0.034 C 
ENDBRANCH  15  16
ENDBRANCH  12  15
ENDBRANCH   6   9
ENDBRANCH   3   5
ENDBRANCH   1   3
BRANCH   1  18
HETATM   18  C   UNL     1      -6.201   1.980 -32.490  1.00  0.00     0.050 A 
HETATM   19  C   UNL     1      -6.330   0.584 -32.607  1.00  0.00     0.058 A 
HETATM   20  C   UNL     1      -6.349  -0.228 -31.462  1.00  0.00     0.019 A 
HETATM   21  C   UNL     1      -6.219   0.341 -30.197  1.00  0.00     0.001 A 
HETATM   22  C   UNL     1      -6.079   1.720 -30.072  1.00  0.00     0.002 A 
HETATM   23  C   UNL     1      -6.080   2.536 -31.208  1.00  0.00     0.030 A 
BRANCH  19  24
HETATM   24  C   UNL     1      -6.397  -0.113 -33.917  1.00  0.00     0.253 C 
HETATM   25  N   UNL     1      -5.658  -1.276 -34.008  1.00  0.00    -0.357 N 
HETATM   26  H   UNL     1      -5.276  -1.666 -33.150  1.00  0.00     0.162 HD
HETATM   27  O   UNL     1      -7.098   0.326 -34.818  1.00  0.00    -0.268 OA
BRANCH  25  28
HETATM   28  C   UNL     1      -5.794  -2.165 -35.147  1.00  0.00     0.125 C 
BRANCH  28  29
HETATM   29  C   UNL     1      -6.075  -3.597 -34.706  1.00  0.00     0.046 C 
BRANCH  29  30
HETATM   30  C   UNL     1      -4.789  -4.336 -34.368  1.00  0.00     0.165 C 
BRANCH  30  31
HETATM   31  O   UNL     1      -4.909  -5.711 -34.711  1.00  0.00    -0.401 OA
HETATM   32  H   UNL     1      -4.024  -6.041 -34.941  1.00  0.00     0.209 HD
ENDBRANCH  30  31
ENDBRANCH  29  30
ENDBRANCH  28  29
ENDBRANCH  25  28
ENDBRANCH  19  24
ENDBRANCH   1  18
TORSDOF 11
ENDMDL
MODEL 10
REMARK VINA RESULT:      -6.8      4.109      8.626
REMARK  11 active torsions:
REMARK  status: ('A' for Active; 'I' for Inactive)
REMARK    1  A    between atoms: C_2  and  O_3 
REMARK    2  A    between atoms: O_3  and  C_4 
REMARK    3  A    between atoms: C_7  and  C_8 
REMARK       I    between atoms: C_8  and  N_9 
REMARK    4  A    between atoms: N_9  and  C_10 
REMARK    5  A    between atoms: C_10  and  N_11 
REMARK    6  A    between atoms: N_11  and  C_12 
REMARK    7  A    between atoms: C_13  and  C_14 
REMARK       I    between atoms: C_14  and  N_15 
REMARK    8  A    between atoms: N_15  and  C_16 
REMARK    9  A    between atoms: C_16  and  C_17 
REMARK   10  A    between atoms: C_17  and  C_18 
REMARK   11  A    between atoms: C_18  and  O_19 
ROOT
HETATM    1  N   UNL     1      -8.277   1.259 -31.251  1.00  0.00    -0.332 N 
HETATM    2  H   UNL     1      -8.857   0.602 -30.735  1.00  0.00     0.168 HD
ENDROOT
BRANCH   1   3
HETATM    3  C   UNL     1      -8.506   2.594 -30.911  1.00  0.00     0.179 C 
HETATM    4  S   UNL     1     -10.012   3.263 -30.628  1.00  0.00    -0.040 SA
BRANCH   3   5
HETATM    5  N   UNL     1      -7.274   3.251 -30.788  1.00  0.00    -0.299 N 
HETATM    6  C   UNL     1      -6.710   4.188 -31.651  1.00  0.00     0.257 C 
HETATM    7  O   UNL     1      -7.333   4.998 -32.327  1.00  0.00    -0.267 OA
HETATM    8  H   UNL     1      -6.624   2.712 -30.235  1.00  0.00     0.171 HD
BRANCH   6   9
HETATM    9  C   UNL     1      -5.224   4.246 -31.672  1.00  0.00     0.032 A 
HETATM   10  C   UNL     1      -4.625   5.499 -31.850  1.00  0.00     0.020 A 
HETATM   11  C   UNL     1      -3.232   5.625 -31.871  1.00  0.00     0.038 A 
HETATM   12  C   UNL     1      -2.427   4.500 -31.699  1.00  0.00     0.068 A 
HETATM   13  C   UNL     1      -3.026   3.250 -31.520  1.00  0.00     0.038 A 
HETATM   14  C   UNL     1      -4.419   3.117 -31.498  1.00  0.00     0.020 A 
BRANCH  12  15
HETATM   15  O   UNL     1      -1.059   4.487 -31.684  1.00  0.00    -0.352 OA
BRANCH  15  16
HETATM   16  C   UNL     1      -0.421   5.155 -30.596  1.00  0.00     0.171 C 
HETATM   17  C   UNL     1       0.362   6.329 -31.158  1.00  0.00     0.034 C 
ENDBRANCH  15  16
ENDBRANCH  12  15
ENDBRANCH   6   9
ENDBRANCH   3   5
ENDBRANCH   1   3
BRANCH   1  18
HETATM   18  C   UNL     1      -7.684   0.743 -32.433  1.00  0.00     0.050 A 
HETATM   19  C   UNL     1      -8.399   0.732 -33.646  1.00  0.00     0.058 A 
HETATM   20  C   UNL     1      -7.869   0.097 -34.780  1.00  0.00     0.019 A 
HETATM   21  C   UNL     1      -6.616  -0.510 -34.720  1.00  0.00     0.001 A 
HETATM   22  C   UNL     1      -5.897  -0.494 -33.529  1.00  0.00     0.002 A 
HETATM   23  C   UNL     1      -6.430   0.119 -32.390  1.00  0.00     0.030 A 
BRANCH  19  24
HETATM   24  C   UNL     1      -9.704   1.420 -33.819  1.00  0.00     0.253 C 
HETATM   25  N   UNL     1      -9.660   2.603 -34.530  1.00  0.00    -0.357 N 
HETATM   26  H   UNL     1      -8.804   2.827 -35.029  1.00  0.00     0.162 HD
HETATM   27  O   UNL     1     -10.732   0.923 -33.378  1.00  0.00    -0.268 OA
BRANCH  25  28
HETATM   28  C   UNL     1     -10.878   3.270 -34.954  1.00  0.00     0.125 C 
BRANCH  28  29
HETATM   29  C   UNL     1     -10.975   4.676 -34.374  1.00  0.00     0.046 C 
BRANCH  29  30
HETATM   30  C   UNL     1     -10.126   5.662 -35.162  1.00  0.00     0.165 C 
BRANCH  30  31
HETATM   31  O   UNL     1      -8.768   5.578 -34.748  1.00  0.00    -0.401 OA
HETATM   32  H   UNL     1      -8.209   5.833 -35.502  1.00  0.00     0.209 HD
ENDBRANCH  30  31
ENDBRANCH  29  30
ENDBRANCH  28  29
ENDBRANCH  25  28
ENDBRANCH  19  24
ENDBRANCH   1  18
TORSDOF 11
ENDMDL
