MODEL 1
REMARK VINA RESULT:      -9.0      0.000      0.000
REMARK  9 active torsions:
REMARK  status: ('A' for Active; 'I' for Inactive)
REMARK    1  A    between atoms: C_4  and  N_5 
REMARK       I    between atoms: N_5  and  C_6 
REMARK    2  A    between atoms: C_6  and  C_7 
REMARK    3  A    between atoms: C_7  and  N_8 
REMARK       I    between atoms: N_8  and  C_9 
REMARK    4  A    between atoms: C_9  and  C_10 
REMARK    5  A    between atoms: C_10  and  O_11 
REMARK    6  A    between atoms: O_11  and  C_12 
REMARK    7  A    between atoms: C_12  and  C_13 
REMARK    8  A    between atoms: C_17  and  C_18 
REMARK    9  A    between atoms: C_27  and  O_28 
ROOT
HETATM    1  N   UNL     1      -5.506   3.069 -29.489  1.00  0.00    -0.350 N 
HETATM    2  C   UNL     1      -6.492   2.172 -29.846  1.00  0.00     0.242 C 
HETATM    3  O   UNL     1      -7.624   2.508 -30.181  1.00  0.00    -0.271 OA
HETATM    4  H   UNL     1      -4.715   2.679 -28.977  1.00  0.00     0.163 HD
ENDROOT
BRANCH   2   5
HETATM    5  C   UNL     1      -6.058   0.705 -29.795  1.00  0.00     0.281 C 
BRANCH   5   6
HETATM    6  O   UNL     1      -6.543  -0.066 -30.891  1.00  0.00    -0.308 OA
BRANCH   6   7
HETATM    7  C   UNL     1      -5.641  -0.317 -31.881  1.00  0.00     0.301 C 
HETATM    8  O   UNL     1      -4.509  -0.746 -31.669  1.00  0.00    -0.259 OA
BRANCH   7   9
HETATM    9  C   UNL     1      -6.229  -0.041 -33.177  1.00  0.00     0.091 A 
HETATM   10  S   UNL     1      -6.923   1.514 -33.417  1.00  0.00    -0.095 SA
HETATM   11  C   UNL     1      -7.283   1.186 -35.051  1.00  0.00     0.051 A 
HETATM   12  C   UNL     1      -6.934  -0.096 -35.404  1.00  0.00     0.021 A 
HETATM   13  C   UNL     1      -6.343  -0.826 -34.319  1.00  0.00    -0.002 A 
BRANCH  13  14
HETATM   14  C   UNL     1      -5.934  -2.225 -34.381  1.00  0.00    -0.024 A 
HETATM   15  C   UNL     1      -4.587  -2.569 -34.221  1.00  0.00     0.012 A 
HETATM   16  C   UNL     1      -4.186  -3.904 -34.309  1.00  0.00     0.001 A 
HETATM   17  C   UNL     1      -5.128  -4.900 -34.559  1.00  0.00     0.000 A 
HETATM   18  C   UNL     1      -6.471  -4.566 -34.728  1.00  0.00     0.001 A 
HETATM   19  C   UNL     1      -6.874  -3.231 -34.646  1.00  0.00     0.012 A 
ENDBRANCH  13  14
ENDBRANCH   7   9
ENDBRANCH   6   7
ENDBRANCH   5   6
ENDBRANCH   2   5
BRANCH   1  20
HETATM   20  C   UNL     1      -5.814   4.479 -29.305  1.00  0.00     0.225 C 
BRANCH  20  21
HETATM   21  C   UNL     1      -4.863   5.378 -30.106  1.00  0.00     0.239 C 
HETATM   22  N   UNL     1      -3.915   4.659 -30.810  1.00  0.00    -0.323 N 
HETATM   23  H   UNL     1      -4.013   3.650 -30.861  1.00  0.00     0.169 HD
HETATM   24  O   UNL     1      -5.048   6.589 -30.188  1.00  0.00    -0.271 OA
BRANCH  22  25
HETATM   25  C   UNL     1      -2.854   5.158 -31.595  1.00  0.00     0.069 A 
HETATM   26  C   UNL     1      -1.725   5.776 -31.049  1.00  0.00     0.039 A 
HETATM   27  C   UNL     1      -0.672   6.192 -31.875  1.00  0.00    -0.060 A 
HETATM   28  C   UNL     1       0.532   6.861 -31.280  1.00  0.00     0.048 C 
HETATM   29  C   UNL     1      -0.778   6.018 -33.258  1.00  0.00     0.009 A 
HETATM   30  C   UNL     1      -1.905   5.408 -33.814  1.00  0.00     0.039 A 
HETATM   31  C   UNL     1      -2.946   4.973 -32.991  1.00  0.00     0.095 A 
BRANCH  31  32
HETATM   32  O   UNL     1      -4.098   4.361 -33.431  1.00  0.00    -0.354 OA
HETATM   33  C   UNL     1      -4.701   4.900 -34.601  1.00  0.00     0.210 C 
ENDBRANCH  31  32
ENDBRANCH  22  25
ENDBRANCH  20  21
ENDBRANCH   1  20
TORSDOF 9
ENDMDL
MODEL 2
REMARK VINA RESULT:      -9.0      0.942      2.006
REMARK  9 active torsions:
REMARK  status: ('A' for Active; 'I' for Inactive)
REMARK    1  A    between atoms: C_4  and  N_5 
REMARK       I    between atoms: N_5  and  C_6 
REMARK    2  A    between atoms: C_6  and  C_7 
REMARK    3  A    between atoms: C_7  and  N_8 
REMARK       I    between atoms: N_8  and  C_9 
REMARK    4  A    between atoms: C_9  and  C_10 
REMARK    5  A    between atoms: C_10  and  O_11 
REMARK    6  A    between atoms: O_11  and  C_12 
REMARK    7  A    between atoms: C_12  and  C_13 
REMARK    8  A    between atoms: C_17  and  C_18 
REMARK    9  A    between atoms: C_27  and  O_28 
ROOT
HETATM    1  N   UNL     1      -5.401   2.933 -29.570  1.00  0.00    -0.350 N 
HETATM    2  C   UNL     1      -6.417   2.047 -29.864  1.00  0.00     0.242 C 
HETATM    3  O   UNL     1      -7.549   2.395 -30.182  1.00  0.00    -0.271 OA
HETATM    4  H   UNL     1      -4.605   2.545 -29.064  1.00  0.00     0.163 HD
ENDROOT
BRANCH   2   5
HETATM    5  C   UNL     1      -6.014   0.573 -29.768  1.00  0.00     0.281 C 
BRANCH   5   6
HETATM    6  O   UNL     1      -6.412  -0.197 -30.900  1.00  0.00    -0.308 OA
BRANCH   6   7
HETATM    7  C   UNL     1      -5.502  -0.274 -31.910  1.00  0.00     0.301 C 
HETATM    8  O   UNL     1      -4.320  -0.560 -31.732  1.00  0.00    -0.259 OA
BRANCH   7   9
HETATM    9  C   UNL     1      -6.143  -0.013 -33.183  1.00  0.00     0.091 A 
HETATM   10  S   UNL     1      -6.840   1.541 -33.416  1.00  0.00    -0.095 SA
HETATM   11  C   UNL     1      -7.270   1.193 -35.028  1.00  0.00     0.051 A 
HETATM   12  C   UNL     1      -6.941  -0.096 -35.378  1.00  0.00     0.021 A 
HETATM   13  C   UNL     1      -6.308  -0.814 -34.309  1.00  0.00    -0.002 A 
BRANCH  13  14
HETATM   14  C   UNL     1      -5.908  -2.215 -34.369  1.00  0.00    -0.024 A 
HETATM   15  C   UNL     1      -4.565  -2.569 -34.193  1.00  0.00     0.012 A 
HETATM   16  C   UNL     1      -4.173  -3.907 -34.279  1.00  0.00     0.001 A 
HETATM   17  C   UNL     1      -5.118  -4.896 -34.543  1.00  0.00     0.000 A 
HETATM   18  C   UNL     1      -6.457  -4.551 -34.728  1.00  0.00     0.001 A 
HETATM   19  C   UNL     1      -6.851  -3.214 -34.648  1.00  0.00     0.012 A 
ENDBRANCH  13  14
ENDBRANCH   7   9
ENDBRANCH   6   7
ENDBRANCH   5   6
ENDBRANCH   2   5
BRANCH   1  20
HETATM   20  C   UNL     1      -5.673   4.357 -29.432  1.00  0.00     0.225 C 
BRANCH  20  21
HETATM   21  C   UNL     1      -4.970   5.177 -30.521  1.00  0.00     0.239 C 
HETATM   22  N   UNL     1      -3.611   4.928 -30.583  1.00  0.00    -0.323 N 
HETATM   23  H   UNL     1      -3.235   4.156 -30.042  1.00  0.00     0.169 HD
HETATM   24  O   UNL     1      -5.607   5.865 -31.313  1.00  0.00    -0.271 OA
BRANCH  22  25
HETATM   25  C   UNL     1      -2.652   5.545 -31.416  1.00  0.00     0.069 A 
HETATM   26  C   UNL     1      -2.405   5.136 -32.728  1.00  0.00     0.039 A 
HETATM   27  C   UNL     1      -1.488   5.830 -33.530  1.00  0.00    -0.060 A 
HETATM   28  C   UNL     1      -1.224   5.379 -34.936  1.00  0.00     0.048 C 
HETATM   29  C   UNL     1      -0.794   6.917 -32.989  1.00  0.00     0.009 A 
HETATM   30  C   UNL     1      -1.029   7.329 -31.675  1.00  0.00     0.039 A 
HETATM   31  C   UNL     1      -1.958   6.652 -30.883  1.00  0.00     0.095 A 
BRANCH  31  32
HETATM   32  O   UNL     1      -2.267   6.973 -29.580  1.00  0.00    -0.354 OA
HETATM   33  C   UNL     1      -1.174   7.255 -28.714  1.00  0.00     0.210 C 
ENDBRANCH  31  32
ENDBRANCH  22  25
ENDBRANCH  20  21
ENDBRANCH   1  20
TORSDOF 9
ENDMDL
MODEL 3
REMARK VINA RESULT:      -8.9      2.293      8.439
REMARK  9 active torsions:
REMARK  status: ('A' for Active; 'I' for Inactive)
REMARK    1  A    between atoms: C_4  and  N_5 
REMARK       I    between atoms: N_5  and  C_6 
REMARK    2  A    between atoms: C_6  and  C_7 
REMARK    3  A    between atoms: C_7  and  N_8 
REMARK       I    between atoms: N_8  and  C_9 
REMARK    4  A    between atoms: C_9  and  C_10 
REMARK    5  A    between atoms: C_10  and  O_11 
REMARK    6  A    between atoms: O_11  and  C_12 
REMARK    7  A    between atoms: C_12  and  C_13 
REMARK    8  A    between atoms: C_17  and  C_18 
REMARK    9  A    between atoms: C_27  and  O_28 
ROOT
HETATM    1  N   UNL     1      -6.348   2.938 -32.477  1.00  0.00    -0.350 N 
HETATM    2  C   UNL     1      -6.051   2.646 -31.162  1.00  0.00     0.242 C 
HETATM    3  O   UNL     1      -6.528   1.693 -30.555  1.00  0.00    -0.271 OA
HETATM    4  H   UNL     1      -6.119   3.883 -32.786  1.00  0.00     0.163 HD
ENDROOT
BRANCH   2   5
HETATM    5  C   UNL     1      -5.062   3.615 -30.510  1.00  0.00     0.281 C 
BRANCH   5   6
HETATM    6  O   UNL     1      -4.312   4.377 -31.453  1.00  0.00    -0.308 OA
BRANCH   6   7
HETATM    7  C   UNL     1      -3.033   3.958 -31.666  1.00  0.00     0.301 C 
HETATM    8  O   UNL     1      -2.605   2.875 -31.273  1.00  0.00    -0.259 OA
BRANCH   7   9
HETATM    9  C   UNL     1      -2.304   4.945 -32.437  1.00  0.00     0.091 A 
HETATM   10  S   UNL     1      -2.672   5.071 -34.112  1.00  0.00    -0.095 SA
HETATM   11  C   UNL     1      -1.609   6.387 -34.326  1.00  0.00     0.051 A 
HETATM   12  C   UNL     1      -0.943   6.700 -33.164  1.00  0.00     0.021 A 
HETATM   13  C   UNL     1      -1.320   5.855 -32.067  1.00  0.00    -0.002 A 
BRANCH  13  14
HETATM   14  C   UNL     1      -0.733   5.911 -30.732  1.00  0.00    -0.024 A 
HETATM   15  C   UNL     1      -1.207   6.840 -29.798  1.00  0.00     0.012 A 
HETATM   16  C   UNL     1      -0.629   6.918 -28.529  1.00  0.00     0.001 A 
HETATM   17  C   UNL     1       0.425   6.072 -28.188  1.00  0.00     0.000 A 
HETATM   18  C   UNL     1       0.908   5.149 -29.116  1.00  0.00     0.001 A 
HETATM   19  C   UNL     1       0.336   5.073 -30.387  1.00  0.00     0.012 A 
ENDBRANCH  13  14
ENDBRANCH   7   9
ENDBRANCH   6   7
ENDBRANCH   5   6
ENDBRANCH   2   5
BRANCH   1  20
HETATM   20  C   UNL     1      -7.410   2.228 -33.175  1.00  0.00     0.225 C 
BRANCH  20  21
HETATM   21  C   UNL     1      -6.864   1.054 -33.998  1.00  0.00     0.239 C 
HETATM   22  N   UNL     1      -6.533  -0.037 -33.215  1.00  0.00    -0.323 N 
HETATM   23  H   UNL     1      -6.805  -0.032 -32.238  1.00  0.00     0.169 HD
HETATM   24  O   UNL     1      -6.866   1.080 -35.226  1.00  0.00    -0.271 OA
BRANCH  22  25
HETATM   25  C   UNL     1      -5.949  -1.255 -33.627  1.00  0.00     0.069 A 
HETATM   26  C   UNL     1      -6.665  -2.262 -34.279  1.00  0.00     0.039 A 
HETATM   27  C   UNL     1      -6.017  -3.422 -34.724  1.00  0.00    -0.060 A 
HETATM   28  C   UNL     1      -6.796  -4.501 -35.417  1.00  0.00     0.048 C 
HETATM   29  C   UNL     1      -4.650  -3.580 -34.475  1.00  0.00     0.009 A 
HETATM   30  C   UNL     1      -3.928  -2.582 -33.818  1.00  0.00     0.039 A 
HETATM   31  C   UNL     1      -4.568  -1.416 -33.393  1.00  0.00     0.095 A 
BRANCH  31  32
HETATM   32  O   UNL     1      -3.953  -0.371 -32.739  1.00  0.00    -0.354 OA
HETATM   33  C   UNL     1      -3.555  -0.605 -31.393  1.00  0.00     0.210 C 
ENDBRANCH  31  32
ENDBRANCH  22  25
ENDBRANCH  20  21
ENDBRANCH   1  20
TORSDOF 9
ENDMDL
MODEL 4
REMARK VINA RESULT:      -8.8      1.781      3.198
REMARK  9 active torsions:
REMARK  status: ('A' for Active; 'I' for Inactive)
REMARK    1  A    between atoms: C_4  and  N_5 
REMARK       I    between atoms: N_5  and  C_6 
REMARK    2  A    between atoms: C_6  and  C_7 
REMARK    3  A    between atoms: C_7  and  N_8 
REMARK       I    between atoms: N_8  and  C_9 
REMARK    4  A    between atoms: C_9  and  C_10 
REMARK    5  A    between atoms: C_10  and  O_11 
REMARK    6  A    between atoms: O_11  and  C_12 
REMARK    7  A    between atoms: C_12  and  C_13 
REMARK    8  A    between atoms: C_17  and  C_18 
REMARK    9  A    between atoms: C_27  and  O_28 
ROOT
HETATM    1  N   UNL     1      -4.866   1.755 -31.691  1.00  0.00    -0.350 N 
HETATM    2  C   UNL     1      -4.781   0.735 -30.765  1.00  0.00     0.242 C 
HETATM    3  O   UNL     1      -5.512   0.649 -29.783  1.00  0.00    -0.271 OA
HETATM    4  H   UNL     1      -4.053   1.875 -32.295  1.00  0.00     0.163 HD
ENDROOT
BRANCH   2   5
HETATM    5  C   UNL     1      -3.694  -0.299 -31.066  1.00  0.00     0.281 C 
BRANCH   5   6
HETATM    6  O   UNL     1      -4.169  -1.420 -31.807  1.00  0.00    -0.308 OA
BRANCH   6   7
HETATM    7  C   UNL     1      -3.979  -1.360 -33.154  1.00  0.00     0.301 C 
HETATM    8  O   UNL     1      -3.147  -0.628 -33.686  1.00  0.00    -0.259 OA
BRANCH   7   9
HETATM    9  C   UNL     1      -4.858  -2.296 -33.827  1.00  0.00     0.091 A 
HETATM   10  S   UNL     1      -4.203  -3.824 -34.265  1.00  0.00    -0.095 SA
HETATM   11  C   UNL     1      -5.700  -4.384 -34.857  1.00  0.00     0.051 A 
HETATM   12  C   UNL     1      -6.675  -3.417 -34.776  1.00  0.00     0.021 A 
HETATM   13  C   UNL     1      -6.193  -2.193 -34.202  1.00  0.00    -0.002 A 
BRANCH  13  14
HETATM   14  C   UNL     1      -6.983  -0.976 -34.051  1.00  0.00    -0.024 A 
HETATM   15  C   UNL     1      -7.577  -0.676 -32.820  1.00  0.00     0.012 A 
HETATM   16  C   UNL     1      -8.359   0.474 -32.678  1.00  0.00     0.001 A 
HETATM   17  C   UNL     1      -8.553   1.325 -33.764  1.00  0.00     0.000 A 
HETATM   18  C   UNL     1      -7.971   1.028 -34.996  1.00  0.00     0.001 A 
HETATM   19  C   UNL     1      -7.194  -0.122 -35.143  1.00  0.00     0.012 A 
ENDBRANCH  13  14
ENDBRANCH   7   9
ENDBRANCH   6   7
ENDBRANCH   5   6
ENDBRANCH   2   5
BRANCH   1  20
HETATM   20  C   UNL     1      -5.716   2.911 -31.448  1.00  0.00     0.225 C 
BRANCH  20  21
HETATM   21  C   UNL     1      -4.903   4.211 -31.383  1.00  0.00     0.239 C 
HETATM   22  N   UNL     1      -3.781   4.180 -32.191  1.00  0.00    -0.323 N 
HETATM   23  H   UNL     1      -3.674   3.407 -32.841  1.00  0.00     0.169 HD
HETATM   24  O   UNL     1      -5.317   5.192 -30.772  1.00  0.00    -0.271 OA
BRANCH  22  25
HETATM   25  C   UNL     1      -2.783   5.168 -32.329  1.00  0.00     0.069 A 
HETATM   26  C   UNL     1      -1.672   5.254 -31.485  1.00  0.00     0.039 A 
HETATM   27  C   UNL     1      -0.679   6.216 -31.711  1.00  0.00    -0.060 A 
HETATM   28  C   UNL     1       0.506   6.305 -30.795  1.00  0.00     0.048 C 
HETATM   29  C   UNL     1      -0.829   7.118 -32.769  1.00  0.00     0.009 A 
HETATM   30  C   UNL     1      -1.939   7.045 -33.614  1.00  0.00     0.039 A 
HETATM   31  C   UNL     1      -2.919   6.073 -33.403  1.00  0.00     0.095 A 
BRANCH  31  32
HETATM   32  O   UNL     1      -4.050   5.911 -34.172  1.00  0.00    -0.354 OA
HETATM   33  C   UNL     1      -3.904   5.164 -35.373  1.00  0.00     0.210 C 
ENDBRANCH  31  32
ENDBRANCH  22  25
ENDBRANCH  20  21
ENDBRANCH   1  20
TORSDOF 9
ENDMDL
MODEL 5
REMARK VINA RESULT:      -8.6      2.247      3.357
REMARK  9 active torsions:
REMARK  status: ('A' for Active; 'I' for Inactive)
REMARK    1  A    between atoms: C_4  and  N_5 
REMARK       I    between atoms: N_5  and  C_6 
REMARK    2  A    between atoms: C_6  and  C_7 
REMARK    3  A    between atoms: C_7  and  N_8 
REMARK       I    between atoms: N_8  and  C_9 
REMARK    4  A    between atoms: C_9  and  C_10 
REMARK    5  A    between atoms: C_10  and  O_11 
REMARK    6  A    between atoms: O_11  and  C_12 
REMARK    7  A    between atoms: C_12  and  C_13 
REMARK    8  A    between atoms: C_17  and  C_18 
REMARK    9  A    between atoms: C_27  and  O_28 
ROOT
HETATM    1  N   UNL     1      -3.351   3.607 -32.151  1.00  0.00    -0.350 N 
HETATM    2  C   UNL     1      -3.944   2.672 -31.326  1.00  0.00     0.242 C 
HETATM    3  O   UNL     1      -4.907   2.917 -30.608  1.00  0.00    -0.271 OA
HETATM    4  H   UNL     1      -2.414   3.376 -32.483  1.00  0.00     0.163 HD
ENDROOT
BRANCH   2   5
HETATM    5  C   UNL     1      -3.300   1.285 -31.383  1.00  0.00     0.281 C 
BRANCH   5   6
HETATM    6  O   UNL     1      -3.807   0.469 -32.436  1.00  0.00    -0.308 OA
BRANCH   6   7
HETATM    7  C   UNL     1      -5.011  -0.122 -32.198  1.00  0.00     0.301 C 
HETATM    8  O   UNL     1      -5.289  -0.681 -31.139  1.00  0.00    -0.259 OA
BRANCH   7   9
HETATM    9  C   UNL     1      -5.887   0.047 -33.339  1.00  0.00     0.091 A 
HETATM   10  S   UNL     1      -6.673   1.566 -33.517  1.00  0.00    -0.095 SA
HETATM   11  C   UNL     1      -7.384   1.113 -34.999  1.00  0.00     0.051 A 
HETATM   12  C   UNL     1      -7.078  -0.185 -35.336  1.00  0.00     0.021 A 
HETATM   13  C   UNL     1      -6.230  -0.822 -34.369  1.00  0.00    -0.002 A 
BRANCH  13  14
HETATM   14  C   UNL     1      -5.797  -2.214 -34.431  1.00  0.00    -0.024 A 
HETATM   15  C   UNL     1      -6.721  -3.223 -34.724  1.00  0.00     0.012 A 
HETATM   16  C   UNL     1      -6.317  -4.560 -34.756  1.00  0.00     0.001 A 
HETATM   17  C   UNL     1      -4.990  -4.894 -34.492  1.00  0.00     0.000 A 
HETATM   18  C   UNL     1      -4.065  -3.896 -34.191  1.00  0.00     0.001 A 
HETATM   19  C   UNL     1      -4.467  -2.559 -34.153  1.00  0.00     0.012 A 
ENDBRANCH  13  14
ENDBRANCH   7   9
ENDBRANCH   6   7
ENDBRANCH   5   6
ENDBRANCH   2   5
BRANCH   1  20
HETATM   20  C   UNL     1      -3.723   5.012 -32.071  1.00  0.00     0.225 C 
BRANCH  20  21
HETATM   21  C   UNL     1      -2.532   5.894 -31.672  1.00  0.00     0.239 C 
HETATM   22  N   UNL     1      -2.419   6.048 -30.302  1.00  0.00    -0.323 N 
HETATM   23  H   UNL     1      -3.002   5.477 -29.700  1.00  0.00     0.169 HD
HETATM   24  O   UNL     1      -1.720   6.284 -32.505  1.00  0.00    -0.271 OA
BRANCH  22  25
HETATM   25  C   UNL     1      -1.487   6.836 -29.593  1.00  0.00     0.069 A 
HETATM   26  C   UNL     1      -1.777   8.117 -29.116  1.00  0.00     0.039 A 
HETATM   27  C   UNL     1      -0.833   8.826 -28.359  1.00  0.00    -0.060 A 
HETATM   28  C   UNL     1      -1.152  10.203 -27.858  1.00  0.00     0.048 C 
HETATM   29  C   UNL     1       0.419   8.253 -28.118  1.00  0.00     0.009 A 
HETATM   30  C   UNL     1       0.721   6.976 -28.597  1.00  0.00     0.039 A 
HETATM   31  C   UNL     1      -0.225   6.260 -29.333  1.00  0.00     0.095 A 
BRANCH  31  32
HETATM   32  O   UNL     1      -0.034   4.998 -29.850  1.00  0.00    -0.354 OA
HETATM   33  C   UNL     1       1.097   4.818 -30.693  1.00  0.00     0.210 C 
ENDBRANCH  31  32
ENDBRANCH  22  25
ENDBRANCH  20  21
ENDBRANCH   1  20
TORSDOF 9
ENDMDL
MODEL 6
REMARK VINA RESULT:      -8.6      2.333      4.360
REMARK  9 active torsions:
REMARK  status: ('A' for Active; 'I' for Inactive)
REMARK    1  A    between atoms: C_4  and  N_5 
REMARK       I    between atoms: N_5  and  C_6 
REMARK    2  A    between atoms: C_6  and  C_7 
REMARK    3  A    between atoms: C_7  and  N_8 
REMARK       I    between atoms: N_8  and  C_9 
REMARK    4  A    between atoms: C_9  and  C_10 
REMARK    5  A    between atoms: C_10  and  O_11 
REMARK    6  A    between atoms: O_11  and  C_12 
REMARK    7  A    between atoms: C_12  and  C_13 
REMARK    8  A    between atoms: C_17  and  C_18 
REMARK    9  A    between atoms: C_27  and  O_28 
ROOT
HETATM    1  N   UNL     1      -3.221   5.569 -33.487  1.00  0.00    -0.350 N 
HETATM    2  C   UNL     1      -4.036   5.208 -34.540  1.00  0.00     0.242 C 
HETATM    3  O   UNL     1      -3.791   5.481 -35.711  1.00  0.00    -0.271 OA
HETATM    4  H   UNL     1      -3.648   5.533 -32.562  1.00  0.00     0.163 HD
ENDROOT
BRANCH   2   5
HETATM    5  C   UNL     1      -5.284   4.423 -34.130  1.00  0.00     0.281 C 
BRANCH   5   6
HETATM    6  O   UNL     1      -4.988   3.215 -33.433  1.00  0.00    -0.308 OA
BRANCH   6   7
HETATM    7  C   UNL     1      -5.984   2.286 -33.414  1.00  0.00     0.301 C 
HETATM    8  O   UNL     1      -6.742   2.091 -34.362  1.00  0.00    -0.259 OA
BRANCH   7   9
HETATM    9  C   UNL     1      -5.976   1.568 -32.155  1.00  0.00     0.091 A 
HETATM   10  S   UNL     1      -5.985   2.500 -30.710  1.00  0.00    -0.095 SA
HETATM   11  C   UNL     1      -6.074   1.113 -29.723  1.00  0.00     0.051 A 
HETATM   12  C   UNL     1      -6.046  -0.045 -30.465  1.00  0.00     0.021 A 
HETATM   13  C   UNL     1      -5.965   0.205 -31.876  1.00  0.00    -0.002 A 
BRANCH  13  14
HETATM   14  C   UNL     1      -5.856  -0.828 -32.900  1.00  0.00    -0.024 A 
HETATM   15  C   UNL     1      -4.604  -1.366 -33.221  1.00  0.00     0.012 A 
HETATM   16  C   UNL     1      -4.491  -2.336 -34.220  1.00  0.00     0.001 A 
HETATM   17  C   UNL     1      -5.625  -2.769 -34.904  1.00  0.00     0.000 A 
HETATM   18  C   UNL     1      -6.875  -2.233 -34.596  1.00  0.00     0.001 A 
HETATM   19  C   UNL     1      -6.991  -1.260 -33.601  1.00  0.00     0.012 A 
ENDBRANCH  13  14
ENDBRANCH   7   9
ENDBRANCH   6   7
ENDBRANCH   5   6
ENDBRANCH   2   5
BRANCH   1  20
HETATM   20  C   UNL     1      -2.101   6.477 -33.690  1.00  0.00     0.225 C 
BRANCH  20  21
HETATM   21  C   UNL     1      -1.850   7.355 -32.457  1.00  0.00     0.239 C 
HETATM   22  N   UNL     1      -1.495   6.619 -31.342  1.00  0.00    -0.323 N 
HETATM   23  H   UNL     1      -1.291   5.631 -31.458  1.00  0.00     0.169 HD
HETATM   24  O   UNL     1      -1.844   8.580 -32.537  1.00  0.00    -0.271 OA
BRANCH  22  25
HETATM   25  C   UNL     1      -1.254   7.089 -30.033  1.00  0.00     0.069 A 
HETATM   26  C   UNL     1      -0.004   7.537 -29.600  1.00  0.00     0.039 A 
HETATM   27  C   UNL     1       0.160   8.056 -28.309  1.00  0.00    -0.060 A 
HETATM   28  C   UNL     1       1.508   8.528 -27.852  1.00  0.00     0.048 C 
HETATM   29  C   UNL     1      -0.936   8.086 -27.441  1.00  0.00     0.009 A 
HETATM   30  C   UNL     1      -2.189   7.633 -27.861  1.00  0.00     0.039 A 
HETATM   31  C   UNL     1      -2.358   7.136 -29.155  1.00  0.00     0.095 A 
BRANCH  31  32
HETATM   32  O   UNL     1      -3.545   6.666 -29.671  1.00  0.00    -0.354 OA
HETATM   33  C   UNL     1      -4.739   7.120 -29.045  1.00  0.00     0.210 C 
ENDBRANCH  31  32
ENDBRANCH  22  25
ENDBRANCH  20  21
ENDBRANCH   1  20
TORSDOF 9
ENDMDL
MODEL 7
REMARK VINA RESULT:      -8.3      2.651      4.503
REMARK  9 active torsions:
REMARK  status: ('A' for Active; 'I' for Inactive)
REMARK    1  A    between atoms: C_4  and  N_5 
REMARK       I    between atoms: N_5  and  C_6 
REMARK    2  A    between atoms: C_6  and  C_7 
REMARK    3  A    between atoms: C_7  and  N_8 
REMARK       I    between atoms: N_8  and  C_9 
REMARK    4  A    between atoms: C_9  and  C_10 
REMARK    5  A    between atoms: C_10  and  O_11 
REMARK    6  A    between atoms: O_11  and  C_12 
REMARK    7  A    between atoms: C_12  and  C_13 
REMARK    8  A    between atoms: C_17  and  C_18 
REMARK    9  A    between atoms: C_27  and  O_28 
ROOT
HETATM    1  N   UNL     1      -3.336   4.688 -33.715  1.00  0.00    -0.350 N 
HETATM    2  C   UNL     1      -4.698   4.478 -33.796  1.00  0.00     0.242 C 
HETATM    3  O   UNL     1      -5.434   5.096 -34.558  1.00  0.00    -0.271 OA
HETATM    4  H   UNL     1      -2.880   4.326 -32.878  1.00  0.00     0.163 HD
ENDROOT
BRANCH   2   5
HETATM    5  C   UNL     1      -5.225   3.395 -32.852  1.00  0.00     0.281 C 
BRANCH   5   6
HETATM    6  O   UNL     1      -4.205   2.532 -32.356  1.00  0.00    -0.308 OA
BRANCH   6   7
HETATM    7  C   UNL     1      -4.599   1.636 -31.408  1.00  0.00     0.301 C 
HETATM    8  O   UNL     1      -5.137   1.964 -30.353  1.00  0.00    -0.259 OA
BRANCH   7   9
HETATM    9  C   UNL     1      -4.326   0.284 -31.852  1.00  0.00     0.091 A 
HETATM   10  S   UNL     1      -2.835  -0.423 -31.370  1.00  0.00    -0.095 SA
HETATM   11  C   UNL     1      -3.217  -1.916 -32.097  1.00  0.00     0.051 A 
HETATM   12  C   UNL     1      -4.432  -1.874 -32.742  1.00  0.00     0.021 A 
HETATM   13  C   UNL     1      -5.074  -0.596 -32.628  1.00  0.00    -0.002 A 
BRANCH  13  14
HETATM   14  C   UNL     1      -6.338  -0.240 -33.262  1.00  0.00    -0.024 A 
HETATM   15  C   UNL     1      -6.392  -0.029 -34.645  1.00  0.00     0.012 A 
HETATM   16  C   UNL     1      -7.594   0.341 -35.253  1.00  0.00     0.001 A 
HETATM   17  C   UNL     1      -8.745   0.503 -34.484  1.00  0.00     0.000 A 
HETATM   18  C   UNL     1      -8.698   0.302 -33.105  1.00  0.00     0.001 A 
HETATM   19  C   UNL     1      -7.497  -0.062 -32.493  1.00  0.00     0.012 A 
ENDBRANCH  13  14
ENDBRANCH   7   9
ENDBRANCH   6   7
ENDBRANCH   5   6
ENDBRANCH   2   5
BRANCH   1  20
HETATM   20  C   UNL     1      -2.713   5.807 -34.406  1.00  0.00     0.225 C 
BRANCH  20  21
HETATM   21  C   UNL     1      -2.052   6.784 -33.426  1.00  0.00     0.239 C 
HETATM   22  N   UNL     1      -1.998   6.290 -32.135  1.00  0.00    -0.323 N 
HETATM   23  H   UNL     1      -2.245   5.318 -31.978  1.00  0.00     0.169 HD
HETATM   24  O   UNL     1      -1.523   7.821 -33.817  1.00  0.00    -0.271 OA
BRANCH  22  25
HETATM   25  C   UNL     1      -1.519   6.938 -30.977  1.00  0.00     0.069 A 
HETATM   26  C   UNL     1      -1.954   8.204 -30.575  1.00  0.00     0.039 A 
HETATM   27  C   UNL     1      -1.491   8.770 -29.379  1.00  0.00    -0.060 A 
HETATM   28  C   UNL     1      -1.959  10.132 -28.960  1.00  0.00     0.048 C 
HETATM   29  C   UNL     1      -0.558   8.070 -28.608  1.00  0.00     0.009 A 
HETATM   30  C   UNL     1      -0.111   6.807 -29.005  1.00  0.00     0.039 A 
HETATM   31  C   UNL     1      -0.587   6.233 -30.186  1.00  0.00     0.095 A 
BRANCH  31  32
HETATM   32  O   UNL     1      -0.216   4.998 -30.669  1.00  0.00    -0.354 OA
HETATM   33  C   UNL     1       1.178   4.772 -30.840  1.00  0.00     0.210 C 
ENDBRANCH  31  32
ENDBRANCH  22  25
ENDBRANCH  20  21
ENDBRANCH   1  20
TORSDOF 9
ENDMDL
MODEL 8
REMARK VINA RESULT:      -8.1      2.554      7.995
REMARK  9 active torsions:
REMARK  status: ('A' for Active; 'I' for Inactive)
REMARK    1  A    between atoms: C_4  and  N_5 
REMARK       I    between atoms: N_5  and  C_6 
REMARK    2  A    between atoms: C_6  and  C_7 
REMARK    3  A    between atoms: C_7  and  N_8 
REMARK       I    between atoms: N_8  and  C_9 
REMARK    4  A    between atoms: C_9  and  C_10 
REMARK    5  A    between atoms: C_10  and  O_11 
REMARK    6  A    between atoms: O_11  and  C_12 
REMARK    7  A    between atoms: C_12  and  C_13 
REMARK    8  A    between atoms: C_17  and  C_18 
REMARK    9  A    between atoms: C_27  and  O_28 
ROOT
HETATM    1  N   UNL     1      -5.552   4.034 -29.271  1.00  0.00    -0.350 N 
HETATM    2  C   UNL     1      -5.903   5.349 -29.040  1.00  0.00     0.242 C 
HETATM    3  O   UNL     1      -7.063   5.746 -29.017  1.00  0.00    -0.271 OA
HETATM    4  H   UNL     1      -4.580   3.874 -29.536  1.00  0.00     0.163 HD
ENDROOT
BRANCH   2   5
HETATM    5  C   UNL     1      -4.715   6.286 -28.806  1.00  0.00     0.281 C 
BRANCH   5   6
HETATM    6  O   UNL     1      -3.844   6.386 -29.929  1.00  0.00    -0.308 OA
BRANCH   6   7
HETATM    7  C   UNL     1      -2.873   7.337 -29.840  1.00  0.00     0.301 C 
HETATM    8  O   UNL     1      -3.107   8.543 -29.863  1.00  0.00    -0.259 OA
BRANCH   7   9
HETATM    9  C   UNL     1      -1.574   6.715 -29.680  1.00  0.00     0.091 A 
HETATM   10  S   UNL     1      -0.783   6.909 -28.166  1.00  0.00    -0.095 SA
HETATM   11  C   UNL     1       0.517   5.909 -28.628  1.00  0.00     0.051 A 
HETATM   12  C   UNL     1       0.389   5.471 -29.925  1.00  0.00     0.021 A 
HETATM   13  C   UNL     1      -0.808   5.951 -30.555  1.00  0.00    -0.002 A 
BRANCH  13  14
HETATM   14  C   UNL     1      -1.176   5.702 -31.944  1.00  0.00    -0.024 A 
HETATM   15  C   UNL     1      -0.850   6.638 -32.933  1.00  0.00     0.012 A 
HETATM   16  C   UNL     1      -1.225   6.417 -34.261  1.00  0.00     0.001 A 
HETATM   17  C   UNL     1      -1.928   5.265 -34.605  1.00  0.00     0.000 A 
HETATM   18  C   UNL     1      -2.263   4.331 -33.625  1.00  0.00     0.001 A 
HETATM   19  C   UNL     1      -1.894   4.551 -32.296  1.00  0.00     0.012 A 
ENDBRANCH  13  14
ENDBRANCH   7   9
ENDBRANCH   6   7
ENDBRANCH   5   6
ENDBRANCH   2   5
BRANCH   1  20
HETATM   20  C   UNL     1      -6.548   3.062 -29.696  1.00  0.00     0.225 C 
BRANCH  20  21
HETATM   21  C   UNL     1      -6.250   2.521 -31.101  1.00  0.00     0.239 C 
HETATM   22  N   UNL     1      -6.871   1.310 -31.349  1.00  0.00    -0.323 N 
HETATM   23  H   UNL     1      -7.555   0.971 -30.680  1.00  0.00     0.169 HD
HETATM   24  O   UNL     1      -5.635   3.191 -31.926  1.00  0.00    -0.271 OA
BRANCH  22  25
HETATM   25  C   UNL     1      -6.768   0.503 -32.502  1.00  0.00     0.069 A 
HETATM   26  C   UNL     1      -5.731  -0.412 -32.703  1.00  0.00     0.039 A 
HETATM   27  C   UNL     1      -5.718  -1.235 -33.838  1.00  0.00    -0.060 A 
HETATM   28  C   UNL     1      -4.596  -2.208 -34.049  1.00  0.00     0.048 C 
HETATM   29  C   UNL     1      -6.735  -1.105 -34.788  1.00  0.00     0.009 A 
HETATM   30  C   UNL     1      -7.772  -0.188 -34.599  1.00  0.00     0.039 A 
HETATM   31  C   UNL     1      -7.798   0.617 -33.459  1.00  0.00     0.095 A 
BRANCH  31  32
HETATM   32  O   UNL     1      -8.770   1.550 -33.173  1.00  0.00    -0.354 OA
HETATM   33  C   UNL     1      -9.170   2.403 -34.239  1.00  0.00     0.210 C 
ENDBRANCH  31  32
ENDBRANCH  22  25
ENDBRANCH  20  21
ENDBRANCH   1  20
TORSDOF 9
ENDMDL
MODEL 9
REMARK VINA RESULT:      -8.1      2.492      3.789
REMARK  9 active torsions:
REMARK  status: ('A' for Active; 'I' for Inactive)
REMARK    1  A    between atoms: C_4  and  N_5 
REMARK       I    between atoms: N_5  and  C_6 
REMARK    2  A    between atoms: C_6  and  C_7 
REMARK    3  A    between atoms: C_7  and  N_8 
REMARK       I    between atoms: N_8  and  C_9 
REMARK    4  A    between atoms: C_9  and  C_10 
REMARK    5  A    between atoms: C_10  and  O_11 
REMARK    6  A    between atoms: O_11  and  C_12 
REMARK    7  A    between atoms: C_12  and  C_13 
REMARK    8  A    between atoms: C_17  and  C_18 
REMARK    9  A    between atoms: C_27  and  O_28 
ROOT
HETATM    1  N   UNL     1      -3.395   3.998 -31.621  1.00  0.00    -0.350 N 
HETATM    2  C   UNL     1      -3.691   2.714 -31.211  1.00  0.00     0.242 C 
HETATM    3  O   UNL     1      -2.880   1.794 -31.225  1.00  0.00    -0.271 OA
HETATM    4  H   UNL     1      -4.196   4.597 -31.822  1.00  0.00     0.163 HD
ENDROOT
BRANCH   2   5
HETATM    5  C   UNL     1      -5.131   2.526 -30.724  1.00  0.00     0.281 C 
BRANCH   5   6
HETATM    6  O   UNL     1      -6.097   3.165 -31.555  1.00  0.00    -0.308 OA
BRANCH   6   7
HETATM    7  C   UNL     1      -6.325   2.570 -32.759  1.00  0.00     0.301 C 
HETATM    8  O   UNL     1      -5.594   2.723 -33.735  1.00  0.00    -0.259 OA
BRANCH   7   9
HETATM    9  C   UNL     1      -7.503   1.729 -32.688  1.00  0.00     0.091 A 
HETATM   10  S   UNL     1      -8.979   2.472 -32.213  1.00  0.00    -0.095 SA
HETATM   11  C   UNL     1      -9.867   1.035 -32.441  1.00  0.00     0.051 A 
HETATM   12  C   UNL     1      -9.057  -0.011 -32.820  1.00  0.00     0.021 A 
HETATM   13  C   UNL     1      -7.680   0.374 -32.944  1.00  0.00    -0.002 A 
BRANCH  13  14
HETATM   14  C   UNL     1      -6.588  -0.537 -33.269  1.00  0.00    -0.024 A 
HETATM   15  C   UNL     1      -6.661  -1.338 -34.414  1.00  0.00     0.012 A 
HETATM   16  C   UNL     1      -5.631  -2.233 -34.714  1.00  0.00     0.001 A 
HETATM   17  C   UNL     1      -4.525  -2.332 -33.871  1.00  0.00     0.000 A 
HETATM   18  C   UNL     1      -4.448  -1.543 -32.724  1.00  0.00     0.001 A 
HETATM   19  C   UNL     1      -5.479  -0.651 -32.419  1.00  0.00     0.012 A 
ENDBRANCH  13  14
ENDBRANCH   7   9
ENDBRANCH   6   7
ENDBRANCH   5   6
ENDBRANCH   2   5
BRANCH   1  20
HETATM   20  C   UNL     1      -2.134   4.294 -32.284  1.00  0.00     0.225 C 
BRANCH  20  21
HETATM   21  C   UNL     1      -1.495   5.580 -31.743  1.00  0.00     0.239 C 
HETATM   22  N   UNL     1      -1.811   5.815 -30.417  1.00  0.00    -0.323 N 
HETATM   23  H   UNL     1      -2.285   5.085 -29.895  1.00  0.00     0.169 HD
HETATM   24  O   UNL     1      -0.690   6.223 -32.411  1.00  0.00    -0.271 OA
BRANCH  22  25
HETATM   25  C   UNL     1      -1.451   6.926 -29.624  1.00  0.00     0.069 A 
HETATM   26  C   UNL     1      -0.174   7.096 -29.083  1.00  0.00     0.039 A 
HETATM   27  C   UNL     1       0.144   8.253 -28.358  1.00  0.00    -0.060 A 
HETATM   28  C   UNL     1       1.516   8.423 -27.775  1.00  0.00     0.048 C 
HETATM   29  C   UNL     1      -0.843   9.221 -28.148  1.00  0.00     0.009 A 
HETATM   30  C   UNL     1      -2.125   9.056 -28.679  1.00  0.00     0.039 A 
HETATM   31  C   UNL     1      -2.437   7.914 -29.419  1.00  0.00     0.095 A 
BRANCH  31  32
HETATM   32  O   UNL     1      -3.664   7.652 -29.986  1.00  0.00    -0.354 OA
HETATM   33  C   UNL     1      -4.054   8.478 -31.077  1.00  0.00     0.210 C 
ENDBRANCH  31  32
ENDBRANCH  22  25
ENDBRANCH  20  21
ENDBRANCH   1  20
TORSDOF 9
ENDMDL
MODEL 10
REMARK VINA RESULT:      -8.0      2.418      8.386
REMARK  9 active torsions:
REMARK  status: ('A' for Active; 'I' for Inactive)
REMARK    1  A    between atoms: C_4  and  N_5 
REMARK       I    between atoms: N_5  and  C_6 
REMARK    2  A    between atoms: C_6  and  C_7 
REMARK    3  A    between atoms: C_7  and  N_8 
REMARK       I    between atoms: N_8  and  C_9 
REMARK    4  A    between atoms: C_9  and  C_10 
REMARK    5  A    between atoms: C_10  and  O_11 
REMARK    6  A    between atoms: O_11  and  C_12 
REMARK    7  A    between atoms: C_12  and  C_13 
REMARK    8  A    between atoms: C_17  and  C_18 
REMARK    9  A    between atoms: C_27  and  O_28 
ROOT
HETATM    1  N   UNL     1      -7.723   2.901 -31.009  1.00  0.00    -0.350 N 
HETATM    2  C   UNL     1      -6.668   3.765 -31.219  1.00  0.00     0.242 C 
HETATM    3  O   UNL     1      -6.162   3.963 -32.319  1.00  0.00    -0.271 OA
HETATM    4  H   UNL     1      -7.876   2.613 -30.043  1.00  0.00     0.163 HD
ENDROOT
BRANCH   2   5
HETATM    5  C   UNL     1      -6.172   4.472 -29.955  1.00  0.00     0.281 C 
BRANCH   5   6
HETATM    6  O   UNL     1      -4.858   5.009 -30.085  1.00  0.00    -0.308 OA
BRANCH   6   7
HETATM    7  C   UNL     1      -4.776   6.369 -30.103  1.00  0.00     0.301 C 
HETATM    8  O   UNL     1      -5.709   7.096 -30.435  1.00  0.00    -0.259 OA
BRANCH   7   9
HETATM    9  C   UNL     1      -3.469   6.798 -29.646  1.00  0.00     0.091 A 
HETATM   10  S   UNL     1      -3.345   7.375 -28.031  1.00  0.00    -0.095 SA
HETATM   11  C   UNL     1      -1.656   7.575 -28.150  1.00  0.00     0.051 A 
HETATM   12  C   UNL     1      -1.191   7.261 -29.405  1.00  0.00     0.021 A 
HETATM   13  C   UNL     1      -2.237   6.831 -30.290  1.00  0.00    -0.002 A 
BRANCH  13  14
HETATM   14  C   UNL     1      -2.051   6.495 -31.697  1.00  0.00    -0.024 A 
HETATM   15  C   UNL     1      -1.951   5.156 -32.090  1.00  0.00     0.012 A 
HETATM   16  C   UNL     1      -1.744   4.830 -33.433  1.00  0.00     0.001 A 
HETATM   17  C   UNL     1      -1.634   5.840 -34.387  1.00  0.00     0.000 A 
HETATM   18  C   UNL     1      -1.725   7.177 -34.003  1.00  0.00     0.001 A 
HETATM   19  C   UNL     1      -1.926   7.506 -32.661  1.00  0.00     0.012 A 
ENDBRANCH  13  14
ENDBRANCH   7   9
ENDBRANCH   6   7
ENDBRANCH   5   6
ENDBRANCH   2   5
BRANCH   1  20
HETATM   20  C   UNL     1      -8.182   2.015 -32.069  1.00  0.00     0.225 C 
BRANCH  20  21
HETATM   21  C   UNL     1      -7.441   0.672 -32.047  1.00  0.00     0.239 C 
HETATM   22  N   UNL     1      -6.893   0.345 -33.274  1.00  0.00    -0.323 N 
HETATM   23  H   UNL     1      -6.890   1.048 -34.006  1.00  0.00     0.169 HD
HETATM   24  O   UNL     1      -7.267   0.056 -30.999  1.00  0.00    -0.271 OA
BRANCH  22  25
HETATM   25  C   UNL     1      -6.204  -0.835 -33.630  1.00  0.00     0.069 A 
HETATM   26  C   UNL     1      -6.837  -1.950 -34.184  1.00  0.00     0.039 A 
HETATM   27  C   UNL     1      -6.091  -3.069 -34.579  1.00  0.00    -0.060 A 
HETATM   28  C   UNL     1      -6.781  -4.265 -35.167  1.00  0.00     0.048 C 
HETATM   29  C   UNL     1      -4.707  -3.074 -34.379  1.00  0.00     0.009 A 
HETATM   30  C   UNL     1      -4.066  -1.966 -33.819  1.00  0.00     0.039 A 
HETATM   31  C   UNL     1      -4.805  -0.842 -33.444  1.00  0.00     0.095 A 
BRANCH  31  32
HETATM   32  O   UNL     1      -4.277   0.300 -32.886  1.00  0.00    -0.354 OA
HETATM   33  C   UNL     1      -3.257   0.123 -31.911  1.00  0.00     0.210 C 
ENDBRANCH  31  32
ENDBRANCH  22  25
ENDBRANCH  20  21
ENDBRANCH   1  20
TORSDOF 9
ENDMDL
