MODEL 1
REMARK VINA RESULT:      -7.0      0.000      0.000
REMARK  5 active torsions:
REMARK  status: ('A' for Active; 'I' for Inactive)
REMARK    1  A    between atoms: C_2  and  O_3 
REMARK    2  A    between atoms: C_4  and  C_5 
REMARK    3  A    between atoms: C_5  and  O_6 
REMARK    4  A    between atoms: C_9  and  C_10 
REMARK    5  A    between atoms: C_22  and  O_23 
ROOT
HETATM    1  C   UNL     1      -5.101  -2.701 -34.938  1.00  0.00     0.047 C 
HETATM    2  C   UNL     1      -6.249  -1.910 -34.293  1.00  0.00     0.073 C 
HETATM    3  C   UNL     1      -5.913  -1.386 -32.851  1.00  0.00     0.133 C 
HETATM    4  C   UNL     1      -6.952  -0.391 -32.225  1.00  0.00     0.074 C 
HETATM    5  C   UNL     1      -7.911   0.158 -33.229  1.00  0.00     0.030 A 
HETATM    6  C   UNL     1      -7.781  -0.009 -34.591  1.00  0.00     0.042 A 
HETATM    7  N   UNL     1      -8.850   0.610 -35.175  1.00  0.00    -0.279 N 
HETATM    8  H   UNL     1      -9.076   0.692 -36.161  1.00  0.00     0.189 HD
HETATM    9  N   UNL     1      -9.713   1.116 -34.269  1.00  0.00    -0.149 NA
HETATM   10  C   UNL     1      -9.127   0.833 -33.112  1.00  0.00     0.190 A 
HETATM   11  C   UNL     1      -6.721  -0.793 -35.268  1.00  0.00     0.097 C 
ENDROOT
BRANCH   4  12
HETATM   12  C   UNL     1      -6.387   0.828 -31.501  1.00  0.00    -0.047 A 
HETATM   13  C   UNL     1      -6.039   2.016 -32.176  1.00  0.00     0.027 A 
HETATM   14  C   UNL     1      -5.497   3.099 -31.482  1.00  0.00     0.011 A 
HETATM   15 BR   UNL     1      -5.033   4.672 -32.421  1.00  0.00    -0.051 Br
HETATM   16  C   UNL     1      -5.293   3.026 -30.109  1.00  0.00     0.019 A 
HETATM   17  C   UNL     1      -5.630   1.859 -29.425  1.00  0.00     0.002 A 
HETATM   18  C   UNL     1      -6.170   0.769 -30.113  1.00  0.00     0.008 A 
ENDBRANCH   4  12
BRANCH   3  19
HETATM   19  C   UNL     1      -4.494  -0.859 -32.768  1.00  0.00     0.266 C 
HETATM   20  O   UNL     1      -3.983  -0.090 -33.570  1.00  0.00    -0.265 OA
BRANCH  19  21
HETATM   21  O   UNL     1      -3.877  -1.367 -31.663  1.00  0.00    -0.326 OA
HETATM   22  C   UNL     1      -3.075  -2.522 -31.911  1.00  0.00     0.213 C 
ENDBRANCH  19  21
ENDBRANCH   3  19
BRANCH   2  23
HETATM   23  O   UNL     1      -7.310  -2.890 -34.161  1.00  0.00    -0.389 OA
HETATM   24  H   UNL     1      -7.026  -3.570 -33.523  1.00  0.00     0.210 HD
ENDBRANCH   2  23
BRANCH  10  25
HETATM   25  O   UNL     1      -9.799   1.195 -32.027  1.00  0.00    -0.343 OA
HETATM   26  H   UNL     1      -9.667   0.463 -31.400  1.00  0.00     0.219 HD
ENDBRANCH  10  25
TORSDOF 5
ENDMDL
MODEL 2
REMARK VINA RESULT:      -6.6      3.565      6.050
REMARK  5 active torsions:
REMARK  status: ('A' for Active; 'I' for Inactive)
REMARK    1  A    between atoms: C_2  and  O_3 
REMARK    2  A    between atoms: C_4  and  C_5 
REMARK    3  A    between atoms: C_5  and  O_6 
REMARK    4  A    between atoms: C_9  and  C_10 
REMARK    5  A    between atoms: C_22  and  O_23 
ROOT
HETATM    1  C   UNL     1      -3.701   5.785 -32.571  1.00  0.00     0.047 C 
HETATM    2  C   UNL     1      -4.232   4.463 -31.994  1.00  0.00     0.073 C 
HETATM    3  C   UNL     1      -5.714   4.151 -32.408  1.00  0.00     0.133 C 
HETATM    4  C   UNL     1      -6.242   2.721 -32.037  1.00  0.00     0.074 C 
HETATM    5  C   UNL     1      -5.149   1.777 -31.657  1.00  0.00     0.030 A 
HETATM    6  C   UNL     1      -3.808   2.047 -31.817  1.00  0.00     0.042 A 
HETATM    7  N   UNL     1      -3.122   0.966 -31.342  1.00  0.00    -0.279 N 
HETATM    8  H   UNL     1      -2.118   0.814 -31.306  1.00  0.00     0.189 HD
HETATM    9  N   UNL     1      -3.937   0.027 -30.814  1.00  0.00    -0.149 NA
HETATM   10  C   UNL     1      -5.145   0.538 -31.017  1.00  0.00     0.190 A 
HETATM   11  C   UNL     1      -3.236   3.315 -32.329  1.00  0.00     0.097 C 
ENDROOT
BRANCH   4  12
HETATM   12  C   UNL     1      -7.054   1.990 -33.102  1.00  0.00    -0.047 A 
HETATM   13  C   UNL     1      -8.461   2.061 -33.162  1.00  0.00     0.027 A 
HETATM   14  C   UNL     1      -9.170   1.355 -34.135  1.00  0.00     0.011 A 
HETATM   15 BR   UNL     1     -11.057   1.464 -34.179  1.00  0.00    -0.051 Br
HETATM   16  C   UNL     1      -8.501   0.569 -35.066  1.00  0.00     0.019 A 
HETATM   17  C   UNL     1      -7.109   0.487 -35.021  1.00  0.00     0.002 A 
HETATM   18  C   UNL     1      -6.392   1.189 -34.048  1.00  0.00     0.008 A 
ENDBRANCH   4  12
BRANCH   3  19
HETATM   19  C   UNL     1      -5.969   4.496 -33.862  1.00  0.00     0.266 C 
HETATM   20  O   UNL     1      -5.227   4.210 -34.791  1.00  0.00    -0.265 OA
BRANCH  19  21
HETATM   21  O   UNL     1      -7.151   5.166 -33.978  1.00  0.00    -0.326 OA
HETATM   22  C   UNL     1      -7.476   5.991 -32.859  1.00  0.00     0.213 C 
ENDBRANCH  19  21
ENDBRANCH   3  19
BRANCH   2  23
HETATM   23  O   UNL     1      -4.220   4.685 -30.561  1.00  0.00    -0.389 OA
HETATM   24  H   UNL     1      -4.626   3.913 -30.125  1.00  0.00     0.210 HD
ENDBRANCH   2  23
BRANCH  10  25
HETATM   25  O   UNL     1      -6.156  -0.183 -30.548  1.00  0.00    -0.343 OA
HETATM   26  H   UNL     1      -6.154  -0.991 -31.089  1.00  0.00     0.219 HD
ENDBRANCH  10  25
TORSDOF 5
ENDMDL
MODEL 3
REMARK VINA RESULT:      -6.5     14.155     15.628
REMARK  5 active torsions:
REMARK  status: ('A' for Active; 'I' for Inactive)
REMARK    1  A    between atoms: C_2  and  O_3 
REMARK    2  A    between atoms: C_4  and  C_5 
REMARK    3  A    between atoms: C_5  and  O_6 
REMARK    4  A    between atoms: C_9  and  C_10 
REMARK    5  A    between atoms: C_22  and  O_23 
ROOT
HETATM    1  C   UNL     1      -1.649 -13.874 -39.450  1.00  0.00     0.047 C 
HETATM    2  C   UNL     1      -2.639 -13.507 -38.334  1.00  0.00     0.073 C 
HETATM    3  C   UNL     1      -4.035 -13.028 -38.869  1.00  0.00     0.133 C 
HETATM    4  C   UNL     1      -5.158 -12.849 -37.787  1.00  0.00     0.074 C 
HETATM    5  C   UNL     1      -4.815 -13.485 -36.481  1.00  0.00     0.030 A 
HETATM    6  C   UNL     1      -3.739 -14.323 -36.290  1.00  0.00     0.042 A 
HETATM    7  N   UNL     1      -3.740 -14.686 -34.974  1.00  0.00    -0.279 N 
HETATM    8  H   UNL     1      -3.097 -15.299 -34.481  1.00  0.00     0.189 HD
HETATM    9  N   UNL     1      -4.718 -14.077 -34.270  1.00  0.00    -0.149 NA
HETATM   10  C   UNL     1      -5.348 -13.364 -35.197  1.00  0.00     0.190 A 
HETATM   11  C   UNL     1      -2.730 -14.682 -37.315  1.00  0.00     0.097 C 
ENDROOT
BRANCH   4  12
HETATM   12  C   UNL     1      -6.544 -13.378 -38.142  1.00  0.00    -0.047 A 
HETATM   13  C   UNL     1      -7.485 -12.612 -38.861  1.00  0.00     0.027 A 
HETATM   14  C   UNL     1      -8.754 -13.121 -39.141  1.00  0.00     0.011 A 
HETATM   15 BR   UNL     1      -9.994 -12.063 -40.099  1.00  0.00    -0.051 Br
HETATM   16  C   UNL     1      -9.114 -14.395 -38.717  1.00  0.00     0.019 A 
HETATM   17  C   UNL     1      -8.197 -15.166 -38.003  1.00  0.00     0.002 A 
HETATM   18  C   UNL     1      -6.924 -14.662 -37.717  1.00  0.00     0.008 A 
ENDBRANCH   4  12
BRANCH   3  19
HETATM   19  C   UNL     1      -4.499 -13.869 -40.041  1.00  0.00     0.266 C 
HETATM   20  O   UNL     1      -4.591 -15.089 -40.036  1.00  0.00    -0.265 OA
BRANCH  19  21
HETATM   21  O   UNL     1      -4.804 -13.062 -41.097  1.00  0.00    -0.326 OA
HETATM   22  C   UNL     1      -5.626 -13.673 -42.091  1.00  0.00     0.213 C 
ENDBRANCH  19  21
ENDBRANCH   3  19
BRANCH   2  23
HETATM   23  O   UNL     1      -2.014 -12.374 -37.679  1.00  0.00    -0.389 OA
HETATM   24  H   UNL     1      -1.935 -11.648 -38.325  1.00  0.00     0.210 HD
ENDBRANCH   2  23
BRANCH  10  25
HETATM   25  O   UNL     1      -6.355 -12.620 -34.758  1.00  0.00    -0.343 OA
HETATM   26  H   UNL     1      -7.115 -13.226 -34.730  1.00  0.00     0.219 HD
ENDBRANCH  10  25
TORSDOF 5
ENDMDL
MODEL 4
REMARK VINA RESULT:      -6.5     14.443     15.753
REMARK  5 active torsions:
REMARK  status: ('A' for Active; 'I' for Inactive)
REMARK    1  A    between atoms: C_2  and  O_3 
REMARK    2  A    between atoms: C_4  and  C_5 
REMARK    3  A    between atoms: C_5  and  O_6 
REMARK    4  A    between atoms: C_9  and  C_10 
REMARK    5  A    between atoms: C_22  and  O_23 
ROOT
HETATM    1  C   UNL     1      -8.395 -12.803 -40.596  1.00  0.00     0.047 C 
HETATM    2  C   UNL     1      -7.585 -13.469 -39.473  1.00  0.00     0.073 C 
HETATM    3  C   UNL     1      -6.129 -13.870 -39.906  1.00  0.00     0.133 C 
HETATM    4  C   UNL     1      -5.180 -14.351 -38.753  1.00  0.00     0.074 C 
HETATM    5  C   UNL     1      -5.705 -14.028 -37.393  1.00  0.00     0.030 A 
HETATM    6  C   UNL     1      -6.790 -13.212 -37.160  1.00  0.00     0.042 A 
HETATM    7  N   UNL     1      -6.979 -13.172 -35.808  1.00  0.00    -0.279 N 
HETATM    8  H   UNL     1      -7.681 -12.665 -35.277  1.00  0.00     0.189 HD
HETATM    9  N   UNL     1      -6.121 -13.974 -35.142  1.00  0.00    -0.149 NA
HETATM   10  C   UNL     1      -5.369 -14.474 -36.115  1.00  0.00     0.190 A 
HETATM   11  C   UNL     1      -7.633 -12.575 -38.199  1.00  0.00     0.097 C 
ENDROOT
BRANCH   4  12
HETATM   12  C   UNL     1      -3.751 -13.816 -38.771  1.00  0.00    -0.047 A 
HETATM   13  C   UNL     1      -2.684 -14.527 -39.359  1.00  0.00     0.027 A 
HETATM   14  C   UNL     1      -1.386 -14.017 -39.329  1.00  0.00     0.011 A 
HETATM   15 BR   UNL     1       0.022 -15.001 -40.119  1.00  0.00    -0.051 Br
HETATM   16  C   UNL     1      -1.120 -12.796 -38.721  1.00  0.00     0.019 A 
HETATM   17  C   UNL     1      -2.162 -12.080 -38.134  1.00  0.00     0.002 A 
HETATM   18  C   UNL     1      -3.466 -12.585 -38.156  1.00  0.00     0.008 A 
ENDBRANCH   4  12
BRANCH   3  19
HETATM   19  C   UNL     1      -5.490 -12.796 -40.763  1.00  0.00     0.266 C 
HETATM   20  O   UNL     1      -5.547 -11.595 -40.542  1.00  0.00    -0.265 OA
BRANCH  19  21
HETATM   21  O   UNL     1      -4.837 -13.372 -41.814  1.00  0.00    -0.326 OA
HETATM   22  C   UNL     1      -5.546 -14.444 -42.436  1.00  0.00     0.213 C 
ENDBRANCH  19  21
ENDBRANCH   3  19
BRANCH   2  23
HETATM   23  O   UNL     1      -8.310 -14.696 -39.206  1.00  0.00    -0.389 OA
HETATM   24  H   UNL     1      -7.786 -15.238 -38.589  1.00  0.00     0.210 HD
ENDBRANCH   2  23
BRANCH  10  25
HETATM   25  O   UNL     1      -4.445 -15.346 -35.732  1.00  0.00    -0.343 OA
HETATM   26  H   UNL     1      -3.702 -15.202 -36.344  1.00  0.00     0.219 HD
ENDBRANCH  10  25
TORSDOF 5
ENDMDL
MODEL 5
REMARK VINA RESULT:      -6.3      2.655      3.965
REMARK  5 active torsions:
REMARK  status: ('A' for Active; 'I' for Inactive)
REMARK    1  A    between atoms: C_2  and  O_3 
REMARK    2  A    between atoms: C_4  and  C_5 
REMARK    3  A    between atoms: C_5  and  O_6 
REMARK    4  A    between atoms: C_9  and  C_10 
REMARK    5  A    between atoms: C_22  and  O_23 
ROOT
HETATM    1  C   UNL     1      -9.590  -0.079 -33.132  1.00  0.00     0.047 C 
HETATM    2  C   UNL     1      -9.004   0.863 -32.069  1.00  0.00     0.073 C 
HETATM    3  C   UNL     1      -7.446   0.743 -31.919  1.00  0.00     0.133 C 
HETATM    4  C   UNL     1      -6.760   1.825 -31.012  1.00  0.00     0.074 C 
HETATM    5  C   UNL     1      -7.651   2.986 -30.715  1.00  0.00     0.030 A 
HETATM    6  C   UNL     1      -8.862   3.206 -31.334  1.00  0.00     0.042 A 
HETATM    7  N   UNL     1      -9.389   4.343 -30.792  1.00  0.00    -0.279 N 
HETATM    8  H   UNL     1     -10.266   4.806 -31.011  1.00  0.00     0.189 HD
HETATM    9  N   UNL     1      -8.624   4.846 -29.799  1.00  0.00    -0.149 NA
HETATM   10  C   UNL     1      -7.589   4.016 -29.775  1.00  0.00     0.190 A 
HETATM   11  C   UNL     1      -9.496   2.316 -32.335  1.00  0.00     0.097 C 
ENDROOT
BRANCH   4  12
HETATM   12  C   UNL     1      -5.462   2.435 -31.531  1.00  0.00    -0.047 A 
HETATM   13  C   UNL     1      -5.439   3.415 -32.545  1.00  0.00     0.027 A 
HETATM   14  C   UNL     1      -4.229   3.928 -33.014  1.00  0.00     0.011 A 
HETATM   15 BR   UNL     1      -4.235   5.234 -34.381  1.00  0.00    -0.051 Br
HETATM   16  C   UNL     1      -3.022   3.483 -32.487  1.00  0.00     0.019 A 
HETATM   17  C   UNL     1      -3.025   2.513 -31.485  1.00  0.00     0.002 A 
HETATM   18  C   UNL     1      -4.233   1.992 -31.012  1.00  0.00     0.008 A 
ENDBRANCH   4  12
BRANCH   3  19
HETATM   19  C   UNL     1      -6.766   0.613 -33.267  1.00  0.00     0.266 C 
HETATM   20  O   UNL     1      -6.979   1.334 -34.232  1.00  0.00    -0.265 OA
BRANCH  19  21
HETATM   21  O   UNL     1      -5.879  -0.422 -33.239  1.00  0.00    -0.326 OA
HETATM   22  C   UNL     1      -6.212  -1.510 -34.102  1.00  0.00     0.213 C 
ENDBRANCH  19  21
ENDBRANCH   3  19
BRANCH   2  23
HETATM   23  O   UNL     1      -9.596   0.394 -30.831  1.00  0.00    -0.389 OA
HETATM   24  H   UNL     1     -10.543   0.221 -30.985  1.00  0.00     0.210 HD
ENDBRANCH   2  23
BRANCH  10  25
HETATM   25  O   UNL     1      -6.679   4.263 -28.842  1.00  0.00    -0.343 OA
HETATM   26  H   UNL     1      -6.000   4.793 -29.294  1.00  0.00     0.219 HD
ENDBRANCH  10  25
TORSDOF 5
ENDMDL
MODEL 6
REMARK VINA RESULT:      -6.3     14.723     16.900
REMARK  5 active torsions:
REMARK  status: ('A' for Active; 'I' for Inactive)
REMARK    1  A    between atoms: C_2  and  O_3 
REMARK    2  A    between atoms: C_4  and  C_5 
REMARK    3  A    between atoms: C_5  and  O_6 
REMARK    4  A    between atoms: C_9  and  C_10 
REMARK    5  A    between atoms: C_22  and  O_23 
ROOT
HETATM    1  C   UNL     1      -1.888 -13.147 -37.956  1.00  0.00     0.047 C 
HETATM    2  C   UNL     1      -3.242 -12.787 -38.587  1.00  0.00     0.073 C 
HETATM    3  C   UNL     1      -3.407 -13.315 -40.057  1.00  0.00     0.133 C 
HETATM    4  C   UNL     1      -4.840 -13.172 -40.679  1.00  0.00     0.074 C 
HETATM    5  C   UNL     1      -5.890 -12.873 -39.660  1.00  0.00     0.030 A 
HETATM    6  C   UNL     1      -5.681 -12.925 -38.300  1.00  0.00     0.042 A 
HETATM    7  N   UNL     1      -6.855 -12.570 -37.699  1.00  0.00    -0.279 N 
HETATM    8  H   UNL     1      -7.070 -12.505 -36.709  1.00  0.00     0.189 HD
HETATM    9  N   UNL     1      -7.807 -12.220 -38.591  1.00  0.00    -0.149 NA
HETATM   10  C   UNL     1      -7.203 -12.411 -39.757  1.00  0.00     0.190 A 
HETATM   11  C   UNL     1      -4.392 -13.227 -37.634  1.00  0.00     0.097 C 
ENDROOT
BRANCH   4  12
HETATM   12  C   UNL     1      -5.370 -14.368 -41.464  1.00  0.00    -0.047 A 
HETATM   13  C   UNL     1      -6.147 -15.382 -40.866  1.00  0.00     0.027 A 
HETATM   14  C   UNL     1      -6.589 -16.475 -41.612  1.00  0.00     0.011 A 
HETATM   15 BR   UNL     1      -7.621 -17.821 -40.776  1.00  0.00    -0.051 Br
HETATM   16  C   UNL     1      -6.274 -16.584 -42.962  1.00  0.00     0.019 A 
HETATM   17  C   UNL     1      -5.505 -15.592 -43.569  1.00  0.00     0.002 A 
HETATM   18  C   UNL     1      -5.056 -14.495 -42.828  1.00  0.00     0.008 A 
ENDBRANCH   4  12
BRANCH   3  19
HETATM   19  C   UNL     1      -2.854 -14.717 -40.208  1.00  0.00     0.266 C 
HETATM   20  O   UNL     1      -3.165 -15.674 -39.512  1.00  0.00    -0.265 OA
BRANCH  19  21
HETATM   21  O   UNL     1      -1.962 -14.753 -41.240  1.00  0.00    -0.326 OA
HETATM   22  C   UNL     1      -1.673 -16.064 -41.726  1.00  0.00     0.213 C 
ENDBRANCH  19  21
ENDBRANCH   3  19
BRANCH   2  23
HETATM   23  O   UNL     1      -3.218 -11.338 -38.647  1.00  0.00    -0.389 OA
HETATM   24  H   UNL     1      -3.178 -10.991 -37.737  1.00  0.00     0.210 HD
ENDBRANCH   2  23
BRANCH  10  25
HETATM   25  O   UNL     1      -7.919 -12.098 -40.830  1.00  0.00    -0.343 OA
HETATM   26  H   UNL     1      -7.365 -12.365 -41.582  1.00  0.00     0.219 HD
ENDBRANCH  10  25
TORSDOF 5
ENDMDL
MODEL 7
REMARK VINA RESULT:      -6.3     14.650     16.658
REMARK  5 active torsions:
REMARK  status: ('A' for Active; 'I' for Inactive)
REMARK    1  A    between atoms: C_2  and  O_3 
REMARK    2  A    between atoms: C_4  and  C_5 
REMARK    3  A    between atoms: C_5  and  O_6 
REMARK    4  A    between atoms: C_9  and  C_10 
REMARK    5  A    between atoms: C_22  and  O_23 
ROOT
HETATM    1  C   UNL     1      -1.273 -15.756 -41.342  1.00  0.00     0.047 C 
HETATM    2  C   UNL     1      -1.855 -14.880 -40.222  1.00  0.00     0.073 C 
HETATM    3  C   UNL     1      -3.025 -13.949 -40.701  1.00  0.00     0.133 C 
HETATM    4  C   UNL     1      -3.806 -13.193 -39.570  1.00  0.00     0.074 C 
HETATM    5  C   UNL     1      -3.533 -13.740 -38.208  1.00  0.00     0.030 A 
HETATM    6  C   UNL     1      -2.847 -14.911 -37.971  1.00  0.00     0.042 A 
HETATM    7  N   UNL     1      -2.780 -15.070 -36.616  1.00  0.00    -0.279 N 
HETATM    8  H   UNL     1      -2.353 -15.823 -36.084  1.00  0.00     0.189 HD
HETATM    9  N   UNL     1      -3.324 -14.032 -35.946  1.00  0.00    -0.149 NA
HETATM   10  C   UNL     1      -3.768 -13.251 -36.923  1.00  0.00     0.190 A 
HETATM   11  C   UNL     1      -2.230 -15.776 -39.005  1.00  0.00     0.097 C 
ENDROOT
BRANCH   4  12
HETATM   12  C   UNL     1      -5.327 -13.155 -39.692  1.00  0.00    -0.047 A 
HETATM   13  C   UNL     1      -6.159 -14.112 -39.076  1.00  0.00     0.027 A 
HETATM   14  C   UNL     1      -7.545 -14.061 -39.235  1.00  0.00     0.011 A 
HETATM   15 BR   UNL     1      -8.630 -15.367 -38.404  1.00  0.00    -0.051 Br
HETATM   16  C   UNL     1      -8.131 -13.060 -40.002  1.00  0.00     0.019 A 
HETATM   17  C   UNL     1      -7.323 -12.106 -40.619  1.00  0.00     0.002 A 
HETATM   18  C   UNL     1      -5.934 -12.152 -40.467  1.00  0.00     0.008 A 
ENDBRANCH   4  12
BRANCH   3  19
HETATM   19  C   UNL     1      -3.956 -14.672 -41.654  1.00  0.00     0.266 C 
HETATM   20  O   UNL     1      -4.507 -15.739 -41.422  1.00  0.00    -0.265 OA
BRANCH  19  21
HETATM   21  O   UNL     1      -4.091 -13.952 -42.804  1.00  0.00    -0.326 OA
HETATM   22  C   UNL     1      -4.423 -14.730 -43.954  1.00  0.00     0.213 C 
ENDBRANCH  19  21
ENDBRANCH   3  19
BRANCH   2  23
HETATM   23  O   UNL     1      -0.747 -14.024 -39.844  1.00  0.00    -0.389 OA
HETATM   24  H   UNL     1      -1.052 -13.098 -39.858  1.00  0.00     0.210 HD
ENDBRANCH   2  23
BRANCH  10  25
HETATM   25  O   UNL     1      -4.329 -12.113 -36.534  1.00  0.00    -0.343 OA
HETATM   26  H   UNL     1      -5.244 -12.353 -36.309  1.00  0.00     0.219 HD
ENDBRANCH  10  25
TORSDOF 5
ENDMDL
MODEL 8
REMARK VINA RESULT:      -6.2      3.249      4.605
REMARK  5 active torsions:
REMARK  status: ('A' for Active; 'I' for Inactive)
REMARK    1  A    between atoms: C_2  and  O_3 
REMARK    2  A    between atoms: C_4  and  C_5 
REMARK    3  A    between atoms: C_5  and  O_6 
REMARK    4  A    between atoms: C_9  and  C_10 
REMARK    5  A    between atoms: C_22  and  O_23 
ROOT
HETATM    1  C   UNL     1      -3.754  -1.671 -31.988  1.00  0.00     0.047 C 
HETATM    2  C   UNL     1      -3.863  -0.188 -32.376  1.00  0.00     0.073 C 
HETATM    3  C   UNL     1      -5.264   0.201 -32.968  1.00  0.00     0.133 C 
HETATM    4  C   UNL     1      -5.515   1.735 -33.180  1.00  0.00     0.074 C 
HETATM    5  C   UNL     1      -4.519   2.592 -32.471  1.00  0.00     0.030 A 
HETATM    6  C   UNL     1      -3.606   2.116 -31.556  1.00  0.00     0.042 A 
HETATM    7  N   UNL     1      -2.859   3.182 -31.142  1.00  0.00    -0.279 N 
HETATM    8  H   UNL     1      -2.099   3.205 -30.469  1.00  0.00     0.189 HD
HETATM    9  N   UNL     1      -3.184   4.323 -31.788  1.00  0.00    -0.149 NA
HETATM   10  C   UNL     1      -4.181   3.942 -32.577  1.00  0.00     0.190 A 
HETATM   11  C   UNL     1      -3.427   0.696 -31.171  1.00  0.00     0.097 C 
ENDROOT
BRANCH   4  12
HETATM   12  C   UNL     1      -6.880   2.273 -32.760  1.00  0.00    -0.047 A 
HETATM   13  C   UNL     1      -7.953   2.406 -33.666  1.00  0.00     0.027 A 
HETATM   14  C   UNL     1      -9.178   2.929 -33.250  1.00  0.00     0.011 A 
HETATM   15 BR   UNL     1     -10.590   3.103 -34.494  1.00  0.00    -0.051 Br
HETATM   16  C   UNL     1      -9.364   3.326 -31.930  1.00  0.00     0.019 A 
HETATM   17  C   UNL     1      -8.314   3.203 -31.021  1.00  0.00     0.002 A 
HETATM   18  C   UNL     1      -7.083   2.682 -31.431  1.00  0.00     0.008 A 
ENDBRANCH   4  12
BRANCH   3  19
HETATM   19  C   UNL     1      -6.393  -0.464 -32.208  1.00  0.00     0.266 C 
HETATM   20  O   UNL     1      -6.492  -0.500 -30.989  1.00  0.00    -0.265 OA
BRANCH  19  21
HETATM   21  O   UNL     1      -7.283  -1.010 -33.085  1.00  0.00    -0.326 OA
HETATM   22  C   UNL     1      -6.688  -1.604 -34.239  1.00  0.00     0.213 C 
ENDBRANCH  19  21
ENDBRANCH   3  19
BRANCH   2  23
HETATM   23  O   UNL     1      -2.887  -0.039 -33.438  1.00  0.00    -0.389 OA
HETATM   24  H   UNL     1      -2.778  -0.899 -33.883  1.00  0.00     0.210 HD
ENDBRANCH   2  23
BRANCH  10  25
HETATM   25  O   UNL     1      -4.675   4.884 -33.370  1.00  0.00    -0.343 OA
HETATM   26  H   UNL     1      -5.590   4.605 -33.543  1.00  0.00     0.219 HD
ENDBRANCH  10  25
TORSDOF 5
ENDMDL
MODEL 9
REMARK VINA RESULT:      -6.2     14.605     15.643
REMARK  5 active torsions:
REMARK  status: ('A' for Active; 'I' for Inactive)
REMARK    1  A    between atoms: C_2  and  O_3 
REMARK    2  A    between atoms: C_4  and  C_5 
REMARK    3  A    between atoms: C_5  and  O_6 
REMARK    4  A    between atoms: C_9  and  C_10 
REMARK    5  A    between atoms: C_22  and  O_23 
ROOT
HETATM    1  C   UNL     1      -6.604 -15.074 -35.167  1.00  0.00     0.047 C 
HETATM    2  C   UNL     1      -6.393 -14.103 -36.339  1.00  0.00     0.073 C 
HETATM    3  C   UNL     1      -4.898 -13.658 -36.520  1.00  0.00     0.133 C 
HETATM    4  C   UNL     1      -4.579 -12.845 -37.823  1.00  0.00     0.074 C 
HETATM    5  C   UNL     1      -5.671 -12.918 -38.838  1.00  0.00     0.030 A 
HETATM    6  C   UNL     1      -6.748 -13.772 -38.750  1.00  0.00     0.042 A 
HETATM    7  N   UNL     1      -7.536 -13.538 -39.841  1.00  0.00    -0.279 N 
HETATM    8  H   UNL     1      -8.408 -13.988 -40.105  1.00  0.00     0.189 HD
HETATM    9  N   UNL     1      -7.072 -12.528 -40.607  1.00  0.00    -0.149 NA
HETATM   10  C   UNL     1      -5.954 -12.176 -39.985  1.00  0.00     0.190 A 
HETATM   11  C   UNL     1      -7.027 -14.701 -37.629  1.00  0.00     0.097 C 
ENDROOT
BRANCH   4  12
HETATM   12  C   UNL     1      -3.305 -13.222 -38.573  1.00  0.00    -0.047 A 
HETATM   13  C   UNL     1      -3.304 -14.123 -39.658  1.00  0.00     0.027 A 
HETATM   14  C   UNL     1      -2.114 -14.465 -40.301  1.00  0.00     0.011 A 
HETATM   15 BR   UNL     1      -2.149 -15.684 -41.745  1.00  0.00    -0.051 Br
HETATM   16  C   UNL     1      -0.904 -13.920 -39.884  1.00  0.00     0.019 A 
HETATM   17  C   UNL     1      -0.886 -13.028 -38.813  1.00  0.00     0.002 A 
HETATM   18  C   UNL     1      -2.074 -12.683 -38.162  1.00  0.00     0.008 A 
ENDBRANCH   4  12
BRANCH   3  19
HETATM   19  C   UNL     1      -3.945 -14.820 -36.322  1.00  0.00     0.266 C 
HETATM   20  O   UNL     1      -3.993 -15.878 -36.934  1.00  0.00    -0.265 OA
BRANCH  19  21
HETATM   21  O   UNL     1      -3.025 -14.505 -35.367  1.00  0.00    -0.326 OA
HETATM   22  C   UNL     1      -1.791 -15.215 -35.477  1.00  0.00     0.213 C 
ENDBRANCH  19  21
ENDBRANCH   3  19
BRANCH   2  23
HETATM   23  O   UNL     1      -7.150 -12.928 -35.952  1.00  0.00    -0.389 OA
HETATM   24  H   UNL     1      -8.100 -13.128 -36.041  1.00  0.00     0.210 HD
ENDBRANCH   2  23
BRANCH  10  25
HETATM   25  O   UNL     1      -5.301 -11.151 -40.519  1.00  0.00    -0.343 OA
HETATM   26  H   UNL     1      -5.054 -11.455 -41.409  1.00  0.00     0.219 HD
ENDBRANCH  10  25
TORSDOF 5
ENDMDL
MODEL 10
REMARK VINA RESULT:      -6.1      2.825      4.471
REMARK  5 active torsions:
REMARK  status: ('A' for Active; 'I' for Inactive)
REMARK    1  A    between atoms: C_2  and  O_3 
REMARK    2  A    between atoms: C_4  and  C_5 
REMARK    3  A    between atoms: C_5  and  O_6 
REMARK    4  A    between atoms: C_9  and  C_10 
REMARK    5  A    between atoms: C_22  and  O_23 
ROOT
HETATM    1  C   UNL     1      -7.202  -1.743 -33.924  1.00  0.00     0.047 C 
HETATM    2  C   UNL     1      -6.126  -0.738 -33.484  1.00  0.00     0.073 C 
HETATM    3  C   UNL     1      -6.621   0.752 -33.497  1.00  0.00     0.133 C 
HETATM    4  C   UNL     1      -5.648   1.802 -32.854  1.00  0.00     0.074 C 
HETATM    5  C   UNL     1      -4.571   1.173 -32.035  1.00  0.00     0.030 A 
HETATM    6  C   UNL     1      -4.543  -0.161 -31.692  1.00  0.00     0.042 A 
HETATM    7  N   UNL     1      -3.405  -0.365 -30.965  1.00  0.00    -0.279 N 
HETATM    8  H   UNL     1      -3.063  -1.224 -30.544  1.00  0.00     0.189 HD
HETATM    9  N   UNL     1      -2.646   0.748 -30.868  1.00  0.00    -0.149 NA
HETATM   10  C   UNL     1      -3.368   1.653 -31.516  1.00  0.00     0.190 A 
HETATM   11  C   UNL     1      -5.527  -1.184 -32.118  1.00  0.00     0.097 C 
ENDROOT
BRANCH   4  12
HETATM   12  C   UNL     1      -6.277   2.858 -31.950  1.00  0.00    -0.047 A 
HETATM   13  C   UNL     1      -6.735   4.099 -32.440  1.00  0.00     0.027 A 
HETATM   14  C   UNL     1      -7.279   5.050 -31.577  1.00  0.00     0.011 A 
HETATM   15 BR   UNL     1      -7.873   6.707 -32.267  1.00  0.00    -0.051 Br
HETATM   16  C   UNL     1      -7.382   4.791 -30.215  1.00  0.00     0.019 A 
HETATM   17  C   UNL     1      -6.933   3.570 -29.712  1.00  0.00     0.002 A 
HETATM   18  C   UNL     1      -6.385   2.612 -30.571  1.00  0.00     0.008 A 
ENDBRANCH   4  12
BRANCH   3  19
HETATM   19  C   UNL     1      -8.032   0.874 -32.958  1.00  0.00     0.266 C 
HETATM   20  O   UNL     1      -8.406   0.456 -31.871  1.00  0.00    -0.265 OA
BRANCH  19  21
HETATM   21  O   UNL     1      -8.818   1.523 -33.864  1.00  0.00    -0.326 OA
HETATM   22  C   UNL     1     -10.186   1.115 -33.860  1.00  0.00     0.213 C 
ENDBRANCH  19  21
ENDBRANCH   3  19
BRANCH   2  23
HETATM   23  O   UNL     1      -5.102  -0.864 -34.502  1.00  0.00    -0.389 OA
HETATM   24  H   UNL     1      -4.241  -0.635 -34.106  1.00  0.00     0.210 HD
ENDBRANCH   2  23
BRANCH  10  25
HETATM   25  O   UNL     1      -2.822   2.860 -31.608  1.00  0.00    -0.343 OA
HETATM   26  H   UNL     1      -2.740   3.020 -32.564  1.00  0.00     0.219 HD
ENDBRANCH  10  25
TORSDOF 5
ENDMDL
