MODEL 1
REMARK VINA RESULT:      -8.9      0.000      0.000
REMARK  6 active torsions:
REMARK  status: ('A' for Active; 'I' for Inactive)
REMARK       I    between atoms: C_2  and  N_3 
REMARK    1  A    between atoms: N_3  and  C_4 
REMARK    2  A    between atoms: C_4  and  C_5 
REMARK    3  A    between atoms: C_4  and  C_11 
REMARK    4  A    between atoms: C_11  and  C_12 
REMARK       I    between atoms: C_12  and  N_13 
REMARK    5  A    between atoms: N_13  and  C_14 
REMARK    6  A    between atoms: C_16  and  C_17 
ROOT
HETATM    1  C   UNL     1      -8.357   0.157 -34.168  1.00  0.00     0.224 C 
HETATM    2  N   UNL     1      -8.923   1.353 -34.585  1.00  0.00    -0.327 N 
HETATM    3  O   UNL     1      -8.716  -0.515 -33.207  1.00  0.00    -0.273 OA
HETATM    4  H   UNL     1      -8.480   1.818 -35.369  1.00  0.00     0.169 HD
ENDROOT
BRANCH   1   5
HETATM    5  C   UNL     1      -7.176  -0.239 -35.040  1.00  0.00     0.133 C 
BRANCH   5   6
HETATM    6  C   UNL     1      -5.979  -0.704 -34.197  1.00  0.00     0.126 C 
BRANCH   6   7
HETATM    7  N   UNL     1      -5.956  -0.272 -32.803  1.00  0.00    -0.352 N 
HETATM    8  C   UNL     1      -4.919   0.355 -32.159  1.00  0.00     0.214 C 
HETATM    9  C   UNL     1      -5.207   0.654 -30.711  1.00  0.00     0.117 C 
HETATM   10  O   UNL     1      -3.860   0.678 -32.686  1.00  0.00    -0.274 OA
HETATM   11  H   UNL     1      -6.776  -0.503 -32.260  1.00  0.00     0.163 HD
ENDBRANCH   6   7
BRANCH   6  12
HETATM   12  C   UNL     1      -5.745  -2.203 -34.332  1.00  0.00    -0.035 A 
HETATM   13  C   UNL     1      -6.754  -3.081 -34.754  1.00  0.00     0.009 A 
HETATM   14  C   UNL     1      -6.501  -4.448 -34.887  1.00  0.00     0.001 A 
HETATM   15  C   UNL     1      -5.233  -4.956 -34.613  1.00  0.00     0.000 A 
HETATM   16  C   UNL     1      -4.216  -4.097 -34.204  1.00  0.00     0.001 A 
HETATM   17  C   UNL     1      -4.469  -2.731 -34.064  1.00  0.00     0.009 A 
ENDBRANCH   6  12
ENDBRANCH   5   6
ENDBRANCH   1   5
BRANCH   2  18
HETATM   18  C   UNL     1      -9.994   2.048 -33.983  1.00  0.00     0.035 A 
HETATM   19  C   UNL     1     -11.328   1.637 -34.053  1.00  0.00     0.042 A 
HETATM   20  C   UNL     1     -12.348   2.369 -33.421  1.00  0.00    -0.021 A 
HETATM   21  C   UNL     1     -12.010   3.518 -32.698  1.00  0.00     0.012 A 
HETATM   22  C   UNL     1     -10.683   3.942 -32.628  1.00  0.00     0.003 A 
HETATM   23  C   UNL     1      -9.683   3.215 -33.275  1.00  0.00     0.029 A 
BRANCH  20  24
HETATM   24  C   UNL     1     -13.736   1.947 -33.511  1.00  0.00     0.010 A 
HETATM   25  C   UNL     1     -14.847   2.221 -32.680  1.00  0.00     0.152 A 
HETATM   26  N   UNL     1     -15.976   1.658 -33.121  1.00  0.00    -0.187 NA
HETATM   27  N   UNL     1     -15.592   1.018 -34.237  1.00  0.00    -0.289 N 
HETATM   28  H   UNL     1     -16.291   0.506 -34.764  1.00  0.00     0.188 HD
HETATM   29  C   UNL     1     -14.265   1.163 -34.517  1.00  0.00     0.123 A 
ENDBRANCH  20  24
ENDBRANCH   2  18
TORSDOF 6
ENDMDL
MODEL 2
REMARK VINA RESULT:      -8.4      2.321      8.439
REMARK  6 active torsions:
REMARK  status: ('A' for Active; 'I' for Inactive)
REMARK       I    between atoms: C_2  and  N_3 
REMARK    1  A    between atoms: N_3  and  C_4 
REMARK    2  A    between atoms: C_4  and  C_5 
REMARK    3  A    between atoms: C_4  and  C_11 
REMARK    4  A    between atoms: C_11  and  C_12 
REMARK       I    between atoms: C_12  and  N_13 
REMARK    5  A    between atoms: N_13  and  C_14 
REMARK    6  A    between atoms: C_16  and  C_17 
ROOT
HETATM    1  C   UNL     1      -9.916   0.674 -33.778  1.00  0.00     0.224 C 
HETATM    2  N   UNL     1      -8.739   0.786 -34.504  1.00  0.00    -0.327 N 
HETATM    3  O   UNL     1     -10.067   0.031 -32.745  1.00  0.00    -0.273 OA
HETATM    4  H   UNL     1      -8.786   1.312 -35.369  1.00  0.00     0.169 HD
ENDROOT
BRANCH   1   5
HETATM    5  C   UNL     1     -11.056   1.434 -34.436  1.00  0.00     0.133 C 
BRANCH   5   6
HETATM    6  C   UNL     1     -11.446   2.682 -33.630  1.00  0.00     0.126 C 
BRANCH   6   7
HETATM    7  N   UNL     1     -11.159   3.974 -34.248  1.00  0.00    -0.352 N 
HETATM    8  C   UNL     1      -9.919   4.530 -34.440  1.00  0.00     0.214 C 
HETATM    9  C   UNL     1      -9.967   5.887 -35.093  1.00  0.00     0.117 C 
HETATM   10  O   UNL     1      -8.857   3.993 -34.147  1.00  0.00    -0.274 OA
HETATM   11  H   UNL     1     -11.967   4.519 -34.516  1.00  0.00     0.163 HD
ENDBRANCH   6   7
BRANCH   6  12
HETATM   12  C   UNL     1     -12.879   2.600 -33.123  1.00  0.00    -0.035 A 
HETATM   13  C   UNL     1     -13.734   1.543 -33.470  1.00  0.00     0.009 A 
HETATM   14  C   UNL     1     -15.037   1.486 -32.972  1.00  0.00     0.001 A 
HETATM   15  C   UNL     1     -15.502   2.476 -32.110  1.00  0.00     0.000 A 
HETATM   16  C   UNL     1     -14.663   3.526 -31.745  1.00  0.00     0.001 A 
HETATM   17  C   UNL     1     -13.362   3.588 -32.248  1.00  0.00     0.009 A 
ENDBRANCH   6  12
ENDBRANCH   5   6
ENDBRANCH   1   5
BRANCH   2  18
HETATM   18  C   UNL     1      -7.499   0.172 -34.225  1.00  0.00     0.035 A 
HETATM   19  C   UNL     1      -7.211  -1.167 -34.503  1.00  0.00     0.042 A 
HETATM   20  C   UNL     1      -5.950  -1.715 -34.210  1.00  0.00    -0.021 A 
HETATM   21  C   UNL     1      -4.968  -0.894 -33.646  1.00  0.00     0.012 A 
HETATM   22  C   UNL     1      -5.248   0.442 -33.356  1.00  0.00     0.003 A 
HETATM   23  C   UNL     1      -6.509   0.968 -33.636  1.00  0.00     0.029 A 
BRANCH  20  24
HETATM   24  C   UNL     1      -5.661  -3.113 -34.485  1.00  0.00     0.010 A 
HETATM   25  C   UNL     1      -6.451  -4.127 -35.075  1.00  0.00     0.152 A 
HETATM   26  N   UNL     1      -5.808  -5.294 -35.175  1.00  0.00    -0.187 NA
HETATM   27  N   UNL     1      -4.602  -5.032 -34.646  1.00  0.00    -0.289 N 
HETATM   28  H   UNL     1      -3.918  -5.781 -34.611  1.00  0.00     0.188 HD
HETATM   29  C   UNL     1      -4.461  -3.743 -34.223  1.00  0.00     0.123 A 
ENDBRANCH  20  24
ENDBRANCH   2  18
TORSDOF 6
ENDMDL
MODEL 3
REMARK VINA RESULT:      -8.4      4.810      7.961
REMARK  6 active torsions:
REMARK  status: ('A' for Active; 'I' for Inactive)
REMARK       I    between atoms: C_2  and  N_3 
REMARK    1  A    between atoms: N_3  and  C_4 
REMARK    2  A    between atoms: C_4  and  C_5 
REMARK    3  A    between atoms: C_4  and  C_11 
REMARK    4  A    between atoms: C_11  and  C_12 
REMARK       I    between atoms: C_12  and  N_13 
REMARK    5  A    between atoms: N_13  and  C_14 
REMARK    6  A    between atoms: C_16  and  C_17 
ROOT
HETATM    1  C   UNL     1      -5.289   2.023 -31.454  1.00  0.00     0.224 C 
HETATM    2  N   UNL     1      -4.852   1.425 -32.628  1.00  0.00    -0.327 N 
HETATM    3  O   UNL     1      -6.394   1.884 -30.942  1.00  0.00    -0.273 OA
HETATM    4  H   UNL     1      -3.926   1.681 -32.951  1.00  0.00     0.169 HD
ENDROOT
BRANCH   1   5
HETATM    5  C   UNL     1      -4.226   2.932 -30.857  1.00  0.00     0.133 C 
BRANCH   5   6
HETATM    6  C   UNL     1      -4.423   4.393 -31.288  1.00  0.00     0.126 C 
BRANCH   6   7
HETATM    7  N   UNL     1      -4.251   5.407 -30.251  1.00  0.00    -0.352 N 
HETATM    8  C   UNL     1      -5.188   5.799 -29.328  1.00  0.00     0.214 C 
HETATM    9  C   UNL     1      -4.700   6.885 -28.405  1.00  0.00     0.117 C 
HETATM   10  O   UNL     1      -6.310   5.317 -29.221  1.00  0.00    -0.274 OA
HETATM   11  H   UNL     1      -3.363   5.889 -30.255  1.00  0.00     0.163 HD
ENDBRANCH   6   7
BRANCH   6  12
HETATM   12  C   UNL     1      -3.627   4.722 -32.543  1.00  0.00    -0.035 A 
HETATM   13  C   UNL     1      -2.225   4.739 -32.555  1.00  0.00     0.009 A 
HETATM   14  C   UNL     1      -1.524   5.025 -33.729  1.00  0.00     0.001 A 
HETATM   15  C   UNL     1      -2.213   5.286 -34.911  1.00  0.00     0.000 A 
HETATM   16  C   UNL     1      -3.606   5.262 -34.920  1.00  0.00     0.001 A 
HETATM   17  C   UNL     1      -4.308   4.983 -33.746  1.00  0.00     0.009 A 
ENDBRANCH   6  12
ENDBRANCH   5   6
ENDBRANCH   1   5
BRANCH   2  18
HETATM   18  C   UNL     1      -5.586   0.569 -33.476  1.00  0.00     0.035 A 
HETATM   19  C   UNL     1      -5.337  -0.800 -33.608  1.00  0.00     0.042 A 
HETATM   20  C   UNL     1      -6.113  -1.600 -34.464  1.00  0.00    -0.021 A 
HETATM   21  C   UNL     1      -7.162  -1.011 -35.178  1.00  0.00     0.012 A 
HETATM   22  C   UNL     1      -7.415   0.356 -35.060  1.00  0.00     0.003 A 
HETATM   23  C   UNL     1      -6.625   1.142 -34.220  1.00  0.00     0.029 A 
BRANCH  20  24
HETATM   24  C   UNL     1      -5.839  -3.020 -34.611  1.00  0.00     0.010 A 
HETATM   25  C   UNL     1      -6.627  -4.070 -35.138  1.00  0.00     0.152 A 
HETATM   26  N   UNL     1      -6.000  -5.249 -35.118  1.00  0.00    -0.187 NA
HETATM   27  N   UNL     1      -4.806  -4.960 -34.577  1.00  0.00    -0.289 N 
HETATM   28  H   UNL     1      -4.136  -5.713 -34.457  1.00  0.00     0.188 HD
HETATM   29  C   UNL     1      -4.658  -3.642 -34.260  1.00  0.00     0.123 A 
ENDBRANCH  20  24
ENDBRANCH   2  18
TORSDOF 6
ENDMDL
MODEL 4
REMARK VINA RESULT:      -8.1      4.386      8.326
REMARK  6 active torsions:
REMARK  status: ('A' for Active; 'I' for Inactive)
REMARK       I    between atoms: C_2  and  N_3 
REMARK    1  A    between atoms: N_3  and  C_4 
REMARK    2  A    between atoms: C_4  and  C_5 
REMARK    3  A    between atoms: C_4  and  C_11 
REMARK    4  A    between atoms: C_11  and  C_12 
REMARK       I    between atoms: C_12  and  N_13 
REMARK    5  A    between atoms: N_13  and  C_14 
REMARK    6  A    between atoms: C_16  and  C_17 
ROOT
HETATM    1  C   UNL     1      -5.768   1.748 -31.581  1.00  0.00     0.224 C 
HETATM    2  N   UNL     1      -4.629   2.020 -32.326  1.00  0.00    -0.327 N 
HETATM    3  O   UNL     1      -6.515   2.580 -31.078  1.00  0.00    -0.273 OA
HETATM    4  H   UNL     1      -4.084   1.221 -32.631  1.00  0.00     0.169 HD
ENDROOT
BRANCH   1   5
HETATM    5  C   UNL     1      -5.988   0.253 -31.418  1.00  0.00     0.133 C 
BRANCH   5   6
HETATM    6  C   UNL     1      -6.983  -0.290 -32.456  1.00  0.00     0.126 C 
BRANCH   6   7
HETATM    7  N   UNL     1      -7.737   0.701 -33.217  1.00  0.00    -0.352 N 
HETATM    8  C   UNL     1      -9.103   0.806 -33.294  1.00  0.00     0.214 C 
HETATM    9  C   UNL     1      -9.567   1.930 -34.183  1.00  0.00     0.117 C 
HETATM   10  O   UNL     1      -9.896   0.090 -32.693  1.00  0.00    -0.274 OA
HETATM   11  H   UNL     1      -7.183   1.339 -33.772  1.00  0.00     0.163 HD
ENDBRANCH   6   7
BRANCH   6  12
HETATM   12  C   UNL     1      -6.340  -1.334 -33.358  1.00  0.00    -0.035 A 
HETATM   13  C   UNL     1      -4.949  -1.503 -33.431  1.00  0.00     0.009 A 
HETATM   14  C   UNL     1      -4.391  -2.483 -34.255  1.00  0.00     0.001 A 
HETATM   15  C   UNL     1      -5.214  -3.317 -35.008  1.00  0.00     0.000 A 
HETATM   16  C   UNL     1      -6.597  -3.171 -34.940  1.00  0.00     0.001 A 
HETATM   17  C   UNL     1      -7.156  -2.187 -34.122  1.00  0.00     0.009 A 
ENDBRANCH   6  12
ENDBRANCH   5   6
ENDBRANCH   1   5
BRANCH   2  18
HETATM   18  C   UNL     1      -4.087   3.287 -32.630  1.00  0.00     0.035 A 
HETATM   19  C   UNL     1      -2.929   3.802 -32.043  1.00  0.00     0.042 A 
HETATM   20  C   UNL     1      -2.435   5.069 -32.400  1.00  0.00    -0.021 A 
HETATM   21  C   UNL     1      -3.112   5.812 -33.373  1.00  0.00     0.012 A 
HETATM   22  C   UNL     1      -4.274   5.310 -33.960  1.00  0.00     0.003 A 
HETATM   23  C   UNL     1      -4.763   4.059 -33.583  1.00  0.00     0.029 A 
BRANCH  20  24
HETATM   24  C   UNL     1      -1.240   5.608 -31.773  1.00  0.00     0.010 A 
HETATM   25  C   UNL     1      -0.463   5.134 -30.690  1.00  0.00     0.152 A 
HETATM   26  N   UNL     1       0.590   5.913 -30.426  1.00  0.00    -0.187 NA
HETATM   27  N   UNL     1       0.491   6.893 -31.339  1.00  0.00    -0.289 N 
HETATM   28  H   UNL     1       1.195   7.623 -31.341  1.00  0.00     0.188 HD
HETATM   29  C   UNL     1      -0.582   6.755 -32.170  1.00  0.00     0.123 A 
ENDBRANCH  20  24
ENDBRANCH   2  18
TORSDOF 6
ENDMDL
MODEL 5
REMARK VINA RESULT:      -8.1      5.050      8.680
REMARK  6 active torsions:
REMARK  status: ('A' for Active; 'I' for Inactive)
REMARK       I    between atoms: C_2  and  N_3 
REMARK    1  A    between atoms: N_3  and  C_4 
REMARK    2  A    between atoms: C_4  and  C_5 
REMARK    3  A    between atoms: C_4  and  C_11 
REMARK    4  A    between atoms: C_11  and  C_12 
REMARK       I    between atoms: C_12  and  N_13 
REMARK    5  A    between atoms: N_13  and  C_14 
REMARK    6  A    between atoms: C_16  and  C_17 
ROOT
HETATM    1  C   UNL     1      -4.556   2.293 -31.845  1.00  0.00     0.224 C 
HETATM    2  N   UNL     1      -4.202   1.354 -32.804  1.00  0.00    -0.327 N 
HETATM    3  O   UNL     1      -5.679   2.464 -31.383  1.00  0.00    -0.273 OA
HETATM    4  H   UNL     1      -3.240   1.370 -33.123  1.00  0.00     0.169 HD
ENDROOT
BRANCH   1   5
HETATM    5  C   UNL     1      -3.368   3.146 -31.430  1.00  0.00     0.133 C 
BRANCH   5   6
HETATM    6  C   UNL     1      -3.150   4.322 -32.395  1.00  0.00     0.126 C 
BRANCH   6   7
HETATM    7  N   UNL     1      -4.316   5.149 -32.689  1.00  0.00    -0.352 N 
HETATM    8  C   UNL     1      -5.034   5.899 -31.791  1.00  0.00     0.214 C 
HETATM    9  C   UNL     1      -6.197   6.626 -32.414  1.00  0.00     0.117 C 
HETATM   10  O   UNL     1      -4.768   6.009 -30.600  1.00  0.00    -0.274 OA
HETATM   11  H   UNL     1      -4.641   5.121 -33.646  1.00  0.00     0.163 HD
ENDBRANCH   6   7
BRANCH   6  12
HETATM   12  C   UNL     1      -1.944   5.160 -31.995  1.00  0.00    -0.035 A 
HETATM   13  C   UNL     1      -1.120   4.816 -30.913  1.00  0.00     0.009 A 
HETATM   14  C   UNL     1      -0.009   5.596 -30.585  1.00  0.00     0.001 A 
HETATM   15  C   UNL     1       0.303   6.724 -31.340  1.00  0.00     0.000 A 
HETATM   16  C   UNL     1      -0.496   7.073 -32.426  1.00  0.00     0.001 A 
HETATM   17  C   UNL     1      -1.611   6.299 -32.751  1.00  0.00     0.009 A 
ENDBRANCH   6  12
ENDBRANCH   5   6
ENDBRANCH   1   5
BRANCH   2  18
HETATM   18  C   UNL     1      -5.052   0.435 -33.455  1.00  0.00     0.035 A 
HETATM   19  C   UNL     1      -4.767  -0.926 -33.597  1.00  0.00     0.042 A 
HETATM   20  C   UNL     1      -5.662  -1.792 -34.249  1.00  0.00    -0.021 A 
HETATM   21  C   UNL     1      -6.864  -1.277 -34.745  1.00  0.00     0.012 A 
HETATM   22  C   UNL     1      -7.155   0.081 -34.616  1.00  0.00     0.003 A 
HETATM   23  C   UNL     1      -6.249   0.933 -33.983  1.00  0.00     0.029 A 
BRANCH  20  24
HETATM   24  C   UNL     1      -5.353  -3.203 -34.409  1.00  0.00     0.010 A 
HETATM   25  C   UNL     1      -6.094  -4.257 -34.992  1.00  0.00     0.152 A 
HETATM   26  N   UNL     1      -5.445  -5.425 -34.964  1.00  0.00    -0.187 NA
HETATM   27  N   UNL     1      -4.285  -5.124 -34.360  1.00  0.00    -0.289 N 
HETATM   28  H   UNL     1      -3.606  -5.866 -34.222  1.00  0.00     0.188 HD
HETATM   29  C   UNL     1      -4.178  -3.809 -34.012  1.00  0.00     0.123 A 
ENDBRANCH  20  24
ENDBRANCH   2  18
TORSDOF 6
ENDMDL
MODEL 6
REMARK VINA RESULT:      -8.0      2.415      3.379
REMARK  6 active torsions:
REMARK  status: ('A' for Active; 'I' for Inactive)
REMARK       I    between atoms: C_2  and  N_3 
REMARK    1  A    between atoms: N_3  and  C_4 
REMARK    2  A    between atoms: C_4  and  C_5 
REMARK    3  A    between atoms: C_4  and  C_11 
REMARK    4  A    between atoms: C_11  and  C_12 
REMARK       I    between atoms: C_12  and  N_13 
REMARK    5  A    between atoms: N_13  and  C_14 
REMARK    6  A    between atoms: C_16  and  C_17 
ROOT
HETATM    1  C   UNL     1      -8.465   0.360 -34.092  1.00  0.00     0.224 C 
HETATM    2  N   UNL     1      -9.586   0.874 -33.455  1.00  0.00    -0.327 N 
HETATM    3  O   UNL     1      -8.171   0.519 -35.272  1.00  0.00    -0.273 OA
HETATM    4  H   UNL     1      -9.718   0.610 -32.485  1.00  0.00     0.169 HD
ENDROOT
BRANCH   1   5
HETATM    5  C   UNL     1      -7.620  -0.483 -33.150  1.00  0.00     0.133 C 
BRANCH   5   6
HETATM    6  C   UNL     1      -6.175  -0.620 -33.653  1.00  0.00     0.126 C 
BRANCH   6   7
HETATM    7  N   UNL     1      -5.133  -0.047 -32.806  1.00  0.00    -0.352 N 
HETATM    8  C   UNL     1      -4.838   1.285 -32.662  1.00  0.00     0.214 C 
HETATM    9  C   UNL     1      -3.689   1.545 -31.723  1.00  0.00     0.117 C 
HETATM   10  O   UNL     1      -5.445   2.200 -33.206  1.00  0.00    -0.274 OA
HETATM   11  H   UNL     1      -4.551  -0.714 -32.318  1.00  0.00     0.163 HD
ENDBRANCH   6   7
BRANCH   6  12
HETATM   12  C   UNL     1      -5.855  -2.051 -34.061  1.00  0.00    -0.035 A 
HETATM   13  C   UNL     1      -4.575  -2.603 -33.907  1.00  0.00     0.009 A 
HETATM   14  C   UNL     1      -4.319  -3.926 -34.273  1.00  0.00     0.001 A 
HETATM   15  C   UNL     1      -5.340  -4.722 -34.786  1.00  0.00     0.000 A 
HETATM   16  C   UNL     1      -6.621  -4.194 -34.935  1.00  0.00     0.001 A 
HETATM   17  C   UNL     1      -6.876  -2.869 -34.576  1.00  0.00     0.009 A 
ENDBRANCH   6  12
ENDBRANCH   5   6
ENDBRANCH   1   5
BRANCH   2  18
HETATM   18  C   UNL     1     -10.615   1.650 -34.028  1.00  0.00     0.035 A 
HETATM   19  C   UNL     1     -10.481   3.001 -34.360  1.00  0.00     0.042 A 
HETATM   20  C   UNL     1     -11.544   3.715 -34.939  1.00  0.00    -0.021 A 
HETATM   21  C   UNL     1     -12.747   3.050 -35.200  1.00  0.00     0.012 A 
HETATM   22  C   UNL     1     -12.894   1.704 -34.865  1.00  0.00     0.003 A 
HETATM   23  C   UNL     1     -11.837   1.011 -34.274  1.00  0.00     0.029 A 
BRANCH  20  24
HETATM   24  C   UNL     1     -11.405   5.125 -35.267  1.00  0.00     0.010 A 
HETATM   25  C   UNL     1     -10.256   5.938 -35.407  1.00  0.00     0.152 A 
HETATM   26  N   UNL     1     -10.550   7.197 -35.743  1.00  0.00    -0.187 NA
HETATM   27  N   UNL     1     -11.890   7.197 -35.819  1.00  0.00    -0.289 N 
HETATM   28  H   UNL     1     -12.360   8.061 -36.067  1.00  0.00     0.188 HD
HETATM   29  C   UNL     1     -12.449   5.982 -35.547  1.00  0.00     0.123 A 
ENDBRANCH  20  24
ENDBRANCH   2  18
TORSDOF 6
ENDMDL
MODEL 7
REMARK VINA RESULT:      -7.9      2.118      2.937
REMARK  6 active torsions:
REMARK  status: ('A' for Active; 'I' for Inactive)
REMARK       I    between atoms: C_2  and  N_3 
REMARK    1  A    between atoms: N_3  and  C_4 
REMARK    2  A    between atoms: C_4  and  C_5 
REMARK    3  A    between atoms: C_4  and  C_11 
REMARK    4  A    between atoms: C_11  and  C_12 
REMARK       I    between atoms: C_12  and  N_13 
REMARK    5  A    between atoms: N_13  and  C_14 
REMARK    6  A    between atoms: C_16  and  C_17 
ROOT
HETATM    1  C   UNL     1      -8.977   0.590 -34.241  1.00  0.00     0.224 C 
HETATM    2  N   UNL     1      -9.798   1.584 -34.755  1.00  0.00    -0.327 N 
HETATM    3  O   UNL     1      -9.234  -0.136 -33.287  1.00  0.00    -0.273 OA
HETATM    4  H   UNL     1      -9.422   2.136 -35.517  1.00  0.00     0.169 HD
ENDROOT
BRANCH   1   5
HETATM    5  C   UNL     1      -7.657   0.510 -34.990  1.00  0.00     0.133 C 
BRANCH   5   6
HETATM    6  C   UNL     1      -6.461   0.448 -34.027  1.00  0.00     0.126 C 
BRANCH   6   7
HETATM    7  N   UNL     1      -6.704   0.890 -32.657  1.00  0.00    -0.352 N 
HETATM    8  C   UNL     1      -6.341   2.095 -32.111  1.00  0.00     0.214 C 
HETATM    9  C   UNL     1      -6.723   2.234 -30.660  1.00  0.00     0.117 C 
HETATM   10  O   UNL     1      -5.783   3.001 -32.720  1.00  0.00    -0.274 OA
HETATM   11  H   UNL     1      -7.146   0.212 -32.051  1.00  0.00     0.163 HD
ENDBRANCH   6   7
BRANCH   6  12
HETATM   12  C   UNL     1      -5.770  -0.908 -34.075  1.00  0.00    -0.035 A 
HETATM   13  C   UNL     1      -4.612  -1.182 -33.334  1.00  0.00     0.009 A 
HETATM   14  C   UNL     1      -4.013  -2.443 -33.384  1.00  0.00     0.001 A 
HETATM   15  C   UNL     1      -4.571  -3.452 -34.165  1.00  0.00     0.000 A 
HETATM   16  C   UNL     1      -5.728  -3.201 -34.898  1.00  0.00     0.001 A 
HETATM   17  C   UNL     1      -6.323  -1.939 -34.855  1.00  0.00     0.009 A 
ENDBRANCH   6  12
ENDBRANCH   5   6
ENDBRANCH   1   5
BRANCH   2  18
HETATM   18  C   UNL     1     -11.067   1.977 -34.278  1.00  0.00     0.035 A 
HETATM   19  C   UNL     1     -11.262   2.849 -33.204  1.00  0.00     0.042 A 
HETATM   20  C   UNL     1     -12.554   3.210 -32.786  1.00  0.00    -0.021 A 
HETATM   21  C   UNL     1     -13.658   2.695 -33.473  1.00  0.00     0.012 A 
HETATM   22  C   UNL     1     -13.476   1.817 -34.542  1.00  0.00     0.003 A 
HETATM   23  C   UNL     1     -12.187   1.453 -34.936  1.00  0.00     0.029 A 
BRANCH  20  24
HETATM   24  C   UNL     1     -12.751   4.104 -31.657  1.00  0.00     0.010 A 
HETATM   25  C   UNL     1     -13.852   4.273 -30.785  1.00  0.00     0.152 A 
HETATM   26  N   UNL     1     -13.633   5.195 -29.844  1.00  0.00    -0.187 NA
HETATM   27  N   UNL     1     -12.388   5.623 -30.109  1.00  0.00    -0.289 N 
HETATM   28  H   UNL     1     -11.987   6.340 -29.514  1.00  0.00     0.188 HD
HETATM   29  C   UNL     1     -11.816   4.999 -31.179  1.00  0.00     0.123 A 
ENDBRANCH  20  24
ENDBRANCH   2  18
TORSDOF 6
ENDMDL
MODEL 8
REMARK VINA RESULT:      -7.9      4.225      7.550
REMARK  6 active torsions:
REMARK  status: ('A' for Active; 'I' for Inactive)
REMARK       I    between atoms: C_2  and  N_3 
REMARK    1  A    between atoms: N_3  and  C_4 
REMARK    2  A    between atoms: C_4  and  C_5 
REMARK    3  A    between atoms: C_4  and  C_11 
REMARK    4  A    between atoms: C_11  and  C_12 
REMARK       I    between atoms: C_12  and  N_13 
REMARK    5  A    between atoms: N_13  and  C_14 
REMARK    6  A    between atoms: C_16  and  C_17 
ROOT
HETATM    1  C   UNL     1      -6.854   1.845 -30.977  1.00  0.00     0.224 C 
HETATM    2  N   UNL     1      -5.551   2.318 -30.918  1.00  0.00    -0.327 N 
HETATM    3  O   UNL     1      -7.871   2.530 -30.976  1.00  0.00    -0.273 OA
HETATM    4  H   UNL     1      -4.816   1.622 -30.875  1.00  0.00     0.169 HD
ENDROOT
BRANCH   1   5
HETATM    5  C   UNL     1      -6.898   0.326 -31.012  1.00  0.00     0.133 C 
BRANCH   5   6
HETATM    6  C   UNL     1      -7.514  -0.194 -32.320  1.00  0.00     0.126 C 
BRANCH   6   7
HETATM    7  N   UNL     1      -8.209   0.787 -33.148  1.00  0.00    -0.352 N 
HETATM    8  C   UNL     1      -9.555   0.826 -33.413  1.00  0.00     0.214 C 
HETATM    9  C   UNL     1      -9.953   1.960 -34.322  1.00  0.00     0.117 C 
HETATM   10  O   UNL     1     -10.382   0.049 -32.951  1.00  0.00    -0.274 OA
HETATM   11  H   UNL     1      -7.620   1.473 -33.600  1.00  0.00     0.163 HD
ENDBRANCH   6   7
BRANCH   6  12
HETATM   12  C   UNL     1      -6.515  -1.014 -33.125  1.00  0.00    -0.035 A 
HETATM   13  C   UNL     1      -5.132  -0.929 -32.908  1.00  0.00     0.009 A 
HETATM   14  C   UNL     1      -4.243  -1.709 -33.650  1.00  0.00     0.001 A 
HETATM   15  C   UNL     1      -4.723  -2.596 -34.611  1.00  0.00     0.000 A 
HETATM   16  C   UNL     1      -6.094  -2.702 -34.832  1.00  0.00     0.001 A 
HETATM   17  C   UNL     1      -6.984  -1.917 -34.095  1.00  0.00     0.009 A 
ENDBRANCH   6  12
ENDBRANCH   5   6
ENDBRANCH   1   5
BRANCH   2  18
HETATM   18  C   UNL     1      -5.133   3.663 -30.820  1.00  0.00     0.035 A 
HETATM   19  C   UNL     1      -4.358   4.312 -31.785  1.00  0.00     0.042 A 
HETATM   20  C   UNL     1      -3.983   5.658 -31.631  1.00  0.00    -0.021 A 
HETATM   21  C   UNL     1      -4.414   6.357 -30.498  1.00  0.00     0.012 A 
HETATM   22  C   UNL     1      -5.181   5.716 -29.525  1.00  0.00     0.003 A 
HETATM   23  C   UNL     1      -5.530   4.374 -29.681  1.00  0.00     0.029 A 
BRANCH  20  24
HETATM   24  C   UNL     1      -3.162   6.323 -32.629  1.00  0.00     0.010 A 
HETATM   25  C   UNL     1      -2.293   7.434 -32.528  1.00  0.00     0.152 A 
HETATM   26  N   UNL     1      -1.694   7.731 -33.684  1.00  0.00    -0.187 NA
HETATM   27  N   UNL     1      -2.178   6.811 -34.533  1.00  0.00    -0.289 N 
HETATM   28  H   UNL     1      -1.861   6.829 -35.497  1.00  0.00     0.188 HD
HETATM   29  C   UNL     1      -3.056   5.943 -33.952  1.00  0.00     0.123 A 
ENDBRANCH  20  24
ENDBRANCH   2  18
TORSDOF 6
ENDMDL
MODEL 9
REMARK VINA RESULT:      -7.9      4.497      8.009
REMARK  6 active torsions:
REMARK  status: ('A' for Active; 'I' for Inactive)
REMARK       I    between atoms: C_2  and  N_3 
REMARK    1  A    between atoms: N_3  and  C_4 
REMARK    2  A    between atoms: C_4  and  C_5 
REMARK    3  A    between atoms: C_4  and  C_11 
REMARK    4  A    between atoms: C_11  and  C_12 
REMARK       I    between atoms: C_12  and  N_13 
REMARK    5  A    between atoms: N_13  and  C_14 
REMARK    6  A    between atoms: C_16  and  C_17 
ROOT
HETATM    1  C   UNL     1      -4.385   1.930 -31.980  1.00  0.00     0.224 C 
HETATM    2  N   UNL     1      -5.692   1.571 -32.277  1.00  0.00    -0.327 N 
HETATM    3  O   UNL     1      -3.381   1.555 -32.575  1.00  0.00    -0.273 OA
HETATM    4  H   UNL     1      -6.413   1.924 -31.659  1.00  0.00     0.169 HD
ENDROOT
BRANCH   1   5
HETATM    5  C   UNL     1      -4.317   2.850 -30.771  1.00  0.00     0.133 C 
BRANCH   5   6
HETATM    6  C   UNL     1      -4.273   4.329 -31.186  1.00  0.00     0.126 C 
BRANCH   6   7
HETATM    7  N   UNL     1      -3.358   4.675 -32.270  1.00  0.00    -0.352 N 
HETATM    8  C   UNL     1      -1.990   4.747 -32.193  1.00  0.00     0.214 C 
HETATM    9  C   UNL     1      -1.338   5.150 -33.489  1.00  0.00     0.117 C 
HETATM   10  O   UNL     1      -1.331   4.491 -31.192  1.00  0.00    -0.274 OA
HETATM   11  H   UNL     1      -3.794   4.926 -33.147  1.00  0.00     0.163 HD
ENDBRANCH   6   7
BRANCH   6  12
HETATM   12  C   UNL     1      -5.669   4.890 -31.419  1.00  0.00    -0.035 A 
HETATM   13  C   UNL     1      -6.055   5.446 -32.647  1.00  0.00     0.009 A 
HETATM   14  C   UNL     1      -7.350   5.935 -32.834  1.00  0.00     0.001 A 
HETATM   15  C   UNL     1      -8.283   5.863 -31.802  1.00  0.00     0.000 A 
HETATM   16  C   UNL     1      -7.920   5.302 -30.579  1.00  0.00     0.001 A 
HETATM   17  C   UNL     1      -6.624   4.821 -30.388  1.00  0.00     0.009 A 
ENDBRANCH   6  12
ENDBRANCH   5   6
ENDBRANCH   1   5
BRANCH   2  18
HETATM   18  C   UNL     1      -6.128   0.692 -33.292  1.00  0.00     0.035 A 
HETATM   19  C   UNL     1      -5.747  -0.650 -33.379  1.00  0.00     0.042 A 
HETATM   20  C   UNL     1      -6.227  -1.476 -34.410  1.00  0.00    -0.021 A 
HETATM   21  C   UNL     1      -7.115  -0.942 -35.350  1.00  0.00     0.012 A 
HETATM   22  C   UNL     1      -7.496   0.398 -35.276  1.00  0.00     0.003 A 
HETATM   23  C   UNL     1      -6.998   1.212 -34.258  1.00  0.00     0.029 A 
BRANCH  20  24
HETATM   24  C   UNL     1      -5.813  -2.866 -34.506  1.00  0.00     0.010 A 
HETATM   25  C   UNL     1      -6.494  -4.007 -34.990  1.00  0.00     0.152 A 
HETATM   26  N   UNL     1      -5.753  -5.118 -34.930  1.00  0.00    -0.187 NA
HETATM   27  N   UNL     1      -4.593  -4.692 -34.406  1.00  0.00    -0.289 N 
HETATM   28  H   UNL     1      -3.851  -5.369 -34.262  1.00  0.00     0.188 HD
HETATM   29  C   UNL     1      -4.576  -3.354 -34.139  1.00  0.00     0.123 A 
ENDBRANCH  20  24
ENDBRANCH   2  18
TORSDOF 6
ENDMDL
MODEL 10
REMARK VINA RESULT:      -7.7      2.318      8.376
REMARK  6 active torsions:
REMARK  status: ('A' for Active; 'I' for Inactive)
REMARK       I    between atoms: C_2  and  N_3 
REMARK    1  A    between atoms: N_3  and  C_4 
REMARK    2  A    between atoms: C_4  and  C_5 
REMARK    3  A    between atoms: C_4  and  C_11 
REMARK    4  A    between atoms: C_11  and  C_12 
REMARK       I    between atoms: C_12  and  N_13 
REMARK    5  A    between atoms: N_13  and  C_14 
REMARK    6  A    between atoms: C_16  and  C_17 
ROOT
HETATM    1  C   UNL     1     -10.290   1.219 -34.258  1.00  0.00     0.224 C 
HETATM    2  N   UNL     1      -9.107   1.078 -34.970  1.00  0.00    -0.327 N 
HETATM    3  O   UNL     1     -10.476   0.879 -33.095  1.00  0.00    -0.273 OA
HETATM    4  H   UNL     1      -9.126   1.361 -35.943  1.00  0.00     0.169 HD
ENDROOT
BRANCH   1   5
HETATM    5  C   UNL     1     -11.388   1.835 -35.110  1.00  0.00     0.133 C 
BRANCH   5   6
HETATM    6  C   UNL     1     -12.053   3.027 -34.404  1.00  0.00     0.126 C 
BRANCH   6   7
HETATM    7  N   UNL     1     -13.044   2.708 -33.381  1.00  0.00    -0.352 N 
HETATM    8  C   UNL     1     -14.163   1.930 -33.541  1.00  0.00     0.214 C 
HETATM    9  C   UNL     1     -14.993   1.811 -32.290  1.00  0.00     0.117 C 
HETATM   10  O   UNL     1     -14.471   1.352 -34.578  1.00  0.00    -0.274 OA
HETATM   11  H   UNL     1     -12.902   3.148 -32.482  1.00  0.00     0.163 HD
ENDBRANCH   6   7
BRANCH   6  12
HETATM   12  C   UNL     1     -11.023   4.031 -33.905  1.00  0.00    -0.035 A 
HETATM   13  C   UNL     1     -10.898   4.362 -32.548  1.00  0.00     0.009 A 
HETATM   14  C   UNL     1      -9.929   5.272 -32.120  1.00  0.00     0.001 A 
HETATM   15  C   UNL     1      -9.062   5.856 -33.040  1.00  0.00     0.000 A 
HETATM   16  C   UNL     1      -9.163   5.530 -34.391  1.00  0.00     0.001 A 
HETATM   17  C   UNL     1     -10.136   4.626 -34.820  1.00  0.00     0.009 A 
ENDBRANCH   6  12
ENDBRANCH   5   6
ENDBRANCH   1   5
BRANCH   2  18
HETATM   18  C   UNL     1      -7.902   0.498 -34.520  1.00  0.00     0.035 A 
HETATM   19  C   UNL     1      -7.552  -0.839 -34.731  1.00  0.00     0.042 A 
HETATM   20  C   UNL     1      -6.329  -1.352 -34.266  1.00  0.00    -0.021 A 
HETATM   21  C   UNL     1      -5.445  -0.498 -33.598  1.00  0.00     0.012 A 
HETATM   22  C   UNL     1      -5.788   0.836 -33.375  1.00  0.00     0.003 A 
HETATM   23  C   UNL     1      -7.013   1.328 -33.826  1.00  0.00     0.029 A 
BRANCH  20  24
HETATM   24  C   UNL     1      -5.979  -2.747 -34.472  1.00  0.00     0.010 A 
HETATM   25  C   UNL     1      -6.762  -3.853 -34.878  1.00  0.00     0.152 A 
HETATM   26  N   UNL     1      -6.055  -4.983 -34.973  1.00  0.00    -0.187 NA
HETATM   27  N   UNL     1      -4.814  -4.606 -34.627  1.00  0.00    -0.289 N 
HETATM   28  H   UNL     1      -4.080  -5.306 -34.625  1.00  0.00     0.188 HD
HETATM   29  C   UNL     1      -4.714  -3.280 -34.322  1.00  0.00     0.123 A 
ENDBRANCH  20  24
ENDBRANCH   2  18
TORSDOF 6
ENDMDL
