MODEL 1
REMARK VINA RESULT:      -7.8      0.000      0.000
REMARK  6 active torsions:
REMARK  status: ('A' for Active; 'I' for Inactive)
REMARK    1  A    between atoms: C_4  and  C_5 
REMARK    2  A    between atoms: C_5  and  C_6 
REMARK    3  A    between atoms: C_6  and  C_7 
REMARK    4  A    between atoms: C_7  and  C_8 
REMARK       I    between atoms: C_8  and  N_9 
REMARK    5  A    between atoms: N_9  and  C_10 
REMARK    6  A    between atoms: C_12  and  C_13 
ROOT
HETATM    1  C   UNL     1      -4.817   2.277 -31.365  1.00  0.00     0.222 C 
HETATM    2  N   UNL     1      -4.658   1.664 -32.570  1.00  0.00    -0.327 N 
HETATM    3  O   UNL     1      -3.859   2.933 -30.944  1.00  0.00    -0.273 OA
HETATM    4  H   UNL     1      -3.732   1.875 -32.929  1.00  0.00     0.169 HD
ENDROOT
BRANCH   2   5
HETATM    5  C   UNL     1      -5.437   0.810 -33.374  1.00  0.00     0.035 A 
HETATM    6  C   UNL     1      -5.274  -0.569 -33.512  1.00  0.00     0.042 A 
HETATM    7  C   UNL     1      -6.097  -1.317 -34.377  1.00  0.00    -0.021 A 
HETATM    8  C   UNL     1      -7.098  -0.666 -35.106  1.00  0.00     0.012 A 
HETATM    9  C   UNL     1      -7.280   0.707 -34.968  1.00  0.00     0.003 A 
HETATM   10  C   UNL     1      -6.456   1.435 -34.110  1.00  0.00     0.029 A 
BRANCH   7  11
HETATM   11  C   UNL     1      -5.906  -2.748 -34.540  1.00  0.00     0.010 A 
HETATM   12  C   UNL     1      -6.826  -3.770 -34.870  1.00  0.00     0.152 A 
HETATM   13  N   UNL     1      -6.263  -4.981 -34.910  1.00  0.00    -0.187 NA
HETATM   14  N   UNL     1      -4.979  -4.739 -34.604  1.00  0.00    -0.289 N 
HETATM   15  H   UNL     1      -4.338  -5.525 -34.565  1.00  0.00     0.188 HD
HETATM   16  C   UNL     1      -4.713  -3.419 -34.373  1.00  0.00     0.123 A 
ENDBRANCH   7  11
ENDBRANCH   2   5
BRANCH   1  17
HETATM   17  C   UNL     1      -6.104   2.166 -30.578  1.00  0.00     0.103 C 
BRANCH  17  18
HETATM   18  C   UNL     1      -7.146   3.223 -30.955  1.00  0.00     0.014 C 
BRANCH  18  19
HETATM   19  C   UNL     1      -8.569   2.853 -30.518  1.00  0.00     0.039 C 
BRANCH  19  20
HETATM   20  C   UNL     1      -9.283   2.065 -31.590  1.00  0.00    -0.058 A 
HETATM   21  C   UNL     1     -10.076   2.724 -32.540  1.00  0.00     0.007 A 
HETATM   22  C   UNL     1     -10.758   2.000 -33.518  1.00  0.00     0.001 A 
HETATM   23  C   UNL     1     -10.654   0.611 -33.557  1.00  0.00     0.000 A 
HETATM   24  C   UNL     1      -9.867  -0.055 -32.619  1.00  0.00     0.001 A 
HETATM   25  C   UNL     1      -9.186   0.668 -31.637  1.00  0.00     0.007 A 
ENDBRANCH  19  20
ENDBRANCH  18  19
ENDBRANCH  17  18
ENDBRANCH   1  17
TORSDOF 6
ENDMDL
MODEL 2
REMARK VINA RESULT:      -7.7      2.724      6.383
REMARK  6 active torsions:
REMARK  status: ('A' for Active; 'I' for Inactive)
REMARK    1  A    between atoms: C_4  and  C_5 
REMARK    2  A    between atoms: C_5  and  C_6 
REMARK    3  A    between atoms: C_6  and  C_7 
REMARK    4  A    between atoms: C_7  and  C_8 
REMARK       I    between atoms: C_8  and  N_9 
REMARK    5  A    between atoms: N_9  and  C_10 
REMARK    6  A    between atoms: C_12  and  C_13 
ROOT
HETATM    1  C   UNL     1      -6.297   0.371 -30.492  1.00  0.00     0.222 C 
HETATM    2  N   UNL     1      -7.439   1.089 -30.677  1.00  0.00    -0.327 N 
HETATM    3  O   UNL     1      -5.705   0.535 -29.420  1.00  0.00    -0.273 OA
HETATM    4  H   UNL     1      -7.612   1.655 -29.852  1.00  0.00     0.169 HD
ENDROOT
BRANCH   2   5
HETATM    5  C   UNL     1      -8.369   1.246 -31.722  1.00  0.00     0.035 A 
HETATM    6  C   UNL     1      -8.563   2.398 -32.488  1.00  0.00     0.042 A 
HETATM    7  C   UNL     1      -9.552   2.448 -33.489  1.00  0.00    -0.021 A 
HETATM    8  C   UNL     1     -10.350   1.324 -33.723  1.00  0.00     0.012 A 
HETATM    9  C   UNL     1     -10.159   0.165 -32.977  1.00  0.00     0.003 A 
HETATM   10  C   UNL     1      -9.177   0.129 -31.986  1.00  0.00     0.029 A 
BRANCH   7  11
HETATM   11  C   UNL     1      -9.770   3.658 -34.264  1.00  0.00     0.010 A 
HETATM   12  C   UNL     1      -9.057   4.879 -34.288  1.00  0.00     0.152 A 
HETATM   13  N   UNL     1      -9.583   5.769 -35.134  1.00  0.00    -0.187 NA
HETATM   14  N   UNL     1     -10.637   5.122 -35.654  1.00  0.00    -0.289 N 
HETATM   15  H   UNL     1     -11.211   5.609 -36.335  1.00  0.00     0.188 HD
HETATM   16  C   UNL     1     -10.793   3.856 -35.167  1.00  0.00     0.123 A 
ENDBRANCH   7  11
ENDBRANCH   2   5
BRANCH   1  17
HETATM   17  C   UNL     1      -5.776  -0.584 -31.543  1.00  0.00     0.103 C 
BRANCH  17  18
HETATM   18  C   UNL     1      -5.270   0.114 -32.809  1.00  0.00     0.014 C 
BRANCH  18  19
HETATM   19  C   UNL     1      -6.009  -0.326 -34.080  1.00  0.00     0.039 C 
BRANCH  19  20
HETATM   20  C   UNL     1      -5.846  -1.807 -34.322  1.00  0.00    -0.058 A 
HETATM   21  C   UNL     1      -6.963  -2.599 -34.623  1.00  0.00     0.007 A 
HETATM   22  C   UNL     1      -6.825  -3.973 -34.824  1.00  0.00     0.001 A 
HETATM   23  C   UNL     1      -5.569  -4.568 -34.727  1.00  0.00     0.000 A 
HETATM   24  C   UNL     1      -4.451  -3.790 -34.430  1.00  0.00     0.001 A 
HETATM   25  C   UNL     1      -4.588  -2.416 -34.226  1.00  0.00     0.007 A 
ENDBRANCH  19  20
ENDBRANCH  18  19
ENDBRANCH  17  18
ENDBRANCH   1  17
TORSDOF 6
ENDMDL
MODEL 3
REMARK VINA RESULT:      -7.6      2.971      6.671
REMARK  6 active torsions:
REMARK  status: ('A' for Active; 'I' for Inactive)
REMARK    1  A    between atoms: C_4  and  C_5 
REMARK    2  A    between atoms: C_5  and  C_6 
REMARK    3  A    between atoms: C_6  and  C_7 
REMARK    4  A    between atoms: C_7  and  C_8 
REMARK       I    between atoms: C_8  and  N_9 
REMARK    5  A    between atoms: N_9  and  C_10 
REMARK    6  A    between atoms: C_12  and  C_13 
ROOT
HETATM    1  C   UNL     1      -8.496   0.471 -32.364  1.00  0.00     0.222 C 
HETATM    2  N   UNL     1      -7.535   0.628 -31.413  1.00  0.00    -0.327 N 
HETATM    3  O   UNL     1      -9.631   0.193 -31.966  1.00  0.00    -0.273 OA
HETATM    4  H   UNL     1      -7.949   0.489 -30.497  1.00  0.00     0.169 HD
ENDROOT
BRANCH   2   5
HETATM    5  C   UNL     1      -6.151   0.889 -31.416  1.00  0.00     0.035 A 
HETATM    6  C   UNL     1      -5.544   2.122 -31.660  1.00  0.00     0.042 A 
HETATM    7  C   UNL     1      -4.141   2.254 -31.671  1.00  0.00    -0.021 A 
HETATM    8  C   UNL     1      -3.344   1.131 -31.426  1.00  0.00     0.012 A 
HETATM    9  C   UNL     1      -3.936  -0.102 -31.169  1.00  0.00     0.003 A 
HETATM   10  C   UNL     1      -5.326  -0.219 -31.164  1.00  0.00     0.029 A 
BRANCH   7  11
HETATM   11  C   UNL     1      -3.513   3.533 -31.954  1.00  0.00     0.010 A 
HETATM   12  C   UNL     1      -2.616   3.914 -32.979  1.00  0.00     0.152 A 
HETATM   13  N   UNL     1      -2.246   5.194 -32.894  1.00  0.00    -0.187 NA
HETATM   14  N   UNL     1      -2.902   5.639 -31.811  1.00  0.00    -0.289 N 
HETATM   15  H   UNL     1      -2.773   6.607 -31.535  1.00  0.00     0.188 HD
HETATM   16  C   UNL     1      -3.675   4.685 -31.212  1.00  0.00     0.123 A 
ENDBRANCH   7  11
ENDBRANCH   2   5
BRANCH   1  17
HETATM   17  C   UNL     1      -8.193   0.630 -33.838  1.00  0.00     0.103 C 
BRANCH  17  18
HETATM   18  C   UNL     1      -7.758  -0.671 -34.519  1.00  0.00     0.014 C 
BRANCH  18  19
HETATM   19  C   UNL     1      -6.237  -0.799 -34.665  1.00  0.00     0.039 C 
BRANCH  19  20
HETATM   20  C   UNL     1      -5.800  -2.243 -34.596  1.00  0.00    -0.058 A 
HETATM   21  C   UNL     1      -6.696  -3.267 -34.932  1.00  0.00     0.007 A 
HETATM   22  C   UNL     1      -6.308  -4.605 -34.846  1.00  0.00     0.001 A 
HETATM   23  C   UNL     1      -5.021  -4.931 -34.426  1.00  0.00     0.000 A 
HETATM   24  C   UNL     1      -4.120  -3.921 -34.091  1.00  0.00     0.001 A 
HETATM   25  C   UNL     1      -4.508  -2.582 -34.173  1.00  0.00     0.007 A 
ENDBRANCH  19  20
ENDBRANCH  18  19
ENDBRANCH  17  18
ENDBRANCH   1  17
TORSDOF 6
ENDMDL
MODEL 4
REMARK VINA RESULT:      -7.5      2.624      5.727
REMARK  6 active torsions:
REMARK  status: ('A' for Active; 'I' for Inactive)
REMARK    1  A    between atoms: C_4  and  C_5 
REMARK    2  A    between atoms: C_5  and  C_6 
REMARK    3  A    between atoms: C_6  and  C_7 
REMARK    4  A    between atoms: C_7  and  C_8 
REMARK       I    between atoms: C_8  and  N_9 
REMARK    5  A    between atoms: N_9  and  C_10 
REMARK    6  A    between atoms: C_12  and  C_13 
ROOT
HETATM    1  C   UNL     1      -3.596  -1.711 -32.215  1.00  0.00     0.222 C 
HETATM    2  N   UNL     1      -3.644  -0.651 -31.361  1.00  0.00    -0.327 N 
HETATM    3  O   UNL     1      -3.033  -2.731 -31.803  1.00  0.00    -0.273 OA
HETATM    4  H   UNL     1      -3.191  -0.907 -30.490  1.00  0.00     0.169 HD
ENDROOT
BRANCH   2   5
HETATM    5  C   UNL     1      -4.123   0.671 -31.427  1.00  0.00     0.035 A 
HETATM    6  C   UNL     1      -3.732   1.645 -32.348  1.00  0.00     0.042 A 
HETATM    7  C   UNL     1      -4.258   2.951 -32.295  1.00  0.00    -0.021 A 
HETATM    8  C   UNL     1      -5.192   3.275 -31.305  1.00  0.00     0.012 A 
HETATM    9  C   UNL     1      -5.600   2.310 -30.389  1.00  0.00     0.003 A 
HETATM   10  C   UNL     1      -5.070   1.022 -30.452  1.00  0.00     0.029 A 
BRANCH   7  11
HETATM   11  C   UNL     1      -3.828   3.970 -33.237  1.00  0.00     0.010 A 
HETATM   12  C   UNL     1      -4.563   4.720 -34.184  1.00  0.00     0.152 A 
HETATM   13  N   UNL     1      -3.797   5.561 -34.885  1.00  0.00    -0.187 NA
HETATM   14  N   UNL     1      -2.567   5.350 -34.392  1.00  0.00    -0.289 N 
HETATM   15  H   UNL     1      -1.795   5.882 -34.781  1.00  0.00     0.188 HD
HETATM   16  C   UNL     1      -2.531   4.408 -33.404  1.00  0.00     0.123 A 
ENDBRANCH   7  11
ENDBRANCH   2   5
BRANCH   1  17
HETATM   17  C   UNL     1      -4.203  -1.649 -33.599  1.00  0.00     0.103 C 
BRANCH  17  18
HETATM   18  C   UNL     1      -5.735  -1.651 -33.597  1.00  0.00     0.014 C 
BRANCH  18  19
HETATM   19  C   UNL     1      -6.343  -0.644 -34.581  1.00  0.00     0.039 C 
BRANCH  19  20
HETATM   20  C   UNL     1      -7.131   0.421 -33.858  1.00  0.00    -0.058 A 
HETATM   21  C   UNL     1      -7.911   0.084 -32.742  1.00  0.00     0.007 A 
HETATM   22  C   UNL     1      -8.663   1.058 -32.083  1.00  0.00     0.001 A 
HETATM   23  C   UNL     1      -8.641   2.377 -32.531  1.00  0.00     0.000 A 
HETATM   24  C   UNL     1      -7.867   2.724 -33.638  1.00  0.00     0.001 A 
HETATM   25  C   UNL     1      -7.117   1.750 -34.300  1.00  0.00     0.007 A 
ENDBRANCH  19  20
ENDBRANCH  18  19
ENDBRANCH  17  18
ENDBRANCH   1  17
TORSDOF 6
ENDMDL
MODEL 5
REMARK VINA RESULT:      -7.4      3.312      7.224
REMARK  6 active torsions:
REMARK  status: ('A' for Active; 'I' for Inactive)
REMARK    1  A    between atoms: C_4  and  C_5 
REMARK    2  A    between atoms: C_5  and  C_6 
REMARK    3  A    between atoms: C_6  and  C_7 
REMARK    4  A    between atoms: C_7  and  C_8 
REMARK       I    between atoms: C_8  and  N_9 
REMARK    5  A    between atoms: N_9  and  C_10 
REMARK    6  A    between atoms: C_12  and  C_13 
ROOT
HETATM    1  C   UNL     1      -7.644   1.965 -33.866  1.00  0.00     0.222 C 
HETATM    2  N   UNL     1      -7.004   2.721 -32.932  1.00  0.00    -0.327 N 
HETATM    3  O   UNL     1      -8.877   1.927 -33.799  1.00  0.00    -0.273 OA
HETATM    4  H   UNL     1      -7.693   3.146 -32.320  1.00  0.00     0.169 HD
ENDROOT
BRANCH   2   5
HETATM    5  C   UNL     1      -5.660   3.000 -32.615  1.00  0.00     0.035 A 
HETATM    6  C   UNL     1      -4.880   4.023 -33.155  1.00  0.00     0.042 A 
HETATM    7  C   UNL     1      -3.531   4.185 -32.784  1.00  0.00    -0.021 A 
HETATM    8  C   UNL     1      -2.965   3.307 -31.854  1.00  0.00     0.012 A 
HETATM    9  C   UNL     1      -3.734   2.289 -31.297  1.00  0.00     0.003 A 
HETATM   10  C   UNL     1      -5.069   2.140 -31.676  1.00  0.00     0.029 A 
BRANCH   7  11
HETATM   11  C   UNL     1      -2.715   5.234 -33.370  1.00  0.00     0.010 A 
HETATM   12  C   UNL     1      -1.631   5.161 -34.277  1.00  0.00     0.152 A 
HETATM   13  N   UNL     1      -1.123   6.361 -34.574  1.00  0.00    -0.187 NA
HETATM   14  N   UNL     1      -1.878   7.207 -33.855  1.00  0.00    -0.289 N 
HETATM   15  H   UNL     1      -1.674   8.200 -33.912  1.00  0.00     0.188 HD
HETATM   16  C   UNL     1      -2.844   6.583 -33.118  1.00  0.00     0.123 A 
ENDBRANCH   7  11
ENDBRANCH   2   5
BRANCH   1  17
HETATM   17  C   UNL     1      -6.889   1.211 -34.938  1.00  0.00     0.103 C 
BRANCH  17  18
HETATM   18  C   UNL     1      -6.193  -0.053 -34.423  1.00  0.00     0.014 C 
BRANCH  18  19
HETATM   19  C   UNL     1      -7.045  -1.319 -34.579  1.00  0.00     0.039 C 
BRANCH  19  20
HETATM   20  C   UNL     1      -6.191  -2.563 -34.527  1.00  0.00    -0.058 A 
HETATM   21  C   UNL     1      -6.711  -3.793 -34.953  1.00  0.00     0.007 A 
HETATM   22  C   UNL     1      -5.936  -4.952 -34.886  1.00  0.00     0.001 A 
HETATM   23  C   UNL     1      -4.635  -4.892 -34.393  1.00  0.00     0.000 A 
HETATM   24  C   UNL     1      -4.106  -3.674 -33.969  1.00  0.00     0.001 A 
HETATM   25  C   UNL     1      -4.881  -2.514 -34.033  1.00  0.00     0.007 A 
ENDBRANCH  19  20
ENDBRANCH  18  19
ENDBRANCH  17  18
ENDBRANCH   1  17
TORSDOF 6
ENDMDL
MODEL 6
REMARK VINA RESULT:      -7.3      2.822      5.192
REMARK  6 active torsions:
REMARK  status: ('A' for Active; 'I' for Inactive)
REMARK    1  A    between atoms: C_4  and  C_5 
REMARK    2  A    between atoms: C_5  and  C_6 
REMARK    3  A    between atoms: C_6  and  C_7 
REMARK    4  A    between atoms: C_7  and  C_8 
REMARK       I    between atoms: C_8  and  N_9 
REMARK    5  A    between atoms: N_9  and  C_10 
REMARK    6  A    between atoms: C_12  and  C_13 
ROOT
HETATM    1  C   UNL     1      -6.116   2.356 -31.169  1.00  0.00     0.222 C 
HETATM    2  N   UNL     1      -6.717   1.190 -31.532  1.00  0.00    -0.327 N 
HETATM    3  O   UNL     1      -6.266   2.718 -29.998  1.00  0.00    -0.273 OA
HETATM    4  H   UNL     1      -7.200   0.802 -30.728  1.00  0.00     0.169 HD
ENDROOT
BRANCH   2   5
HETATM    5  C   UNL     1      -6.847   0.455 -32.727  1.00  0.00     0.035 A 
HETATM    6  C   UNL     1      -6.392  -0.845 -32.949  1.00  0.00     0.042 A 
HETATM    7  C   UNL     1      -6.549  -1.468 -34.203  1.00  0.00    -0.021 A 
HETATM    8  C   UNL     1      -7.177  -0.772 -35.240  1.00  0.00     0.012 A 
HETATM    9  C   UNL     1      -7.648   0.520 -35.029  1.00  0.00     0.003 A 
HETATM   10  C   UNL     1      -7.483   1.126 -33.783  1.00  0.00     0.029 A 
BRANCH   7  11
HETATM   11  C   UNL     1      -6.048  -2.811 -34.438  1.00  0.00     0.010 A 
HETATM   12  C   UNL     1      -6.715  -3.982 -34.869  1.00  0.00     0.152 A 
HETATM   13  N   UNL     1      -5.902  -5.039 -34.952  1.00  0.00    -0.187 NA
HETATM   14  N   UNL     1      -4.711  -4.550 -34.573  1.00  0.00    -0.289 N 
HETATM   15  H   UNL     1      -3.917  -5.182 -34.550  1.00  0.00     0.188 HD
HETATM   16  C   UNL     1      -4.744  -3.222 -34.255  1.00  0.00     0.123 A 
ENDBRANCH   7  11
ENDBRANCH   2   5
BRANCH   1  17
HETATM   17  C   UNL     1      -5.301   3.172 -32.148  1.00  0.00     0.103 C 
BRANCH  17  18
HETATM   18  C   UNL     1      -3.885   2.630 -32.367  1.00  0.00     0.014 C 
BRANCH  18  19
HETATM   19  C   UNL     1      -2.815   3.398 -31.580  1.00  0.00     0.039 C 
BRANCH  19  20
HETATM   20  C   UNL     1      -2.235   4.525 -32.401  1.00  0.00    -0.058 A 
HETATM   21  C   UNL     1      -2.228   4.446 -33.801  1.00  0.00     0.007 A 
HETATM   22  C   UNL     1      -1.672   5.472 -34.566  1.00  0.00     0.001 A 
HETATM   23  C   UNL     1      -1.119   6.586 -33.940  1.00  0.00     0.000 A 
HETATM   24  C   UNL     1      -1.123   6.677 -32.549  1.00  0.00     0.001 A 
HETATM   25  C   UNL     1      -1.676   5.649 -31.782  1.00  0.00     0.007 A 
ENDBRANCH  19  20
ENDBRANCH  18  19
ENDBRANCH  17  18
ENDBRANCH   1  17
TORSDOF 6
ENDMDL
MODEL 7
REMARK VINA RESULT:      -7.3      3.471      7.302
REMARK  6 active torsions:
REMARK  status: ('A' for Active; 'I' for Inactive)
REMARK    1  A    between atoms: C_4  and  C_5 
REMARK    2  A    between atoms: C_5  and  C_6 
REMARK    3  A    between atoms: C_6  and  C_7 
REMARK    4  A    between atoms: C_7  and  C_8 
REMARK       I    between atoms: C_8  and  N_9 
REMARK    5  A    between atoms: N_9  and  C_10 
REMARK    6  A    between atoms: C_12  and  C_13 
ROOT
HETATM    1  C   UNL     1      -4.402   0.085 -31.534  1.00  0.00     0.222 C 
HETATM    2  N   UNL     1      -3.706   1.177 -31.117  1.00  0.00    -0.327 N 
HETATM    3  O   UNL     1      -3.923  -1.019 -31.255  1.00  0.00    -0.273 OA
HETATM    4  H   UNL     1      -2.877   0.871 -30.617  1.00  0.00     0.169 HD
ENDROOT
BRANCH   2   5
HETATM    5  C   UNL     1      -3.849   2.572 -31.251  1.00  0.00     0.035 A 
HETATM    6  C   UNL     1      -3.088   3.404 -32.073  1.00  0.00     0.042 A 
HETATM    7  C   UNL     1      -3.301   4.797 -32.098  1.00  0.00    -0.021 A 
HETATM    8  C   UNL     1      -4.297   5.353 -31.289  1.00  0.00     0.012 A 
HETATM    9  C   UNL     1      -5.072   4.534 -30.474  1.00  0.00     0.003 A 
HETATM   10  C   UNL     1      -4.848   3.157 -30.457  1.00  0.00     0.029 A 
BRANCH   7  11
HETATM   11  C   UNL     1      -2.487   5.662 -32.934  1.00  0.00     0.010 A 
HETATM   12  C   UNL     1      -2.487   7.070 -33.079  1.00  0.00     0.152 A 
HETATM   13  N   UNL     1      -1.588   7.498 -33.970  1.00  0.00    -0.187 NA
HETATM   14  N   UNL     1      -1.010   6.366 -34.400  1.00  0.00    -0.289 N 
HETATM   15  H   UNL     1      -0.280   6.436 -35.103  1.00  0.00     0.188 HD
HETATM   16  C   UNL     1      -1.511   5.240 -33.812  1.00  0.00     0.123 A 
ENDBRANCH   7  11
ENDBRANCH   2   5
BRANCH   1  17
HETATM   17  C   UNL     1      -5.701   0.211 -32.299  1.00  0.00     0.103 C 
BRANCH  17  18
HETATM   18  C   UNL     1      -5.543   0.021 -33.811  1.00  0.00     0.014 C 
BRANCH  18  19
HETATM   19  C   UNL     1      -6.554  -0.968 -34.406  1.00  0.00     0.039 C 
BRANCH  19  20
HETATM   20  C   UNL     1      -5.982  -2.364 -34.469  1.00  0.00    -0.058 A 
HETATM   21  C   UNL     1      -6.802  -3.446 -34.819  1.00  0.00     0.007 A 
HETATM   22  C   UNL     1      -6.287  -4.742 -34.854  1.00  0.00     0.001 A 
HETATM   23  C   UNL     1      -4.949  -4.970 -34.542  1.00  0.00     0.000 A 
HETATM   24  C   UNL     1      -4.124  -3.901 -34.195  1.00  0.00     0.001 A 
HETATM   25  C   UNL     1      -4.638  -2.603 -34.156  1.00  0.00     0.007 A 
ENDBRANCH  19  20
ENDBRANCH  18  19
ENDBRANCH  17  18
ENDBRANCH   1  17
TORSDOF 6
ENDMDL
MODEL 8
REMARK VINA RESULT:      -7.3      3.666      7.120
REMARK  6 active torsions:
REMARK  status: ('A' for Active; 'I' for Inactive)
REMARK    1  A    between atoms: C_4  and  C_5 
REMARK    2  A    between atoms: C_5  and  C_6 
REMARK    3  A    between atoms: C_6  and  C_7 
REMARK    4  A    between atoms: C_7  and  C_8 
REMARK       I    between atoms: C_8  and  N_9 
REMARK    5  A    between atoms: N_9  and  C_10 
REMARK    6  A    between atoms: C_12  and  C_13 
ROOT
HETATM    1  C   UNL     1      -4.785   0.906 -30.733  1.00  0.00     0.222 C 
HETATM    2  N   UNL     1      -5.354   2.048 -31.209  1.00  0.00    -0.327 N 
HETATM    3  O   UNL     1      -5.346   0.363 -29.776  1.00  0.00    -0.273 OA
HETATM    4  H   UNL     1      -6.187   2.254 -30.667  1.00  0.00     0.169 HD
ENDROOT
BRANCH   2   5
HETATM    5  C   UNL     1      -5.040   2.985 -32.212  1.00  0.00     0.035 A 
HETATM    6  C   UNL     1      -3.951   3.859 -32.212  1.00  0.00     0.042 A 
HETATM    7  C   UNL     1      -3.757   4.781 -33.260  1.00  0.00    -0.021 A 
HETATM    8  C   UNL     1      -4.668   4.817 -34.320  1.00  0.00     0.012 A 
HETATM    9  C   UNL     1      -5.751   3.943 -34.339  1.00  0.00     0.003 A 
HETATM   10  C   UNL     1      -5.933   3.037 -33.294  1.00  0.00     0.029 A 
BRANCH   7  11
HETATM   11  C   UNL     1      -2.638   5.708 -33.242  1.00  0.00     0.010 A 
HETATM   12  C   UNL     1      -2.280   6.737 -34.143  1.00  0.00     0.152 A 
HETATM   13  N   UNL     1      -1.158   7.370 -33.787  1.00  0.00    -0.187 NA
HETATM   14  N   UNL     1      -0.792   6.745 -32.656  1.00  0.00    -0.289 N 
HETATM   15  H   UNL     1       0.055   7.053 -32.190  1.00  0.00     0.188 HD
HETATM   16  C   UNL     1      -1.644   5.743 -32.287  1.00  0.00     0.123 A 
ENDBRANCH   7  11
ENDBRANCH   2   5
BRANCH   1  17
HETATM   17  C   UNL     1      -3.529   0.326 -31.345  1.00  0.00     0.103 C 
BRANCH  17  18
HETATM   18  C   UNL     1      -3.751  -1.024 -32.036  1.00  0.00     0.014 C 
BRANCH  18  19
HETATM   19  C   UNL     1      -4.309  -0.891 -33.459  1.00  0.00     0.039 C 
BRANCH  19  20
HETATM   20  C   UNL     1      -4.930  -2.186 -33.926  1.00  0.00    -0.058 A 
HETATM   21  C   UNL     1      -4.174  -3.366 -33.939  1.00  0.00     0.007 A 
HETATM   22  C   UNL     1      -4.733  -4.561 -34.392  1.00  0.00     0.001 A 
HETATM   23  C   UNL     1      -6.053  -4.589 -34.836  1.00  0.00     0.000 A 
HETATM   24  C   UNL     1      -6.816  -3.421 -34.826  1.00  0.00     0.001 A 
HETATM   25  C   UNL     1      -6.256  -2.224 -34.375  1.00  0.00     0.007 A 
ENDBRANCH  19  20
ENDBRANCH  18  19
ENDBRANCH  17  18
ENDBRANCH   1  17
TORSDOF 6
ENDMDL
MODEL 9
REMARK VINA RESULT:      -7.2     14.117     16.308
REMARK  6 active torsions:
REMARK  status: ('A' for Active; 'I' for Inactive)
REMARK    1  A    between atoms: C_4  and  C_5 
REMARK    2  A    between atoms: C_5  and  C_6 
REMARK    3  A    between atoms: C_6  and  C_7 
REMARK    4  A    between atoms: C_7  and  C_8 
REMARK       I    between atoms: C_8  and  N_9 
REMARK    5  A    between atoms: N_9  and  C_10 
REMARK    6  A    between atoms: C_12  and  C_13 
ROOT
HETATM    1  C   UNL     1      -4.860 -13.809 -36.357  1.00  0.00     0.222 C 
HETATM    2  N   UNL     1      -5.246 -12.728 -37.089  1.00  0.00    -0.327 N 
HETATM    3  O   UNL     1      -4.240 -13.580 -35.313  1.00  0.00    -0.273 OA
HETATM    4  H   UNL     1      -4.945 -11.882 -36.615  1.00  0.00     0.169 HD
ENDROOT
BRANCH   2   5
HETATM    5  C   UNL     1      -5.903 -12.530 -38.319  1.00  0.00     0.035 A 
HETATM    6  C   UNL     1      -7.258 -12.752 -38.576  1.00  0.00     0.042 A 
HETATM    7  C   UNL     1      -7.798 -12.550 -39.861  1.00  0.00    -0.021 A 
HETATM    8  C   UNL     1      -6.963 -12.116 -40.896  1.00  0.00     0.012 A 
HETATM    9  C   UNL     1      -5.614 -11.878 -40.651  1.00  0.00     0.003 A 
HETATM   10  C   UNL     1      -5.092 -12.084 -39.374  1.00  0.00     0.029 A 
BRANCH   7  11
HETATM   11  C   UNL     1      -9.201 -12.810 -40.131  1.00  0.00     0.010 A 
HETATM   12  C   UNL     1      -9.908 -14.029 -40.248  1.00  0.00     0.152 A 
HETATM   13  N   UNL     1     -11.204 -13.853 -40.521  1.00  0.00    -0.187 NA
HETATM   14  N   UNL     1     -11.332 -12.518 -40.582  1.00  0.00    -0.289 N 
HETATM   15  H   UNL     1     -12.248 -12.132 -40.787  1.00  0.00     0.188 HD
HETATM   16  C   UNL     1     -10.164 -11.848 -40.356  1.00  0.00     0.123 A 
ENDBRANCH   7  11
ENDBRANCH   2   5
BRANCH   1  17
HETATM   17  C   UNL     1      -5.176 -15.223 -36.793  1.00  0.00     0.103 C 
BRANCH  17  18
HETATM   18  C   UNL     1      -4.449 -15.645 -38.074  1.00  0.00     0.014 C 
BRANCH  18  19
HETATM   19  C   UNL     1      -5.400 -16.111 -39.184  1.00  0.00     0.039 C 
BRANCH  19  20
HETATM   20  C   UNL     1      -4.992 -15.548 -40.525  1.00  0.00    -0.058 A 
HETATM   21  C   UNL     1      -5.906 -15.528 -41.588  1.00  0.00     0.007 A 
HETATM   22  C   UNL     1      -5.529 -15.033 -42.837  1.00  0.00     0.001 A 
HETATM   23  C   UNL     1      -4.237 -14.552 -43.035  1.00  0.00     0.000 A 
HETATM   24  C   UNL     1      -3.320 -14.565 -41.985  1.00  0.00     0.001 A 
HETATM   25  C   UNL     1      -3.695 -15.063 -40.735  1.00  0.00     0.007 A 
ENDBRANCH  19  20
ENDBRANCH  18  19
ENDBRANCH  17  18
ENDBRANCH   1  17
TORSDOF 6
ENDMDL
MODEL 10
REMARK VINA RESULT:      -7.1      1.845      3.036
REMARK  6 active torsions:
REMARK  status: ('A' for Active; 'I' for Inactive)
REMARK    1  A    between atoms: C_4  and  C_5 
REMARK    2  A    between atoms: C_5  and  C_6 
REMARK    3  A    between atoms: C_6  and  C_7 
REMARK    4  A    between atoms: C_7  and  C_8 
REMARK       I    between atoms: C_8  and  N_9 
REMARK    5  A    between atoms: N_9  and  C_10 
REMARK    6  A    between atoms: C_12  and  C_13 
ROOT
HETATM    1  C   UNL     1      -6.630   1.969 -32.637  1.00  0.00     0.222 C 
HETATM    2  N   UNL     1      -5.363   1.532 -32.878  1.00  0.00    -0.327 N 
HETATM    3  O   UNL     1      -6.859   3.162 -32.864  1.00  0.00    -0.273 OA
HETATM    4  H   UNL     1      -4.807   2.306 -33.228  1.00  0.00     0.169 HD
ENDROOT
BRANCH   2   5
HETATM    5  C   UNL     1      -4.673   0.315 -32.721  1.00  0.00     0.035 A 
HETATM    6  C   UNL     1      -4.957  -0.885 -33.377  1.00  0.00     0.042 A 
HETATM    7  C   UNL     1      -4.215  -2.053 -33.112  1.00  0.00    -0.021 A 
HETATM    8  C   UNL     1      -3.174  -2.007 -32.179  1.00  0.00     0.012 A 
HETATM    9  C   UNL     1      -2.872  -0.816 -31.528  1.00  0.00     0.003 A 
HETATM   10  C   UNL     1      -3.616   0.333 -31.798  1.00  0.00     0.029 A 
BRANCH   7  11
HETATM   11  C   UNL     1      -4.532  -3.306 -33.775  1.00  0.00     0.010 A 
HETATM   12  C   UNL     1      -5.605  -3.652 -34.628  1.00  0.00     0.152 A 
HETATM   13  N   UNL     1      -5.557  -4.926 -35.031  1.00  0.00    -0.187 NA
HETATM   14  N   UNL     1      -4.453  -5.401 -34.434  1.00  0.00    -0.289 N 
HETATM   15  H   UNL     1      -4.204  -6.373 -34.588  1.00  0.00     0.188 HD
HETATM   16  C   UNL     1      -3.803  -4.472 -33.672  1.00  0.00     0.123 A 
ENDBRANCH   7  11
ENDBRANCH   2   5
BRANCH   1  17
HETATM   17  C   UNL     1      -7.708   1.043 -32.120  1.00  0.00     0.103 C 
BRANCH  17  18
HETATM   18  C   UNL     1      -8.562   0.417 -33.228  1.00  0.00     0.014 C 
BRANCH  18  19
HETATM   19  C   UNL     1      -9.920  -0.093 -32.730  1.00  0.00     0.039 C 
BRANCH  19  20
HETATM   20  C   UNL     1     -11.055   0.519 -33.515  1.00  0.00    -0.058 A 
HETATM   21  C   UNL     1     -12.347  -0.018 -33.422  1.00  0.00     0.007 A 
HETATM   22  C   UNL     1     -13.396   0.527 -34.163  1.00  0.00     0.001 A 
HETATM   23  C   UNL     1     -13.166   1.614 -35.002  1.00  0.00     0.000 A 
HETATM   24  C   UNL     1     -11.886   2.158 -35.102  1.00  0.00     0.001 A 
HETATM   25  C   UNL     1     -10.834   1.612 -34.363  1.00  0.00     0.007 A 
ENDBRANCH  19  20
ENDBRANCH  18  19
ENDBRANCH  17  18
ENDBRANCH   1  17
TORSDOF 6
ENDMDL
