MODEL 1
REMARK VINA RESULT:      -7.5      0.000      0.000
REMARK  9 active torsions:
REMARK  status: ('A' for Active; 'I' for Inactive)
REMARK    1  A    between atoms: C_4  and  C_5 
REMARK    2  A    between atoms: C_7  and  N_8 
REMARK       I    between atoms: N_8  and  C_9 
REMARK    3  A    between atoms: C_9  and  C_10 
REMARK    4  A    between atoms: C_10  and  O_11 
REMARK    5  A    between atoms: C_18  and  C_19 
REMARK    6  A    between atoms: C_19  and  N_20 
REMARK       I    between atoms: N_20  and  C_21 
REMARK    7  A    between atoms: C_21  and  C_22 
REMARK    8  A    between atoms: C_24  and  C_25 
REMARK    9  A    between atoms: C_25  and  O_26 
ROOT
HETATM    1  C   UNL     1      -1.817   6.856 -33.816  1.00  0.00     0.079 C 
HETATM    2  C   UNL     1      -1.821   5.731 -32.866  1.00  0.00     0.078 A 
HETATM    3  O   UNL     1      -2.897   4.889 -32.895  1.00  0.00    -0.294 OA
HETATM    4  C   UNL     1      -2.637   3.966 -31.917  1.00  0.00     0.180 A 
HETATM    5  N   UNL     1      -1.482   4.145 -31.302  1.00  0.00    -0.224 NA
HETATM    6  C   UNL     1      -0.968   5.292 -31.876  1.00  0.00     0.084 A 
ENDROOT
BRANCH   4   7
HETATM    7  C   UNL     1      -3.663   2.956 -31.674  1.00  0.00     0.019 A 
HETATM    8  C   UNL     1      -3.622   1.697 -32.299  1.00  0.00     0.045 A 
HETATM    9  C   UNL     1      -4.647   0.764 -32.107  1.00  0.00     0.035 A 
HETATM   10  C   UNL     1      -5.712   1.089 -31.259  1.00  0.00     0.029 A 
HETATM   11  C   UNL     1      -5.761   2.328 -30.622  1.00  0.00     0.003 A 
HETATM   12  C   UNL     1      -4.745   3.260 -30.836  1.00  0.00     0.016 A 
BRANCH   9  13
HETATM   13  N   UNL     1      -4.696  -0.490 -32.742  1.00  0.00    -0.325 N 
HETATM   14  C   UNL     1      -5.454  -0.869 -33.836  1.00  0.00     0.245 C 
HETATM   15  O   UNL     1      -6.185  -0.155 -34.515  1.00  0.00    -0.271 OA
HETATM   16  H   UNL     1      -4.153  -1.244 -32.327  1.00  0.00     0.169 HD
BRANCH  14  17
HETATM   17  C   UNL     1      -5.256  -2.352 -34.176  1.00  0.00     0.270 C 
BRANCH  17  18
HETATM   18  O   UNL     1      -6.463  -3.006 -34.568  1.00  0.00    -0.387 OA
HETATM   19  C   UNL     1      -6.205  -4.215 -35.279  1.00  0.00     0.202 C 
ENDBRANCH  17  18
ENDBRANCH  14  17
ENDBRANCH   9  13
ENDBRANCH   4   7
BRANCH   6  20
HETATM   20  C   UNL     1       0.296   5.899 -31.390  1.00  0.00     0.185 C 
BRANCH  20  21
HETATM   21  N   UNL     1       0.062   6.578 -30.141  1.00  0.00    -0.351 N 
HETATM   22  C   UNL     1       0.495   6.077 -28.934  1.00  0.00     0.258 C 
HETATM   23  O   UNL     1       1.074   4.995 -28.863  1.00  0.00    -0.267 OA
HETATM   24  H   UNL     1      -0.501   7.418 -30.148  1.00  0.00     0.163 HD
BRANCH  22  25
HETATM   25  C   UNL     1       0.242   6.912 -27.767  1.00  0.00     0.073 A 
HETATM   26  S   UNL     1      -1.326   7.133 -27.110  1.00  0.00    -0.087 SA
HETATM   27  C   UNL     1      -0.766   8.230 -25.922  1.00  0.00     0.007 A 
HETATM   28  C   UNL     1       0.602   8.403 -26.004  1.00  0.00     0.018 A 
HETATM   29  C   UNL     1       1.180   7.645 -27.061  1.00  0.00     0.026 A 
BRANCH  27  30
HETATM   30  C   UNL     1      -1.720   8.869 -24.964  1.00  0.00     0.213 C 
BRANCH  30  31
HETATM   31  O   UNL     1      -2.769   7.927 -24.747  1.00  0.00    -0.391 OA
HETATM   32  C   UNL     1      -4.043   8.553 -24.745  1.00  0.00     0.201 C 
ENDBRANCH  30  31
ENDBRANCH  27  30
ENDBRANCH  22  25
ENDBRANCH  20  21
ENDBRANCH   6  20
TORSDOF 9
ENDMDL
MODEL 2
REMARK VINA RESULT:      -7.4      1.880      2.095
REMARK  9 active torsions:
REMARK  status: ('A' for Active; 'I' for Inactive)
REMARK    1  A    between atoms: C_4  and  C_5 
REMARK    2  A    between atoms: C_7  and  N_8 
REMARK       I    between atoms: N_8  and  C_9 
REMARK    3  A    between atoms: C_9  and  C_10 
REMARK    4  A    between atoms: C_10  and  O_11 
REMARK    5  A    between atoms: C_18  and  C_19 
REMARK    6  A    between atoms: C_19  and  N_20 
REMARK       I    between atoms: N_20  and  C_21 
REMARK    7  A    between atoms: C_21  and  C_22 
REMARK    8  A    between atoms: C_24  and  C_25 
REMARK    9  A    between atoms: C_25  and  O_26 
ROOT
HETATM    1  C   UNL     1      -1.357   5.325 -34.510  1.00  0.00     0.079 C 
HETATM    2  C   UNL     1      -2.060   4.957 -33.268  1.00  0.00     0.078 A 
HETATM    3  O   UNL     1      -2.589   3.700 -33.196  1.00  0.00    -0.294 OA
HETATM    4  C   UNL     1      -3.179   3.647 -31.961  1.00  0.00     0.180 A 
HETATM    5  N   UNL     1      -3.038   4.751 -31.249  1.00  0.00    -0.224 NA
HETATM    6  C   UNL     1      -2.356   5.610 -32.090  1.00  0.00     0.084 A 
ENDROOT
BRANCH   4   7
HETATM    7  C   UNL     1      -3.891   2.418 -31.623  1.00  0.00     0.019 A 
HETATM    8  C   UNL     1      -3.703   1.230 -32.353  1.00  0.00     0.045 A 
HETATM    9  C   UNL     1      -4.441   0.079 -32.059  1.00  0.00     0.035 A 
HETATM   10  C   UNL     1      -5.359   0.112 -31.002  1.00  0.00     0.029 A 
HETATM   11  C   UNL     1      -5.547   1.277 -30.260  1.00  0.00     0.003 A 
HETATM   12  C   UNL     1      -4.823   2.426 -30.575  1.00  0.00     0.016 A 
BRANCH   9  13
HETATM   13  N   UNL     1      -4.343  -1.123 -32.782  1.00  0.00    -0.325 N 
HETATM   14  C   UNL     1      -5.147  -1.570 -33.817  1.00  0.00     0.245 C 
HETATM   15  O   UNL     1      -6.067  -0.964 -34.355  1.00  0.00    -0.271 OA
HETATM   16  H   UNL     1      -3.630  -1.786 -32.488  1.00  0.00     0.169 HD
BRANCH  14  17
HETATM   17  C   UNL     1      -4.731  -2.969 -34.292  1.00  0.00     0.270 C 
BRANCH  17  18
HETATM   18  O   UNL     1      -5.485  -3.428 -35.415  1.00  0.00    -0.387 OA
HETATM   19  C   UNL     1      -6.342  -4.514 -35.069  1.00  0.00     0.202 C 
ENDBRANCH  17  18
ENDBRANCH  14  17
ENDBRANCH   9  13
ENDBRANCH   4   7
BRANCH   6  20
HETATM   20  C   UNL     1      -2.078   7.014 -31.700  1.00  0.00     0.185 C 
BRANCH  20  21
HETATM   21  N   UNL     1      -1.554   7.053 -30.358  1.00  0.00    -0.351 N 
HETATM   22  C   UNL     1      -0.205   7.104 -30.091  1.00  0.00     0.258 C 
HETATM   23  O   UNL     1       0.626   7.079 -30.997  1.00  0.00    -0.267 OA
HETATM   24  H   UNL     1      -2.203   6.971 -29.587  1.00  0.00     0.163 HD
BRANCH  22  25
HETATM   25  C   UNL     1       0.165   7.209 -28.686  1.00  0.00     0.073 A 
HETATM   26  S   UNL     1       1.312   8.346 -28.114  1.00  0.00    -0.087 SA
HETATM   27  C   UNL     1       1.213   7.765 -26.507  1.00  0.00     0.007 A 
HETATM   28  C   UNL     1       0.296   6.739 -26.401  1.00  0.00     0.018 A 
HETATM   29  C   UNL     1      -0.307   6.422 -27.651  1.00  0.00     0.026 A 
BRANCH  27  30
HETATM   30  C   UNL     1       2.059   8.362 -25.428  1.00  0.00     0.213 C 
BRANCH  30  31
HETATM   31  O   UNL     1       1.368   9.520 -24.963  1.00  0.00    -0.391 OA
HETATM   32  C   UNL     1       1.551   9.716 -23.570  1.00  0.00     0.201 C 
ENDBRANCH  30  31
ENDBRANCH  27  30
ENDBRANCH  22  25
ENDBRANCH  20  21
ENDBRANCH   6  20
TORSDOF 9
ENDMDL
MODEL 3
REMARK VINA RESULT:      -7.3      4.208     10.385
REMARK  9 active torsions:
REMARK  status: ('A' for Active; 'I' for Inactive)
REMARK    1  A    between atoms: C_4  and  C_5 
REMARK    2  A    between atoms: C_7  and  N_8 
REMARK       I    between atoms: N_8  and  C_9 
REMARK    3  A    between atoms: C_9  and  C_10 
REMARK    4  A    between atoms: C_10  and  O_11 
REMARK    5  A    between atoms: C_18  and  C_19 
REMARK    6  A    between atoms: C_19  and  N_20 
REMARK       I    between atoms: N_20  and  C_21 
REMARK    7  A    between atoms: C_21  and  C_22 
REMARK    8  A    between atoms: C_24  and  C_25 
REMARK    9  A    between atoms: C_25  and  O_26 
ROOT
HETATM    1  C   UNL     1      -4.194  -0.552 -31.943  1.00  0.00     0.079 C 
HETATM    2  C   UNL     1      -4.237   0.885 -31.621  1.00  0.00     0.078 A 
HETATM    3  O   UNL     1      -3.254   1.674 -32.147  1.00  0.00    -0.294 OA
HETATM    4  C   UNL     1      -3.536   2.931 -31.679  1.00  0.00     0.180 A 
HETATM    5  N   UNL     1      -4.624   2.995 -30.932  1.00  0.00    -0.224 NA
HETATM    6  C   UNL     1      -5.060   1.686 -30.858  1.00  0.00     0.084 A 
ENDROOT
BRANCH   4   7
HETATM    7  C   UNL     1      -2.601   3.993 -32.037  1.00  0.00     0.019 A 
HETATM    8  C   UNL     1      -1.979   4.790 -31.059  1.00  0.00     0.045 A 
HETATM    9  C   UNL     1      -1.137   5.846 -31.420  1.00  0.00     0.035 A 
HETATM   10  C   UNL     1      -0.895   6.090 -32.776  1.00  0.00     0.029 A 
HETATM   11  C   UNL     1      -1.494   5.302 -33.759  1.00  0.00     0.003 A 
HETATM   12  C   UNL     1      -2.349   4.264 -33.390  1.00  0.00     0.016 A 
BRANCH   9  13
HETATM   13  N   UNL     1      -0.526   6.714 -30.496  1.00  0.00    -0.325 N 
HETATM   14  C   UNL     1       0.335   6.397 -29.460  1.00  0.00     0.245 C 
HETATM   15  O   UNL     1       0.793   5.292 -29.189  1.00  0.00    -0.271 OA
HETATM   16  H   UNL     1      -0.778   7.698 -30.545  1.00  0.00     0.169 HD
BRANCH  14  17
HETATM   17  C   UNL     1       0.728   7.639 -28.650  1.00  0.00     0.270 C 
BRANCH  17  18
HETATM   18  O   UNL     1       1.260   7.326 -27.362  1.00  0.00    -0.387 OA
HETATM   19  C   UNL     1       0.264   7.407 -26.344  1.00  0.00     0.202 C 
ENDBRANCH  17  18
ENDBRANCH  14  17
ENDBRANCH   9  13
ENDBRANCH   4   7
BRANCH   6  20
HETATM   20  C   UNL     1      -6.221   1.304 -30.016  1.00  0.00     0.185 C 
BRANCH  20  21
HETATM   21  N   UNL     1      -7.378   1.091 -30.849  1.00  0.00    -0.351 N 
HETATM   22  C   UNL     1      -8.273   2.093 -31.145  1.00  0.00     0.258 C 
HETATM   23  O   UNL     1      -8.146   3.221 -30.673  1.00  0.00    -0.267 OA
HETATM   24  H   UNL     1      -7.572   0.151 -31.169  1.00  0.00     0.163 HD
BRANCH  22  25
HETATM   25  C   UNL     1      -9.354   1.738 -32.055  1.00  0.00     0.073 A 
HETATM   26  S   UNL     1     -10.492   2.882 -32.631  1.00  0.00    -0.087 SA
HETATM   27  C   UNL     1     -11.375   1.697 -33.493  1.00  0.00     0.007 A 
HETATM   28  C   UNL     1     -10.793   0.451 -33.370  1.00  0.00     0.018 A 
HETATM   29  C   UNL     1      -9.632   0.475 -32.547  1.00  0.00     0.026 A 
BRANCH  27  30
HETATM   30  C   UNL     1     -12.609   2.068 -34.251  1.00  0.00     0.213 C 
BRANCH  30  31
HETATM   31  O   UNL     1     -13.708   1.864 -33.365  1.00  0.00    -0.391 OA
HETATM   32  C   UNL     1     -14.513   0.768 -33.772  1.00  0.00     0.201 C 
ENDBRANCH  30  31
ENDBRANCH  27  30
ENDBRANCH  22  25
ENDBRANCH  20  21
ENDBRANCH   6  20
TORSDOF 9
ENDMDL
MODEL 4
REMARK VINA RESULT:      -7.3      2.994     10.618
REMARK  9 active torsions:
REMARK  status: ('A' for Active; 'I' for Inactive)
REMARK    1  A    between atoms: C_4  and  C_5 
REMARK    2  A    between atoms: C_7  and  N_8 
REMARK       I    between atoms: N_8  and  C_9 
REMARK    3  A    between atoms: C_9  and  C_10 
REMARK    4  A    between atoms: C_10  and  O_11 
REMARK    5  A    between atoms: C_18  and  C_19 
REMARK    6  A    between atoms: C_19  and  N_20 
REMARK       I    between atoms: N_20  and  C_21 
REMARK    7  A    between atoms: C_21  and  C_22 
REMARK    8  A    between atoms: C_24  and  C_25 
REMARK    9  A    between atoms: C_25  and  O_26 
ROOT
HETATM    1  C   UNL     1      -6.845   2.943 -30.056  1.00  0.00     0.079 C 
HETATM    2  C   UNL     1      -5.945   3.159 -31.201  1.00  0.00     0.078 A 
HETATM    3  O   UNL     1      -4.834   3.926 -30.990  1.00  0.00    -0.294 OA
HETATM    4  C   UNL     1      -4.206   3.962 -32.206  1.00  0.00     0.180 A 
HETATM    5  N   UNL     1      -4.814   3.262 -33.147  1.00  0.00    -0.224 NA
HETATM    6  C   UNL     1      -5.947   2.774 -32.525  1.00  0.00     0.084 A 
ENDROOT
BRANCH   4   7
HETATM    7  C   UNL     1      -2.997   4.776 -32.300  1.00  0.00     0.019 A 
HETATM    8  C   UNL     1      -2.384   5.322 -31.158  1.00  0.00     0.045 A 
HETATM    9  C   UNL     1      -1.265   6.153 -31.269  1.00  0.00     0.035 A 
HETATM   10  C   UNL     1      -0.739   6.419 -32.539  1.00  0.00     0.029 A 
HETATM   11  C   UNL     1      -1.328   5.875 -33.680  1.00  0.00     0.003 A 
HETATM   12  C   UNL     1      -2.456   5.065 -33.561  1.00  0.00     0.016 A 
BRANCH   9  13
HETATM   13  N   UNL     1      -0.636   6.774 -30.175  1.00  0.00    -0.325 N 
HETATM   14  C   UNL     1       0.258   6.224 -29.272  1.00  0.00     0.245 C 
HETATM   15  O   UNL     1       0.734   5.093 -29.297  1.00  0.00    -0.271 OA
HETATM   16  H   UNL     1      -0.898   7.736 -29.972  1.00  0.00     0.169 HD
BRANCH  14  17
HETATM   17  C   UNL     1       0.662   7.232 -28.190  1.00  0.00     0.270 C 
BRANCH  17  18
HETATM   18  O   UNL     1      -0.128   8.422 -28.206  1.00  0.00    -0.387 OA
HETATM   19  C   UNL     1       0.275   9.340 -27.192  1.00  0.00     0.202 C 
ENDBRANCH  17  18
ENDBRANCH  14  17
ENDBRANCH   9  13
ENDBRANCH   4   7
BRANCH   6  20
HETATM   20  C   UNL     1      -6.969   2.003 -33.276  1.00  0.00     0.185 C 
BRANCH  20  21
HETATM   21  N   UNL     1      -6.571   0.622 -33.364  1.00  0.00    -0.351 N 
HETATM   22  C   UNL     1      -6.607  -0.086 -34.544  1.00  0.00     0.258 C 
HETATM   23  O   UNL     1      -7.024   0.425 -35.581  1.00  0.00    -0.267 OA
HETATM   24  H   UNL     1      -6.321   0.138 -32.511  1.00  0.00     0.163 HD
BRANCH  22  25
HETATM   25  C   UNL     1      -6.109  -1.454 -34.486  1.00  0.00     0.073 A 
HETATM   26  S   UNL     1      -4.512  -1.836 -33.995  1.00  0.00    -0.087 SA
HETATM   27  C   UNL     1      -4.733  -3.508 -34.282  1.00  0.00     0.007 A 
HETATM   28  C   UNL     1      -6.016  -3.777 -34.716  1.00  0.00     0.018 A 
HETATM   29  C   UNL     1      -6.806  -2.598 -34.830  1.00  0.00     0.026 A 
BRANCH  27  30
HETATM   30  C   UNL     1      -3.613  -4.474 -34.061  1.00  0.00     0.213 C 
BRANCH  30  31
HETATM   31  O   UNL     1      -3.628  -4.804 -32.674  1.00  0.00    -0.391 OA
HETATM   32  C   UNL     1      -2.941  -3.835 -31.897  1.00  0.00     0.201 C 
ENDBRANCH  30  31
ENDBRANCH  27  30
ENDBRANCH  22  25
ENDBRANCH  20  21
ENDBRANCH   6  20
TORSDOF 9
ENDMDL
MODEL 5
REMARK VINA RESULT:      -7.2      4.232     11.782
REMARK  9 active torsions:
REMARK  status: ('A' for Active; 'I' for Inactive)
REMARK    1  A    between atoms: C_4  and  C_5 
REMARK    2  A    between atoms: C_7  and  N_8 
REMARK       I    between atoms: N_8  and  C_9 
REMARK    3  A    between atoms: C_9  and  C_10 
REMARK    4  A    between atoms: C_10  and  O_11 
REMARK    5  A    between atoms: C_18  and  C_19 
REMARK    6  A    between atoms: C_19  and  N_20 
REMARK       I    between atoms: N_20  and  C_21 
REMARK    7  A    between atoms: C_21  and  C_22 
REMARK    8  A    between atoms: C_24  and  C_25 
REMARK    9  A    between atoms: C_25  and  O_26 
ROOT
HETATM    1  C   UNL     1      -2.382   7.135 -27.510  1.00  0.00     0.079 C 
HETATM    2  C   UNL     1      -0.966   7.224 -27.113  1.00  0.00     0.078 A 
HETATM    3  O   UNL     1      -0.630   8.179 -26.196  1.00  0.00    -0.294 OA
HETATM    4  C   UNL     1       0.722   8.038 -26.033  1.00  0.00     0.180 A 
HETATM    5  N   UNL     1       1.251   7.060 -26.747  1.00  0.00    -0.224 NA
HETATM    6  C   UNL     1       0.187   6.556 -27.470  1.00  0.00     0.084 A 
ENDROOT
BRANCH   4   7
HETATM    7  C   UNL     1       1.381   8.985 -25.138  1.00  0.00     0.019 A 
HETATM    8  C   UNL     1       2.782   9.087 -25.072  1.00  0.00     0.045 A 
HETATM    9  C   UNL     1       3.400   9.951 -24.162  1.00  0.00     0.035 A 
HETATM   10  C   UNL     1       2.602  10.742 -23.328  1.00  0.00     0.029 A 
HETATM   11  C   UNL     1       1.211  10.663 -23.389  1.00  0.00     0.003 A 
HETATM   12  C   UNL     1       0.605   9.782 -24.285  1.00  0.00     0.016 A 
BRANCH   9  13
HETATM   13  N   UNL     1       4.793  10.063 -24.006  1.00  0.00    -0.325 N 
HETATM   14  C   UNL     1       5.662   9.174 -23.397  1.00  0.00     0.245 C 
HETATM   15  O   UNL     1       5.391   8.071 -22.935  1.00  0.00    -0.271 OA
HETATM   16  H   UNL     1       5.230  10.923 -24.327  1.00  0.00     0.169 HD
BRANCH  14  17
HETATM   17  C   UNL     1       7.101   9.706 -23.389  1.00  0.00     0.270 C 
BRANCH  17  18
HETATM   18  O   UNL     1       8.012   8.877 -24.113  1.00  0.00    -0.387 OA
HETATM   19  C   UNL     1       8.954   8.245 -23.250  1.00  0.00     0.202 C 
ENDBRANCH  17  18
ENDBRANCH  14  17
ENDBRANCH   9  13
ENDBRANCH   4   7
BRANCH   6  20
HETATM   20  C   UNL     1       0.377   5.490 -28.484  1.00  0.00     0.185 C 
BRANCH  20  21
HETATM   21  N   UNL     1      -0.343   5.826 -29.686  1.00  0.00    -0.351 N 
HETATM   22  C   UNL     1       0.018   5.345 -30.924  1.00  0.00     0.258 C 
HETATM   23  O   UNL     1       1.008   4.630 -31.068  1.00  0.00    -0.267 OA
HETATM   24  H   UNL     1      -1.099   6.494 -29.622  1.00  0.00     0.163 HD
BRANCH  22  25
HETATM   25  C   UNL     1      -0.849   5.720 -32.033  1.00  0.00     0.073 A 
HETATM   26  S   UNL     1      -2.021   4.656 -32.691  1.00  0.00    -0.087 SA
HETATM   27  C   UNL     1      -2.481   5.775 -33.901  1.00  0.00     0.007 A 
HETATM   28  C   UNL     1      -1.774   6.956 -33.787  1.00  0.00     0.018 A 
HETATM   29  C   UNL     1      -0.840   6.925 -32.713  1.00  0.00     0.026 A 
BRANCH  27  30
HETATM   30  C   UNL     1      -3.527   5.421 -34.910  1.00  0.00     0.213 C 
BRANCH  30  31
HETATM   31  O   UNL     1      -4.787   5.573 -34.259  1.00  0.00    -0.391 OA
HETATM   32  C   UNL     1      -5.544   4.373 -34.297  1.00  0.00     0.201 C 
ENDBRANCH  30  31
ENDBRANCH  27  30
ENDBRANCH  22  25
ENDBRANCH  20  21
ENDBRANCH   6  20
TORSDOF 9
ENDMDL
MODEL 6
REMARK VINA RESULT:      -7.2      2.958     10.517
REMARK  9 active torsions:
REMARK  status: ('A' for Active; 'I' for Inactive)
REMARK    1  A    between atoms: C_4  and  C_5 
REMARK    2  A    between atoms: C_7  and  N_8 
REMARK       I    between atoms: N_8  and  C_9 
REMARK    3  A    between atoms: C_9  and  C_10 
REMARK    4  A    between atoms: C_10  and  O_11 
REMARK    5  A    between atoms: C_18  and  C_19 
REMARK    6  A    between atoms: C_19  and  N_20 
REMARK       I    between atoms: N_20  and  C_21 
REMARK    7  A    between atoms: C_21  and  C_22 
REMARK    8  A    between atoms: C_24  and  C_25 
REMARK    9  A    between atoms: C_25  and  O_26 
ROOT
HETATM    1  C   UNL     1      -3.654   5.260 -35.407  1.00  0.00     0.079 C 
HETATM    2  C   UNL     1      -3.687   5.544 -33.962  1.00  0.00     0.078 A 
HETATM    3  O   UNL     1      -2.517   5.926 -33.371  1.00  0.00    -0.294 OA
HETATM    4  C   UNL     1      -2.841   6.107 -32.052  1.00  0.00     0.180 A 
HETATM    5  N   UNL     1      -4.116   5.898 -31.779  1.00  0.00    -0.224 NA
HETATM    6  C   UNL     1      -4.660   5.501 -32.985  1.00  0.00     0.084 A 
ENDROOT
BRANCH   4   7
HETATM    7  C   UNL     1      -1.752   6.467 -31.149  1.00  0.00     0.019 A 
HETATM    8  C   UNL     1      -1.996   6.886 -29.828  1.00  0.00     0.045 A 
HETATM    9  C   UNL     1      -0.947   7.290 -28.996  1.00  0.00     0.035 A 
HETATM   10  C   UNL     1       0.364   7.248 -29.484  1.00  0.00     0.029 A 
HETATM   11  C   UNL     1       0.624   6.823 -30.787  1.00  0.00     0.003 A 
HETATM   12  C   UNL     1      -0.430   6.442 -31.617  1.00  0.00     0.016 A 
BRANCH   9  13
HETATM   13  N   UNL     1      -1.125   7.771 -27.686  1.00  0.00    -0.325 N 
HETATM   14  C   UNL     1      -1.260   9.083 -27.264  1.00  0.00     0.245 C 
HETATM   15  O   UNL     1      -1.323  10.085 -27.969  1.00  0.00    -0.271 OA
HETATM   16  H   UNL     1      -1.101   7.089 -26.932  1.00  0.00     0.169 HD
BRANCH  14  17
HETATM   17  C   UNL     1      -1.375   9.177 -25.737  1.00  0.00     0.270 C 
BRANCH  17  18
HETATM   18  O   UNL     1      -2.726   9.175 -25.274  1.00  0.00    -0.387 OA
HETATM   19  C   UNL     1      -2.856   8.499 -24.025  1.00  0.00     0.202 C 
ENDBRANCH  17  18
ENDBRANCH  14  17
ENDBRANCH   9  13
ENDBRANCH   4   7
BRANCH   6  20
HETATM   20  C   UNL     1      -6.076   5.072 -33.091  1.00  0.00     0.185 C 
BRANCH  20  21
HETATM   21  N   UNL     1      -6.142   3.742 -33.642  1.00  0.00    -0.351 N 
HETATM   22  C   UNL     1      -6.169   2.614 -32.853  1.00  0.00     0.258 C 
HETATM   23  O   UNL     1      -6.098   2.690 -31.628  1.00  0.00    -0.267 OA
HETATM   24  H   UNL     1      -6.097   3.635 -34.646  1.00  0.00     0.163 HD
BRANCH  22  25
HETATM   25  C   UNL     1      -6.306   1.345 -33.556  1.00  0.00     0.073 A 
HETATM   26  S   UNL     1      -5.443  -0.063 -33.097  1.00  0.00    -0.087 SA
HETATM   27  C   UNL     1      -6.079  -0.978 -34.396  1.00  0.00     0.007 A 
HETATM   28  C   UNL     1      -6.962  -0.231 -35.151  1.00  0.00     0.018 A 
HETATM   29  C   UNL     1      -7.093   1.101 -34.667  1.00  0.00     0.026 A 
BRANCH  27  30
HETATM   30  C   UNL     1      -5.666  -2.401 -34.600  1.00  0.00     0.213 C 
BRANCH  30  31
HETATM   31  O   UNL     1      -6.856  -3.134 -34.882  1.00  0.00    -0.391 OA
HETATM   32  C   UNL     1      -6.583  -4.507 -35.116  1.00  0.00     0.201 C 
ENDBRANCH  30  31
ENDBRANCH  27  30
ENDBRANCH  22  25
ENDBRANCH  20  21
ENDBRANCH   6  20
TORSDOF 9
ENDMDL
MODEL 7
REMARK VINA RESULT:      -7.1      5.061      7.787
REMARK  9 active torsions:
REMARK  status: ('A' for Active; 'I' for Inactive)
REMARK    1  A    between atoms: C_4  and  C_5 
REMARK    2  A    between atoms: C_7  and  N_8 
REMARK       I    between atoms: N_8  and  C_9 
REMARK    3  A    between atoms: C_9  and  C_10 
REMARK    4  A    between atoms: C_10  and  O_11 
REMARK    5  A    between atoms: C_18  and  C_19 
REMARK    6  A    between atoms: C_19  and  N_20 
REMARK       I    between atoms: N_20  and  C_21 
REMARK    7  A    between atoms: C_21  and  C_22 
REMARK    8  A    between atoms: C_24  and  C_25 
REMARK    9  A    between atoms: C_25  and  O_26 
ROOT
HETATM    1  C   UNL     1      -5.245  -0.759 -31.916  1.00  0.00     0.079 C 
HETATM    2  C   UNL     1      -6.320   0.220 -31.681  1.00  0.00     0.078 A 
HETATM    3  O   UNL     1      -7.483   0.052 -32.377  1.00  0.00    -0.294 OA
HETATM    4  C   UNL     1      -8.277   1.093 -31.974  1.00  0.00     0.180 A 
HETATM    5  N   UNL     1      -7.719   1.876 -31.069  1.00  0.00    -0.224 NA
HETATM    6  C   UNL     1      -6.453   1.349 -30.900  1.00  0.00     0.084 A 
ENDROOT
BRANCH   4   7
HETATM    7  C   UNL     1      -9.587   1.208 -32.610  1.00  0.00     0.019 A 
HETATM    8  C   UNL     1     -10.152   2.459 -32.915  1.00  0.00     0.045 A 
HETATM    9  C   UNL     1     -11.435   2.556 -33.463  1.00  0.00     0.035 A 
HETATM   10  C   UNL     1     -12.149   1.382 -33.733  1.00  0.00     0.029 A 
HETATM   11  C   UNL     1     -11.598   0.133 -33.448  1.00  0.00     0.003 A 
HETATM   12  C   UNL     1     -10.326   0.048 -32.882  1.00  0.00     0.016 A 
BRANCH   9  13
HETATM   13  N   UNL     1     -12.081   3.774 -33.742  1.00  0.00    -0.325 N 
HETATM   14  C   UNL     1     -12.476   4.274 -34.970  1.00  0.00     0.245 C 
HETATM   15  O   UNL     1     -12.402   3.712 -36.058  1.00  0.00    -0.271 OA
HETATM   16  H   UNL     1     -12.240   4.406 -32.961  1.00  0.00     0.169 HD
BRANCH  14  17
HETATM   17  C   UNL     1     -13.096   5.671 -34.839  1.00  0.00     0.270 C 
BRANCH  17  18
HETATM   18  O   UNL     1     -12.142   6.725 -34.974  1.00  0.00    -0.387 OA
HETATM   19  C   UNL     1     -12.365   7.494 -36.154  1.00  0.00     0.202 C 
ENDBRANCH  17  18
ENDBRANCH  14  17
ENDBRANCH   9  13
ENDBRANCH   4   7
BRANCH   6  20
HETATM   20  C   UNL     1      -5.452   2.005 -30.024  1.00  0.00     0.185 C 
BRANCH  20  21
HETATM   21  N   UNL     1      -4.733   3.007 -30.769  1.00  0.00    -0.351 N 
HETATM   22  C   UNL     1      -3.483   2.781 -31.297  1.00  0.00     0.258 C 
HETATM   23  O   UNL     1      -2.899   1.714 -31.121  1.00  0.00    -0.267 OA
HETATM   24  H   UNL     1      -5.137   3.931 -30.845  1.00  0.00     0.163 HD
BRANCH  22  25
HETATM   25  C   UNL     1      -2.914   3.869 -32.083  1.00  0.00     0.073 A 
HETATM   26  S   UNL     1      -1.786   4.986 -31.437  1.00  0.00    -0.087 SA
HETATM   27  C   UNL     1      -1.722   5.890 -32.888  1.00  0.00     0.007 A 
HETATM   28  C   UNL     1      -2.524   5.331 -33.863  1.00  0.00     0.018 A 
HETATM   29  C   UNL     1      -3.206   4.170 -33.401  1.00  0.00     0.026 A 
BRANCH  27  30
HETATM   30  C   UNL     1      -0.873   7.117 -32.984  1.00  0.00     0.213 C 
BRANCH  30  31
HETATM   31  O   UNL     1      -1.766   8.229 -33.004  1.00  0.00    -0.391 OA
HETATM   32  C   UNL     1      -2.078   8.674 -31.693  1.00  0.00     0.201 C 
ENDBRANCH  30  31
ENDBRANCH  27  30
ENDBRANCH  22  25
ENDBRANCH  20  21
ENDBRANCH   6  20
TORSDOF 9
ENDMDL
MODEL 8
REMARK VINA RESULT:      -7.0      3.020     10.797
REMARK  9 active torsions:
REMARK  status: ('A' for Active; 'I' for Inactive)
REMARK    1  A    between atoms: C_4  and  C_5 
REMARK    2  A    between atoms: C_7  and  N_8 
REMARK       I    between atoms: N_8  and  C_9 
REMARK    3  A    between atoms: C_9  and  C_10 
REMARK    4  A    between atoms: C_10  and  O_11 
REMARK    5  A    between atoms: C_18  and  C_19 
REMARK    6  A    between atoms: C_19  and  N_20 
REMARK       I    between atoms: N_20  and  C_21 
REMARK    7  A    between atoms: C_21  and  C_22 
REMARK    8  A    between atoms: C_24  and  C_25 
REMARK    9  A    between atoms: C_25  and  O_26 
ROOT
HETATM    1  C   UNL     1      -6.833   5.379 -30.696  1.00  0.00     0.079 C 
HETATM    2  C   UNL     1      -5.517   5.366 -31.360  1.00  0.00     0.078 A 
HETATM    3  O   UNL     1      -4.432   5.711 -30.606  1.00  0.00    -0.294 OA
HETATM    4  C   UNL     1      -3.372   5.623 -31.470  1.00  0.00     0.180 A 
HETATM    5  N   UNL     1      -3.702   5.227 -32.686  1.00  0.00    -0.224 NA
HETATM    6  C   UNL     1      -5.076   5.094 -32.638  1.00  0.00     0.084 A 
ENDROOT
BRANCH   4   7
HETATM    7  C   UNL     1      -2.062   6.001 -30.948  1.00  0.00     0.019 A 
HETATM    8  C   UNL     1      -1.926   6.729 -29.752  1.00  0.00     0.045 A 
HETATM    9  C   UNL     1      -0.668   7.141 -29.299  1.00  0.00     0.035 A 
HETATM   10  C   UNL     1       0.468   6.796 -30.040  1.00  0.00     0.029 A 
HETATM   11  C   UNL     1       0.351   6.063 -31.221  1.00  0.00     0.003 A 
HETATM   12  C   UNL     1      -0.909   5.676 -31.676  1.00  0.00     0.016 A 
BRANCH   9  13
HETATM   13  N   UNL     1      -0.465   7.916 -28.142  1.00  0.00    -0.325 N 
HETATM   14  C   UNL     1      -0.275   7.483 -26.842  1.00  0.00     0.245 C 
HETATM   15  O   UNL     1      -0.174   6.324 -26.454  1.00  0.00    -0.271 OA
HETATM   16  H   UNL     1      -0.514   8.926 -28.245  1.00  0.00     0.169 HD
BRANCH  14  17
HETATM   17  C   UNL     1      -0.149   8.660 -25.866  1.00  0.00     0.270 C 
BRANCH  17  18
HETATM   18  O   UNL     1       1.186   9.154 -25.750  1.00  0.00    -0.387 OA
HETATM   19  C   UNL     1       1.522   9.457 -24.398  1.00  0.00     0.202 C 
ENDBRANCH  17  18
ENDBRANCH  14  17
ENDBRANCH   9  13
ENDBRANCH   4   7
BRANCH   6  20
HETATM   20  C   UNL     1      -5.863   4.753 -33.849  1.00  0.00     0.185 C 
BRANCH  20  21
HETATM   21  N   UNL     1      -5.844   3.328 -34.057  1.00  0.00    -0.351 N 
HETATM   22  C   UNL     1      -6.880   2.509 -33.671  1.00  0.00     0.258 C 
HETATM   23  O   UNL     1      -7.864   2.958 -33.087  1.00  0.00    -0.267 OA
HETATM   24  H   UNL     1      -5.006   2.909 -34.440  1.00  0.00     0.163 HD
BRANCH  22  25
HETATM   25  C   UNL     1      -6.742   1.099 -34.012  1.00  0.00     0.073 A 
HETATM   26  S   UNL     1      -5.492   0.112 -33.380  1.00  0.00    -0.087 SA
HETATM   27  C   UNL     1      -5.989  -1.249 -34.291  1.00  0.00     0.007 A 
HETATM   28  C   UNL     1      -7.112  -0.965 -35.042  1.00  0.00     0.018 A 
HETATM   29  C   UNL     1      -7.546   0.381 -34.880  1.00  0.00     0.026 A 
BRANCH  27  30
HETATM   30  C   UNL     1      -5.233  -2.536 -34.212  1.00  0.00     0.213 C 
BRANCH  30  31
HETATM   31  O   UNL     1      -5.624  -3.307 -35.347  1.00  0.00    -0.391 OA
HETATM   32  C   UNL     1      -6.243  -4.526 -34.965  1.00  0.00     0.201 C 
ENDBRANCH  30  31
ENDBRANCH  27  30
ENDBRANCH  22  25
ENDBRANCH  20  21
ENDBRANCH   6  20
TORSDOF 9
ENDMDL
MODEL 9
REMARK VINA RESULT:      -6.7      3.694     11.277
REMARK  9 active torsions:
REMARK  status: ('A' for Active; 'I' for Inactive)
REMARK    1  A    between atoms: C_4  and  C_5 
REMARK    2  A    between atoms: C_7  and  N_8 
REMARK       I    between atoms: N_8  and  C_9 
REMARK    3  A    between atoms: C_9  and  C_10 
REMARK    4  A    between atoms: C_10  and  O_11 
REMARK    5  A    between atoms: C_18  and  C_19 
REMARK    6  A    between atoms: C_19  and  N_20 
REMARK       I    between atoms: N_20  and  C_21 
REMARK    7  A    between atoms: C_21  and  C_22 
REMARK    8  A    between atoms: C_24  and  C_25 
REMARK    9  A    between atoms: C_25  and  O_26 
ROOT
HETATM    1  C   UNL     1      -2.311   7.675 -30.169  1.00  0.00     0.079 C 
HETATM    2  C   UNL     1      -1.093   7.425 -29.380  1.00  0.00     0.078 A 
HETATM    3  O   UNL     1      -0.763   8.346 -28.426  1.00  0.00    -0.294 OA
HETATM    4  C   UNL     1       0.395   7.869 -27.873  1.00  0.00     0.180 A 
HETATM    5  N   UNL     1       0.799   6.718 -28.381  1.00  0.00    -0.224 NA
HETATM    6  C   UNL     1      -0.125   6.443 -29.371  1.00  0.00     0.084 A 
ENDROOT
BRANCH   4   7
HETATM    7  C   UNL     1       1.025   8.694 -26.846  1.00  0.00     0.019 A 
HETATM    8  C   UNL     1       2.065   8.200 -26.038  1.00  0.00     0.045 A 
HETATM    9  C   UNL     1       2.614   8.980 -25.015  1.00  0.00     0.035 A 
HETATM   10  C   UNL     1       2.132  10.279 -24.817  1.00  0.00     0.029 A 
HETATM   11  C   UNL     1       1.110  10.788 -25.618  1.00  0.00     0.003 A 
HETATM   12  C   UNL     1       0.554   9.995 -26.622  1.00  0.00     0.016 A 
BRANCH   9  13
HETATM   13  N   UNL     1       3.616   8.531 -24.136  1.00  0.00    -0.325 N 
HETATM   14  C   UNL     1       3.566   8.428 -22.757  1.00  0.00     0.245 C 
HETATM   15  O   UNL     1       2.599   8.643 -22.033  1.00  0.00    -0.271 OA
HETATM   16  H   UNL     1       4.520   8.298 -24.541  1.00  0.00     0.169 HD
BRANCH  14  17
HETATM   17  C   UNL     1       4.901   7.946 -22.176  1.00  0.00     0.270 C 
BRANCH  17  18
HETATM   18  O   UNL     1       4.812   7.559 -20.804  1.00  0.00    -0.387 OA
HETATM   19  C   UNL     1       6.098   7.440 -20.202  1.00  0.00     0.202 C 
ENDBRANCH  17  18
ENDBRANCH  14  17
ENDBRANCH   9  13
ENDBRANCH   4   7
BRANCH   6  20
HETATM   20  C   UNL     1       0.024   5.266 -30.262  1.00  0.00     0.185 C 
BRANCH  20  21
HETATM   21  N   UNL     1      -1.275   4.798 -30.673  1.00  0.00    -0.351 N 
HETATM   22  C   UNL     1      -1.667   4.764 -31.992  1.00  0.00     0.258 C 
HETATM   23  O   UNL     1      -0.930   5.174 -32.887  1.00  0.00    -0.267 OA
HETATM   24  H   UNL     1      -1.946   4.551 -29.958  1.00  0.00     0.163 HD
BRANCH  22  25
HETATM   25  C   UNL     1      -2.985   4.202 -32.255  1.00  0.00     0.073 A 
HETATM   26  S   UNL     1      -3.572   2.806 -31.451  1.00  0.00    -0.087 SA
HETATM   27  C   UNL     1      -5.028   2.798 -32.350  1.00  0.00     0.007 A 
HETATM   28  C   UNL     1      -5.081   3.862 -33.228  1.00  0.00     0.018 A 
HETATM   29  C   UNL     1      -3.910   4.668 -33.172  1.00  0.00     0.026 A 
BRANCH  27  30
HETATM   30  C   UNL     1      -6.049   1.727 -32.135  1.00  0.00     0.213 C 
BRANCH  30  31
HETATM   31  O   UNL     1      -5.527   0.541 -32.732  1.00  0.00    -0.391 OA
HETATM   32  C   UNL     1      -5.633  -0.574 -31.860  1.00  0.00     0.201 C 
ENDBRANCH  30  31
ENDBRANCH  27  30
ENDBRANCH  22  25
ENDBRANCH  20  21
ENDBRANCH   6  20
TORSDOF 9
ENDMDL
MODEL 10
REMARK VINA RESULT:      -6.6      6.152      8.633
REMARK  9 active torsions:
REMARK  status: ('A' for Active; 'I' for Inactive)
REMARK    1  A    between atoms: C_4  and  C_5 
REMARK    2  A    between atoms: C_7  and  N_8 
REMARK       I    between atoms: N_8  and  C_9 
REMARK    3  A    between atoms: C_9  and  C_10 
REMARK    4  A    between atoms: C_10  and  O_11 
REMARK    5  A    between atoms: C_18  and  C_19 
REMARK    6  A    between atoms: C_19  and  N_20 
REMARK       I    between atoms: N_20  and  C_21 
REMARK    7  A    between atoms: C_21  and  C_22 
REMARK    8  A    between atoms: C_24  and  C_25 
REMARK    9  A    between atoms: C_25  and  O_26 
ROOT
HETATM    1  C   UNL     1      -7.128  -0.600 -33.944  1.00  0.00     0.079 C 
HETATM    2  C   UNL     1      -7.837   0.565 -33.389  1.00  0.00     0.078 A 
HETATM    3  O   UNL     1      -8.978   0.965 -34.024  1.00  0.00    -0.294 OA
HETATM    4  C   UNL     1      -9.405   2.054 -33.310  1.00  0.00     0.180 A 
HETATM    5  N   UNL     1      -8.644   2.347 -32.271  1.00  0.00    -0.224 NA
HETATM    6  C   UNL     1      -7.617   1.424 -32.333  1.00  0.00     0.084 A 
ENDROOT
BRANCH   4   7
HETATM    7  C   UNL     1     -10.595   2.741 -33.803  1.00  0.00     0.019 A 
HETATM    8  C   UNL     1     -11.838   2.621 -33.156  1.00  0.00     0.045 A 
HETATM    9  C   UNL     1     -12.984   3.232 -33.677  1.00  0.00     0.035 A 
HETATM   10  C   UNL     1     -12.875   3.993 -34.846  1.00  0.00     0.029 A 
HETATM   11  C   UNL     1     -11.648   4.133 -35.493  1.00  0.00     0.003 A 
HETATM   12  C   UNL     1     -10.515   3.502 -34.978  1.00  0.00     0.016 A 
BRANCH   9  13
HETATM   13  N   UNL     1     -14.266   3.108 -33.112  1.00  0.00    -0.325 N 
HETATM   14  C   UNL     1     -15.034   1.966 -32.969  1.00  0.00     0.245 C 
HETATM   15  O   UNL     1     -14.711   0.816 -33.245  1.00  0.00    -0.271 OA
HETATM   16  H   UNL     1     -14.727   3.964 -32.814  1.00  0.00     0.169 HD
BRANCH  14  17
HETATM   17  C   UNL     1     -16.404   2.279 -32.352  1.00  0.00     0.270 C 
BRANCH  17  18
HETATM   18  O   UNL     1     -16.560   3.654 -31.999  1.00  0.00    -0.387 OA
HETATM   19  C   UNL     1     -17.926   3.988 -31.762  1.00  0.00     0.202 C 
ENDBRANCH  17  18
ENDBRANCH  14  17
ENDBRANCH   9  13
ENDBRANCH   4   7
BRANCH   6  20
HETATM   20  C   UNL     1      -6.478   1.471 -31.384  1.00  0.00     0.185 C 
BRANCH  20  21
HETATM   21  N   UNL     1      -5.442   2.326 -31.908  1.00  0.00    -0.351 N 
HETATM   22  C   UNL     1      -5.074   3.502 -31.297  1.00  0.00     0.258 C 
HETATM   23  O   UNL     1      -5.646   3.902 -30.284  1.00  0.00    -0.267 OA
HETATM   24  H   UNL     1      -5.021   2.082 -32.795  1.00  0.00     0.163 HD
BRANCH  22  25
HETATM   25  C   UNL     1      -3.965   4.222 -31.909  1.00  0.00     0.073 A 
HETATM   26  S   UNL     1      -4.154   5.755 -32.651  1.00  0.00    -0.087 SA
HETATM   27  C   UNL     1      -2.515   5.816 -33.139  1.00  0.00     0.007 A 
HETATM   28  C   UNL     1      -1.824   4.698 -32.716  1.00  0.00     0.018 A 
HETATM   29  C   UNL     1      -2.656   3.785 -32.008  1.00  0.00     0.026 A 
BRANCH  27  30
HETATM   30  C   UNL     1      -1.996   6.978 -33.924  1.00  0.00     0.213 C 
BRANCH  30  31
HETATM   31  O   UNL     1      -2.056   8.111 -33.060  1.00  0.00    -0.391 OA
HETATM   32  C   UNL     1      -1.196   7.963 -31.941  1.00  0.00     0.201 C 
ENDBRANCH  30  31
ENDBRANCH  27  30
ENDBRANCH  22  25
ENDBRANCH  20  21
ENDBRANCH   6  20
TORSDOF 9
ENDMDL
