MODEL 1
REMARK VINA RESULT:      -9.1      0.000      0.000
REMARK  4 active torsions:
REMARK  status: ('A' for Active; 'I' for Inactive)
REMARK    1  A    between atoms: O_2  and  C_3 
REMARK    2  A    between atoms: C_5  and  C_6 
REMARK    3  A    between atoms: C_10  and  C_11 
REMARK       I    between atoms: C_11  and  N_12 
REMARK    4  A    between atoms: N_12  and  N_13 
ROOT
HETATM    1  C   UNL     1      -7.488   2.005 -32.759  1.00  0.00     0.289 C 
HETATM    2  N   UNL     1      -7.279   0.978 -31.851  1.00  0.00    -0.241 N 
HETATM    3  O   UNL     1      -6.632   2.800 -33.129  1.00  0.00    -0.264 OA
HETATM    4  H   UNL     1      -8.007   0.296 -31.703  1.00  0.00     0.192 HD
ENDROOT
BRANCH   1   5
HETATM    5  C   UNL     1      -8.851   2.103 -33.226  1.00  0.00     0.121 A 
HETATM    6  N   UNL     1      -9.187   2.901 -34.283  1.00  0.00    -0.272 N 
HETATM    7  N   UNL     1     -10.502   2.930 -34.555  1.00  0.00    -0.174 NA
HETATM    8  H   UNL     1      -8.554   3.470 -34.840  1.00  0.00     0.189 HD
HETATM    9  C   UNL     1     -11.050   2.082 -33.671  1.00  0.00     0.089 A 
HETATM   10  C   UNL     1     -10.045   1.539 -32.822  1.00  0.00     0.071 A 
BRANCH   9  11
HETATM   11  C   UNL     1     -12.493   1.826 -33.630  1.00  0.00    -0.003 A 
HETATM   12  C   UNL     1     -13.329   2.618 -32.822  1.00  0.00     0.050 A 
HETATM   13  C   UNL     1     -14.701   2.366 -32.750  1.00  0.00     0.069 A 
HETATM   14  C   UNL     1     -15.243   1.316 -33.493  1.00  0.00     0.037 A 
HETATM   15  C   UNL     1     -14.431   0.529 -34.308  1.00  0.00     0.004 A 
HETATM   16  C   UNL     1     -13.061   0.784 -34.376  1.00  0.00     0.014 A 
BRANCH  13  17
HETATM   17  O   UNL     1     -15.608   3.058 -31.995  1.00  0.00    -0.356 OA
HETATM   18  C   UNL     1     -16.961   2.624 -32.065  1.00  0.00     0.210 C 
ENDBRANCH  13  17
ENDBRANCH   9  11
ENDBRANCH   1   5
BRANCH   2  19
HETATM   19  N   UNL     1      -6.028   0.678 -31.405  1.00  0.00    -0.165 NA
HETATM   20  C   UNL     1      -5.350  -0.231 -32.033  1.00  0.00     0.157 A 
HETATM   21  C   UNL     1      -3.857  -0.473 -31.733  1.00  0.00     0.277 A 
HETATM   22  C   UNL     1      -5.698  -1.185 -33.100  1.00  0.00     0.027 A 
HETATM   23  O   UNL     1      -3.190   0.075 -30.884  1.00  0.00    -0.266 OA
HETATM   24  N   UNL     1      -3.449  -1.415 -32.649  1.00  0.00    -0.321 N 
HETATM   25  C   UNL     1      -4.512  -1.839 -33.438  1.00  0.00     0.048 A 
HETATM   26  H   UNL     1      -2.503  -1.766 -32.682  1.00  0.00     0.169 HD
HETATM   27  C   UNL     1      -4.464  -2.811 -34.417  1.00  0.00     0.030 A 
HETATM   28  C   UNL     1      -5.661  -3.141 -35.056  1.00  0.00     0.002 A 
HETATM   29  C   UNL     1      -6.867  -2.516 -34.694  1.00  0.00     0.001 A 
HETATM   30  C   UNL     1      -6.897  -1.533 -33.698  1.00  0.00     0.016 A 
ENDBRANCH   2  19
TORSDOF 4
ENDMDL
MODEL 2
REMARK VINA RESULT:      -8.9      2.150      8.485
REMARK  4 active torsions:
REMARK  status: ('A' for Active; 'I' for Inactive)
REMARK    1  A    between atoms: O_2  and  C_3 
REMARK    2  A    between atoms: C_5  and  C_6 
REMARK    3  A    between atoms: C_10  and  C_11 
REMARK       I    between atoms: C_11  and  N_12 
REMARK    4  A    between atoms: N_12  and  N_13 
ROOT
HETATM    1  C   UNL     1      -9.229   2.831 -31.553  1.00  0.00     0.289 C 
HETATM    2  N   UNL     1      -9.755   3.154 -32.795  1.00  0.00    -0.241 N 
HETATM    3  O   UNL     1      -9.523   3.386 -30.501  1.00  0.00    -0.264 OA
HETATM    4  H   UNL     1      -9.552   2.561 -33.586  1.00  0.00     0.192 HD
ENDROOT
BRANCH   1   5
HETATM    5  C   UNL     1      -8.240   1.779 -31.594  1.00  0.00     0.121 A 
HETATM    6  N   UNL     1      -7.567   1.390 -30.470  1.00  0.00    -0.272 N 
HETATM    7  N   UNL     1      -6.639   0.443 -30.685  1.00  0.00    -0.174 NA
HETATM    8  H   UNL     1      -7.688   1.760 -29.531  1.00  0.00     0.189 HD
HETATM    9  C   UNL     1      -6.735   0.165 -31.995  1.00  0.00     0.089 A 
HETATM   10  C   UNL     1      -7.733   0.980 -32.599  1.00  0.00     0.071 A 
BRANCH   9  11
HETATM   11  C   UNL     1      -5.876  -0.831 -32.642  1.00  0.00    -0.003 A 
HETATM   12  C   UNL     1      -6.333  -1.529 -33.775  1.00  0.00     0.050 A 
HETATM   13  C   UNL     1      -5.537  -2.502 -34.384  1.00  0.00     0.069 A 
HETATM   14  C   UNL     1      -4.273  -2.780 -33.857  1.00  0.00     0.037 A 
HETATM   15  C   UNL     1      -3.801  -2.090 -32.743  1.00  0.00     0.004 A 
HETATM   16  C   UNL     1      -4.600  -1.119 -32.137  1.00  0.00     0.014 A 
BRANCH  13  17
HETATM   17  O   UNL     1      -5.875  -3.250 -35.478  1.00  0.00    -0.356 OA
HETATM   18  C   UNL     1      -6.423  -4.539 -35.227  1.00  0.00     0.210 C 
ENDBRANCH  13  17
ENDBRANCH   9  11
ENDBRANCH   1   5
BRANCH   2  19
HETATM   19  N   UNL     1     -10.779   4.042 -32.915  1.00  0.00    -0.165 NA
HETATM   20  C   UNL     1     -11.982   3.581 -33.063  1.00  0.00     0.157 A 
HETATM   21  C   UNL     1     -13.214   4.505 -32.984  1.00  0.00     0.277 A 
HETATM   22  C   UNL     1     -12.517   2.228 -33.296  1.00  0.00     0.027 A 
HETATM   23  O   UNL     1     -13.211   5.708 -32.849  1.00  0.00    -0.266 OA
HETATM   24  N   UNL     1     -14.304   3.668 -33.074  1.00  0.00    -0.321 N 
HETATM   25  C   UNL     1     -13.908   2.350 -33.264  1.00  0.00     0.048 A 
HETATM   26  H   UNL     1     -15.253   4.010 -33.051  1.00  0.00     0.169 HD
HETATM   27  C   UNL     1     -14.742   1.265 -33.444  1.00  0.00     0.030 A 
HETATM   28  C   UNL     1     -14.145   0.026 -33.685  1.00  0.00     0.002 A 
HETATM   29  C   UNL     1     -12.747  -0.098 -33.759  1.00  0.00     0.001 A 
HETATM   30  C   UNL     1     -11.916   1.013 -33.575  1.00  0.00     0.016 A 
ENDBRANCH   2  19
TORSDOF 4
ENDMDL
MODEL 3
REMARK VINA RESULT:      -8.6      5.111      8.241
REMARK  4 active torsions:
REMARK  status: ('A' for Active; 'I' for Inactive)
REMARK    1  A    between atoms: O_2  and  C_3 
REMARK    2  A    between atoms: C_5  and  C_6 
REMARK    3  A    between atoms: C_10  and  C_11 
REMARK       I    between atoms: C_11  and  N_12 
REMARK    4  A    between atoms: N_12  and  N_13 
ROOT
HETATM    1  C   UNL     1      -6.094   3.675 -30.630  1.00  0.00     0.289 C 
HETATM    2  N   UNL     1      -4.814   4.098 -30.301  1.00  0.00    -0.241 N 
HETATM    3  O   UNL     1      -7.101   4.369 -30.558  1.00  0.00    -0.264 OA
HETATM    4  H   UNL     1      -4.029   3.501 -30.512  1.00  0.00     0.192 HD
ENDROOT
BRANCH   1   5
HETATM    5  C   UNL     1      -6.164   2.293 -31.041  1.00  0.00     0.121 A 
HETATM    6  N   UNL     1      -6.450   1.298 -30.150  1.00  0.00    -0.272 N 
HETATM    7  N   UNL     1      -6.418   0.062 -30.675  1.00  0.00    -0.174 NA
HETATM    8  H   UNL     1      -6.650   1.409 -29.159  1.00  0.00     0.189 HD
HETATM    9  C   UNL     1      -6.145   0.253 -31.976  1.00  0.00     0.089 A 
HETATM   10  C   UNL     1      -5.983   1.641 -32.245  1.00  0.00     0.071 A 
BRANCH   9  11
HETATM   11  C   UNL     1      -6.018  -0.864 -32.916  1.00  0.00    -0.003 A 
HETATM   12  C   UNL     1      -4.823  -1.603 -32.980  1.00  0.00     0.050 A 
HETATM   13  C   UNL     1      -4.678  -2.650 -33.893  1.00  0.00     0.069 A 
HETATM   14  C   UNL     1      -5.737  -2.964 -34.747  1.00  0.00     0.037 A 
HETATM   15  C   UNL     1      -6.932  -2.251 -34.689  1.00  0.00     0.004 A 
HETATM   16  C   UNL     1      -7.072  -1.204 -33.776  1.00  0.00     0.014 A 
BRANCH  13  17
HETATM   17  O   UNL     1      -3.565  -3.430 -34.054  1.00  0.00    -0.356 OA
HETATM   18  C   UNL     1      -3.653  -4.772 -33.590  1.00  0.00     0.210 C 
ENDBRANCH  13  17
ENDBRANCH   9  11
ENDBRANCH   1   5
BRANCH   2  19
HETATM   19  N   UNL     1      -4.559   5.402 -30.006  1.00  0.00    -0.165 NA
HETATM   20  C   UNL     1      -3.880   6.106 -30.857  1.00  0.00     0.157 A 
HETATM   21  C   UNL     1      -3.738   7.634 -30.706  1.00  0.00     0.277 A 
HETATM   22  C   UNL     1      -3.144   5.760 -32.085  1.00  0.00     0.027 A 
HETATM   23  O   UNL     1      -4.159   8.315 -29.797  1.00  0.00    -0.266 OA
HETATM   24  N   UNL     1      -3.059   8.050 -31.829  1.00  0.00    -0.321 N 
HETATM   25  C   UNL     1      -2.704   6.970 -32.627  1.00  0.00     0.048 A 
HETATM   26  H   UNL     1      -2.824   9.018 -31.993  1.00  0.00     0.169 HD
HETATM   27  C   UNL     1      -1.974   7.025 -33.797  1.00  0.00     0.030 A 
HETATM   28  C   UNL     1      -1.664   5.815 -34.422  1.00  0.00     0.002 A 
HETATM   29  C   UNL     1      -2.068   4.591 -33.861  1.00  0.00     0.001 A 
HETATM   30  C   UNL     1      -2.807   4.553 -32.673  1.00  0.00     0.016 A 
ENDBRANCH   2  19
TORSDOF 4
ENDMDL
MODEL 4
REMARK VINA RESULT:      -8.4      4.533      7.930
REMARK  4 active torsions:
REMARK  status: ('A' for Active; 'I' for Inactive)
REMARK    1  A    between atoms: O_2  and  C_3 
REMARK    2  A    between atoms: C_5  and  C_6 
REMARK    3  A    between atoms: C_10  and  C_11 
REMARK       I    between atoms: C_11  and  N_12 
REMARK    4  A    between atoms: N_12  and  N_13 
ROOT
HETATM    1  C   UNL     1      -7.337   2.731 -33.404  1.00  0.00     0.289 C 
HETATM    2  N   UNL     1      -6.854   2.923 -32.118  1.00  0.00    -0.241 N 
HETATM    3  O   UNL     1      -7.917   3.581 -34.069  1.00  0.00    -0.264 OA
HETATM    4  H   UNL     1      -6.279   2.210 -31.696  1.00  0.00     0.192 HD
ENDROOT
BRANCH   1   5
HETATM    5  C   UNL     1      -7.138   1.393 -33.908  1.00  0.00     0.121 A 
HETATM    6  N   UNL     1      -7.836   0.927 -34.987  1.00  0.00    -0.272 N 
HETATM    7  N   UNL     1      -7.581  -0.356 -35.294  1.00  0.00    -0.174 NA
HETATM    8  H   UNL     1      -8.520   1.440 -35.535  1.00  0.00     0.189 HD
HETATM    9  C   UNL     1      -6.645  -0.737 -34.411  1.00  0.00     0.089 A 
HETATM   10  C   UNL     1      -6.337   0.335 -33.527  1.00  0.00     0.071 A 
BRANCH   9  11
HETATM   11  C   UNL     1      -6.089  -2.094 -34.405  1.00  0.00    -0.003 A 
HETATM   12  C   UNL     1      -4.875  -2.357 -33.746  1.00  0.00     0.050 A 
HETATM   13  C   UNL     1      -4.318  -3.639 -33.758  1.00  0.00     0.069 A 
HETATM   14  C   UNL     1      -4.982  -4.666 -34.432  1.00  0.00     0.037 A 
HETATM   15  C   UNL     1      -6.192  -4.425 -35.079  1.00  0.00     0.004 A 
HETATM   16  C   UNL     1      -6.744  -3.143 -35.066  1.00  0.00     0.014 A 
BRANCH  13  17
HETATM   17  O   UNL     1      -3.143  -4.012 -33.165  1.00  0.00    -0.356 OA
HETATM   18  C   UNL     1      -2.954  -3.611 -31.813  1.00  0.00     0.210 C 
ENDBRANCH  13  17
ENDBRANCH   9  11
ENDBRANCH   1   5
BRANCH   2  19
HETATM   19  N   UNL     1      -6.859   4.157 -31.542  1.00  0.00    -0.165 NA
HETATM   20  C   UNL     1      -5.814   4.910 -31.689  1.00  0.00     0.157 A 
HETATM   21  C   UNL     1      -5.824   6.392 -31.262  1.00  0.00     0.277 A 
HETATM   22  C   UNL     1      -4.473   4.669 -32.247  1.00  0.00     0.027 A 
HETATM   23  O   UNL     1      -6.727   6.982 -30.712  1.00  0.00    -0.266 OA
HETATM   24  N   UNL     1      -4.607   6.895 -31.662  1.00  0.00    -0.321 N 
HETATM   25  C   UNL     1      -3.816   5.901 -32.225  1.00  0.00     0.048 A 
HETATM   26  H   UNL     1      -4.339   7.856 -31.505  1.00  0.00     0.169 HD
HETATM   27  C   UNL     1      -2.522   6.050 -32.683  1.00  0.00     0.030 A 
HETATM   28  C   UNL     1      -1.871   4.909 -33.156  1.00  0.00     0.002 A 
HETATM   29  C   UNL     1      -2.510   3.657 -33.144  1.00  0.00     0.001 A 
HETATM   30  C   UNL     1      -3.823   3.525 -32.675  1.00  0.00     0.016 A 
ENDBRANCH   2  19
TORSDOF 4
ENDMDL
MODEL 5
REMARK VINA RESULT:      -8.4     15.530     17.084
REMARK  4 active torsions:
REMARK  status: ('A' for Active; 'I' for Inactive)
REMARK    1  A    between atoms: O_2  and  C_3 
REMARK    2  A    between atoms: C_5  and  C_6 
REMARK    3  A    between atoms: C_10  and  C_11 
REMARK       I    between atoms: C_11  and  N_12 
REMARK    4  A    between atoms: N_12  and  N_13 
ROOT
HETATM    1  C   UNL     1      -3.177 -14.221 -40.997  1.00  0.00     0.289 C 
HETATM    2  N   UNL     1      -2.167 -13.436 -40.461  1.00  0.00    -0.241 N 
HETATM    3  O   UNL     1      -3.001 -15.267 -41.611  1.00  0.00    -0.264 OA
HETATM    4  H   UNL     1      -2.411 -12.662 -39.862  1.00  0.00     0.192 HD
ENDROOT
BRANCH   1   5
HETATM    5  C   UNL     1      -4.501 -13.678 -40.808  1.00  0.00     0.121 A 
HETATM    6  N   UNL     1      -4.691 -12.373 -40.448  1.00  0.00    -0.272 N 
HETATM    7  N   UNL     1      -5.977 -12.038 -40.253  1.00  0.00    -0.174 NA
HETATM    8  H   UNL     1      -3.969 -11.673 -40.298  1.00  0.00     0.189 HD
HETATM    9  C   UNL     1      -6.666 -13.154 -40.539  1.00  0.00     0.089 A 
HETATM   10  C   UNL     1      -5.775 -14.204 -40.896  1.00  0.00     0.071 A 
BRANCH   9  11
HETATM   11  C   UNL     1      -8.128 -13.211 -40.444  1.00  0.00    -0.003 A 
HETATM   12  C   UNL     1      -8.801 -14.434 -40.613  1.00  0.00     0.050 A 
HETATM   13  C   UNL     1     -10.195 -14.497 -40.556  1.00  0.00     0.069 A 
HETATM   14  C   UNL     1     -10.924 -13.328 -40.325  1.00  0.00     0.037 A 
HETATM   15  C   UNL     1     -10.272 -12.110 -40.144  1.00  0.00     0.004 A 
HETATM   16  C   UNL     1      -8.879 -12.051 -40.203  1.00  0.00     0.014 A 
BRANCH  13  17
HETATM   17  O   UNL     1     -10.958 -15.621 -40.714  1.00  0.00    -0.356 OA
HETATM   18  C   UNL     1     -11.573 -15.803 -41.984  1.00  0.00     0.210 C 
ENDBRANCH  13  17
ENDBRANCH   9  11
ENDBRANCH   1   5
BRANCH   2  19
HETATM   19  N   UNL     1      -0.875 -13.864 -40.451  1.00  0.00    -0.165 NA
HETATM   20  C   UNL     1      -0.411 -14.404 -39.368  1.00  0.00     0.157 A 
HETATM   21  C   UNL     1       0.960 -15.110 -39.343  1.00  0.00     0.277 A 
HETATM   22  C   UNL     1      -0.950 -14.539 -38.004  1.00  0.00     0.027 A 
HETATM   23  O   UNL     1       1.753 -15.185 -40.255  1.00  0.00    -0.266 OA
HETATM   24  N   UNL     1       1.069 -15.650 -38.082  1.00  0.00    -0.321 N 
HETATM   25  C   UNL     1      -0.028 -15.316 -37.298  1.00  0.00     0.048 A 
HETATM   26  H   UNL     1       1.880 -16.173 -37.784  1.00  0.00     0.169 HD
HETATM   27  C   UNL     1      -0.214 -15.649 -35.971  1.00  0.00     0.030 A 
HETATM   28  C   UNL     1      -1.360 -15.161 -35.339  1.00  0.00     0.002 A 
HETATM   29  C   UNL     1      -2.273 -14.345 -36.031  1.00  0.00     0.001 A 
HETATM   30  C   UNL     1      -2.067 -14.016 -37.376  1.00  0.00     0.016 A 
ENDBRANCH   2  19
TORSDOF 4
ENDMDL
MODEL 6
REMARK VINA RESULT:      -8.2      1.102      1.774
REMARK  4 active torsions:
REMARK  status: ('A' for Active; 'I' for Inactive)
REMARK    1  A    between atoms: O_2  and  C_3 
REMARK    2  A    between atoms: C_5  and  C_6 
REMARK    3  A    between atoms: C_10  and  C_11 
REMARK       I    between atoms: C_11  and  N_12 
REMARK    4  A    between atoms: N_12  and  N_13 
ROOT
HETATM    1  C   UNL     1      -7.150   2.714 -31.983  1.00  0.00     0.289 C 
HETATM    2  N   UNL     1      -6.858   1.455 -31.481  1.00  0.00    -0.241 N 
HETATM    3  O   UNL     1      -6.348   3.636 -32.073  1.00  0.00    -0.264 OA
HETATM    4  H   UNL     1      -7.545   0.720 -31.563  1.00  0.00     0.192 HD
ENDROOT
BRANCH   1   5
HETATM    5  C   UNL     1      -8.531   2.882 -32.370  1.00  0.00     0.121 A 
HETATM    6  N   UNL     1      -8.878   3.192 -33.655  1.00  0.00    -0.272 N 
HETATM    7  N   UNL     1     -10.196   3.374 -33.840  1.00  0.00    -0.174 NA
HETATM    8  H   UNL     1      -8.246   3.315 -34.442  1.00  0.00     0.189 HD
HETATM    9  C   UNL     1     -10.744   3.131 -32.639  1.00  0.00     0.089 A 
HETATM   10  C   UNL     1      -9.731   2.814 -31.691  1.00  0.00     0.071 A 
BRANCH   9  11
HETATM   11  C   UNL     1     -12.189   3.228 -32.410  1.00  0.00    -0.003 A 
HETATM   12  C   UNL     1     -13.061   2.285 -32.983  1.00  0.00     0.050 A 
HETATM   13  C   UNL     1     -14.442   2.384 -32.799  1.00  0.00     0.069 A 
HETATM   14  C   UNL     1     -14.956   3.432 -32.032  1.00  0.00     0.037 A 
HETATM   15  C   UNL     1     -14.106   4.367 -31.447  1.00  0.00     0.004 A 
HETATM   16  C   UNL     1     -12.727   4.266 -31.635  1.00  0.00     0.014 A 
BRANCH  13  17
HETATM   17  O   UNL     1     -15.385   1.537 -33.312  1.00  0.00    -0.356 OA
HETATM   18  C   UNL     1     -14.951   0.634 -34.323  1.00  0.00     0.210 C 
ENDBRANCH  13  17
ENDBRANCH   9  11
ENDBRANCH   1   5
BRANCH   2  19
HETATM   19  N   UNL     1      -5.579   1.097 -31.181  1.00  0.00    -0.165 NA
HETATM   20  C   UNL     1      -5.022   0.155 -31.877  1.00  0.00     0.157 A 
HETATM   21  C   UNL     1      -3.517  -0.156 -31.750  1.00  0.00     0.277 A 
HETATM   22  C   UNL     1      -5.536  -0.782 -32.889  1.00  0.00     0.027 A 
HETATM   23  O   UNL     1      -2.731   0.361 -30.988  1.00  0.00    -0.266 OA
HETATM   24  N   UNL     1      -3.263  -1.118 -32.701  1.00  0.00    -0.321 N 
HETATM   25  C   UNL     1      -4.428  -1.493 -33.358  1.00  0.00     0.048 A 
HETATM   26  H   UNL     1      -2.344  -1.513 -32.840  1.00  0.00     0.169 HD
HETATM   27  C   UNL     1      -4.540  -2.467 -34.329  1.00  0.00     0.030 A 
HETATM   28  C   UNL     1      -5.817  -2.741 -34.823  1.00  0.00     0.002 A 
HETATM   29  C   UNL     1      -6.943  -2.059 -34.328  1.00  0.00     0.001 A 
HETATM   30  C   UNL     1      -6.810  -1.075 -33.342  1.00  0.00     0.016 A 
ENDBRANCH   2  19
TORSDOF 4
ENDMDL
MODEL 7
REMARK VINA RESULT:      -8.0      5.583      9.541
REMARK  4 active torsions:
REMARK  status: ('A' for Active; 'I' for Inactive)
REMARK    1  A    between atoms: O_2  and  C_3 
REMARK    2  A    between atoms: C_5  and  C_6 
REMARK    3  A    between atoms: C_10  and  C_11 
REMARK       I    between atoms: C_11  and  N_12 
REMARK    4  A    between atoms: N_12  and  N_13 
ROOT
HETATM    1  C   UNL     1      -5.075   4.414 -33.486  1.00  0.00     0.289 C 
HETATM    2  N   UNL     1      -5.986   3.554 -32.892  1.00  0.00    -0.241 N 
HETATM    3  O   UNL     1      -5.189   4.888 -34.610  1.00  0.00    -0.264 OA
HETATM    4  H   UNL     1      -5.876   3.315 -31.918  1.00  0.00     0.192 HD
ENDROOT
BRANCH   1   5
HETATM    5  C   UNL     1      -3.916   4.690 -32.671  1.00  0.00     0.121 A 
HETATM    6  N   UNL     1      -2.976   3.730 -32.419  1.00  0.00    -0.272 N 
HETATM    7  N   UNL     1      -1.992   4.125 -31.596  1.00  0.00    -0.174 NA
HETATM    8  H   UNL     1      -2.976   2.775 -32.769  1.00  0.00     0.189 HD
HETATM    9  C   UNL     1      -2.269   5.412 -31.329  1.00  0.00     0.089 A 
HETATM   10  C   UNL     1      -3.466   5.804 -31.990  1.00  0.00     0.071 A 
BRANCH   9  11
HETATM   11  C   UNL     1      -1.423   6.222 -30.448  1.00  0.00    -0.003 A 
HETATM   12  C   UNL     1      -2.000   6.969 -29.405  1.00  0.00     0.050 A 
HETATM   13  C   UNL     1      -1.209   7.770 -28.577  1.00  0.00     0.069 A 
HETATM   14  C   UNL     1       0.170   7.823 -28.792  1.00  0.00     0.037 A 
HETATM   15  C   UNL     1       0.759   7.080 -29.813  1.00  0.00     0.004 A 
HETATM   16  C   UNL     1      -0.035   6.282 -30.639  1.00  0.00     0.014 A 
BRANCH  13  17
HETATM   17  O   UNL     1      -1.655   8.545 -27.542  1.00  0.00    -0.356 OA
HETATM   18  C   UNL     1      -1.070   8.307 -26.267  1.00  0.00     0.210 C 
ENDBRANCH  13  17
ENDBRANCH   9  11
ENDBRANCH   1   5
BRANCH   2  19
HETATM   19  N   UNL     1      -7.185   3.285 -33.478  1.00  0.00    -0.165 NA
HETATM   20  C   UNL     1      -7.473   2.053 -33.759  1.00  0.00     0.157 A 
HETATM   21  C   UNL     1      -8.887   1.640 -34.217  1.00  0.00     0.277 A 
HETATM   22  C   UNL     1      -6.690   0.806 -33.724  1.00  0.00     0.027 A 
HETATM   23  O   UNL     1      -9.826   2.376 -34.421  1.00  0.00    -0.266 OA
HETATM   24  N   UNL     1      -8.852   0.268 -34.314  1.00  0.00    -0.321 N 
HETATM   25  C   UNL     1      -7.581  -0.222 -34.039  1.00  0.00     0.048 A 
HETATM   26  H   UNL     1      -9.654  -0.276 -34.599  1.00  0.00     0.169 HD
HETATM   27  C   UNL     1      -7.186  -1.543 -34.096  1.00  0.00     0.030 A 
HETATM   28  C   UNL     1      -5.841  -1.825 -33.846  1.00  0.00     0.002 A 
HETATM   29  C   UNL     1      -4.928  -0.792 -33.568  1.00  0.00     0.001 A 
HETATM   30  C   UNL     1      -5.347   0.543 -33.515  1.00  0.00     0.016 A 
ENDBRANCH   2  19
TORSDOF 4
ENDMDL
MODEL 8
REMARK VINA RESULT:      -7.9      3.053      3.774
REMARK  4 active torsions:
REMARK  status: ('A' for Active; 'I' for Inactive)
REMARK    1  A    between atoms: O_2  and  C_3 
REMARK    2  A    between atoms: C_5  and  C_6 
REMARK    3  A    between atoms: C_10  and  C_11 
REMARK       I    between atoms: C_11  and  N_12 
REMARK    4  A    between atoms: N_12  and  N_13 
ROOT
HETATM    1  C   UNL     1      -7.637   2.066 -32.188  1.00  0.00     0.289 C 
HETATM    2  N   UNL     1      -6.436   1.828 -32.839  1.00  0.00    -0.241 N 
HETATM    3  O   UNL     1      -7.860   1.805 -31.011  1.00  0.00    -0.264 OA
HETATM    4  H   UNL     1      -6.301   2.191 -33.771  1.00  0.00     0.192 HD
ENDROOT
BRANCH   1   5
HETATM    5  C   UNL     1      -8.661   2.625 -33.037  1.00  0.00     0.121 A 
HETATM    6  N   UNL     1      -9.380   1.843 -33.897  1.00  0.00    -0.272 N 
HETATM    7  N   UNL     1     -10.251   2.522 -34.661  1.00  0.00    -0.174 NA
HETATM    8  H   UNL     1      -9.294   0.837 -34.019  1.00  0.00     0.189 HD
HETATM    9  C   UNL     1     -10.135   3.797 -34.258  1.00  0.00     0.089 A 
HETATM   10  C   UNL     1      -9.150   3.901 -33.236  1.00  0.00     0.071 A 
BRANCH   9  11
HETATM   11  C   UNL     1     -10.926   4.877 -34.855  1.00  0.00    -0.003 A 
HETATM   12  C   UNL     1     -10.323   6.111 -35.159  1.00  0.00     0.050 A 
HETATM   13  C   UNL     1     -11.072   7.158 -35.700  1.00  0.00     0.069 A 
HETATM   14  C   UNL     1     -12.435   6.971 -35.942  1.00  0.00     0.037 A 
HETATM   15  C   UNL     1     -13.045   5.751 -35.658  1.00  0.00     0.004 A 
HETATM   16  C   UNL     1     -12.293   4.707 -35.117  1.00  0.00     0.014 A 
BRANCH  13  17
HETATM   17  O   UNL     1     -10.601   8.401 -36.025  1.00  0.00    -0.356 OA
HETATM   18  C   UNL     1     -10.158   8.586 -37.364  1.00  0.00     0.210 C 
ENDBRANCH  13  17
ENDBRANCH   9  11
ENDBRANCH   1   5
BRANCH   2  19
HETATM   19  N   UNL     1      -5.335   1.413 -32.155  1.00  0.00    -0.165 NA
HETATM   20  C   UNL     1      -4.826   0.257 -32.448  1.00  0.00     0.157 A 
HETATM   21  C   UNL     1      -3.462  -0.189 -31.881  1.00  0.00     0.277 A 
HETATM   22  C   UNL     1      -5.278  -0.851 -33.306  1.00  0.00     0.027 A 
HETATM   23  O   UNL     1      -2.772   0.416 -31.091  1.00  0.00    -0.266 OA
HETATM   24  N   UNL     1      -3.194  -1.397 -32.484  1.00  0.00    -0.321 N 
HETATM   25  C   UNL     1      -4.245  -1.791 -33.303  1.00  0.00     0.048 A 
HETATM   26  H   UNL     1      -2.354  -1.924 -32.293  1.00  0.00     0.169 HD
HETATM   27  C   UNL     1      -4.327  -2.972 -34.013  1.00  0.00     0.030 A 
HETATM   28  C   UNL     1      -5.501  -3.212 -34.730  1.00  0.00     0.002 A 
HETATM   29  C   UNL     1      -6.562  -2.290 -34.706  1.00  0.00     0.001 A 
HETATM   30  C   UNL     1      -6.462  -1.098 -33.979  1.00  0.00     0.016 A 
ENDBRANCH   2  19
TORSDOF 4
ENDMDL
MODEL 9
REMARK VINA RESULT:      -7.7     15.385     17.222
REMARK  4 active torsions:
REMARK  status: ('A' for Active; 'I' for Inactive)
REMARK    1  A    between atoms: O_2  and  C_3 
REMARK    2  A    between atoms: C_5  and  C_6 
REMARK    3  A    between atoms: C_10  and  C_11 
REMARK       I    between atoms: C_11  and  N_12 
REMARK    4  A    between atoms: N_12  and  N_13 
ROOT
HETATM    1  C   UNL     1      -6.752 -13.485 -37.258  1.00  0.00     0.289 C 
HETATM    2  N   UNL     1      -5.614 -13.893 -37.937  1.00  0.00    -0.241 N 
HETATM    3  O   UNL     1      -7.658 -12.818 -37.745  1.00  0.00    -0.264 OA
HETATM    4  H   UNL     1      -4.984 -14.545 -37.495  1.00  0.00     0.192 HD
ENDROOT
BRANCH   1   5
HETATM    5  C   UNL     1      -6.777 -13.881 -35.870  1.00  0.00     0.121 A 
HETATM    6  N   UNL     1      -7.187 -13.021 -34.890  1.00  0.00    -0.272 N 
HETATM    7  N   UNL     1      -7.095 -13.519 -33.647  1.00  0.00    -0.174 NA
HETATM    8  H   UNL     1      -7.518 -12.068 -35.018  1.00  0.00     0.189 HD
HETATM    9  C   UNL     1      -6.648 -14.774 -33.815  1.00  0.00     0.089 A 
HETATM   10  C   UNL     1      -6.441 -15.040 -35.198  1.00  0.00     0.071 A 
BRANCH   9  11
HETATM   11  C   UNL     1      -6.404 -15.672 -32.682  1.00  0.00    -0.003 A 
HETATM   12  C   UNL     1      -5.774 -15.190 -31.521  1.00  0.00     0.050 A 
HETATM   13  C   UNL     1      -5.508 -16.042 -30.447  1.00  0.00     0.069 A 
HETATM   14  C   UNL     1      -5.877 -17.386 -30.532  1.00  0.00     0.037 A 
HETATM   15  C   UNL     1      -6.513 -17.877 -31.670  1.00  0.00     0.004 A 
HETATM   16  C   UNL     1      -6.776 -17.023 -32.742  1.00  0.00     0.014 A 
BRANCH  13  17
HETATM   17  O   UNL     1      -4.894 -15.693 -29.275  1.00  0.00    -0.356 OA
HETATM   18  C   UNL     1      -4.154 -16.712 -28.612  1.00  0.00     0.210 C 
ENDBRANCH  13  17
ENDBRANCH   9  11
ENDBRANCH   1   5
BRANCH   2  19
HETATM   19  N   UNL     1      -5.490 -13.701 -39.279  1.00  0.00    -0.165 NA
HETATM   20  C   UNL     1      -4.304 -13.743 -39.802  1.00  0.00     0.157 A 
HETATM   21  C   UNL     1      -4.098 -13.757 -41.330  1.00  0.00     0.277 A 
HETATM   22  C   UNL     1      -2.953 -13.809 -39.220  1.00  0.00     0.027 A 
HETATM   23  O   UNL     1      -4.957 -13.669 -42.179  1.00  0.00    -0.266 OA
HETATM   24  N   UNL     1      -2.743 -13.916 -41.514  1.00  0.00    -0.321 N 
HETATM   25  C   UNL     1      -2.072 -13.937 -40.297  1.00  0.00     0.048 A 
HETATM   26  H   UNL     1      -2.321 -13.957 -42.430  1.00  0.00     0.169 HD
HETATM   27  C   UNL     1      -0.706 -14.030 -40.120  1.00  0.00     0.030 A 
HETATM   28  C   UNL     1      -0.221 -13.970 -38.812  1.00  0.00     0.002 A 
HETATM   29  C   UNL     1      -1.096 -13.800 -37.725  1.00  0.00     0.001 A 
HETATM   30  C   UNL     1      -2.479 -13.706 -37.924  1.00  0.00     0.016 A 
ENDBRANCH   2  19
TORSDOF 4
ENDMDL
MODEL 10
REMARK VINA RESULT:      -7.6     15.099     18.363
REMARK  4 active torsions:
REMARK  status: ('A' for Active; 'I' for Inactive)
REMARK    1  A    between atoms: O_2  and  C_3 
REMARK    2  A    between atoms: C_5  and  C_6 
REMARK    3  A    between atoms: C_10  and  C_11 
REMARK       I    between atoms: C_11  and  N_12 
REMARK    4  A    between atoms: N_12  and  N_13 
ROOT
HETATM    1  C   UNL     1       5.142  10.172 -22.588  1.00  0.00     0.289 C 
HETATM    2  N   UNL     1       5.001   9.358 -21.474  1.00  0.00    -0.241 N 
HETATM    3  O   UNL     1       6.030  11.002 -22.743  1.00  0.00    -0.264 OA
HETATM    4  H   UNL     1       4.317   8.617 -21.489  1.00  0.00     0.192 HD
ENDROOT
BRANCH   1   5
HETATM    5  C   UNL     1       4.103   9.995 -23.575  1.00  0.00     0.121 A 
HETATM    6  N   UNL     1       3.220  10.996 -23.867  1.00  0.00    -0.272 N 
HETATM    7  N   UNL     1       2.278  10.655 -24.762  1.00  0.00    -0.174 NA
HETATM    8  H   UNL     1       3.203  11.928 -23.462  1.00  0.00     0.189 HD
HETATM    9  C   UNL     1       2.578   9.393 -25.107  1.00  0.00     0.089 A 
HETATM   10  C   UNL     1       3.721   8.945 -24.387  1.00  0.00     0.071 A 
BRANCH   9  11
HETATM   11  C   UNL     1       1.775   8.639 -26.075  1.00  0.00    -0.003 A 
HETATM   12  C   UNL     1       0.942   7.593 -25.640  1.00  0.00     0.050 A 
HETATM   13  C   UNL     1       0.195   6.847 -26.556  1.00  0.00     0.069 A 
HETATM   14  C   UNL     1       0.281   7.150 -27.917  1.00  0.00     0.037 A 
HETATM   15  C   UNL     1       1.093   8.191 -28.362  1.00  0.00     0.004 A 
HETATM   16  C   UNL     1       1.838   8.933 -27.445  1.00  0.00     0.014 A 
BRANCH  13  17
HETATM   17  O   UNL     1      -0.638   5.805 -26.256  1.00  0.00    -0.356 OA
HETATM   18  C   UNL     1      -1.949   6.141 -25.815  1.00  0.00     0.210 C 
ENDBRANCH  13  17
ENDBRANCH   9  11
ENDBRANCH   1   5
BRANCH   2  19
HETATM   19  N   UNL     1       5.959   9.319 -20.507  1.00  0.00    -0.165 NA
HETATM   20  C   UNL     1       6.866   8.395 -20.574  1.00  0.00     0.157 A 
HETATM   21  C   UNL     1       8.103   8.414 -19.653  1.00  0.00     0.277 A 
HETATM   22  C   UNL     1       7.028   7.207 -21.429  1.00  0.00     0.027 A 
HETATM   23  O   UNL     1       8.334   9.204 -18.765  1.00  0.00    -0.266 OA
HETATM   24  N   UNL     1       8.887   7.364 -20.074  1.00  0.00    -0.321 N 
HETATM   25  C   UNL     1       8.267   6.655 -21.096  1.00  0.00     0.048 A 
HETATM   26  H   UNL     1       9.770   7.138 -19.640  1.00  0.00     0.169 HD
HETATM   27  C   UNL     1       8.752   5.519 -21.711  1.00  0.00     0.030 A 
HETATM   28  C   UNL     1       7.944   4.914 -22.677  1.00  0.00     0.002 A 
HETATM   29  C   UNL     1       6.678   5.440 -22.989  1.00  0.00     0.001 A 
HETATM   30  C   UNL     1       6.202   6.593 -22.354  1.00  0.00     0.016 A 
ENDBRANCH   2  19
TORSDOF 4
ENDMDL
