MODEL 1
REMARK VINA RESULT:      -8.0      0.000      0.000
REMARK  5 active torsions:
REMARK  status: ('A' for Active; 'I' for Inactive)
REMARK    1  A    between atoms: C_2  and  C_3 
REMARK    2  A    between atoms: C_3  and  O_4 
REMARK    3  A    between atoms: C_3  and  C_5 
REMARK    4  A    between atoms: N_8  and  C_10 
REMARK    5  A    between atoms: C_10  and  C_11 
ROOT
HETATM    1  C   UNL     1      -8.665   0.386 -32.541  1.00  0.00     0.022 C 
HETATM    2  C   UNL     1     -10.041  -0.274 -32.726  1.00  0.00     0.035 C 
HETATM    3  C   UNL     1     -11.023   0.566 -33.529  1.00  0.00     0.235 C 
HETATM    4  N   UNL     1     -11.165   1.929 -32.909  1.00  0.00    -0.066 N 
HETATM    5  H   UNL     1     -11.634   1.788 -31.998  1.00  0.00     0.280 HD
HETATM    6  C   UNL     1      -9.871   2.652 -32.704  1.00  0.00     0.235 C 
HETATM    7  C   UNL     1      -8.882   1.785 -31.935  1.00  0.00     0.035 C 
ENDROOT
BRANCH   1   8
HETATM    8  C   UNL     1      -7.784   0.445 -33.817  1.00  0.00     0.155 C 
BRANCH   8   9
HETATM    9  C   UNL     1      -6.764  -0.674 -33.911  1.00  0.00    -0.029 A 
HETATM   10  C   UNL     1      -5.473  -0.549 -33.369  1.00  0.00     0.011 A 
HETATM   11  C   UNL     1      -4.551  -1.594 -33.474  1.00  0.00     0.024 A 
HETATM   12  C   UNL     1      -4.912  -2.775 -34.116  1.00  0.00     0.034 A 
HETATM   13  C   UNL     1      -6.187  -2.919 -34.658  1.00  0.00     0.024 A 
HETATM   14 CL   UNL     1      -3.778  -4.061 -34.241  1.00  0.00    -0.084 Cl
HETATM   15  C   UNL     1      -7.107  -1.871 -34.558  1.00  0.00     0.011 A 
ENDBRANCH   8   9
BRANCH   8  16
HETATM   16  O   UNL     1      -8.590   0.478 -34.991  1.00  0.00    -0.391 OA
HETATM   17  H   UNL     1      -8.352  -0.320 -35.505  1.00  0.00     0.210 HD
ENDBRANCH   8  16
ENDBRANCH   1   8
BRANCH   4  18
HETATM   18  C   UNL     1     -12.173   2.783 -33.665  1.00  0.00     0.295 C 
BRANCH  18  19
HETATM   19  C   UNL     1     -13.561   2.240 -33.530  1.00  0.00     0.081 A 
HETATM   20  N   UNL     1     -14.086   1.515 -34.533  1.00  0.00    -0.178 NA
HETATM   21  N   UNL     1     -15.317   1.188 -34.080  1.00  0.00    -0.289 N 
HETATM   22  H   UNL     1     -15.920   0.613 -34.662  1.00  0.00     0.188 HD
HETATM   23  C   UNL     1     -15.589   1.709 -32.849  1.00  0.00     0.111 A 
HETATM   24  C   UNL     1     -14.466   2.396 -32.459  1.00  0.00     0.049 A 
ENDBRANCH  18  19
ENDBRANCH   4  18
TORSDOF 5
ENDMDL
MODEL 2
REMARK VINA RESULT:      -7.7      5.660      7.372
REMARK  5 active torsions:
REMARK  status: ('A' for Active; 'I' for Inactive)
REMARK    1  A    between atoms: C_2  and  C_3 
REMARK    2  A    between atoms: C_3  and  O_4 
REMARK    3  A    between atoms: C_3  and  C_5 
REMARK    4  A    between atoms: N_8  and  C_10 
REMARK    5  A    between atoms: C_10  and  C_11 
ROOT
HETATM    1  C   UNL     1      -5.087   1.188 -31.625  1.00  0.00     0.022 C 
HETATM    2  C   UNL     1      -5.771   2.306 -30.822  1.00  0.00     0.035 C 
HETATM    3  C   UNL     1      -5.320   3.706 -31.210  1.00  0.00     0.235 C 
HETATM    4  N   UNL     1      -3.823   3.815 -31.106  1.00  0.00    -0.066 N 
HETATM    5  H   UNL     1      -3.595   3.742 -30.099  1.00  0.00     0.280 HD
HETATM    6  C   UNL     1      -3.074   2.770 -31.870  1.00  0.00     0.235 C 
HETATM    7  C   UNL     1      -3.563   1.375 -31.504  1.00  0.00     0.035 C 
ENDROOT
BRANCH   1   8
HETATM    8  C   UNL     1      -5.534   1.071 -33.106  1.00  0.00     0.155 C 
BRANCH   8   9
HETATM    9  C   UNL     1      -5.604  -0.356 -33.615  1.00  0.00    -0.029 A 
HETATM   10  C   UNL     1      -4.470  -1.185 -33.661  1.00  0.00     0.011 A 
HETATM   11  C   UNL     1      -4.562  -2.495 -34.139  1.00  0.00     0.024 A 
HETATM   12  C   UNL     1      -5.789  -2.991 -34.571  1.00  0.00     0.034 A 
HETATM   13  C   UNL     1      -6.924  -2.186 -34.531  1.00  0.00     0.024 A 
HETATM   14 CL   UNL     1      -5.901  -4.604 -35.156  1.00  0.00    -0.084 Cl
HETATM   15  C   UNL     1      -6.831  -0.874 -34.059  1.00  0.00     0.011 A 
ENDBRANCH   8   9
BRANCH   8  16
HETATM   16  O   UNL     1      -6.779   1.732 -33.316  1.00  0.00    -0.391 OA
HETATM   17  H   UNL     1      -7.410   1.038 -33.593  1.00  0.00     0.210 HD
ENDBRANCH   8  16
ENDBRANCH   1   8
BRANCH   4  18
HETATM   18  C   UNL     1      -3.341   5.217 -31.448  1.00  0.00     0.295 C 
BRANCH  18  19
HETATM   19  C   UNL     1      -2.896   5.311 -32.873  1.00  0.00     0.081 A 
HETATM   20  N   UNL     1      -3.804   5.566 -33.832  1.00  0.00    -0.178 NA
HETATM   21  N   UNL     1      -3.071   5.589 -34.968  1.00  0.00    -0.289 N 
HETATM   22  H   UNL     1      -3.536   5.785 -35.850  1.00  0.00     0.188 HD
HETATM   23  C   UNL     1      -1.749   5.326 -34.756  1.00  0.00     0.111 A 
HETATM   24  C   UNL     1      -1.599   5.145 -33.404  1.00  0.00     0.049 A 
ENDBRANCH  18  19
ENDBRANCH   4  18
TORSDOF 5
ENDMDL
MODEL 3
REMARK VINA RESULT:      -7.4      1.662      2.157
REMARK  5 active torsions:
REMARK  status: ('A' for Active; 'I' for Inactive)
REMARK    1  A    between atoms: C_2  and  C_3 
REMARK    2  A    between atoms: C_3  and  O_4 
REMARK    3  A    between atoms: C_3  and  C_5 
REMARK    4  A    between atoms: N_8  and  C_10 
REMARK    5  A    between atoms: C_10  and  C_11 
ROOT
HETATM    1  C   UNL     1      -8.787   2.394 -32.471  1.00  0.00     0.022 C 
HETATM    2  C   UNL     1      -9.756   3.273 -31.663  1.00  0.00     0.035 C 
HETATM    3  C   UNL     1     -11.181   3.266 -32.195  1.00  0.00     0.235 C 
HETATM    4  N   UNL     1     -11.192   3.656 -33.648  1.00  0.00    -0.066 N 
HETATM    5  H   UNL     1     -10.910   4.651 -33.685  1.00  0.00     0.280 HD
HETATM    6  C   UNL     1     -10.284   2.841 -34.513  1.00  0.00     0.235 C 
HETATM    7  C   UNL     1      -8.870   2.821 -33.948  1.00  0.00     0.035 C 
ENDROOT
BRANCH   1   8
HETATM    8  C   UNL     1      -8.989   0.865 -32.304  1.00  0.00     0.155 C 
BRANCH   8   9
HETATM    9  C   UNL     1      -7.806   0.035 -32.768  1.00  0.00    -0.029 A 
HETATM   10  C   UNL     1      -6.626  -0.064 -32.010  1.00  0.00     0.011 A 
HETATM   11  C   UNL     1      -5.550  -0.831 -32.463  1.00  0.00     0.024 A 
HETATM   12  C   UNL     1      -5.644  -1.511 -33.675  1.00  0.00     0.034 A 
HETATM   13  C   UNL     1      -6.805  -1.426 -34.438  1.00  0.00     0.024 A 
HETATM   14 CL   UNL     1      -4.320  -2.457 -34.228  1.00  0.00    -0.084 Cl
HETATM   15  C   UNL     1      -7.880  -0.654 -33.988  1.00  0.00     0.011 A 
ENDBRANCH   8   9
BRANCH   8  16
HETATM   16  O   UNL     1      -9.322   0.538 -30.958  1.00  0.00    -0.391 OA
HETATM   17  H   UNL     1     -10.259   0.794 -30.841  1.00  0.00     0.210 HD
ENDBRANCH   8  16
ENDBRANCH   1   8
BRANCH   4  18
HETATM   18  C   UNL     1     -12.609   3.700 -34.203  1.00  0.00     0.295 C 
BRANCH  18  19
HETATM   19  C   UNL     1     -13.367   2.454 -33.868  1.00  0.00     0.081 A 
HETATM   20  N   UNL     1     -14.219   2.461 -32.828  1.00  0.00    -0.178 NA
HETATM   21  N   UNL     1     -14.723   1.206 -32.820  1.00  0.00    -0.289 N 
HETATM   22  H   UNL     1     -15.419   0.958 -32.122  1.00  0.00     0.188 HD
HETATM   23  C   UNL     1     -14.193   0.412 -33.795  1.00  0.00     0.111 A 
HETATM   24  C   UNL     1     -13.310   1.193 -34.498  1.00  0.00     0.049 A 
ENDBRANCH  18  19
ENDBRANCH   4  18
TORSDOF 5
ENDMDL
MODEL 4
REMARK VINA RESULT:      -7.2      5.930      8.608
REMARK  5 active torsions:
REMARK  status: ('A' for Active; 'I' for Inactive)
REMARK    1  A    between atoms: C_2  and  C_3 
REMARK    2  A    between atoms: C_3  and  O_4 
REMARK    3  A    between atoms: C_3  and  C_5 
REMARK    4  A    between atoms: N_8  and  C_10 
REMARK    5  A    between atoms: C_10  and  C_11 
ROOT
HETATM    1  C   UNL     1      -4.843   1.609 -31.445  1.00  0.00     0.022 C 
HETATM    2  C   UNL     1      -5.147   2.673 -30.377  1.00  0.00     0.035 C 
HETATM    3  C   UNL     1      -4.785   4.089 -30.801  1.00  0.00     0.235 C 
HETATM    4  N   UNL     1      -3.341   4.151 -31.220  1.00  0.00    -0.066 N 
HETATM    5  H   UNL     1      -2.783   3.988 -30.364  1.00  0.00     0.280 HD
HETATM    6  C   UNL     1      -2.960   3.154 -32.268  1.00  0.00     0.235 C 
HETATM    7  C   UNL     1      -3.364   1.746 -31.851  1.00  0.00     0.035 C 
ENDROOT
BRANCH   1   8
HETATM    8  C   UNL     1      -5.781   1.626 -32.680  1.00  0.00     0.155 C 
BRANCH   8   9
HETATM    9  C   UNL     1      -5.947   0.273 -33.345  1.00  0.00    -0.029 A 
HETATM   10  C   UNL     1      -6.961   0.028 -34.287  1.00  0.00     0.011 A 
HETATM   11  C   UNL     1      -7.095  -1.229 -34.881  1.00  0.00     0.024 A 
HETATM   12  C   UNL     1      -6.214  -2.253 -34.543  1.00  0.00     0.034 A 
HETATM   13  C   UNL     1      -5.202  -2.029 -33.612  1.00  0.00     0.024 A 
HETATM   14 CL   UNL     1      -6.378  -3.799 -35.277  1.00  0.00    -0.084 Cl
HETATM   15  C   UNL     1      -5.072  -0.773 -33.014  1.00  0.00     0.011 A 
ENDBRANCH   8   9
BRANCH   8  16
HETATM   16  O   UNL     1      -7.055   2.171 -32.345  1.00  0.00    -0.391 OA
HETATM   17  H   UNL     1      -7.260   1.846 -31.446  1.00  0.00     0.210 HD
ENDBRANCH   8  16
ENDBRANCH   1   8
BRANCH   4  18
HETATM   18  C   UNL     1      -2.934   5.564 -31.611  1.00  0.00     0.295 C 
BRANCH  18  19
HETATM   19  C   UNL     1      -1.487   5.816 -31.324  1.00  0.00     0.081 A 
HETATM   20  N   UNL     1      -0.747   4.845 -30.763  1.00  0.00    -0.178 NA
HETATM   21  N   UNL     1       0.481   5.400 -30.656  1.00  0.00    -0.289 N 
HETATM   22  H   UNL     1       1.241   4.846 -30.269  1.00  0.00     0.188 HD
HETATM   23  C   UNL     1       0.524   6.689 -31.099  1.00  0.00     0.111 A 
HETATM   24  C   UNL     1      -0.738   6.992 -31.544  1.00  0.00     0.049 A 
ENDBRANCH  18  19
ENDBRANCH   4  18
TORSDOF 5
ENDMDL
MODEL 5
REMARK VINA RESULT:      -7.2     10.196     12.286
REMARK  5 active torsions:
REMARK  status: ('A' for Active; 'I' for Inactive)
REMARK    1  A    between atoms: C_2  and  C_3 
REMARK    2  A    between atoms: C_3  and  O_4 
REMARK    3  A    between atoms: C_3  and  C_5 
REMARK    4  A    between atoms: N_8  and  C_10 
REMARK    5  A    between atoms: C_10  and  C_11 
ROOT
HETATM    1  C   UNL     1       0.076   6.669 -29.977  1.00  0.00     0.022 C 
HETATM    2  C   UNL     1       0.784   6.717 -28.613  1.00  0.00     0.035 C 
HETATM    3  C   UNL     1      -0.120   6.374 -27.438  1.00  0.00     0.235 C 
HETATM    4  N   UNL     1      -1.332   7.266 -27.441  1.00  0.00    -0.066 N 
HETATM    5  H   UNL     1      -0.991   8.220 -27.232  1.00  0.00     0.280 HD
HETATM    6  C   UNL     1      -2.092   7.271 -28.729  1.00  0.00     0.235 C 
HETATM    7  C   UNL     1      -1.168   7.574 -29.902  1.00  0.00     0.035 C 
ENDROOT
BRANCH   1   8
HETATM    8  C   UNL     1      -0.279   5.248 -30.487  1.00  0.00     0.155 C 
BRANCH   8   9
HETATM    9  C   UNL     1      -1.146   5.241 -31.731  1.00  0.00    -0.029 A 
HETATM   10  C   UNL     1      -0.823   6.007 -32.865  1.00  0.00     0.011 A 
HETATM   11  C   UNL     1      -1.642   5.985 -33.997  1.00  0.00     0.024 A 
HETATM   12  C   UNL     1      -2.788   5.195 -34.010  1.00  0.00     0.034 A 
HETATM   13  C   UNL     1      -3.123   4.428 -32.897  1.00  0.00     0.024 A 
HETATM   14 CL   UNL     1      -3.792   5.167 -35.405  1.00  0.00    -0.084 Cl
HETATM   15  C   UNL     1      -2.308   4.454 -31.762  1.00  0.00     0.011 A 
ENDBRANCH   8   9
BRANCH   8  16
HETATM   16  O   UNL     1       0.898   4.475 -30.701  1.00  0.00    -0.391 OA
HETATM   17  H   UNL     1       1.345   4.871 -31.476  1.00  0.00     0.210 HD
ENDBRANCH   8  16
ENDBRANCH   1   8
BRANCH   4  18
HETATM   18  C   UNL     1      -2.238   6.977 -26.253  1.00  0.00     0.295 C 
BRANCH  18  19
HETATM   19  C   UNL     1      -2.183   8.079 -25.241  1.00  0.00     0.081 A 
HETATM   20  N   UNL     1      -3.197   8.226 -24.371  1.00  0.00    -0.178 NA
HETATM   21  N   UNL     1      -2.821   9.284 -23.619  1.00  0.00    -0.289 N 
HETATM   22  H   UNL     1      -3.425   9.590 -22.860  1.00  0.00     0.188 HD
HETATM   23  C   UNL     1      -1.629   9.819 -24.009  1.00  0.00     0.111 A 
HETATM   24  C   UNL     1      -1.183   9.057 -25.059  1.00  0.00     0.049 A 
ENDBRANCH  18  19
ENDBRANCH   4  18
TORSDOF 5
ENDMDL
MODEL 6
REMARK VINA RESULT:      -7.1     14.586     15.720
REMARK  5 active torsions:
REMARK  status: ('A' for Active; 'I' for Inactive)
REMARK    1  A    between atoms: C_2  and  C_3 
REMARK    2  A    between atoms: C_3  and  O_4 
REMARK    3  A    between atoms: C_3  and  C_5 
REMARK    4  A    between atoms: N_8  and  C_10 
REMARK    5  A    between atoms: C_10  and  C_11 
ROOT
HETATM    1  C   UNL     1      -4.022 -13.403 -39.743  1.00  0.00     0.022 C 
HETATM    2  C   UNL     1      -4.982 -12.414 -40.425  1.00  0.00     0.035 C 
HETATM    3  C   UNL     1      -6.228 -12.104 -39.609  1.00  0.00     0.235 C 
HETATM    4  N   UNL     1      -6.942 -13.379 -39.250  1.00  0.00    -0.066 N 
HETATM    5  H   UNL     1      -7.307 -13.768 -40.136  1.00  0.00     0.280 HD
HETATM    6  C   UNL     1      -6.083 -14.397 -38.568  1.00  0.00     0.235 C 
HETATM    7  C   UNL     1      -4.819 -14.668 -39.374  1.00  0.00     0.035 C 
ENDROOT
BRANCH   1   8
HETATM    8  C   UNL     1      -3.249 -12.837 -38.523  1.00  0.00     0.155 C 
BRANCH   8   9
HETATM    9  C   UNL     1      -1.994 -13.615 -38.177  1.00  0.00    -0.029 A 
HETATM   10  C   UNL     1      -1.886 -14.360 -36.990  1.00  0.00     0.011 A 
HETATM   11  C   UNL     1      -0.716 -15.064 -36.693  1.00  0.00     0.024 A 
HETATM   12  C   UNL     1       0.355 -15.034 -37.581  1.00  0.00     0.034 A 
HETATM   13  C   UNL     1       0.267 -14.303 -38.763  1.00  0.00     0.024 A 
HETATM   14 CL   UNL     1       1.793 -15.904 -37.216  1.00  0.00    -0.084 Cl
HETATM   15  C   UNL     1      -0.901 -13.594 -39.057  1.00  0.00     0.011 A 
ENDBRANCH   8   9
BRANCH   8  16
HETATM   16  O   UNL     1      -2.939 -11.459 -38.712  1.00  0.00    -0.391 OA
HETATM   17  H   UNL     1      -2.025 -11.340 -38.384  1.00  0.00     0.210 HD
ENDBRANCH   8  16
ENDBRANCH   1   8
BRANCH   4  18
HETATM   18  C   UNL     1      -8.217 -13.102 -38.466  1.00  0.00     0.295 C 
BRANCH  18  19
HETATM   19  C   UNL     1      -9.416 -13.083 -39.361  1.00  0.00     0.081 A 
HETATM   20  N   UNL     1      -9.869 -11.908 -39.831  1.00  0.00    -0.178 NA
HETATM   21  N   UNL     1     -10.931 -12.256 -40.592  1.00  0.00    -0.289 N 
HETATM   22  H   UNL     1     -11.446 -11.529 -41.082  1.00  0.00     0.188 HD
HETATM   23  C   UNL     1     -11.174 -13.598 -40.587  1.00  0.00     0.111 A 
HETATM   24  C   UNL     1     -10.205 -14.168 -39.800  1.00  0.00     0.049 A 
ENDBRANCH  18  19
ENDBRANCH   4  18
TORSDOF 5
ENDMDL
MODEL 7
REMARK VINA RESULT:      -7.0      5.184      6.902
REMARK  5 active torsions:
REMARK  status: ('A' for Active; 'I' for Inactive)
REMARK    1  A    between atoms: C_2  and  C_3 
REMARK    2  A    between atoms: C_3  and  O_4 
REMARK    3  A    between atoms: C_3  and  C_5 
REMARK    4  A    between atoms: N_8  and  C_10 
REMARK    5  A    between atoms: C_10  and  C_11 
ROOT
HETATM    1  C   UNL     1      -4.681   1.386 -32.775  1.00  0.00     0.022 C 
HETATM    2  C   UNL     1      -3.786   2.314 -31.937  1.00  0.00     0.035 C 
HETATM    3  C   UNL     1      -4.528   3.049 -30.831  1.00  0.00     0.235 C 
HETATM    4  N   UNL     1      -5.693   3.808 -31.405  1.00  0.00    -0.066 N 
HETATM    5  H   UNL     1      -5.290   4.562 -31.989  1.00  0.00     0.280 HD
HETATM    6  C   UNL     1      -6.626   2.977 -32.228  1.00  0.00     0.235 C 
HETATM    7  C   UNL     1      -5.866   2.214 -33.305  1.00  0.00     0.035 C 
ENDROOT
BRANCH   1   8
HETATM    8  C   UNL     1      -5.159   0.100 -32.052  1.00  0.00     0.155 C 
BRANCH   8   9
HETATM    9  C   UNL     1      -5.447  -1.060 -32.986  1.00  0.00    -0.029 A 
HETATM   10  C   UNL     1      -6.735  -1.301 -33.495  1.00  0.00     0.011 A 
HETATM   11  C   UNL     1      -6.974  -2.379 -34.350  1.00  0.00     0.024 A 
HETATM   12  C   UNL     1      -5.928  -3.224 -34.710  1.00  0.00     0.034 A 
HETATM   13  C   UNL     1      -4.644  -3.001 -34.218  1.00  0.00     0.024 A 
HETATM   14 CL   UNL     1      -6.223  -4.548 -35.766  1.00  0.00    -0.084 Cl
HETATM   15  C   UNL     1      -4.406  -1.925 -33.357  1.00  0.00     0.011 A 
ENDBRANCH   8   9
BRANCH   8  16
HETATM   16  O   UNL     1      -4.227  -0.296 -31.048  1.00  0.00    -0.391 OA
HETATM   17  H   UNL     1      -4.666  -0.127 -30.190  1.00  0.00     0.210 HD
ENDBRANCH   8  16
ENDBRANCH   1   8
BRANCH   4  18
HETATM   18  C   UNL     1      -6.433   4.590 -30.330  1.00  0.00     0.295 C 
BRANCH  18  19
HETATM   19  C   UNL     1      -5.505   5.474 -29.558  1.00  0.00     0.081 A 
HETATM   20  N   UNL     1      -5.463   5.376 -28.218  1.00  0.00    -0.178 NA
HETATM   21  N   UNL     1      -4.535   6.291 -27.859  1.00  0.00    -0.289 N 
HETATM   22  H   UNL     1      -4.303   6.399 -26.875  1.00  0.00     0.188 HD
HETATM   23  C   UNL     1      -4.024   6.977 -28.922  1.00  0.00     0.111 A 
HETATM   24  C   UNL     1      -4.629   6.468 -30.044  1.00  0.00     0.049 A 
ENDBRANCH  18  19
ENDBRANCH   4  18
TORSDOF 5
ENDMDL
MODEL 8
REMARK VINA RESULT:      -6.9      2.467      3.040
REMARK  5 active torsions:
REMARK  status: ('A' for Active; 'I' for Inactive)
REMARK    1  A    between atoms: C_2  and  C_3 
REMARK    2  A    between atoms: C_3  and  O_4 
REMARK    3  A    between atoms: C_3  and  C_5 
REMARK    4  A    between atoms: N_8  and  C_10 
REMARK    5  A    between atoms: C_10  and  C_11 
ROOT
HETATM    1  C   UNL     1      -6.202   1.142 -32.546  1.00  0.00     0.022 C 
HETATM    2  C   UNL     1      -7.241   0.562 -31.572  1.00  0.00     0.035 C 
HETATM    3  C   UNL     1      -8.655   1.072 -31.807  1.00  0.00     0.235 C 
HETATM    4  N   UNL     1      -8.674   2.577 -31.774  1.00  0.00    -0.066 N 
HETATM    5  H   UNL     1      -8.462   2.849 -30.798  1.00  0.00     0.280 HD
HETATM    6  C   UNL     1      -7.699   3.227 -32.703  1.00  0.00     0.235 C 
HETATM    7  C   UNL     1      -6.295   2.678 -32.487  1.00  0.00     0.035 C 
ENDROOT
BRANCH   1   8
HETATM    8  C   UNL     1      -6.297   0.617 -34.003  1.00  0.00     0.155 C 
BRANCH   8   9
HETATM    9  C   UNL     1      -5.958  -0.854 -34.149  1.00  0.00    -0.029 A 
HETATM   10  C   UNL     1      -6.884  -1.783 -34.654  1.00  0.00     0.011 A 
HETATM   11  C   UNL     1      -6.547  -3.133 -34.774  1.00  0.00     0.024 A 
HETATM   12  C   UNL     1      -5.279  -3.568 -34.396  1.00  0.00     0.034 A 
HETATM   13  C   UNL     1      -4.347  -2.662 -33.895  1.00  0.00     0.024 A 
HETATM   14 CL   UNL     1      -4.865  -5.230 -34.548  1.00  0.00    -0.084 Cl
HETATM   15  C   UNL     1      -4.687  -1.312 -33.769  1.00  0.00     0.011 A 
ENDBRANCH   8   9
BRANCH   8  16
HETATM   16  O   UNL     1      -7.583   0.885 -34.557  1.00  0.00    -0.391 OA
HETATM   17  H   UNL     1      -8.149   0.128 -34.305  1.00  0.00     0.210 HD
ENDBRANCH   8  16
ENDBRANCH   1   8
BRANCH   4  18
HETATM   18  C   UNL     1     -10.083   3.120 -31.964  1.00  0.00     0.295 C 
BRANCH  18  19
HETATM   19  C   UNL     1     -10.386   3.363 -33.409  1.00  0.00     0.081 A 
HETATM   20  N   UNL     1     -10.514   2.315 -34.241  1.00  0.00    -0.178 NA
HETATM   21  N   UNL     1     -10.787   2.887 -35.435  1.00  0.00    -0.289 N 
HETATM   22  H   UNL     1     -10.948   2.290 -36.242  1.00  0.00     0.188 HD
HETATM   23  C   UNL     1     -10.801   4.250 -35.384  1.00  0.00     0.111 A 
HETATM   24  C   UNL     1     -10.548   4.594 -34.079  1.00  0.00     0.049 A 
ENDBRANCH  18  19
ENDBRANCH   4  18
TORSDOF 5
ENDMDL
MODEL 9
REMARK VINA RESULT:      -6.8      1.438      2.114
REMARK  5 active torsions:
REMARK  status: ('A' for Active; 'I' for Inactive)
REMARK    1  A    between atoms: C_2  and  C_3 
REMARK    2  A    between atoms: C_3  and  O_4 
REMARK    3  A    between atoms: C_3  and  C_5 
REMARK    4  A    between atoms: N_8  and  C_10 
REMARK    5  A    between atoms: C_10  and  C_11 
ROOT
HETATM    1  C   UNL     1      -6.827   0.980 -31.719  1.00  0.00     0.022 C 
HETATM    2  C   UNL     1      -7.937  -0.072 -31.875  1.00  0.00     0.035 C 
HETATM    3  C   UNL     1      -8.872   0.190 -33.046  1.00  0.00     0.235 C 
HETATM    4  N   UNL     1      -9.458   1.573 -32.941  1.00  0.00    -0.066 N 
HETATM    5  H   UNL     1     -10.079   1.564 -32.114  1.00  0.00     0.280 HD
HETATM    6  C   UNL     1      -8.444   2.663 -32.799  1.00  0.00     0.235 C 
HETATM    7  C   UNL     1      -7.488   2.369 -31.650  1.00  0.00     0.035 C 
ENDROOT
BRANCH   1   8
HETATM    8  C   UNL     1      -5.713   0.929 -32.798  1.00  0.00     0.155 C 
BRANCH   8   9
HETATM    9  C   UNL     1      -5.142  -0.458 -33.026  1.00  0.00    -0.029 A 
HETATM   10  C   UNL     1      -5.546  -1.258 -34.109  1.00  0.00     0.011 A 
HETATM   11  C   UNL     1      -5.008  -2.534 -34.293  1.00  0.00     0.024 A 
HETATM   12  C   UNL     1      -4.057  -3.021 -33.400  1.00  0.00     0.034 A 
HETATM   13  C   UNL     1      -3.643  -2.242 -32.322  1.00  0.00     0.024 A 
HETATM   14 CL   UNL     1      -3.393  -4.590 -33.630  1.00  0.00    -0.084 Cl
HETATM   15  C   UNL     1      -4.186  -0.968 -32.134  1.00  0.00     0.011 A 
ENDBRANCH   8   9
BRANCH   8  16
HETATM   16  O   UNL     1      -6.170   1.483 -34.029  1.00  0.00    -0.391 OA
HETATM   17  H   UNL     1      -5.491   1.259 -34.696  1.00  0.00     0.210 HD
ENDBRANCH   8  16
ENDBRANCH   1   8
BRANCH   4  18
HETATM   18  C   UNL     1     -10.432   1.853 -34.076  1.00  0.00     0.295 C 
BRANCH  18  19
HETATM   19  C   UNL     1     -11.852   1.690 -33.633  1.00  0.00     0.081 A 
HETATM   20  N   UNL     1     -12.393   0.460 -33.595  1.00  0.00    -0.178 NA
HETATM   21  N   UNL     1     -13.652   0.679 -33.153  1.00  0.00    -0.289 N 
HETATM   22  H   UNL     1     -14.273  -0.115 -33.018  1.00  0.00     0.188 HD
HETATM   23  C   UNL     1     -13.923   2.000 -32.946  1.00  0.00     0.111 A 
HETATM   24  C   UNL     1     -12.772   2.686 -33.244  1.00  0.00     0.049 A 
ENDBRANCH  18  19
ENDBRANCH   4  18
TORSDOF 5
ENDMDL
MODEL 10
REMARK VINA RESULT:      -6.7      5.534      6.868
REMARK  5 active torsions:
REMARK  status: ('A' for Active; 'I' for Inactive)
REMARK    1  A    between atoms: C_2  and  C_3 
REMARK    2  A    between atoms: C_3  and  O_4 
REMARK    3  A    between atoms: C_3  and  C_5 
REMARK    4  A    between atoms: N_8  and  C_10 
REMARK    5  A    between atoms: C_10  and  C_11 
ROOT
HETATM    1  C   UNL     1      -5.640   1.005 -31.776  1.00  0.00     0.022 C 
HETATM    2  C   UNL     1      -6.286   2.301 -31.259  1.00  0.00     0.035 C 
HETATM    3  C   UNL     1      -5.466   3.551 -31.543  1.00  0.00     0.235 C 
HETATM    4  N   UNL     1      -4.074   3.393 -30.994  1.00  0.00    -0.066 N 
HETATM    5  H   UNL     1      -4.168   3.377 -29.964  1.00  0.00     0.280 HD
HETATM    6  C   UNL     1      -3.364   2.160 -31.456  1.00  0.00     0.235 C 
HETATM    7  C   UNL     1      -4.212   0.920 -31.205  1.00  0.00     0.035 C 
ENDROOT
BRANCH   1   8
HETATM    8  C   UNL     1      -5.652   0.830 -33.317  1.00  0.00     0.155 C 
BRANCH   8   9
HETATM    9  C   UNL     1      -5.714  -0.616 -33.770  1.00  0.00    -0.029 A 
HETATM   10  C   UNL     1      -4.572  -1.434 -33.802  1.00  0.00     0.011 A 
HETATM   11  C   UNL     1      -4.656  -2.762 -34.229  1.00  0.00     0.024 A 
HETATM   12  C   UNL     1      -5.884  -3.287 -34.623  1.00  0.00     0.034 A 
HETATM   13  C   UNL     1      -7.028  -2.493 -34.596  1.00  0.00     0.024 A 
HETATM   14 CL   UNL     1      -5.987  -4.922 -35.144  1.00  0.00    -0.084 Cl
HETATM   15  C   UNL     1      -6.942  -1.163 -34.175  1.00  0.00     0.011 A 
ENDBRANCH   8   9
BRANCH   8  16
HETATM   16  O   UNL     1      -6.712   1.578 -33.906  1.00  0.00    -0.391 OA
HETATM   17  H   UNL     1      -7.403   1.657 -33.218  1.00  0.00     0.210 HD
ENDBRANCH   8  16
ENDBRANCH   1   8
BRANCH   4  18
HETATM   18  C   UNL     1      -3.239   4.644 -31.224  1.00  0.00     0.295 C 
BRANCH  18  19
HETATM   19  C   UNL     1      -4.040   5.888 -30.998  1.00  0.00     0.081 A 
HETATM   20  N   UNL     1      -4.306   6.281 -29.740  1.00  0.00    -0.178 NA
HETATM   21  N   UNL     1      -5.023   7.415 -29.905  1.00  0.00    -0.289 N 
HETATM   22  H   UNL     1      -5.335   7.925 -29.082  1.00  0.00     0.188 HD
HETATM   23  C   UNL     1      -5.240   7.723 -31.216  1.00  0.00     0.111 A 
HETATM   24  C   UNL     1      -4.611   6.753 -31.955  1.00  0.00     0.049 A 
ENDBRANCH  18  19
ENDBRANCH   4  18
TORSDOF 5
ENDMDL
