MODEL 1
REMARK VINA RESULT:      -8.5      0.000      0.000
REMARK  7 active torsions:
REMARK  status: ('A' for Active; 'I' for Inactive)
REMARK    1  A    between atoms: C_2  and  O_3 
REMARK    2  A    between atoms: O_3  and  C_4 
REMARK    3  A    between atoms: C_7  and  N_8 
REMARK    4  A    between atoms: C_9  and  O_10 
REMARK    5  A    between atoms: C_9  and  C_11 
REMARK       I    between atoms: C_11  and  N_12 
REMARK    6  A    between atoms: N_12  and  C_13 
REMARK    7  A    between atoms: C_13  and  C_14 
ROOT
HETATM    1  N   UNL     1      -4.583   4.958 -33.444  1.00  0.00    -0.254 N 
HETATM    2  C   UNL     1      -3.898   4.735 -32.157  1.00  0.00     0.256 C 
HETATM    3  C   UNL     1      -2.767   5.712 -31.929  1.00  0.00     0.034 A 
HETATM    4  C   UNL     1      -2.118   6.219 -33.049  1.00  0.00     0.048 A 
HETATM    5  N   UNL     1      -2.596   5.868 -34.308  1.00  0.00    -0.308 N 
HETATM    6  C   UNL     1      -3.818   5.296 -34.554  1.00  0.00     0.330 C 
HETATM    7  O   UNL     1      -4.162   5.185 -35.730  1.00  0.00    -0.246 OA
HETATM    8  C   UNL     1      -2.290   6.057 -30.656  1.00  0.00     0.015 A 
HETATM    9  C   UNL     1      -1.188   6.903 -30.520  1.00  0.00     0.001 A 
HETATM   10  C   UNL     1      -0.544   7.395 -31.655  1.00  0.00     0.002 A 
HETATM   11  C   UNL     1      -1.002   7.046 -32.925  1.00  0.00     0.030 A 
HETATM   12  H   UNL     1      -2.134   6.221 -35.139  1.00  0.00     0.170 HD
ENDROOT
BRANCH   2  13
HETATM   13  O   UNL     1      -4.803   4.890 -31.060  1.00  0.00    -0.359 OA
HETATM   14  H   UNL     1      -4.355   4.453 -30.310  1.00  0.00     0.213 HD
ENDBRANCH   2  13
BRANCH   2  15
HETATM   15  C   UNL     1      -3.351   3.244 -32.132  1.00  0.00     0.279 C 
HETATM   16  N   UNL     1      -3.932   2.368 -31.238  1.00  0.00    -0.352 N 
HETATM   17  H   UNL     1      -4.715   2.670 -30.671  1.00  0.00     0.162 HD
HETATM   18  O   UNL     1      -2.433   2.893 -32.880  1.00  0.00    -0.268 OA
BRANCH  16  19
HETATM   19  C   UNL     1      -3.536   0.983 -31.175  1.00  0.00     0.161 C 
BRANCH  19  20
HETATM   20  C   UNL     1      -4.481   0.125 -31.974  1.00  0.00    -0.040 A 
HETATM   21  C   UNL     1      -4.014  -0.609 -33.077  1.00  0.00     0.012 A 
HETATM   22  C   UNL     1      -4.895  -1.379 -33.837  1.00  0.00     0.043 A 
HETATM   23  C   UNL     1      -6.243  -1.411 -33.500  1.00  0.00     0.116 A 
HETATM   24  F   UNL     1      -7.088  -2.150 -34.231  1.00  0.00    -0.206 F 
HETATM   25  C   UNL     1      -6.728  -0.683 -32.420  1.00  0.00     0.043 A 
HETATM   26  C   UNL     1      -5.849   0.090 -31.660  1.00  0.00     0.012 A 
ENDBRANCH  19  20
ENDBRANCH  16  19
ENDBRANCH   2  15
BRANCH   1  27
HETATM   27  C   UNL     1      -5.908   4.442 -33.619  1.00  0.00     0.043 A 
HETATM   28  C   UNL     1      -7.039   5.259 -33.516  1.00  0.00     0.032 A 
HETATM   29  C   UNL     1      -8.327   4.731 -33.690  1.00  0.00     0.039 A 
HETATM   30  C   UNL     1      -8.499   3.374 -33.955  1.00  0.00     0.068 A 
HETATM   31  C   UNL     1      -7.379   2.549 -34.019  1.00  0.00     0.039 A 
HETATM   32  C   UNL     1      -6.097   3.076 -33.853  1.00  0.00     0.032 A 
BRANCH  30  33
HETATM   33  O   UNL     1      -9.690   2.732 -34.145  1.00  0.00    -0.352 OA
BRANCH  33  34
HETATM   34  C   UNL     1      -9.644   1.315 -34.294  1.00  0.00     0.171 C 
HETATM   35  C   UNL     1     -10.447   0.705 -33.157  1.00  0.00     0.034 C 
ENDBRANCH  33  34
ENDBRANCH  30  33
ENDBRANCH   1  27
TORSDOF 7
ENDMDL
MODEL 2
REMARK VINA RESULT:      -8.4      2.765      4.346
REMARK  7 active torsions:
REMARK  status: ('A' for Active; 'I' for Inactive)
REMARK    1  A    between atoms: C_2  and  O_3 
REMARK    2  A    between atoms: O_3  and  C_4 
REMARK    3  A    between atoms: C_7  and  N_8 
REMARK    4  A    between atoms: C_9  and  O_10 
REMARK    5  A    between atoms: C_9  and  C_11 
REMARK       I    between atoms: C_11  and  N_12 
REMARK    6  A    between atoms: N_12  and  C_13 
REMARK    7  A    between atoms: C_13  and  C_14 
ROOT
HETATM    1  N   UNL     1      -7.898   3.261 -33.034  1.00  0.00    -0.254 N 
HETATM    2  C   UNL     1      -7.066   2.097 -32.677  1.00  0.00     0.256 C 
HETATM    3  C   UNL     1      -5.648   2.487 -32.324  1.00  0.00     0.034 A 
HETATM    4  C   UNL     1      -5.127   3.630 -32.920  1.00  0.00     0.048 A 
HETATM    5  N   UNL     1      -5.959   4.390 -33.736  1.00  0.00    -0.308 N 
HETATM    6  C   UNL     1      -7.325   4.280 -33.786  1.00  0.00     0.330 C 
HETATM    7  O   UNL     1      -7.935   5.125 -34.442  1.00  0.00    -0.246 OA
HETATM    8  C   UNL     1      -4.816   1.711 -31.503  1.00  0.00     0.015 A 
HETATM    9  C   UNL     1      -3.491   2.089 -31.284  1.00  0.00     0.001 A 
HETATM   10  C   UNL     1      -2.982   3.234 -31.898  1.00  0.00     0.002 A 
HETATM   11  C   UNL     1      -3.798   4.003 -32.726  1.00  0.00     0.030 A 
HETATM   12  H   UNL     1      -5.598   5.224 -34.187  1.00  0.00     0.170 HD
ENDROOT
BRANCH   2  13
HETATM   13  O   UNL     1      -7.601   1.414 -31.539  1.00  0.00    -0.359 OA
HETATM   14  H   UNL     1      -6.828   0.978 -31.130  1.00  0.00     0.213 HD
ENDBRANCH   2  13
BRANCH   2  15
HETATM   15  C   UNL     1      -7.070   1.084 -33.901  1.00  0.00     0.279 C 
HETATM   16  N   UNL     1      -7.395  -0.230 -33.637  1.00  0.00    -0.352 N 
HETATM   17  H   UNL     1      -7.675  -0.504 -32.703  1.00  0.00     0.162 HD
HETATM   18  O   UNL     1      -6.780   1.465 -35.039  1.00  0.00    -0.268 OA
BRANCH  16  19
HETATM   19  C   UNL     1      -7.472  -1.213 -34.690  1.00  0.00     0.161 C 
BRANCH  19  20
HETATM   20  C   UNL     1      -6.415  -2.269 -34.506  1.00  0.00    -0.040 A 
HETATM   21  C   UNL     1      -5.158  -1.932 -33.979  1.00  0.00     0.012 A 
HETATM   22  C   UNL     1      -4.167  -2.905 -33.839  1.00  0.00     0.043 A 
HETATM   23  C   UNL     1      -4.429  -4.212 -34.231  1.00  0.00     0.116 A 
HETATM   24  F   UNL     1      -3.477  -5.144 -34.097  1.00  0.00    -0.206 F 
HETATM   25  C   UNL     1      -5.662  -4.564 -34.766  1.00  0.00     0.043 A 
HETATM   26  C   UNL     1      -6.654  -3.592 -34.910  1.00  0.00     0.012 A 
ENDBRANCH  19  20
ENDBRANCH  16  19
ENDBRANCH   2  15
BRANCH   1  27
HETATM   27  C   UNL     1      -9.323   3.140 -32.962  1.00  0.00     0.043 A 
HETATM   28  C   UNL     1     -10.046   2.361 -33.872  1.00  0.00     0.032 A 
HETATM   29  C   UNL     1     -11.442   2.260 -33.783  1.00  0.00     0.039 A 
HETATM   30  C   UNL     1     -12.134   2.949 -32.789  1.00  0.00     0.068 A 
HETATM   31  C   UNL     1     -11.423   3.757 -31.905  1.00  0.00     0.039 A 
HETATM   32  C   UNL     1     -10.033   3.853 -31.989  1.00  0.00     0.032 A 
BRANCH  30  33
HETATM   33  O   UNL     1     -13.485   2.938 -32.589  1.00  0.00    -0.352 OA
BRANCH  33  34
HETATM   34  C   UNL     1     -14.196   1.789 -33.043  1.00  0.00     0.171 C 
HETATM   35  C   UNL     1     -15.638   1.927 -32.586  1.00  0.00     0.034 C 
ENDBRANCH  33  34
ENDBRANCH  30  33
ENDBRANCH   1  27
TORSDOF 7
ENDMDL
MODEL 3
REMARK VINA RESULT:      -8.2      2.196      6.341
REMARK  7 active torsions:
REMARK  status: ('A' for Active; 'I' for Inactive)
REMARK    1  A    between atoms: C_2  and  O_3 
REMARK    2  A    between atoms: O_3  and  C_4 
REMARK    3  A    between atoms: C_7  and  N_8 
REMARK    4  A    between atoms: C_9  and  O_10 
REMARK    5  A    between atoms: C_9  and  C_11 
REMARK       I    between atoms: C_11  and  N_12 
REMARK    6  A    between atoms: N_12  and  C_13 
REMARK    7  A    between atoms: C_13  and  C_14 
ROOT
HETATM    1  N   UNL     1      -6.258   3.841 -32.009  1.00  0.00    -0.254 N 
HETATM    2  C   UNL     1      -6.659   2.748 -32.913  1.00  0.00     0.256 C 
HETATM    3  C   UNL     1      -8.160   2.652 -33.074  1.00  0.00     0.034 A 
HETATM    4  C   UNL     1      -8.950   3.080 -32.011  1.00  0.00     0.048 A 
HETATM    5  N   UNL     1      -8.323   3.643 -30.904  1.00  0.00    -0.308 N 
HETATM    6  C   UNL     1      -7.023   4.078 -30.873  1.00  0.00     0.330 C 
HETATM    7  O   UNL     1      -6.658   4.693 -29.871  1.00  0.00    -0.246 OA
HETATM    8  C   UNL     1      -8.782   2.079 -34.192  1.00  0.00     0.015 A 
HETATM    9  C   UNL     1     -10.171   1.950 -34.239  1.00  0.00     0.001 A 
HETATM   10  C   UNL     1     -10.947   2.376 -33.161  1.00  0.00     0.002 A 
HETATM   11  C   UNL     1     -10.336   2.934 -32.038  1.00  0.00     0.030 A 
HETATM   12  H   UNL     1      -8.879   3.955 -30.115  1.00  0.00     0.170 HD
ENDROOT
BRANCH   2  13
HETATM   13  O   UNL     1      -6.117   2.939 -34.223  1.00  0.00    -0.359 OA
HETATM   14  H   UNL     1      -5.888   3.888 -34.257  1.00  0.00     0.213 HD
ENDBRANCH   2  13
BRANCH   2  15
HETATM   15  C   UNL     1      -6.080   1.384 -32.339  1.00  0.00     0.279 C 
HETATM   16  N   UNL     1      -5.210   0.675 -33.140  1.00  0.00    -0.352 N 
HETATM   17  H   UNL     1      -4.920   1.057 -34.033  1.00  0.00     0.162 HD
HETATM   18  O   UNL     1      -6.410   0.977 -31.221  1.00  0.00    -0.268 OA
BRANCH  16  19
HETATM   19  C   UNL     1      -4.595  -0.548 -32.688  1.00  0.00     0.161 C 
BRANCH  19  20
HETATM   20  C   UNL     1      -5.128  -1.726 -33.459  1.00  0.00    -0.040 A 
HETATM   21  C   UNL     1      -4.283  -2.795 -33.798  1.00  0.00     0.012 A 
HETATM   22  C   UNL     1      -4.769  -3.872 -34.540  1.00  0.00     0.043 A 
HETATM   23  C   UNL     1      -6.097  -3.879 -34.950  1.00  0.00     0.116 A 
HETATM   24  F   UNL     1      -6.562  -4.913 -35.662  1.00  0.00    -0.206 F 
HETATM   25  C   UNL     1      -6.947  -2.826 -34.635  1.00  0.00     0.043 A 
HETATM   26  C   UNL     1      -6.463  -1.745 -33.895  1.00  0.00     0.012 A 
ENDBRANCH  19  20
ENDBRANCH  16  19
ENDBRANCH   2  15
BRANCH   1  27
HETATM   27  C   UNL     1      -4.921   4.347 -32.089  1.00  0.00     0.043 A 
HETATM   28  C   UNL     1      -3.838   3.668 -31.520  1.00  0.00     0.032 A 
HETATM   29  C   UNL     1      -2.536   4.184 -31.608  1.00  0.00     0.039 A 
HETATM   30  C   UNL     1      -2.305   5.396 -32.256  1.00  0.00     0.068 A 
HETATM   31  C   UNL     1      -3.384   6.096 -32.790  1.00  0.00     0.039 A 
HETATM   32  C   UNL     1      -4.679   5.579 -32.707  1.00  0.00     0.032 A 
BRANCH  30  33
HETATM   33  O   UNL     1      -1.095   6.009 -32.414  1.00  0.00    -0.352 OA
BRANCH  33  34
HETATM   34  C   UNL     1      -0.049   5.612 -31.530  1.00  0.00     0.171 C 
HETATM   35  C   UNL     1       0.323   6.818 -30.684  1.00  0.00     0.034 C 
ENDBRANCH  33  34
ENDBRANCH  30  33
ENDBRANCH   1  27
TORSDOF 7
ENDMDL
MODEL 4
REMARK VINA RESULT:      -7.9      3.048      6.306
REMARK  7 active torsions:
REMARK  status: ('A' for Active; 'I' for Inactive)
REMARK    1  A    between atoms: C_2  and  O_3 
REMARK    2  A    between atoms: O_3  and  C_4 
REMARK    3  A    between atoms: C_7  and  N_8 
REMARK    4  A    between atoms: C_9  and  O_10 
REMARK    5  A    between atoms: C_9  and  C_11 
REMARK       I    between atoms: C_11  and  N_12 
REMARK    6  A    between atoms: N_12  and  C_13 
REMARK    7  A    between atoms: C_13  and  C_14 
ROOT
HETATM    1  N   UNL     1      -8.693   1.087 -32.524  1.00  0.00    -0.254 N 
HETATM    2  C   UNL     1      -7.511   0.692 -33.311  1.00  0.00     0.256 C 
HETATM    3  C   UNL     1      -6.376   0.202 -32.441  1.00  0.00     0.034 A 
HETATM    4  C   UNL     1      -6.284   0.715 -31.152  1.00  0.00     0.048 A 
HETATM    5  N   UNL     1      -7.282   1.578 -30.710  1.00  0.00    -0.308 N 
HETATM    6  C   UNL     1      -8.497   1.754 -31.320  1.00  0.00     0.330 C 
HETATM    7  O   UNL     1      -9.333   2.436 -30.727  1.00  0.00    -0.246 OA
HETATM    8  C   UNL     1      -5.373  -0.666 -32.898  1.00  0.00     0.015 A 
HETATM    9  C   UNL     1      -4.308  -1.014 -32.065  1.00  0.00     0.001 A 
HETATM   10  C   UNL     1      -4.228  -0.484 -30.778  1.00  0.00     0.002 A 
HETATM   11  C   UNL     1      -5.213   0.391 -30.320  1.00  0.00     0.030 A 
HETATM   12  H   UNL     1      -7.232   1.970 -29.775  1.00  0.00     0.170 HD
ENDROOT
BRANCH   2  13
HETATM   13  O   UNL     1      -7.827  -0.373 -34.214  1.00  0.00    -0.359 OA
HETATM   14  H   UNL     1      -8.406   0.039 -34.884  1.00  0.00     0.213 HD
ENDBRANCH   2  13
BRANCH   2  15
HETATM   15  C   UNL     1      -7.043   1.941 -34.174  1.00  0.00     0.279 C 
HETATM   16  N   UNL     1      -6.796   3.121 -33.504  1.00  0.00    -0.352 N 
HETATM   17  H   UNL     1      -6.860   3.151 -32.494  1.00  0.00     0.162 HD
HETATM   18  O   UNL     1      -6.919   1.853 -35.400  1.00  0.00    -0.268 OA
BRANCH  16  19
HETATM   19  C   UNL     1      -6.321   4.294 -34.194  1.00  0.00     0.161 C 
BRANCH  19  20
HETATM   20  C   UNL     1      -4.835   4.451 -34.013  1.00  0.00    -0.040 A 
HETATM   21  C   UNL     1      -4.199   3.930 -32.874  1.00  0.00     0.012 A 
HETATM   22  C   UNL     1      -2.827   4.102 -32.690  1.00  0.00     0.043 A 
HETATM   23  C   UNL     1      -2.090   4.800 -33.640  1.00  0.00     0.116 A 
HETATM   24  F   UNL     1      -0.772   4.965 -33.462  1.00  0.00    -0.206 F 
HETATM   25  C   UNL     1      -2.701   5.333 -34.768  1.00  0.00     0.043 A 
HETATM   26  C   UNL     1      -4.075   5.164 -34.954  1.00  0.00     0.012 A 
ENDBRANCH  19  20
ENDBRANCH  16  19
ENDBRANCH   2  15
BRANCH   1  27
HETATM   27  C   UNL     1      -9.968   1.147 -33.175  1.00  0.00     0.043 A 
HETATM   28  C   UNL     1     -10.348   2.242 -33.957  1.00  0.00     0.032 A 
HETATM   29  C   UNL     1     -11.603   2.279 -34.583  1.00  0.00     0.039 A 
HETATM   30  C   UNL     1     -12.500   1.225 -34.422  1.00  0.00     0.068 A 
HETATM   31  C   UNL     1     -12.142   0.150 -33.611  1.00  0.00     0.039 A 
HETATM   32  C   UNL     1     -10.890   0.110 -32.994  1.00  0.00     0.032 A 
BRANCH  30  33
HETATM   33  O   UNL     1     -13.747   1.133 -34.971  1.00  0.00    -0.352 OA
BRANCH  33  34
HETATM   34  C   UNL     1     -14.776   0.589 -34.148  1.00  0.00     0.171 C 
HETATM   35  C   UNL     1     -15.207   1.670 -33.172  1.00  0.00     0.034 C 
ENDBRANCH  33  34
ENDBRANCH  30  33
ENDBRANCH   1  27
TORSDOF 7
ENDMDL
MODEL 5
REMARK VINA RESULT:      -7.9      2.769      7.162
REMARK  7 active torsions:
REMARK  status: ('A' for Active; 'I' for Inactive)
REMARK    1  A    between atoms: C_2  and  O_3 
REMARK    2  A    between atoms: O_3  and  C_4 
REMARK    3  A    between atoms: C_7  and  N_8 
REMARK    4  A    between atoms: C_9  and  O_10 
REMARK    5  A    between atoms: C_9  and  C_11 
REMARK       I    between atoms: C_11  and  N_12 
REMARK    6  A    between atoms: N_12  and  C_13 
REMARK    7  A    between atoms: C_13  and  C_14 
ROOT
HETATM    1  N   UNL     1      -8.996   3.325 -32.817  1.00  0.00    -0.254 N 
HETATM    2  C   UNL     1      -9.493   2.248 -33.692  1.00  0.00     0.256 C 
HETATM    3  C   UNL     1     -11.001   2.246 -33.806  1.00  0.00     0.034 A 
HETATM    4  C   UNL     1     -11.729   2.735 -32.726  1.00  0.00     0.048 A 
HETATM    5  N   UNL     1     -11.034   3.271 -31.646  1.00  0.00    -0.308 N 
HETATM    6  C   UNL     1      -9.708   3.623 -31.661  1.00  0.00     0.330 C 
HETATM    7  O   UNL     1      -9.274   4.225 -30.679  1.00  0.00    -0.246 OA
HETATM    8  C   UNL     1     -11.693   1.701 -34.897  1.00  0.00     0.015 A 
HETATM    9  C   UNL     1     -13.088   1.660 -34.900  1.00  0.00     0.001 A 
HETATM   10  C   UNL     1     -13.801   2.146 -33.804  1.00  0.00     0.002 A 
HETATM   11  C   UNL     1     -13.122   2.677 -32.709  1.00  0.00     0.030 A 
HETATM   12  H   UNL     1     -11.543   3.626 -30.845  1.00  0.00     0.170 HD
ENDROOT
BRANCH   2  13
HETATM   13  O   UNL     1      -8.981   2.390 -35.021  1.00  0.00    -0.359 OA
HETATM   14  H   UNL     1      -9.719   2.783 -35.527  1.00  0.00     0.213 HD
ENDBRANCH   2  13
BRANCH   2  15
HETATM   15  C   UNL     1      -8.983   0.858 -33.118  1.00  0.00     0.279 C 
HETATM   16  N   UNL     1      -8.003   0.197 -33.828  1.00  0.00    -0.352 N 
HETATM   17  H   UNL     1      -7.597   0.628 -34.650  1.00  0.00     0.162 HD
HETATM   18  O   UNL     1      -9.460   0.388 -32.080  1.00  0.00    -0.268 OA
BRANCH  16  19
HETATM   19  C   UNL     1      -7.443  -1.047 -33.362  1.00  0.00     0.161 C 
BRANCH  19  20
HETATM   20  C   UNL     1      -6.102  -0.815 -32.715  1.00  0.00    -0.040 A 
HETATM   21  C   UNL     1      -6.022  -0.406 -31.374  1.00  0.00     0.012 A 
HETATM   22  C   UNL     1      -4.781  -0.160 -30.785  1.00  0.00     0.043 A 
HETATM   23  C   UNL     1      -3.622  -0.316 -31.535  1.00  0.00     0.116 A 
HETATM   24  F   UNL     1      -2.432  -0.079 -30.968  1.00  0.00    -0.206 F 
HETATM   25  C   UNL     1      -3.680  -0.709 -32.867  1.00  0.00     0.043 A 
HETATM   26  C   UNL     1      -4.920  -0.953 -33.461  1.00  0.00     0.012 A 
ENDBRANCH  19  20
ENDBRANCH  16  19
ENDBRANCH   2  15
BRANCH   1  27
HETATM   27  C   UNL     1      -7.632   3.744 -32.944  1.00  0.00     0.043 A 
HETATM   28  C   UNL     1      -6.576   2.997 -32.411  1.00  0.00     0.032 A 
HETATM   29  C   UNL     1      -5.248   3.429 -32.546  1.00  0.00     0.039 A 
HETATM   30  C   UNL     1      -4.962   4.623 -33.205  1.00  0.00     0.068 A 
HETATM   31  C   UNL     1      -6.012   5.390 -33.702  1.00  0.00     0.039 A 
HETATM   32  C   UNL     1      -7.334   4.957 -33.574  1.00  0.00     0.032 A 
BRANCH  30  33
HETATM   33  O   UNL     1      -3.722   5.158 -33.406  1.00  0.00    -0.352 OA
BRANCH  33  34
HETATM   34  C   UNL     1      -2.611   4.268 -33.311  1.00  0.00     0.171 C 
HETATM   35  C   UNL     1      -1.663   4.823 -32.262  1.00  0.00     0.034 C 
ENDBRANCH  33  34
ENDBRANCH  30  33
ENDBRANCH   1  27
TORSDOF 7
ENDMDL
MODEL 6
REMARK VINA RESULT:      -7.8      3.049      5.918
REMARK  7 active torsions:
REMARK  status: ('A' for Active; 'I' for Inactive)
REMARK    1  A    between atoms: C_2  and  O_3 
REMARK    2  A    between atoms: O_3  and  C_4 
REMARK    3  A    between atoms: C_7  and  N_8 
REMARK    4  A    between atoms: C_9  and  O_10 
REMARK    5  A    between atoms: C_9  and  C_11 
REMARK       I    between atoms: C_11  and  N_12 
REMARK    6  A    between atoms: N_12  and  C_13 
REMARK    7  A    between atoms: C_13  and  C_14 
ROOT
HETATM    1  N   UNL     1      -6.356   1.494 -31.963  1.00  0.00    -0.254 N 
HETATM    2  C   UNL     1      -5.806   2.821 -32.295  1.00  0.00     0.256 C 
HETATM    3  C   UNL     1      -5.786   3.752 -31.104  1.00  0.00     0.034 A 
HETATM    4  C   UNL     1      -6.752   3.562 -30.122  1.00  0.00     0.048 A 
HETATM    5  N   UNL     1      -7.622   2.483 -30.247  1.00  0.00    -0.308 N 
HETATM    6  C   UNL     1      -7.441   1.422 -31.098  1.00  0.00     0.330 C 
HETATM    7  O   UNL     1      -8.215   0.472 -30.985  1.00  0.00    -0.246 OA
HETATM    8  C   UNL     1      -4.908   4.839 -30.989  1.00  0.00     0.015 A 
HETATM    9  C   UNL     1      -4.999   5.707 -29.900  1.00  0.00     0.001 A 
HETATM   10  C   UNL     1      -5.979   5.506 -28.928  1.00  0.00     0.002 A 
HETATM   11  C   UNL     1      -6.866   4.436 -29.042  1.00  0.00     0.030 A 
HETATM   12  H   UNL     1      -8.338   2.328 -29.546  1.00  0.00     0.170 HD
ENDROOT
BRANCH   2  13
HETATM   13  O   UNL     1      -4.456   2.716 -32.758  1.00  0.00    -0.359 OA
HETATM   14  H   UNL     1      -4.147   1.854 -32.419  1.00  0.00     0.213 HD
ENDBRANCH   2  13
BRANCH   2  15
HETATM   15  C   UNL     1      -6.677   3.445 -33.468  1.00  0.00     0.279 C 
HETATM   16  N   UNL     1      -8.044   3.488 -33.292  1.00  0.00    -0.352 N 
HETATM   17  H   UNL     1      -8.451   3.181 -32.416  1.00  0.00     0.162 HD
HETATM   18  O   UNL     1      -6.143   3.865 -34.500  1.00  0.00    -0.268 OA
BRANCH  16  19
HETATM   19  C   UNL     1      -8.913   4.080 -34.278  1.00  0.00     0.161 C 
BRANCH  19  20
HETATM   20  C   UNL     1     -10.153   3.245 -34.461  1.00  0.00    -0.040 A 
HETATM   21  C   UNL     1     -10.279   2.008 -33.809  1.00  0.00     0.012 A 
HETATM   22  C   UNL     1     -11.414   1.220 -34.004  1.00  0.00     0.043 A 
HETATM   23  C   UNL     1     -12.420   1.664 -34.853  1.00  0.00     0.116 A 
HETATM   24  F   UNL     1     -13.509   0.906 -35.039  1.00  0.00    -0.206 F 
HETATM   25  C   UNL     1     -12.310   2.879 -35.517  1.00  0.00     0.043 A 
HETATM   26  C   UNL     1     -11.174   3.669 -35.327  1.00  0.00     0.012 A 
ENDBRANCH  19  20
ENDBRANCH  16  19
ENDBRANCH   2  15
BRANCH   1  27
HETATM   27  C   UNL     1      -6.048   0.385 -32.816  1.00  0.00     0.043 A 
HETATM   28  C   UNL     1      -6.777   0.124 -33.982  1.00  0.00     0.032 A 
HETATM   29  C   UNL     1      -6.458  -0.970 -34.801  1.00  0.00     0.039 A 
HETATM   30  C   UNL     1      -5.413  -1.824 -34.456  1.00  0.00     0.068 A 
HETATM   31  C   UNL     1      -4.709  -1.591 -33.276  1.00  0.00     0.039 A 
HETATM   32  C   UNL     1      -5.022  -0.499 -32.464  1.00  0.00     0.032 A 
BRANCH  30  33
HETATM   33  O   UNL     1      -4.998  -2.919 -35.159  1.00  0.00    -0.352 OA
BRANCH  33  34
HETATM   34  C   UNL     1      -5.425  -4.193 -34.681  1.00  0.00     0.171 C 
HETATM   35  C   UNL     1      -6.727  -4.537 -35.385  1.00  0.00     0.034 C 
ENDBRANCH  33  34
ENDBRANCH  30  33
ENDBRANCH   1  27
TORSDOF 7
ENDMDL
MODEL 7
REMARK VINA RESULT:      -7.7      2.974      7.305
REMARK  7 active torsions:
REMARK  status: ('A' for Active; 'I' for Inactive)
REMARK    1  A    between atoms: C_2  and  O_3 
REMARK    2  A    between atoms: O_3  and  C_4 
REMARK    3  A    between atoms: C_7  and  N_8 
REMARK    4  A    between atoms: C_9  and  O_10 
REMARK    5  A    between atoms: C_9  and  C_11 
REMARK       I    between atoms: C_11  and  N_12 
REMARK    6  A    between atoms: N_12  and  C_13 
REMARK    7  A    between atoms: C_13  and  C_14 
ROOT
HETATM    1  N   UNL     1      -8.448   1.682 -33.117  1.00  0.00    -0.254 N 
HETATM    2  C   UNL     1      -9.079   2.912 -32.605  1.00  0.00     0.256 C 
HETATM    3  C   UNL     1     -10.536   3.019 -32.996  1.00  0.00     0.034 A 
HETATM    4  C   UNL     1     -10.932   2.407 -34.180  1.00  0.00     0.048 A 
HETATM    5  N   UNL     1      -9.993   1.665 -34.889  1.00  0.00    -0.308 N 
HETATM    6  C   UNL     1      -8.786   1.244 -34.393  1.00  0.00     0.330 C 
HETATM    7  O   UNL     1      -8.130   0.468 -35.088  1.00  0.00    -0.246 OA
HETATM    8  C   UNL     1     -11.475   3.772 -32.275  1.00  0.00     0.015 A 
HETATM    9  C   UNL     1     -12.786   3.894 -32.738  1.00  0.00     0.001 A 
HETATM   10  C   UNL     1     -13.164   3.280 -33.932  1.00  0.00     0.002 A 
HETATM   11  C   UNL     1     -12.233   2.542 -34.662  1.00  0.00     0.030 A 
HETATM   12  H   UNL     1     -10.257   1.216 -35.759  1.00  0.00     0.170 HD
ENDROOT
BRANCH   2  13
HETATM   13  O   UNL     1      -9.032   2.956 -31.175  1.00  0.00    -0.359 OA
HETATM   14  H   UNL     1      -9.968   2.909 -30.899  1.00  0.00     0.213 HD
ENDBRANCH   2  13
BRANCH   2  15
HETATM   15  C   UNL     1      -8.267   4.160 -33.159  1.00  0.00     0.279 C 
HETATM   16  N   UNL     1      -7.538   4.899 -32.251  1.00  0.00    -0.352 N 
HETATM   17  H   UNL     1      -7.488   4.604 -31.284  1.00  0.00     0.162 HD
HETATM   18  O   UNL     1      -8.304   4.458 -34.358  1.00  0.00    -0.268 OA
BRANCH  16  19
HETATM   19  C   UNL     1      -6.732   6.020 -32.666  1.00  0.00     0.161 C 
BRANCH  19  20
HETATM   20  C   UNL     1      -5.277   5.633 -32.726  1.00  0.00    -0.040 A 
HETATM   21  C   UNL     1      -4.667   5.354 -33.959  1.00  0.00     0.012 A 
HETATM   22  C   UNL     1      -3.328   4.964 -34.012  1.00  0.00     0.043 A 
HETATM   23  C   UNL     1      -2.601   4.848 -32.834  1.00  0.00     0.116 A 
HETATM   24  F   UNL     1      -1.315   4.474 -32.886  1.00  0.00    -0.206 F 
HETATM   25  C   UNL     1      -3.189   5.109 -31.602  1.00  0.00     0.043 A 
HETATM   26  C   UNL     1      -4.529   5.496 -31.546  1.00  0.00     0.012 A 
ENDBRANCH  19  20
ENDBRANCH  16  19
ENDBRANCH   2  15
BRANCH   1  27
HETATM   27  C   UNL     1      -7.248   1.210 -32.494  1.00  0.00     0.043 A 
HETATM   28  C   UNL     1      -7.269   0.229 -31.497  1.00  0.00     0.032 A 
HETATM   29  C   UNL     1      -6.080  -0.216 -30.899  1.00  0.00     0.039 A 
HETATM   30  C   UNL     1      -4.856   0.327 -31.283  1.00  0.00     0.068 A 
HETATM   31  C   UNL     1      -4.833   1.332 -32.246  1.00  0.00     0.039 A 
HETATM   32  C   UNL     1      -6.015   1.770 -32.846  1.00  0.00     0.032 A 
BRANCH  30  33
HETATM   33  O   UNL     1      -3.630  -0.013 -30.786  1.00  0.00    -0.352 OA
BRANCH  33  34
HETATM   34  C   UNL     1      -2.706  -0.607 -31.695  1.00  0.00     0.171 C 
HETATM   35  C   UNL     1      -3.157  -2.037 -31.942  1.00  0.00     0.034 C 
ENDBRANCH  33  34
ENDBRANCH  30  33
ENDBRANCH   1  27
TORSDOF 7
ENDMDL
MODEL 8
REMARK VINA RESULT:      -7.7      3.538      7.256
REMARK  7 active torsions:
REMARK  status: ('A' for Active; 'I' for Inactive)
REMARK    1  A    between atoms: C_2  and  O_3 
REMARK    2  A    between atoms: O_3  and  C_4 
REMARK    3  A    between atoms: C_7  and  N_8 
REMARK    4  A    between atoms: C_9  and  O_10 
REMARK    5  A    between atoms: C_9  and  C_11 
REMARK       I    between atoms: C_11  and  N_12 
REMARK    6  A    between atoms: N_12  and  C_13 
REMARK    7  A    between atoms: C_13  and  C_14 
ROOT
HETATM    1  N   UNL     1      -6.401   2.147 -31.050  1.00  0.00    -0.254 N 
HETATM    2  C   UNL     1      -6.162   2.365 -32.488  1.00  0.00     0.256 C 
HETATM    3  C   UNL     1      -6.511   1.153 -33.322  1.00  0.00     0.034 A 
HETATM    4  C   UNL     1      -6.399  -0.096 -32.721  1.00  0.00     0.048 A 
HETATM    5  N   UNL     1      -6.055  -0.155 -31.374  1.00  0.00    -0.308 N 
HETATM    6  C   UNL     1      -6.091   0.906 -30.506  1.00  0.00     0.330 C 
HETATM    7  O   UNL     1      -5.906   0.665 -29.313  1.00  0.00    -0.246 OA
HETATM    8  C   UNL     1      -6.854   1.223 -34.680  1.00  0.00     0.015 A 
HETATM    9  C   UNL     1      -7.086   0.056 -35.411  1.00  0.00     0.001 A 
HETATM   10  C   UNL     1      -6.960  -1.188 -34.794  1.00  0.00     0.002 A 
HETATM   11  C   UNL     1      -6.606  -1.268 -33.448  1.00  0.00     0.030 A 
HETATM   12  H   UNL     1      -5.961  -1.056 -30.917  1.00  0.00     0.170 HD
ENDROOT
BRANCH   2  13
HETATM   13  O   UNL     1      -6.957   3.448 -32.982  1.00  0.00    -0.359 OA
HETATM   14  H   UNL     1      -7.374   3.829 -32.185  1.00  0.00     0.213 HD
ENDBRANCH   2  13
BRANCH   2  15
HETATM   15  C   UNL     1      -4.634   2.750 -32.690  1.00  0.00     0.279 C 
HETATM   16  N   UNL     1      -4.355   4.000 -33.203  1.00  0.00    -0.352 N 
HETATM   17  H   UNL     1      -5.108   4.652 -33.381  1.00  0.00     0.162 HD
HETATM   18  O   UNL     1      -3.737   1.950 -32.407  1.00  0.00    -0.268 OA
BRANCH  16  19
HETATM   19  C   UNL     1      -2.999   4.457 -33.377  1.00  0.00     0.161 C 
BRANCH  19  20
HETATM   20  C   UNL     1      -2.557   5.270 -32.189  1.00  0.00    -0.040 A 
HETATM   21  C   UNL     1      -3.322   6.364 -31.753  1.00  0.00     0.012 A 
HETATM   22  C   UNL     1      -2.896   7.136 -30.671  1.00  0.00     0.043 A 
HETATM   23  C   UNL     1      -1.704   6.821 -30.030  1.00  0.00     0.116 A 
HETATM   24  F   UNL     1      -1.297   7.563 -28.992  1.00  0.00    -0.206 F 
HETATM   25  C   UNL     1      -0.927   5.749 -30.453  1.00  0.00     0.043 A 
HETATM   26  C   UNL     1      -1.349   4.976 -31.536  1.00  0.00     0.012 A 
ENDBRANCH  19  20
ENDBRANCH  16  19
ENDBRANCH   2  15
BRANCH   1  27
HETATM   27  C   UNL     1      -6.548   3.286 -30.194  1.00  0.00     0.043 A 
HETATM   28  C   UNL     1      -7.806   3.762 -29.806  1.00  0.00     0.032 A 
HETATM   29  C   UNL     1      -7.925   4.881 -28.968  1.00  0.00     0.039 A 
HETATM   30  C   UNL     1      -6.786   5.546 -28.519  1.00  0.00     0.068 A 
HETATM   31  C   UNL     1      -5.533   5.101 -28.934  1.00  0.00     0.039 A 
HETATM   32  C   UNL     1      -5.414   3.983 -29.762  1.00  0.00     0.032 A 
BRANCH  30  33
HETATM   33  O   UNL     1      -6.759   6.642 -27.704  1.00  0.00    -0.352 OA
BRANCH  33  34
HETATM   34  C   UNL     1      -6.092   7.800 -28.201  1.00  0.00     0.171 C 
HETATM   35  C   UNL     1      -5.100   8.251 -27.143  1.00  0.00     0.034 C 
ENDBRANCH  33  34
ENDBRANCH  30  33
ENDBRANCH   1  27
TORSDOF 7
ENDMDL
MODEL 9
REMARK VINA RESULT:      -7.7      4.006      6.945
REMARK  7 active torsions:
REMARK  status: ('A' for Active; 'I' for Inactive)
REMARK    1  A    between atoms: C_2  and  O_3 
REMARK    2  A    between atoms: O_3  and  C_4 
REMARK    3  A    between atoms: C_7  and  N_8 
REMARK    4  A    between atoms: C_9  and  O_10 
REMARK    5  A    between atoms: C_9  and  C_11 
REMARK       I    between atoms: C_11  and  N_12 
REMARK    6  A    between atoms: N_12  and  C_13 
REMARK    7  A    between atoms: C_13  and  C_14 
ROOT
HETATM    1  N   UNL     1      -6.393   1.178 -31.778  1.00  0.00    -0.254 N 
HETATM    2  C   UNL     1      -7.113   2.292 -32.420  1.00  0.00     0.256 C 
HETATM    3  C   UNL     1      -7.068   3.560 -31.597  1.00  0.00     0.034 A 
HETATM    4  C   UNL     1      -6.962   3.428 -30.216  1.00  0.00     0.048 A 
HETATM    5  N   UNL     1      -6.821   2.151 -29.681  1.00  0.00    -0.308 N 
HETATM    6  C   UNL     1      -6.492   1.030 -30.399  1.00  0.00     0.330 C 
HETATM    7  O   UNL     1      -6.254   0.004 -29.763  1.00  0.00    -0.246 OA
HETATM    8  C   UNL     1      -7.215   4.842 -32.145  1.00  0.00     0.015 A 
HETATM    9  C   UNL     1      -7.245   5.965 -31.317  1.00  0.00     0.001 A 
HETATM   10  C   UNL     1      -7.146   5.814 -29.934  1.00  0.00     0.002 A 
HETATM   11  C   UNL     1      -7.014   4.541 -29.379  1.00  0.00     0.030 A 
HETATM   12  H   UNL     1      -6.749   2.031 -28.677  1.00  0.00     0.170 HD
ENDROOT
BRANCH   2  13
HETATM   13  O   UNL     1      -6.541   2.608 -33.693  1.00  0.00    -0.359 OA
HETATM   14  H   UNL     1      -6.980   3.439 -33.959  1.00  0.00     0.213 HD
ENDBRANCH   2  13
BRANCH   2  15
HETATM   15  C   UNL     1      -8.619   1.845 -32.659  1.00  0.00     0.279 C 
HETATM   16  N   UNL     1      -9.108   1.918 -33.946  1.00  0.00    -0.352 N 
HETATM   17  H   UNL     1      -8.495   2.194 -34.705  1.00  0.00     0.162 HD
HETATM   18  O   UNL     1      -9.321   1.458 -31.719  1.00  0.00    -0.268 OA
BRANCH  16  19
HETATM   19  C   UNL     1     -10.446   1.489 -34.270  1.00  0.00     0.161 C 
BRANCH  19  20
HETATM   20  C   UNL     1     -11.379   2.669 -34.337  1.00  0.00    -0.040 A 
HETATM   21  C   UNL     1     -11.207   3.656 -35.321  1.00  0.00     0.012 A 
HETATM   22  C   UNL     1     -12.053   4.765 -35.363  1.00  0.00     0.043 A 
HETATM   23  C   UNL     1     -13.064   4.893 -34.419  1.00  0.00     0.116 A 
HETATM   24  F   UNL     1     -13.874   5.959 -34.461  1.00  0.00    -0.206 F 
HETATM   25  C   UNL     1     -13.244   3.934 -33.430  1.00  0.00     0.043 A 
HETATM   26  C   UNL     1     -12.398   2.824 -33.383  1.00  0.00     0.012 A 
ENDBRANCH  19  20
ENDBRANCH  16  19
ENDBRANCH   2  15
BRANCH   1  27
HETATM   27  C   UNL     1      -5.964   0.076 -32.586  1.00  0.00     0.043 A 
HETATM   28  C   UNL     1      -6.873  -0.827 -33.148  1.00  0.00     0.032 A 
HETATM   29  C   UNL     1      -6.429  -1.900 -33.935  1.00  0.00     0.039 A 
HETATM   30  C   UNL     1      -5.066  -2.091 -34.156  1.00  0.00     0.068 A 
HETATM   31  C   UNL     1      -4.155  -1.219 -33.565  1.00  0.00     0.039 A 
HETATM   32  C   UNL     1      -4.597  -0.147 -32.788  1.00  0.00     0.032 A 
BRANCH  30  33
HETATM   33  O   UNL     1      -4.500  -3.089 -34.897  1.00  0.00    -0.352 OA
BRANCH  33  34
HETATM   34  C   UNL     1      -4.783  -4.429 -34.499  1.00  0.00     0.171 C 
HETATM   35  C   UNL     1      -3.666  -4.881 -33.573  1.00  0.00     0.034 C 
ENDBRANCH  33  34
ENDBRANCH  30  33
ENDBRANCH   1  27
TORSDOF 7
ENDMDL
MODEL 10
REMARK VINA RESULT:      -7.6      2.895      6.911
REMARK  7 active torsions:
REMARK  status: ('A' for Active; 'I' for Inactive)
REMARK    1  A    between atoms: C_2  and  O_3 
REMARK    2  A    between atoms: O_3  and  C_4 
REMARK    3  A    between atoms: C_7  and  N_8 
REMARK    4  A    between atoms: C_9  and  O_10 
REMARK    5  A    between atoms: C_9  and  C_11 
REMARK       I    between atoms: C_11  and  N_12 
REMARK    6  A    between atoms: N_12  and  C_13 
REMARK    7  A    between atoms: C_13  and  C_14 
ROOT
HETATM    1  N   UNL     1      -4.794   3.093 -33.071  1.00  0.00    -0.254 N 
HETATM    2  C   UNL     1      -5.116   1.855 -32.339  1.00  0.00     0.256 C 
HETATM    3  C   UNL     1      -5.755   0.809 -33.226  1.00  0.00     0.034 A 
HETATM    4  C   UNL     1      -6.496   1.254 -34.315  1.00  0.00     0.048 A 
HETATM    5  N   UNL     1      -6.539   2.621 -34.574  1.00  0.00    -0.308 N 
HETATM    6  C   UNL     1      -5.692   3.551 -34.028  1.00  0.00     0.330 C 
HETATM    7  O   UNL     1      -5.755   4.698 -34.470  1.00  0.00    -0.246 OA
HETATM    8  C   UNL     1      -5.709  -0.566 -32.954  1.00  0.00     0.015 A 
HETATM    9  C   UNL     1      -6.390  -1.470 -33.771  1.00  0.00     0.001 A 
HETATM   10  C   UNL     1      -7.136  -1.005 -34.854  1.00  0.00     0.002 A 
HETATM   11  C   UNL     1      -7.199   0.362 -35.123  1.00  0.00     0.030 A 
HETATM   12  H   UNL     1      -7.079   2.969 -35.359  1.00  0.00     0.170 HD
ENDROOT
BRANCH   2  13
HETATM   13  O   UNL     1      -3.936   1.261 -31.789  1.00  0.00    -0.359 OA
HETATM   14  H   UNL     1      -3.970   0.331 -32.085  1.00  0.00     0.213 HD
ENDBRANCH   2  13
BRANCH   2  15
HETATM   15  C   UNL     1      -6.086   2.221 -31.135  1.00  0.00     0.279 C 
HETATM   16  N   UNL     1      -7.349   2.674 -31.450  1.00  0.00    -0.352 N 
HETATM   17  H   UNL     1      -7.647   2.709 -32.418  1.00  0.00     0.162 HD
HETATM   18  O   UNL     1      -5.710   2.112 -29.963  1.00  0.00    -0.268 OA
BRANCH  16  19
HETATM   19  C   UNL     1      -8.316   2.986 -30.427  1.00  0.00     0.161 C 
BRANCH  19  20
HETATM   20  C   UNL     1      -9.673   3.224 -31.034  1.00  0.00    -0.040 A 
HETATM   21  C   UNL     1      -9.999   2.670 -32.283  1.00  0.00     0.012 A 
HETATM   22  C   UNL     1     -11.246   2.918 -32.861  1.00  0.00     0.043 A 
HETATM   23  C   UNL     1     -12.162   3.722 -32.196  1.00  0.00     0.116 A 
HETATM   24  F   UNL     1     -13.358   3.959 -32.752  1.00  0.00    -0.206 F 
HETATM   25  C   UNL     1     -11.855   4.289 -30.965  1.00  0.00     0.043 A 
HETATM   26  C   UNL     1     -10.608   4.046 -30.385  1.00  0.00     0.012 A 
ENDBRANCH  19  20
ENDBRANCH  16  19
ENDBRANCH   2  15
BRANCH   1  27
HETATM   27  C   UNL     1      -3.817   3.985 -32.523  1.00  0.00     0.043 A 
HETATM   28  C   UNL     1      -4.101   4.813 -31.431  1.00  0.00     0.032 A 
HETATM   29  C   UNL     1      -3.128   5.681 -30.913  1.00  0.00     0.039 A 
HETATM   30  C   UNL     1      -1.861   5.740 -31.490  1.00  0.00     0.068 A 
HETATM   31  C   UNL     1      -1.586   4.946 -32.601  1.00  0.00     0.039 A 
HETATM   32  C   UNL     1      -2.552   4.078 -33.113  1.00  0.00     0.032 A 
BRANCH  30  33
HETATM   33  O   UNL     1      -0.826   6.534 -31.088  1.00  0.00    -0.352 OA
BRANCH  33  34
HETATM   34  C   UNL     1       0.447   5.910 -30.935  1.00  0.00     0.171 C 
HETATM   35  C   UNL     1       0.459   5.212 -29.585  1.00  0.00     0.034 C 
ENDBRANCH  33  34
ENDBRANCH  30  33
ENDBRANCH   1  27
TORSDOF 7
ENDMDL
