MODEL 1
REMARK VINA RESULT:      -8.9      0.000      0.000
REMARK  10 active torsions:
REMARK  status: ('A' for Active; 'I' for Inactive)
REMARK    1  A    between atoms: C_6  and  C_7 
REMARK    2  A    between atoms: C_9  and  C_10 
REMARK    3  A    between atoms: C_10  and  C_11 
REMARK       I    between atoms: C_11  and  N_12 
REMARK    4  A    between atoms: N_12  and  C_13 
REMARK    5  A    between atoms: C_13  and  C_14 
REMARK    6  A    between atoms: C_14  and  N_15 
REMARK    7  A    between atoms: C_26  and  C_27 
REMARK    8  A    between atoms: C_27  and  O_28 
REMARK    9  A    between atoms: O_28  and  C_29 
REMARK   10  A    between atoms: C_29  and  C_30 
ROOT
HETATM    1  C   UNL     1      -5.072   3.162 -32.617  1.00  0.00     0.166 C 
HETATM    2  N   UNL     1      -6.167   3.947 -32.012  1.00  0.00    -0.318 N 
HETATM    3  C   UNL     1      -7.176   4.626 -32.451  1.00  0.00     0.011 C 
HETATM    4  C   UNL     1      -6.293   3.740 -30.478  1.00  0.00     0.170 C 
HETATM    5  S   UNL     1      -7.332   4.928 -29.759  1.00  0.00    -0.086 SA
HETATM    6  C   UNL     1      -7.969   5.378 -31.401  1.00  0.00     0.135 C 
HETATM    7  N   UNL     1      -5.784   2.756 -29.824  1.00  0.00    -0.229 NA
HETATM    8  C   UNL     1      -5.211   1.735 -30.560  1.00  0.00     0.048 C 
HETATM    9  C   UNL     1      -5.035   0.453 -29.779  1.00  0.00     0.071 C 
HETATM   10  C   UNL     1      -4.909   1.868 -31.870  1.00  0.00     0.069 C 
ENDROOT
BRANCH   3  11
HETATM   11  C   UNL     1      -7.635   4.555 -33.876  1.00  0.00     0.156 C 
BRANCH  11  12
HETATM   12  C   UNL     1      -8.877   3.753 -34.163  1.00  0.00     0.223 C 
HETATM   13  N   UNL     1      -8.770   2.432 -33.801  1.00  0.00    -0.359 N 
HETATM   14  H   UNL     1      -7.867   2.109 -33.456  1.00  0.00     0.162 HD
HETATM   15  O   UNL     1      -9.867   4.235 -34.701  1.00  0.00    -0.273 OA
BRANCH  13  16
HETATM   16  C   UNL     1      -9.662   1.350 -34.224  1.00  0.00     0.150 C 
BRANCH  16  17
HETATM   17  C   UNL     1     -11.002   1.207 -33.476  1.00  0.00     0.253 C 
BRANCH  17  18
HETATM   18  N   UNL     1     -12.088   2.109 -34.024  1.00  0.00    -0.077 N 
HETATM   19  H   UNL     1     -11.737   3.083 -33.943  1.00  0.00     0.279 HD
HETATM   20  C   UNL     1     -12.403   1.879 -35.477  1.00  0.00     0.269 C 
HETATM   21  C   UNL     1     -13.338   2.032 -33.190  1.00  0.00     0.269 C 
ENDBRANCH  17  18
ENDBRANCH  16  17
ENDBRANCH  13  16
ENDBRANCH  11  12
ENDBRANCH   3  11
BRANCH   1  22
HETATM   22  C   UNL     1      -3.723   3.912 -32.765  1.00  0.00    -0.024 C 
HETATM   23  C   UNL     1      -3.366   4.868 -33.750  1.00  0.00    -0.053 C 
HETATM   24  C   UNL     1      -2.282   5.746 -33.503  1.00  0.00     0.014 C 
HETATM   25  C   UNL     1      -4.058   5.104 -35.062  1.00  0.00     0.049 C 
HETATM   26  C   UNL     1      -1.508   5.670 -32.347  1.00  0.00    -0.061 C 
HETATM   27  C   UNL     1      -0.471   6.714 -32.046  1.00  0.00     0.048 C 
HETATM   28  C   UNL     1      -1.760   4.639 -31.453  1.00  0.00     0.007 C 
HETATM   29  C   UNL     1      -2.834   3.770 -31.668  1.00  0.00     0.011 C 
ENDBRANCH   1  22
BRANCH  10  30
HETATM   30  C   UNL     1      -4.709   0.651 -32.688  1.00  0.00     0.294 C 
HETATM   31  O   UNL     1      -3.596   0.210 -32.914  1.00  0.00    -0.259 OA
BRANCH  30  32
HETATM   32  O   UNL     1      -5.888   0.074 -32.985  1.00  0.00    -0.313 OA
BRANCH  32  33
HETATM   33  C   UNL     1      -6.051  -0.349 -34.351  1.00  0.00     0.217 C 
BRANCH  33  34
HETATM   34  C   UNL     1      -5.922  -1.852 -34.434  1.00  0.00    -0.034 A 
HETATM   35  C   UNL     1      -7.058  -2.663 -34.578  1.00  0.00     0.009 A 
HETATM   36  C   UNL     1      -6.930  -4.051 -34.682  1.00  0.00     0.001 A 
HETATM   37  C   UNL     1      -5.668  -4.641 -34.637  1.00  0.00     0.000 A 
HETATM   38  C   UNL     1      -4.534  -3.847 -34.482  1.00  0.00     0.001 A 
HETATM   39  C   UNL     1      -4.659  -2.460 -34.377  1.00  0.00     0.009 A 
ENDBRANCH  33  34
ENDBRANCH  32  33
ENDBRANCH  30  32
ENDBRANCH  10  30
TORSDOF 10
ENDMDL
MODEL 2
REMARK VINA RESULT:      -8.6      1.171      1.842
REMARK  10 active torsions:
REMARK  status: ('A' for Active; 'I' for Inactive)
REMARK    1  A    between atoms: C_6  and  C_7 
REMARK    2  A    between atoms: C_9  and  C_10 
REMARK    3  A    between atoms: C_10  and  C_11 
REMARK       I    between atoms: C_11  and  N_12 
REMARK    4  A    between atoms: N_12  and  C_13 
REMARK    5  A    between atoms: C_13  and  C_14 
REMARK    6  A    between atoms: C_14  and  N_15 
REMARK    7  A    between atoms: C_26  and  C_27 
REMARK    8  A    between atoms: C_27  and  O_28 
REMARK    9  A    between atoms: O_28  and  C_29 
REMARK   10  A    between atoms: C_29  and  C_30 
ROOT
HETATM    1  C   UNL     1      -5.988   2.840 -32.872  1.00  0.00     0.166 C 
HETATM    2  N   UNL     1      -7.196   3.517 -32.361  1.00  0.00    -0.318 N 
HETATM    3  C   UNL     1      -8.284   3.991 -32.876  1.00  0.00     0.011 C 
HETATM    4  C   UNL     1      -7.321   3.461 -30.814  1.00  0.00     0.170 C 
HETATM    5  S   UNL     1      -8.535   4.557 -30.234  1.00  0.00    -0.086 SA
HETATM    6  C   UNL     1      -9.197   4.729 -31.918  1.00  0.00     0.135 C 
HETATM    7  N   UNL     1      -6.689   2.639 -30.054  1.00  0.00    -0.229 NA
HETATM    8  C   UNL     1      -5.960   1.638 -30.671  1.00  0.00     0.048 C 
HETATM    9  C   UNL     1      -5.616   0.488 -29.753  1.00  0.00     0.071 C 
HETATM   10  C   UNL     1      -5.654   1.671 -31.986  1.00  0.00     0.069 C 
ENDROOT
BRANCH   3  11
HETATM   11  C   UNL     1      -8.699   3.700 -34.286  1.00  0.00     0.156 C 
BRANCH  11  12
HETATM   12  C   UNL     1     -10.166   3.470 -34.541  1.00  0.00     0.223 C 
HETATM   13  N   UNL     1     -10.626   2.274 -34.045  1.00  0.00    -0.359 N 
HETATM   14  H   UNL     1      -9.941   1.641 -33.633  1.00  0.00     0.162 HD
HETATM   15  O   UNL     1     -10.862   4.263 -35.165  1.00  0.00    -0.273 OA
BRANCH  13  16
HETATM   16  C   UNL     1     -11.894   1.631 -34.393  1.00  0.00     0.150 C 
BRANCH  16  17
HETATM   17  C   UNL     1     -13.096   1.891 -33.464  1.00  0.00     0.253 C 
BRANCH  17  18
HETATM   18  N   UNL     1     -14.022   0.698 -33.342  1.00  0.00    -0.077 N 
HETATM   19  H   UNL     1     -14.372   0.691 -32.364  1.00  0.00     0.279 HD
HETATM   20  C   UNL     1     -15.230   0.764 -34.236  1.00  0.00     0.269 C 
HETATM   21  C   UNL     1     -13.280  -0.595 -33.544  1.00  0.00     0.269 C 
ENDBRANCH  17  18
ENDBRANCH  16  17
ENDBRANCH  13  16
ENDBRANCH  11  12
ENDBRANCH   3  11
BRANCH   1  22
HETATM   22  C   UNL     1      -4.758   3.757 -33.097  1.00  0.00    -0.024 C 
HETATM   23  C   UNL     1      -3.498   3.692 -32.448  1.00  0.00    -0.053 C 
HETATM   24  C   UNL     1      -2.376   4.310 -33.050  1.00  0.00     0.014 C 
HETATM   25  C   UNL     1      -3.188   2.973 -31.166  1.00  0.00     0.049 C 
HETATM   26  C   UNL     1      -2.470   5.037 -34.235  1.00  0.00    -0.061 C 
HETATM   27  C   UNL     1      -1.237   5.543 -34.927  1.00  0.00     0.048 C 
HETATM   28  C   UNL     1      -3.726   5.229 -34.791  1.00  0.00     0.007 C 
HETATM   29  C   UNL     1      -4.847   4.615 -34.223  1.00  0.00     0.011 C 
ENDBRANCH   1  22
BRANCH  10  30
HETATM   30  C   UNL     1      -5.265   0.416 -32.666  1.00  0.00     0.294 C 
HETATM   31  O   UNL     1      -4.106   0.042 -32.702  1.00  0.00    -0.259 OA
BRANCH  30  32
HETATM   32  O   UNL     1      -6.352  -0.269 -33.069  1.00  0.00    -0.313 OA
BRANCH  32  33
HETATM   33  C   UNL     1      -6.339  -0.713 -34.437  1.00  0.00     0.217 C 
BRANCH  33  34
HETATM   34  C   UNL     1      -5.979  -2.179 -34.490  1.00  0.00    -0.034 A 
HETATM   35  C   UNL     1      -6.962  -3.152 -34.722  1.00  0.00     0.009 A 
HETATM   36  C   UNL     1      -6.618  -4.505 -34.796  1.00  0.00     0.001 A 
HETATM   37  C   UNL     1      -5.291  -4.898 -34.635  1.00  0.00     0.000 A 
HETATM   38  C   UNL     1      -4.307  -3.941 -34.393  1.00  0.00     0.001 A 
HETATM   39  C   UNL     1      -4.649  -2.590 -34.317  1.00  0.00     0.009 A 
ENDBRANCH  33  34
ENDBRANCH  32  33
ENDBRANCH  30  32
ENDBRANCH  10  30
TORSDOF 10
ENDMDL
MODEL 3
REMARK VINA RESULT:      -8.5      2.165      5.548
REMARK  10 active torsions:
REMARK  status: ('A' for Active; 'I' for Inactive)
REMARK    1  A    between atoms: C_6  and  C_7 
REMARK    2  A    between atoms: C_9  and  C_10 
REMARK    3  A    between atoms: C_10  and  C_11 
REMARK       I    between atoms: C_11  and  N_12 
REMARK    4  A    between atoms: N_12  and  C_13 
REMARK    5  A    between atoms: C_13  and  C_14 
REMARK    6  A    between atoms: C_14  and  N_15 
REMARK    7  A    between atoms: C_26  and  C_27 
REMARK    8  A    between atoms: C_27  and  O_28 
REMARK    9  A    between atoms: O_28  and  C_29 
REMARK   10  A    between atoms: C_29  and  C_30 
ROOT
HETATM    1  C   UNL     1      -6.990   1.890 -32.971  1.00  0.00     0.166 C 
HETATM    2  N   UNL     1      -7.592   3.087 -32.351  1.00  0.00    -0.318 N 
HETATM    3  C   UNL     1      -7.531   4.364 -32.546  1.00  0.00     0.011 C 
HETATM    4  C   UNL     1      -8.753   2.753 -31.374  1.00  0.00     0.170 C 
HETATM    5  S   UNL     1      -9.187   4.127 -30.409  1.00  0.00    -0.086 SA
HETATM    6  C   UNL     1      -8.264   5.219 -31.530  1.00  0.00     0.135 C 
HETATM    7  N   UNL     1      -9.392   1.638 -31.346  1.00  0.00    -0.229 NA
HETATM    8  C   UNL     1      -9.126   0.728 -32.354  1.00  0.00     0.048 C 
HETATM    9  C   UNL     1     -10.190  -0.334 -32.506  1.00  0.00     0.071 C 
HETATM   10  C   UNL     1      -8.047   0.836 -33.159  1.00  0.00     0.069 C 
ENDROOT
BRANCH   3  11
HETATM   11  C   UNL     1      -6.916   4.962 -33.774  1.00  0.00     0.156 C 
BRANCH  11  12
HETATM   12  C   UNL     1      -5.419   5.131 -33.786  1.00  0.00     0.223 C 
HETATM   13  N   UNL     1      -4.869   5.211 -32.529  1.00  0.00    -0.359 N 
HETATM   14  H   UNL     1      -5.507   5.225 -31.735  1.00  0.00     0.162 HD
HETATM   15  O   UNL     1      -4.772   5.226 -34.822  1.00  0.00    -0.273 OA
BRANCH  13  16
HETATM   16  C   UNL     1      -3.518   5.678 -32.212  1.00  0.00     0.150 C 
BRANCH  16  17
HETATM   17  C   UNL     1      -3.314   7.198 -32.058  1.00  0.00     0.253 C 
BRANCH  17  18
HETATM   18  N   UNL     1      -1.939   7.661 -32.491  1.00  0.00    -0.077 N 
HETATM   19  H   UNL     1      -1.975   8.698 -32.543  1.00  0.00     0.279 HD
HETATM   20  C   UNL     1      -0.840   7.312 -31.525  1.00  0.00     0.269 C 
HETATM   21  C   UNL     1      -1.607   7.172 -33.875  1.00  0.00     0.269 C 
ENDBRANCH  17  18
ENDBRANCH  16  17
ENDBRANCH  13  16
ENDBRANCH  11  12
ENDBRANCH   3  11
BRANCH   1  22
HETATM   22  C   UNL     1      -5.742   1.324 -32.246  1.00  0.00    -0.024 C 
HETATM   23  C   UNL     1      -5.704   0.343 -31.222  1.00  0.00    -0.053 C 
HETATM   24  C   UNL     1      -4.496  -0.352 -30.972  1.00  0.00     0.014 C 
HETATM   25  C   UNL     1      -6.855  -0.101 -30.365  1.00  0.00     0.049 C 
HETATM   26  C   UNL     1      -3.316  -0.068 -31.656  1.00  0.00    -0.061 C 
HETATM   27  C   UNL     1      -2.098  -0.928 -31.478  1.00  0.00     0.048 C 
HETATM   28  C   UNL     1      -3.313   0.993 -32.550  1.00  0.00     0.007 C 
HETATM   29  C   UNL     1      -4.497   1.683 -32.825  1.00  0.00     0.011 C 
ENDBRANCH   1  22
BRANCH  10  30
HETATM   30  C   UNL     1      -8.040   0.116 -34.452  1.00  0.00     0.294 C 
HETATM   31  O   UNL     1      -8.415   0.650 -35.481  1.00  0.00    -0.259 OA
BRANCH  30  32
HETATM   32  O   UNL     1      -7.445  -1.084 -34.330  1.00  0.00    -0.313 OA
BRANCH  32  33
HETATM   33  C   UNL     1      -6.089  -1.162 -34.805  1.00  0.00     0.217 C 
BRANCH  33  34
HETATM   34  C   UNL     1      -5.547  -2.551 -34.566  1.00  0.00    -0.034 A 
HETATM   35  C   UNL     1      -6.250  -3.682 -35.006  1.00  0.00     0.009 A 
HETATM   36  C   UNL     1      -5.729  -4.964 -34.805  1.00  0.00     0.001 A 
HETATM   37  C   UNL     1      -4.506  -5.127 -34.157  1.00  0.00     0.000 A 
HETATM   38  C   UNL     1      -3.804  -4.011 -33.705  1.00  0.00     0.001 A 
HETATM   39  C   UNL     1      -4.323  -2.730 -33.904  1.00  0.00     0.009 A 
ENDBRANCH  33  34
ENDBRANCH  32  33
ENDBRANCH  30  32
ENDBRANCH  10  30
TORSDOF 10
ENDMDL
MODEL 4
REMARK VINA RESULT:      -8.5      2.830      6.883
REMARK  10 active torsions:
REMARK  status: ('A' for Active; 'I' for Inactive)
REMARK    1  A    between atoms: C_6  and  C_7 
REMARK    2  A    between atoms: C_9  and  C_10 
REMARK    3  A    between atoms: C_10  and  C_11 
REMARK       I    between atoms: C_11  and  N_12 
REMARK    4  A    between atoms: N_12  and  C_13 
REMARK    5  A    between atoms: C_13  and  C_14 
REMARK    6  A    between atoms: C_14  and  N_15 
REMARK    7  A    between atoms: C_26  and  C_27 
REMARK    8  A    between atoms: C_27  and  O_28 
REMARK    9  A    between atoms: O_28  and  C_29 
REMARK   10  A    between atoms: C_29  and  C_30 
ROOT
HETATM    1  C   UNL     1      -5.574   3.768 -31.415  1.00  0.00     0.166 C 
HETATM    2  N   UNL     1      -6.287   5.037 -31.167  1.00  0.00    -0.318 N 
HETATM    3  C   UNL     1      -6.742   5.659 -30.128  1.00  0.00     0.011 C 
HETATM    4  C   UNL     1      -6.312   5.977 -32.403  1.00  0.00     0.170 C 
HETATM    5  S   UNL     1      -7.445   7.274 -32.193  1.00  0.00    -0.086 SA
HETATM    6  C   UNL     1      -7.535   6.919 -30.413  1.00  0.00     0.135 C 
HETATM    7  N   UNL     1      -5.525   5.882 -33.415  1.00  0.00    -0.229 NA
HETATM    8  C   UNL     1      -4.487   4.971 -33.329  1.00  0.00     0.048 C 
HETATM    9  C   UNL     1      -3.384   5.216 -34.331  1.00  0.00     0.071 C 
HETATM   10  C   UNL     1      -4.450   4.004 -32.386  1.00  0.00     0.069 C 
ENDROOT
BRANCH   3  11
HETATM   11  C   UNL     1      -6.382   5.260 -28.730  1.00  0.00     0.156 C 
BRANCH  11  12
HETATM   12  C   UNL     1      -5.295   6.046 -28.045  1.00  0.00     0.223 C 
HETATM   13  N   UNL     1      -4.269   6.406 -28.885  1.00  0.00    -0.359 N 
HETATM   14  H   UNL     1      -4.299   6.056 -29.841  1.00  0.00     0.162 HD
HETATM   15  O   UNL     1      -5.317   6.299 -26.846  1.00  0.00    -0.273 OA
BRANCH  13  16
HETATM   16  C   UNL     1      -2.950   6.890 -28.471  1.00  0.00     0.150 C 
BRANCH  16  17
HETATM   17  C   UNL     1      -1.871   7.019 -29.564  1.00  0.00     0.253 C 
BRANCH  17  18
HETATM   18  N   UNL     1      -0.741   6.024 -29.403  1.00  0.00    -0.077 N 
HETATM   19  H   UNL     1      -1.172   5.079 -29.402  1.00  0.00     0.279 HD
HETATM   20  C   UNL     1       0.261   6.044 -30.525  1.00  0.00     0.269 C 
HETATM   21  C   UNL     1      -0.054   6.185 -28.073  1.00  0.00     0.269 C 
ENDBRANCH  17  18
ENDBRANCH  16  17
ENDBRANCH  13  16
ENDBRANCH  11  12
ENDBRANCH   3  11
BRANCH   1  22
HETATM   22  C   UNL     1      -6.469   2.580 -31.854  1.00  0.00    -0.024 C 
HETATM   23  C   UNL     1      -6.866   1.461 -31.079  1.00  0.00    -0.053 C 
HETATM   24  C   UNL     1      -7.994   0.705 -31.478  1.00  0.00     0.014 C 
HETATM   25  C   UNL     1      -6.233   0.987 -29.801  1.00  0.00     0.049 C 
HETATM   26  C   UNL     1      -8.703   0.982 -32.646  1.00  0.00    -0.061 C 
HETATM   27  C   UNL     1      -9.985   0.264 -32.956  1.00  0.00     0.048 C 
HETATM   28  C   UNL     1      -8.227   1.981 -33.483  1.00  0.00     0.007 C 
HETATM   29  C   UNL     1      -7.124   2.751 -33.102  1.00  0.00     0.011 C 
ENDBRANCH   1  22
BRANCH  10  30
HETATM   30  C   UNL     1      -3.158   3.355 -32.074  1.00  0.00     0.294 C 
HETATM   31  O   UNL     1      -2.336   3.886 -31.348  1.00  0.00    -0.259 OA
BRANCH  30  32
HETATM   32  O   UNL     1      -3.119   2.102 -32.565  1.00  0.00    -0.313 OA
BRANCH  32  33
HETATM   33  C   UNL     1      -3.225   1.046 -31.593  1.00  0.00     0.217 C 
BRANCH  33  34
HETATM   34  C   UNL     1      -3.642  -0.233 -32.279  1.00  0.00    -0.034 A 
HETATM   35  C   UNL     1      -3.072  -1.462 -31.916  1.00  0.00     0.009 A 
HETATM   36  C   UNL     1      -3.482  -2.646 -32.536  1.00  0.00     0.001 A 
HETATM   37  C   UNL     1      -4.460  -2.612 -33.529  1.00  0.00     0.000 A 
HETATM   38  C   UNL     1      -5.025  -1.395 -33.906  1.00  0.00     0.001 A 
HETATM   39  C   UNL     1      -4.616  -0.212 -33.289  1.00  0.00     0.009 A 
ENDBRANCH  33  34
ENDBRANCH  32  33
ENDBRANCH  30  32
ENDBRANCH  10  30
TORSDOF 10
ENDMDL
MODEL 5
REMARK VINA RESULT:      -8.4      3.032      6.162
REMARK  10 active torsions:
REMARK  status: ('A' for Active; 'I' for Inactive)
REMARK    1  A    between atoms: C_6  and  C_7 
REMARK    2  A    between atoms: C_9  and  C_10 
REMARK    3  A    between atoms: C_10  and  C_11 
REMARK       I    between atoms: C_11  and  N_12 
REMARK    4  A    between atoms: N_12  and  C_13 
REMARK    5  A    between atoms: C_13  and  C_14 
REMARK    6  A    between atoms: C_14  and  N_15 
REMARK    7  A    between atoms: C_26  and  C_27 
REMARK    8  A    between atoms: C_27  and  O_28 
REMARK    9  A    between atoms: O_28  and  C_29 
REMARK   10  A    between atoms: C_29  and  C_30 
ROOT
HETATM    1  C   UNL     1      -9.559   1.864 -33.040  1.00  0.00     0.166 C 
HETATM    2  N   UNL     1     -10.553   2.300 -34.040  1.00  0.00    -0.318 N 
HETATM    3  C   UNL     1     -11.688   1.858 -34.475  1.00  0.00     0.011 C 
HETATM    4  C   UNL     1     -10.317   3.749 -34.548  1.00  0.00     0.170 C 
HETATM    5  S   UNL     1     -11.266   4.091 -35.959  1.00  0.00    -0.086 SA
HETATM    6  C   UNL     1     -12.287   2.622 -35.639  1.00  0.00     0.135 C 
HETATM    7  N   UNL     1      -9.594   4.629 -33.950  1.00  0.00    -0.229 NA
HETATM    8  C   UNL     1      -9.116   4.308 -32.692  1.00  0.00     0.048 C 
HETATM    9  C   UNL     1      -8.663   5.509 -31.894  1.00  0.00     0.071 C 
HETATM   10  C   UNL     1      -9.125   3.045 -32.215  1.00  0.00     0.069 C 
ENDROOT
BRANCH   3  11
HETATM   11  C   UNL     1     -12.445   0.765 -33.784  1.00  0.00     0.156 C 
BRANCH  11  12
HETATM   12  C   UNL     1     -13.898   1.017 -33.479  1.00  0.00     0.223 C 
HETATM   13  N   UNL     1     -14.100   2.042 -32.586  1.00  0.00    -0.359 N 
HETATM   14  H   UNL     1     -13.275   2.472 -32.169  1.00  0.00     0.162 HD
HETATM   15  O   UNL     1     -14.802   0.342 -33.957  1.00  0.00    -0.273 OA
BRANCH  13  16
HETATM   16  C   UNL     1     -15.343   2.321 -31.865  1.00  0.00     0.150 C 
BRANCH  16  17
HETATM   17  C   UNL     1     -15.815   3.787 -31.810  1.00  0.00     0.253 C 
BRANCH  17  18
HETATM   18  N   UNL     1     -17.097   4.027 -32.579  1.00  0.00    -0.077 N 
HETATM   19  H   UNL     1     -16.832   4.128 -33.579  1.00  0.00     0.279 HD
HETATM   20  C   UNL     1     -18.082   2.893 -32.503  1.00  0.00     0.269 C 
HETATM   21  C   UNL     1     -17.745   5.323 -32.173  1.00  0.00     0.269 C 
ENDBRANCH  17  18
ENDBRANCH  16  17
ENDBRANCH  13  16
ENDBRANCH  11  12
ENDBRANCH   3  11
BRANCH   1  22
HETATM   22  C   UNL     1      -8.344   1.086 -33.608  1.00  0.00    -0.024 C 
HETATM   23  C   UNL     1      -7.049   1.589 -33.895  1.00  0.00    -0.053 C 
HETATM   24  C   UNL     1      -5.963   0.687 -34.003  1.00  0.00     0.014 C 
HETATM   25  C   UNL     1      -6.666   3.032 -34.059  1.00  0.00     0.049 C 
HETATM   26  C   UNL     1      -6.124  -0.693 -33.896  1.00  0.00    -0.061 C 
HETATM   27  C   UNL     1      -4.933  -1.606 -33.856  1.00  0.00     0.048 C 
HETATM   28  C   UNL     1      -7.411  -1.196 -33.765  1.00  0.00     0.007 C 
HETATM   29  C   UNL     1      -8.497  -0.325 -33.641  1.00  0.00     0.011 C 
ENDBRANCH   1  22
BRANCH  10  30
HETATM   30  C   UNL     1      -9.011   2.826 -30.756  1.00  0.00     0.294 C 
HETATM   31  O   UNL     1      -9.881   3.195 -29.986  1.00  0.00    -0.259 OA
BRANCH  30  32
HETATM   32  O   UNL     1      -7.938   2.069 -30.466  1.00  0.00    -0.313 OA
BRANCH  32  33
HETATM   33  C   UNL     1      -6.761   2.784 -30.047  1.00  0.00     0.217 C 
BRANCH  33  34
HETATM   34  C   UNL     1      -5.529   2.050 -30.518  1.00  0.00    -0.034 A 
HETATM   35  C   UNL     1      -4.475   2.739 -31.137  1.00  0.00     0.009 A 
HETATM   36  C   UNL     1      -3.325   2.058 -31.546  1.00  0.00     0.001 A 
HETATM   37  C   UNL     1      -3.219   0.683 -31.345  1.00  0.00     0.000 A 
HETATM   38  C   UNL     1      -4.264  -0.014 -30.742  1.00  0.00     0.001 A 
HETATM   39  C   UNL     1      -5.414   0.664 -30.334  1.00  0.00     0.009 A 
ENDBRANCH  33  34
ENDBRANCH  32  33
ENDBRANCH  30  32
ENDBRANCH  10  30
TORSDOF 10
ENDMDL
MODEL 6
REMARK VINA RESULT:      -8.3      2.773      6.997
REMARK  10 active torsions:
REMARK  status: ('A' for Active; 'I' for Inactive)
REMARK    1  A    between atoms: C_6  and  C_7 
REMARK    2  A    between atoms: C_9  and  C_10 
REMARK    3  A    between atoms: C_10  and  C_11 
REMARK       I    between atoms: C_11  and  N_12 
REMARK    4  A    between atoms: N_12  and  C_13 
REMARK    5  A    between atoms: C_13  and  C_14 
REMARK    6  A    between atoms: C_14  and  N_15 
REMARK    7  A    between atoms: C_26  and  C_27 
REMARK    8  A    between atoms: C_27  and  O_28 
REMARK    9  A    between atoms: O_28  and  C_29 
REMARK   10  A    between atoms: C_29  and  C_30 
ROOT
HETATM    1  C   UNL     1      -6.036   3.325 -31.183  1.00  0.00     0.166 C 
HETATM    2  N   UNL     1      -7.110   2.358 -31.482  1.00  0.00    -0.318 N 
HETATM    3  C   UNL     1      -7.280   1.084 -31.337  1.00  0.00     0.011 C 
HETATM    4  C   UNL     1      -8.458   3.035 -31.855  1.00  0.00     0.170 C 
HETATM    5  S   UNL     1      -9.574   1.896 -32.539  1.00  0.00    -0.086 SA
HETATM    6  C   UNL     1      -8.554   0.519 -31.934  1.00  0.00     0.135 C 
HETATM    7  N   UNL     1      -8.762   4.258 -31.600  1.00  0.00    -0.229 NA
HETATM    8  C   UNL     1      -7.886   4.977 -30.806  1.00  0.00     0.048 C 
HETATM    9  C   UNL     1      -8.498   6.220 -30.204  1.00  0.00     0.071 C 
HETATM   10  C   UNL     1      -6.628   4.555 -30.551  1.00  0.00     0.069 C 
ENDROOT
BRANCH   3  11
HETATM   11  C   UNL     1      -6.368   0.241 -30.500  1.00  0.00     0.156 C 
BRANCH  11  12
HETATM   12  C   UNL     1      -5.077  -0.214 -31.129  1.00  0.00     0.223 C 
HETATM   13  N   UNL     1      -5.257  -0.923 -32.293  1.00  0.00    -0.359 N 
HETATM   14  H   UNL     1      -6.214  -1.134 -32.572  1.00  0.00     0.162 HD
HETATM   15  O   UNL     1      -3.982  -0.001 -30.622  1.00  0.00    -0.273 OA
BRANCH  13  16
HETATM   16  C   UNL     1      -4.248  -1.749 -32.959  1.00  0.00     0.150 C 
BRANCH  16  17
HETATM   17  C   UNL     1      -4.674  -2.481 -34.247  1.00  0.00     0.253 C 
BRANCH  17  18
HETATM   18  N   UNL     1      -4.178  -3.911 -34.310  1.00  0.00    -0.077 N 
HETATM   19  H   UNL     1      -3.512  -3.961 -35.105  1.00  0.00     0.279 HD
HETATM   20  C   UNL     1      -3.428  -4.356 -33.085  1.00  0.00     0.269 C 
HETATM   21  C   UNL     1      -5.298  -4.865 -34.626  1.00  0.00     0.269 C 
ENDBRANCH  17  18
ENDBRANCH  16  17
ENDBRANCH  13  16
ENDBRANCH  11  12
ENDBRANCH   3  11
BRANCH   1  22
HETATM   22  C   UNL     1      -5.115   3.684 -32.378  1.00  0.00    -0.024 C 
HETATM   23  C   UNL     1      -5.376   4.599 -33.430  1.00  0.00    -0.053 C 
HETATM   24  C   UNL     1      -4.296   5.114 -34.185  1.00  0.00     0.014 C 
HETATM   25  C   UNL     1      -6.717   5.147 -33.827  1.00  0.00     0.049 C 
HETATM   26  C   UNL     1      -2.978   4.712 -33.975  1.00  0.00    -0.061 C 
HETATM   27  C   UNL     1      -1.843   5.393 -34.683  1.00  0.00     0.048 C 
HETATM   28  C   UNL     1      -2.738   3.706 -33.049  1.00  0.00     0.007 C 
HETATM   29  C   UNL     1      -3.787   3.193 -32.281  1.00  0.00     0.011 C 
ENDBRANCH   1  22
BRANCH  10  30
HETATM   30  C   UNL     1      -5.904   5.115 -29.389  1.00  0.00     0.294 C 
HETATM   31  O   UNL     1      -6.376   5.079 -28.266  1.00  0.00    -0.259 OA
BRANCH  30  32
HETATM   32  O   UNL     1      -4.663   5.500 -29.737  1.00  0.00    -0.313 OA
BRANCH  32  33
HETATM   33  C   UNL     1      -4.569   6.755 -30.436  1.00  0.00     0.217 C 
BRANCH  33  34
HETATM   34  C   UNL     1      -3.171   6.928 -30.979  1.00  0.00    -0.034 A 
HETATM   35  C   UNL     1      -2.893   7.906 -31.946  1.00  0.00     0.009 A 
HETATM   36  C   UNL     1      -1.591   8.080 -32.425  1.00  0.00     0.001 A 
HETATM   37  C   UNL     1      -0.558   7.275 -31.947  1.00  0.00     0.000 A 
HETATM   38  C   UNL     1      -0.825   6.293 -30.996  1.00  0.00     0.001 A 
HETATM   39  C   UNL     1      -2.124   6.117 -30.517  1.00  0.00     0.009 A 
ENDBRANCH  33  34
ENDBRANCH  32  33
ENDBRANCH  30  32
ENDBRANCH  10  30
TORSDOF 10
ENDMDL
MODEL 7
REMARK VINA RESULT:      -8.1      2.816      6.641
REMARK  10 active torsions:
REMARK  status: ('A' for Active; 'I' for Inactive)
REMARK    1  A    between atoms: C_6  and  C_7 
REMARK    2  A    between atoms: C_9  and  C_10 
REMARK    3  A    between atoms: C_10  and  C_11 
REMARK       I    between atoms: C_11  and  N_12 
REMARK    4  A    between atoms: N_12  and  C_13 
REMARK    5  A    between atoms: C_13  and  C_14 
REMARK    6  A    between atoms: C_14  and  N_15 
REMARK    7  A    between atoms: C_26  and  C_27 
REMARK    8  A    between atoms: C_27  and  O_28 
REMARK    9  A    between atoms: O_28  and  C_29 
REMARK   10  A    between atoms: C_29  and  C_30 
ROOT
HETATM    1  C   UNL     1      -6.346   4.573 -31.881  1.00  0.00     0.166 C 
HETATM    2  N   UNL     1      -5.905   5.379 -30.726  1.00  0.00    -0.318 N 
HETATM    3  C   UNL     1      -5.136   6.403 -30.547  1.00  0.00     0.011 C 
HETATM    4  C   UNL     1      -6.718   5.093 -29.433  1.00  0.00     0.170 C 
HETATM    5  S   UNL     1      -5.952   5.778 -28.036  1.00  0.00    -0.086 SA
HETATM    6  C   UNL     1      -4.896   6.800 -29.104  1.00  0.00     0.135 C 
HETATM    7  N   UNL     1      -7.867   4.517 -29.400  1.00  0.00    -0.229 NA
HETATM    8  C   UNL     1      -8.487   4.268 -30.611  1.00  0.00     0.048 C 
HETATM    9  C   UNL     1      -9.969   4.001 -30.487  1.00  0.00     0.071 C 
HETATM   10  C   UNL     1      -7.827   4.329 -31.788  1.00  0.00     0.069 C 
ENDROOT
BRANCH   3  11
HETATM   11  C   UNL     1      -4.638   7.244 -31.683  1.00  0.00     0.156 C 
BRANCH  11  12
HETATM   12  C   UNL     1      -3.280   7.879 -31.530  1.00  0.00     0.223 C 
HETATM   13  N   UNL     1      -2.247   6.973 -31.555  1.00  0.00    -0.359 N 
HETATM   14  H   UNL     1      -2.489   5.984 -31.595  1.00  0.00     0.162 HD
HETATM   15  O   UNL     1      -3.128   9.083 -31.362  1.00  0.00    -0.273 OA
BRANCH  13  16
HETATM   16  C   UNL     1      -0.870   7.229 -31.128  1.00  0.00     0.150 C 
BRANCH  16  17
HETATM   17  C   UNL     1      -0.611   7.350 -29.614  1.00  0.00     0.253 C 
BRANCH  17  18
HETATM   18  N   UNL     1      -0.407   6.011 -28.937  1.00  0.00    -0.077 N 
HETATM   19  H   UNL     1      -1.339   5.556 -28.887  1.00  0.00     0.279 HD
HETATM   20  C   UNL     1       0.495   5.072 -29.691  1.00  0.00     0.269 C 
HETATM   21  C   UNL     1       0.067   6.180 -27.518  1.00  0.00     0.269 C 
ENDBRANCH  17  18
ENDBRANCH  16  17
ENDBRANCH  13  16
ENDBRANCH  11  12
ENDBRANCH   3  11
BRANCH   1  22
HETATM   22  C   UNL     1      -5.562   3.254 -32.107  1.00  0.00    -0.024 C 
HETATM   23  C   UNL     1      -4.252   3.103 -32.627  1.00  0.00    -0.053 C 
HETATM   24  C   UNL     1      -3.542   1.903 -32.380  1.00  0.00     0.014 C 
HETATM   25  C   UNL     1      -3.472   4.126 -33.402  1.00  0.00     0.049 C 
HETATM   26  C   UNL     1      -4.105   0.830 -31.691  1.00  0.00    -0.061 C 
HETATM   27  C   UNL     1      -3.274  -0.361 -31.310  1.00  0.00     0.048 C 
HETATM   28  C   UNL     1      -5.437   0.918 -31.313  1.00  0.00     0.007 C 
HETATM   29  C   UNL     1      -6.154   2.099 -31.532  1.00  0.00     0.011 C 
ENDBRANCH   1  22
BRANCH  10  30
HETATM   30  C   UNL     1      -8.602   4.478 -33.039  1.00  0.00     0.294 C 
HETATM   31  O   UNL     1      -9.316   5.446 -33.236  1.00  0.00    -0.259 OA
BRANCH  30  32
HETATM   32  O   UNL     1      -8.283   3.512 -33.920  1.00  0.00    -0.313 OA
BRANCH  32  33
HETATM   33  C   UNL     1      -9.144   2.359 -33.923  1.00  0.00     0.217 C 
BRANCH  33  34
HETATM   34  C   UNL     1      -8.310   1.104 -34.020  1.00  0.00    -0.034 A 
HETATM   35  C   UNL     1      -7.166   1.063 -34.832  1.00  0.00     0.009 A 
HETATM   36  C   UNL     1      -6.383  -0.093 -34.896  1.00  0.00     0.001 A 
HETATM   37  C   UNL     1      -6.738  -1.219 -34.156  1.00  0.00     0.000 A 
HETATM   38  C   UNL     1      -7.878  -1.194 -33.356  1.00  0.00     0.001 A 
HETATM   39  C   UNL     1      -8.663  -0.041 -33.291  1.00  0.00     0.009 A 
ENDBRANCH  33  34
ENDBRANCH  32  33
ENDBRANCH  30  32
ENDBRANCH  10  30
TORSDOF 10
ENDMDL
MODEL 8
REMARK VINA RESULT:      -8.0      3.065      8.318
REMARK  10 active torsions:
REMARK  status: ('A' for Active; 'I' for Inactive)
REMARK    1  A    between atoms: C_6  and  C_7 
REMARK    2  A    between atoms: C_9  and  C_10 
REMARK    3  A    between atoms: C_10  and  C_11 
REMARK       I    between atoms: C_11  and  N_12 
REMARK    4  A    between atoms: N_12  and  C_13 
REMARK    5  A    between atoms: C_13  and  C_14 
REMARK    6  A    between atoms: C_14  and  N_15 
REMARK    7  A    between atoms: C_26  and  C_27 
REMARK    8  A    between atoms: C_27  and  O_28 
REMARK    9  A    between atoms: O_28  and  C_29 
REMARK   10  A    between atoms: C_29  and  C_30 
ROOT
HETATM    1  C   UNL     1      -5.373   3.030 -32.257  1.00  0.00     0.166 C 
HETATM    2  N   UNL     1      -6.666   3.741 -32.197  1.00  0.00    -0.318 N 
HETATM    3  C   UNL     1      -7.567   3.954 -31.294  1.00  0.00     0.011 C 
HETATM    4  C   UNL     1      -6.925   4.647 -33.431  1.00  0.00     0.170 C 
HETATM    5  S   UNL     1      -8.577   5.173 -33.498  1.00  0.00    -0.086 SA
HETATM    6  C   UNL     1      -8.819   4.664 -31.771  1.00  0.00     0.135 C 
HETATM    7  N   UNL     1      -6.020   5.051 -34.250  1.00  0.00    -0.229 NA
HETATM    8  C   UNL     1      -4.703   4.782 -33.923  1.00  0.00     0.048 C 
HETATM    9  C   UNL     1      -3.707   5.636 -34.672  1.00  0.00     0.071 C 
HETATM   10  C   UNL     1      -4.363   3.885 -32.971  1.00  0.00     0.069 C 
ENDROOT
BRANCH   3  11
HETATM   11  C   UNL     1      -7.335   3.667 -29.842  1.00  0.00     0.156 C 
BRANCH  11  12
HETATM   12  C   UNL     1      -7.026   4.838 -28.946  1.00  0.00     0.223 C 
HETATM   13  N   UNL     1      -5.820   4.727 -28.297  1.00  0.00    -0.359 N 
HETATM   14  H   UNL     1      -5.300   3.859 -28.417  1.00  0.00     0.162 HD
HETATM   15  O   UNL     1      -7.801   5.775 -28.791  1.00  0.00    -0.273 OA
BRANCH  13  16
HETATM   16  C   UNL     1      -5.386   5.525 -27.149  1.00  0.00     0.150 C 
BRANCH  16  17
HETATM   17  C   UNL     1      -4.358   6.642 -27.414  1.00  0.00     0.253 C 
BRANCH  17  18
HETATM   18  N   UNL     1      -3.664   7.123 -26.156  1.00  0.00    -0.077 N 
HETATM   19  H   UNL     1      -4.228   6.778 -25.354  1.00  0.00     0.279 HD
HETATM   20  C   UNL     1      -2.273   6.579 -25.976  1.00  0.00     0.269 C 
HETATM   21  C   UNL     1      -3.665   8.625 -26.069  1.00  0.00     0.269 C 
ENDBRANCH  17  18
ENDBRANCH  16  17
ENDBRANCH  13  16
ENDBRANCH  11  12
ENDBRANCH   3  11
BRANCH   1  22
HETATM   22  C   UNL     1      -5.430   1.598 -32.849  1.00  0.00    -0.024 C 
HETATM   23  C   UNL     1      -4.953   0.398 -32.263  1.00  0.00    -0.053 C 
HETATM   24  C   UNL     1      -5.447  -0.845 -32.726  1.00  0.00     0.014 C 
HETATM   25  C   UNL     1      -3.977   0.284 -31.126  1.00  0.00     0.049 C 
HETATM   26  C   UNL     1      -6.349  -0.942 -33.785  1.00  0.00    -0.061 C 
HETATM   27  C   UNL     1      -6.973  -2.260 -34.146  1.00  0.00     0.048 C 
HETATM   28  C   UNL     1      -6.701   0.219 -34.457  1.00  0.00     0.007 C 
HETATM   29  C   UNL     1      -6.238   1.460 -34.008  1.00  0.00     0.011 C 
ENDBRANCH   1  22
BRANCH  10  30
HETATM   30  C   UNL     1      -3.010   3.948 -32.375  1.00  0.00     0.294 C 
HETATM   31  O   UNL     1      -2.053   3.411 -32.906  1.00  0.00    -0.259 OA
BRANCH  30  32
HETATM   32  O   UNL     1      -2.992   4.771 -31.311  1.00  0.00    -0.313 OA
BRANCH  32  33
HETATM   33  C   UNL     1      -1.724   5.386 -31.016  1.00  0.00     0.217 C 
BRANCH  33  34
HETATM   34  C   UNL     1      -1.935   6.840 -30.669  1.00  0.00    -0.034 A 
HETATM   35  C   UNL     1      -1.385   7.386 -29.500  1.00  0.00     0.009 A 
HETATM   36  C   UNL     1      -1.561   8.740 -29.198  1.00  0.00     0.001 A 
HETATM   37  C   UNL     1      -2.293   9.557 -30.057  1.00  0.00     0.000 A 
HETATM   38  C   UNL     1      -2.855   9.023 -31.215  1.00  0.00     0.001 A 
HETATM   39  C   UNL     1      -2.681   7.672 -31.518  1.00  0.00     0.009 A 
ENDBRANCH  33  34
ENDBRANCH  32  33
ENDBRANCH  30  32
ENDBRANCH  10  30
TORSDOF 10
ENDMDL
MODEL 9
REMARK VINA RESULT:      -8.0      3.301      7.219
REMARK  10 active torsions:
REMARK  status: ('A' for Active; 'I' for Inactive)
REMARK    1  A    between atoms: C_6  and  C_7 
REMARK    2  A    between atoms: C_9  and  C_10 
REMARK    3  A    between atoms: C_10  and  C_11 
REMARK       I    between atoms: C_11  and  N_12 
REMARK    4  A    between atoms: N_12  and  C_13 
REMARK    5  A    between atoms: C_13  and  C_14 
REMARK    6  A    between atoms: C_14  and  N_15 
REMARK    7  A    between atoms: C_26  and  C_27 
REMARK    8  A    between atoms: C_27  and  O_28 
REMARK    9  A    between atoms: O_28  and  C_29 
REMARK   10  A    between atoms: C_29  and  C_30 
ROOT
HETATM    1  C   UNL     1      -5.643   4.147 -31.183  1.00  0.00     0.166 C 
HETATM    2  N   UNL     1      -5.884   5.550 -30.790  1.00  0.00    -0.318 N 
HETATM    3  C   UNL     1      -5.984   6.198 -29.676  1.00  0.00     0.011 C 
HETATM    4  C   UNL     1      -5.770   6.546 -31.976  1.00  0.00     0.170 C 
HETATM    5  S   UNL     1      -6.403   8.107 -31.559  1.00  0.00    -0.086 SA
HETATM    6  C   UNL     1      -6.372   7.658 -29.798  1.00  0.00     0.135 C 
HETATM    7  N   UNL     1      -5.188   6.295 -33.095  1.00  0.00    -0.229 NA
HETATM    8  C   UNL     1      -4.486   5.106 -33.192  1.00  0.00     0.048 C 
HETATM    9  C   UNL     1      -3.499   5.079 -34.335  1.00  0.00     0.071 C 
HETATM   10  C   UNL     1      -4.635   4.104 -32.299  1.00  0.00     0.069 C 
ENDROOT
BRANCH   3  11
HETATM   11  C   UNL     1      -5.593   5.600 -28.359  1.00  0.00     0.156 C 
BRANCH  11  12
HETATM   12  C   UNL     1      -4.809   6.469 -27.411  1.00  0.00     0.223 C 
HETATM   13  N   UNL     1      -3.483   6.592 -27.752  1.00  0.00    -0.359 N 
HETATM   14  H   UNL     1      -3.147   6.043 -28.542  1.00  0.00     0.162 HD
HETATM   15  O   UNL     1      -5.307   6.980 -26.415  1.00  0.00    -0.273 OA
BRANCH  13  16
HETATM   16  C   UNL     1      -2.417   7.098 -26.886  1.00  0.00     0.150 C 
BRANCH  16  17
HETATM   17  C   UNL     1      -0.966   6.930 -27.379  1.00  0.00     0.253 C 
BRANCH  17  18
HETATM   18  N   UNL     1      -0.209   8.239 -27.454  1.00  0.00    -0.077 N 
HETATM   19  H   UNL     1      -0.004   8.522 -26.476  1.00  0.00     0.279 HD
HETATM   20  C   UNL     1       1.114   8.144 -28.165  1.00  0.00     0.269 C 
HETATM   21  C   UNL     1      -1.057   9.330 -28.050  1.00  0.00     0.269 C 
ENDBRANCH  17  18
ENDBRANCH  16  17
ENDBRANCH  13  16
ENDBRANCH  11  12
ENDBRANCH   3  11
BRANCH   1  22
HETATM   22  C   UNL     1      -6.913   3.328 -31.528  1.00  0.00    -0.024 C 
HETATM   23  C   UNL     1      -7.774   3.491 -32.643  1.00  0.00    -0.053 C 
HETATM   24  C   UNL     1      -8.620   2.424 -33.029  1.00  0.00     0.014 C 
HETATM   25  C   UNL     1      -7.867   4.698 -33.533  1.00  0.00     0.049 C 
HETATM   26  C   UNL     1      -8.685   1.228 -32.317  1.00  0.00    -0.061 C 
HETATM   27  C   UNL     1      -9.471   0.061 -32.842  1.00  0.00     0.048 C 
HETATM   28  C   UNL     1      -7.956   1.122 -31.141  1.00  0.00     0.007 C 
HETATM   29  C   UNL     1      -7.102   2.157 -30.748  1.00  0.00     0.011 C 
ENDBRANCH   1  22
BRANCH  10  30
HETATM   30  C   UNL     1      -3.583   3.068 -32.200  1.00  0.00     0.294 C 
HETATM   31  O   UNL     1      -2.655   3.174 -31.417  1.00  0.00    -0.259 OA
BRANCH  30  32
HETATM   32  O   UNL     1      -3.891   1.997 -32.954  1.00  0.00    -0.313 OA
BRANCH  32  33
HETATM   33  C   UNL     1      -3.940   0.737 -32.260  1.00  0.00     0.217 C 
BRANCH  33  34
HETATM   34  C   UNL     1      -4.616  -0.295 -33.131  1.00  0.00    -0.034 A 
HETATM   35  C   UNL     1      -4.115  -1.602 -33.217  1.00  0.00     0.009 A 
HETATM   36  C   UNL     1      -4.762  -2.560 -34.005  1.00  0.00     0.001 A 
HETATM   37  C   UNL     1      -5.910  -2.218 -34.717  1.00  0.00     0.000 A 
HETATM   38  C   UNL     1      -6.410  -0.920 -34.649  1.00  0.00     0.001 A 
HETATM   39  C   UNL     1      -5.765   0.038 -33.864  1.00  0.00     0.009 A 
ENDBRANCH  33  34
ENDBRANCH  32  33
ENDBRANCH  30  32
ENDBRANCH  10  30
TORSDOF 10
ENDMDL
MODEL 10
REMARK VINA RESULT:      -8.0      3.214      6.041
REMARK  10 active torsions:
REMARK  status: ('A' for Active; 'I' for Inactive)
REMARK    1  A    between atoms: C_6  and  C_7 
REMARK    2  A    between atoms: C_9  and  C_10 
REMARK    3  A    between atoms: C_10  and  C_11 
REMARK       I    between atoms: C_11  and  N_12 
REMARK    4  A    between atoms: N_12  and  C_13 
REMARK    5  A    between atoms: C_13  and  C_14 
REMARK    6  A    between atoms: C_14  and  N_15 
REMARK    7  A    between atoms: C_26  and  C_27 
REMARK    8  A    between atoms: C_27  and  O_28 
REMARK    9  A    between atoms: O_28  and  C_29 
REMARK   10  A    between atoms: C_29  and  C_30 
ROOT
HETATM    1  C   UNL     1      -9.015   3.292 -32.435  1.00  0.00     0.166 C 
HETATM    2  N   UNL     1      -9.981   3.800 -33.429  1.00  0.00    -0.318 N 
HETATM    3  C   UNL     1     -11.258   3.710 -33.613  1.00  0.00     0.011 C 
HETATM    4  C   UNL     1      -9.384   4.889 -34.362  1.00  0.00     0.170 C 
HETATM    5  S   UNL     1     -10.416   5.196 -35.722  1.00  0.00    -0.086 SA
HETATM    6  C   UNL     1     -11.781   4.329 -34.895  1.00  0.00     0.135 C 
HETATM    7  N   UNL     1      -8.317   5.562 -34.117  1.00  0.00    -0.229 NA
HETATM    8  C   UNL     1      -7.743   5.410 -32.868  1.00  0.00     0.048 C 
HETATM    9  C   UNL     1      -6.783   6.518 -32.504  1.00  0.00     0.071 C 
HETATM   10  C   UNL     1      -8.074   4.396 -32.039  1.00  0.00     0.069 C 
ENDROOT
BRANCH   3  11
HETATM   11  C   UNL     1     -12.187   3.176 -32.566  1.00  0.00     0.156 C 
BRANCH  11  12
HETATM   12  C   UNL     1     -13.275   2.240 -33.021  1.00  0.00     0.223 C 
HETATM   13  N   UNL     1     -14.541   2.735 -32.820  1.00  0.00    -0.359 N 
HETATM   14  H   UNL     1     -14.627   3.624 -32.330  1.00  0.00     0.162 HD
HETATM   15  O   UNL     1     -13.043   1.130 -33.487  1.00  0.00    -0.273 OA
BRANCH  13  16
HETATM   16  C   UNL     1     -15.783   1.961 -32.863  1.00  0.00     0.150 C 
BRANCH  16  17
HETATM   17  C   UNL     1     -17.010   2.552 -32.142  1.00  0.00     0.253 C 
BRANCH  17  18
HETATM   18  N   UNL     1     -17.670   3.675 -32.916  1.00  0.00    -0.077 N 
HETATM   19  H   UNL     1     -17.180   3.736 -33.830  1.00  0.00     0.279 HD
HETATM   20  C   UNL     1     -19.125   3.440 -33.218  1.00  0.00     0.269 C 
HETATM   21  C   UNL     1     -17.475   5.001 -32.233  1.00  0.00     0.269 C 
ENDBRANCH  17  18
ENDBRANCH  16  17
ENDBRANCH  13  16
ENDBRANCH  11  12
ENDBRANCH   3  11
BRANCH   1  22
HETATM   22  C   UNL     1      -8.248   2.009 -32.851  1.00  0.00    -0.024 C 
HETATM   23  C   UNL     1      -8.683   0.664 -32.736  1.00  0.00    -0.053 C 
HETATM   24  C   UNL     1      -8.065  -0.334 -33.527  1.00  0.00     0.014 C 
HETATM   25  C   UNL     1      -9.803   0.155 -31.873  1.00  0.00     0.049 C 
HETATM   26  C   UNL     1      -6.996  -0.058 -34.378  1.00  0.00    -0.061 C 
HETATM   27  C   UNL     1      -6.469  -1.104 -35.317  1.00  0.00     0.048 C 
HETATM   28  C   UNL     1      -6.472   1.227 -34.379  1.00  0.00     0.007 C 
HETATM   29  C   UNL     1      -7.076   2.233 -33.618  1.00  0.00     0.011 C 
ENDBRANCH   1  22
BRANCH  10  30
HETATM   30  C   UNL     1      -7.768   4.518 -30.596  1.00  0.00     0.294 C 
HETATM   31  O   UNL     1      -8.606   4.893 -29.795  1.00  0.00    -0.259 OA
BRANCH  30  32
HETATM   32  O   UNL     1      -6.545   4.029 -30.322  1.00  0.00    -0.313 OA
BRANCH  32  33
HETATM   33  C   UNL     1      -6.514   2.725 -29.714  1.00  0.00     0.217 C 
BRANCH  33  34
HETATM   34  C   UNL     1      -5.557   1.836 -30.472  1.00  0.00    -0.034 A 
HETATM   35  C   UNL     1      -5.785   0.455 -30.572  1.00  0.00     0.009 A 
HETATM   36  C   UNL     1      -4.910  -0.358 -31.298  1.00  0.00     0.001 A 
HETATM   37  C   UNL     1      -3.798   0.199 -31.925  1.00  0.00     0.000 A 
HETATM   38  C   UNL     1      -3.554   1.567 -31.824  1.00  0.00     0.001 A 
HETATM   39  C   UNL     1      -4.426   2.381 -31.098  1.00  0.00     0.009 A 
ENDBRANCH  33  34
ENDBRANCH  32  33
ENDBRANCH  30  32
ENDBRANCH  10  30
TORSDOF 10
ENDMDL
