MODEL 1
REMARK VINA RESULT:      -8.9      0.000      0.000
REMARK  3 active torsions:
REMARK  status: ('A' for Active; 'I' for Inactive)
REMARK    1  A    between atoms: C_4  and  C_5 
REMARK    2  A    between atoms: C_11  and  C_12 
REMARK    3  A    between atoms: C_21  and  N_22 
ROOT
HETATM    1  C   UNL     1      -7.205   0.161 -33.619  1.00  0.00     0.071 A 
HETATM    2  N   UNL     1      -8.571  -0.024 -33.553  1.00  0.00    -0.274 N 
HETATM    3  H   UNL     1      -9.074  -0.904 -33.589  1.00  0.00     0.189 HD
HETATM    4  N   UNL     1      -9.284   1.118 -33.496  1.00  0.00    -0.148 NA
HETATM    5  C   UNL     1      -8.331   2.041 -33.508  1.00  0.00     0.199 A 
HETATM    6  C   UNL     1      -7.029   1.532 -33.532  1.00  0.00     0.036 A 
HETATM    7  C   UNL     1      -5.851   2.450 -33.533  1.00  0.00     0.081 C 
HETATM    8  C   UNL     1      -6.322   3.872 -33.895  1.00  0.00     0.077 C 
HETATM    9  C   UNL     1      -5.312   4.806 -34.275  1.00  0.00     0.100 C 
HETATM   10  N   UNL     1      -4.484   5.548 -34.603  1.00  0.00    -0.192 NA
HETATM   11  C   UNL     1      -7.628   4.246 -33.875  1.00  0.00     0.140 C 
HETATM   12  O   UNL     1      -8.655   3.344 -33.567  1.00  0.00    -0.277 OA
ENDROOT
BRANCH   7  13
HETATM   13  C   UNL     1      -5.023   2.457 -32.199  1.00  0.00     0.022 C 
HETATM   14  C   UNL     1      -5.333   3.648 -31.319  1.00  0.00    -0.025 C 
HETATM   15  C   UNL     1      -4.420   4.544 -30.920  1.00  0.00    -0.030 C 
HETATM   16  C   UNL     1      -2.978   4.498 -31.327  1.00  0.00     0.027 C 
HETATM   17  C   UNL     1      -2.711   3.551 -32.495  1.00  0.00     0.004 C 
HETATM   18  C   UNL     1      -3.497   2.248 -32.362  1.00  0.00     0.010 C 
ENDBRANCH   7  13
BRANCH  11  19
HETATM   19  N   UNL     1      -8.100   5.511 -34.156  1.00  0.00    -0.282 NA
HETATM   20  H   UNL     1      -9.077   5.568 -34.434  1.00  0.00     0.126 HD
HETATM   21  H   UNL     1      -7.854   6.175 -33.424  1.00  0.00     0.126 HD
ENDBRANCH  11  19
BRANCH   1  22
HETATM   22  C   UNL     1      -6.279  -0.951 -33.791  1.00  0.00    -0.007 A 
HETATM   23  C   UNL     1      -5.122  -1.037 -33.005  1.00  0.00     0.014 A 
HETATM   24  C   UNL     1      -4.227  -2.096 -33.175  1.00  0.00     0.001 A 
HETATM   25  C   UNL     1      -4.477  -3.076 -34.134  1.00  0.00     0.000 A 
HETATM   26  C   UNL     1      -5.623  -2.997 -34.923  1.00  0.00     0.001 A 
HETATM   27  C   UNL     1      -6.520  -1.940 -34.754  1.00  0.00     0.014 A 
ENDBRANCH   1  22
TORSDOF 3
ENDMDL
MODEL 2
REMARK VINA RESULT:      -8.8      2.347      4.878
REMARK  3 active torsions:
REMARK  status: ('A' for Active; 'I' for Inactive)
REMARK    1  A    between atoms: C_4  and  C_5 
REMARK    2  A    between atoms: C_11  and  C_12 
REMARK    3  A    between atoms: C_21  and  N_22 
ROOT
HETATM    1  C   UNL     1      -8.644   2.418 -31.880  1.00  0.00     0.071 A 
HETATM    2  N   UNL     1      -8.700   2.453 -30.501  1.00  0.00    -0.274 N 
HETATM    3  H   UNL     1      -9.483   2.195 -29.911  1.00  0.00     0.189 HD
HETATM    4  N   UNL     1      -7.593   2.950 -29.914  1.00  0.00    -0.148 NA
HETATM    5  C   UNL     1      -6.819   3.213 -30.958  1.00  0.00     0.199 A 
HETATM    6  C   UNL     1      -7.373   2.868 -32.195  1.00  0.00     0.036 A 
HETATM    7  C   UNL     1      -6.612   3.091 -33.460  1.00  0.00     0.081 C 
HETATM    8  C   UNL     1      -5.439   4.050 -33.180  1.00  0.00     0.077 C 
HETATM    9  C   UNL     1      -4.809   4.645 -34.314  1.00  0.00     0.100 C 
HETATM   10  N   UNL     1      -4.321   5.137 -35.243  1.00  0.00    -0.192 NA
HETATM   11  C   UNL     1      -5.008   4.345 -31.924  1.00  0.00     0.140 C 
HETATM   12  O   UNL     1      -5.638   3.832 -30.783  1.00  0.00    -0.277 OA
ENDROOT
BRANCH   7  13
HETATM   13  C   UNL     1      -6.108   1.780 -34.163  1.00  0.00     0.022 C 
HETATM   14  C   UNL     1      -7.126   1.194 -35.116  1.00  0.00    -0.025 C 
HETATM   15  C   UNL     1      -7.629  -0.044 -35.009  1.00  0.00    -0.030 C 
HETATM   16  C   UNL     1      -7.270  -0.994 -33.906  1.00  0.00     0.027 C 
HETATM   17  C   UNL     1      -6.552  -0.318 -32.739  1.00  0.00     0.004 C 
HETATM   18  C   UNL     1      -5.522   0.702 -33.218  1.00  0.00     0.010 C 
ENDBRANCH   7  13
BRANCH  11  19
HETATM   19  N   UNL     1      -3.945   5.167 -31.618  1.00  0.00    -0.282 NA
HETATM   20  H   UNL     1      -3.223   4.758 -31.031  1.00  0.00     0.126 HD
HETATM   21  H   UNL     1      -3.573   5.625 -32.449  1.00  0.00     0.126 HD
ENDBRANCH  11  19
BRANCH   1  22
HETATM   22  C   UNL     1      -9.783   2.011 -32.692  1.00  0.00    -0.007 A 
HETATM   23  C   UNL     1     -10.255   0.693 -32.641  1.00  0.00     0.014 A 
HETATM   24  C   UNL     1     -11.341   0.297 -33.427  1.00  0.00     0.001 A 
HETATM   25  C   UNL     1     -11.961   1.214 -34.273  1.00  0.00     0.000 A 
HETATM   26  C   UNL     1     -11.498   2.526 -34.334  1.00  0.00     0.001 A 
HETATM   27  C   UNL     1     -10.413   2.924 -33.548  1.00  0.00     0.014 A 
ENDBRANCH   1  22
TORSDOF 3
ENDMDL
MODEL 3
REMARK VINA RESULT:      -8.6      1.138      1.916
REMARK  3 active torsions:
REMARK  status: ('A' for Active; 'I' for Inactive)
REMARK    1  A    between atoms: C_4  and  C_5 
REMARK    2  A    between atoms: C_11  and  C_12 
REMARK    3  A    between atoms: C_21  and  N_22 
ROOT
HETATM    1  C   UNL     1      -7.534   0.239 -33.912  1.00  0.00     0.071 A 
HETATM    2  N   UNL     1      -8.908   0.128 -33.968  1.00  0.00    -0.274 N 
HETATM    3  H   UNL     1      -9.452  -0.717 -34.103  1.00  0.00     0.189 HD
HETATM    4  N   UNL     1      -9.563   1.304 -33.891  1.00  0.00    -0.148 NA
HETATM    5  C   UNL     1      -8.565   2.169 -33.765  1.00  0.00     0.199 A 
HETATM    6  C   UNL     1      -7.294   1.589 -33.719  1.00  0.00     0.036 A 
HETATM    7  C   UNL     1      -6.074   2.436 -33.563  1.00  0.00     0.081 C 
HETATM    8  C   UNL     1      -6.438   3.903 -33.865  1.00  0.00     0.077 C 
HETATM    9  C   UNL     1      -5.352   4.799 -34.099  1.00  0.00     0.100 C 
HETATM   10  N   UNL     1      -4.462   5.512 -34.308  1.00  0.00    -0.192 NA
HETATM   11  C   UNL     1      -7.720   4.349 -33.924  1.00  0.00     0.140 C 
HETATM   12  O   UNL     1      -8.815   3.490 -33.762  1.00  0.00    -0.277 OA
ENDROOT
BRANCH   7  13
HETATM   13  C   UNL     1      -5.362   2.311 -32.169  1.00  0.00     0.022 C 
HETATM   14  C   UNL     1      -3.959   1.754 -32.271  1.00  0.00    -0.025 C 
HETATM   15  C   UNL     1      -3.548   0.637 -31.652  1.00  0.00    -0.030 C 
HETATM   16  C   UNL     1      -4.441  -0.220 -30.807  1.00  0.00     0.027 C 
HETATM   17  C   UNL     1      -5.925   0.095 -30.984  1.00  0.00     0.004 C 
HETATM   18  C   UNL     1      -6.182   1.598 -31.064  1.00  0.00     0.010 C 
ENDBRANCH   7  13
BRANCH  11  19
HETATM   19  N   UNL     1      -8.100   5.654 -34.157  1.00  0.00    -0.282 NA
HETATM   20  H   UNL     1      -7.915   6.010 -35.091  1.00  0.00     0.126 HD
HETATM   21  H   UNL     1      -9.054   5.829 -33.845  1.00  0.00     0.126 HD
ENDBRANCH  11  19
BRANCH   1  22
HETATM   22  C   UNL     1      -6.656  -0.911 -34.083  1.00  0.00    -0.007 A 
HETATM   23  C   UNL     1      -5.267  -0.738 -34.158  1.00  0.00     0.014 A 
HETATM   24  C   UNL     1      -4.423  -1.838 -34.333  1.00  0.00     0.001 A 
HETATM   25  C   UNL     1      -4.960  -3.119 -34.438  1.00  0.00     0.000 A 
HETATM   26  C   UNL     1      -6.339  -3.303 -34.368  1.00  0.00     0.001 A 
HETATM   27  C   UNL     1      -7.184  -2.205 -34.192  1.00  0.00     0.014 A 
ENDBRANCH   1  22
TORSDOF 3
ENDMDL
MODEL 4
REMARK VINA RESULT:      -8.6      2.845      4.235
REMARK  3 active torsions:
REMARK  status: ('A' for Active; 'I' for Inactive)
REMARK    1  A    between atoms: C_4  and  C_5 
REMARK    2  A    between atoms: C_11  and  C_12 
REMARK    3  A    between atoms: C_21  and  N_22 
ROOT
HETATM    1  C   UNL     1     -10.050   1.020 -33.659  1.00  0.00     0.071 A 
HETATM    2  N   UNL     1     -11.178   0.287 -33.351  1.00  0.00    -0.274 N 
HETATM    3  H   UNL     1     -11.230  -0.707 -33.155  1.00  0.00     0.189 HD
HETATM    4  N   UNL     1     -12.325   0.992 -33.385  1.00  0.00    -0.148 NA
HETATM    5  C   UNL     1     -11.895   2.206 -33.705  1.00  0.00     0.199 A 
HETATM    6  C   UNL     1     -10.508   2.314 -33.840  1.00  0.00     0.036 A 
HETATM    7  C   UNL     1      -9.875   3.623 -34.183  1.00  0.00     0.081 C 
HETATM    8  C   UNL     1     -10.959   4.583 -34.711  1.00  0.00     0.077 C 
HETATM    9  C   UNL     1     -10.505   5.748 -35.399  1.00  0.00     0.100 C 
HETATM   10  N   UNL     1     -10.124   6.679 -35.976  1.00  0.00    -0.192 NA
HETATM   11  C   UNL     1     -12.289   4.354 -34.555  1.00  0.00     0.140 C 
HETATM   12  O   UNL     1     -12.777   3.193 -33.940  1.00  0.00    -0.277 OA
ENDROOT
BRANCH   7  13
HETATM   13  C   UNL     1      -9.062   4.285 -33.014  1.00  0.00     0.022 C 
HETATM   14  C   UNL     1      -7.632   3.795 -32.941  1.00  0.00    -0.025 C 
HETATM   15  C   UNL     1      -7.098   3.197 -31.866  1.00  0.00    -0.030 C 
HETATM   16  C   UNL     1      -7.864   2.906 -30.611  1.00  0.00     0.027 C 
HETATM   17  C   UNL     1      -9.376   3.038 -30.783  1.00  0.00     0.004 C 
HETATM   18  C   UNL     1      -9.748   4.255 -31.626  1.00  0.00     0.010 C 
ENDBRANCH   7  13
BRANCH  11  19
HETATM   19  N   UNL     1     -13.298   5.194 -34.976  1.00  0.00    -0.282 NA
HETATM   20  H   UNL     1     -13.647   5.851 -34.283  1.00  0.00     0.126 HD
HETATM   21  H   UNL     1     -13.072   5.635 -35.866  1.00  0.00     0.126 HD
ENDBRANCH  11  19
BRANCH   1  22
HETATM   22  C   UNL     1      -8.734   0.407 -33.774  1.00  0.00    -0.007 A 
HETATM   23  C   UNL     1      -8.083  -0.096 -32.639  1.00  0.00     0.014 A 
HETATM   24  C   UNL     1      -6.817  -0.676 -32.745  1.00  0.00     0.001 A 
HETATM   25  C   UNL     1      -6.186  -0.753 -33.985  1.00  0.00     0.000 A 
HETATM   26  C   UNL     1      -6.821  -0.253 -35.120  1.00  0.00     0.001 A 
HETATM   27  C   UNL     1      -8.089   0.326 -35.016  1.00  0.00     0.014 A 
ENDBRANCH   1  22
TORSDOF 3
ENDMDL
MODEL 5
REMARK VINA RESULT:      -8.5      2.681      4.334
REMARK  3 active torsions:
REMARK  status: ('A' for Active; 'I' for Inactive)
REMARK    1  A    between atoms: C_4  and  C_5 
REMARK    2  A    between atoms: C_11  and  C_12 
REMARK    3  A    between atoms: C_21  and  N_22 
ROOT
HETATM    1  C   UNL     1      -4.540  -0.474 -32.704  1.00  0.00     0.071 A 
HETATM    2  N   UNL     1      -3.220  -0.468 -32.302  1.00  0.00    -0.274 N 
HETATM    3  H   UNL     1      -2.513  -1.168 -32.501  1.00  0.00     0.189 HD
HETATM    4  N   UNL     1      -2.887   0.567 -31.505  1.00  0.00    -0.148 NA
HETATM    5  C   UNL     1      -4.030   1.235 -31.427  1.00  0.00     0.199 A 
HETATM    6  C   UNL     1      -5.077   0.687 -32.175  1.00  0.00     0.036 A 
HETATM    7  C   UNL     1      -6.420   1.338 -32.197  1.00  0.00     0.081 C 
HETATM    8  C   UNL     1      -6.510   2.347 -31.035  1.00  0.00     0.077 C 
HETATM    9  C   UNL     1      -7.813   2.813 -30.688  1.00  0.00     0.100 C 
HETATM   10  N   UNL     1      -8.880   3.167 -30.402  1.00  0.00    -0.192 NA
HETATM   11  C   UNL     1      -5.421   2.782 -30.348  1.00  0.00     0.140 C 
HETATM   12  O   UNL     1      -4.133   2.303 -30.616  1.00  0.00    -0.277 OA
ENDROOT
BRANCH   7  13
HETATM   13  C   UNL     1      -6.798   2.019 -33.561  1.00  0.00     0.022 C 
HETATM   14  C   UNL     1      -6.683   3.527 -33.518  1.00  0.00    -0.025 C 
HETATM   15  C   UNL     1      -7.700   4.365 -33.768  1.00  0.00    -0.030 C 
HETATM   16  C   UNL     1      -9.092   3.909 -34.087  1.00  0.00     0.027 C 
HETATM   17  C   UNL     1      -9.330   2.433 -33.773  1.00  0.00     0.004 C 
HETATM   18  C   UNL     1      -8.143   1.565 -34.181  1.00  0.00     0.010 C 
ENDBRANCH   7  13
BRANCH  11  19
HETATM   19  N   UNL     1      -5.441   3.707 -29.325  1.00  0.00    -0.282 NA
HETATM   20  H   UNL     1      -4.534   3.962 -28.941  1.00  0.00     0.126 HD
HETATM   21  H   UNL     1      -6.017   4.513 -29.559  1.00  0.00     0.126 HD
ENDBRANCH  11  19
BRANCH   1  22
HETATM   22  C   UNL     1      -5.109  -1.567 -33.481  1.00  0.00    -0.007 A 
HETATM   23  C   UNL     1      -6.472  -1.571 -33.807  1.00  0.00     0.014 A 
HETATM   24  C   UNL     1      -7.023  -2.623 -34.543  1.00  0.00     0.001 A 
HETATM   25  C   UNL     1      -6.217  -3.682 -34.957  1.00  0.00     0.000 A 
HETATM   26  C   UNL     1      -4.862  -3.691 -34.636  1.00  0.00     0.001 A 
HETATM   27  C   UNL     1      -4.309  -2.639 -33.901  1.00  0.00     0.014 A 
ENDBRANCH   1  22
TORSDOF 3
ENDMDL
MODEL 6
REMARK VINA RESULT:      -8.4      3.088      6.335
REMARK  3 active torsions:
REMARK  status: ('A' for Active; 'I' for Inactive)
REMARK    1  A    between atoms: C_4  and  C_5 
REMARK    2  A    between atoms: C_11  and  C_12 
REMARK    3  A    between atoms: C_21  and  N_22 
ROOT
HETATM    1  C   UNL     1      -4.198   1.609 -32.058  1.00  0.00     0.071 A 
HETATM    2  N   UNL     1      -3.109   1.616 -31.210  1.00  0.00    -0.274 N 
HETATM    3  H   UNL     1      -2.649   2.425 -30.809  1.00  0.00     0.189 HD
HETATM    4  N   UNL     1      -2.592   0.397 -30.961  1.00  0.00    -0.148 NA
HETATM    5  C   UNL     1      -3.396  -0.394 -31.660  1.00  0.00     0.199 A 
HETATM    6  C   UNL     1      -4.435   0.269 -32.320  1.00  0.00     0.036 A 
HETATM    7  C   UNL     1      -5.429  -0.491 -33.134  1.00  0.00     0.081 C 
HETATM    8  C   UNL     1      -4.881  -1.904 -33.408  1.00  0.00     0.077 C 
HETATM    9  C   UNL     1      -5.521  -2.654 -34.439  1.00  0.00     0.100 C 
HETATM   10  N   UNL     1      -6.037  -3.244 -35.294  1.00  0.00    -0.192 NA
HETATM   11  C   UNL     1      -3.832  -2.435 -32.726  1.00  0.00     0.140 C 
HETATM   12  O   UNL     1      -3.136  -1.710 -31.749  1.00  0.00    -0.277 OA
ENDROOT
BRANCH   7  13
HETATM   13  C   UNL     1      -6.870  -0.559 -32.514  1.00  0.00     0.022 C 
HETATM   14  C   UNL     1      -7.929   0.037 -33.416  1.00  0.00    -0.025 C 
HETATM   15  C   UNL     1      -8.725   1.057 -33.065  1.00  0.00    -0.030 C 
HETATM   16  C   UNL     1      -8.642   1.760 -31.744  1.00  0.00     0.027 C 
HETATM   17  C   UNL     1      -7.362   1.444 -30.972  1.00  0.00     0.004 C 
HETATM   18  C   UNL     1      -6.995  -0.036 -31.061  1.00  0.00     0.010 C 
ENDBRANCH   7  13
BRANCH  11  19
HETATM   19  N   UNL     1      -3.323  -3.704 -32.906  1.00  0.00    -0.282 NA
HETATM   20  H   UNL     1      -3.840  -4.457 -32.458  1.00  0.00     0.126 HD
HETATM   21  H   UNL     1      -3.116  -3.890 -33.885  1.00  0.00     0.126 HD
ENDBRANCH  11  19
BRANCH   1  22
HETATM   22  C   UNL     1      -4.825   2.838 -32.525  1.00  0.00    -0.007 A 
HETATM   23  C   UNL     1      -4.748   4.009 -31.760  1.00  0.00     0.014 A 
HETATM   24  C   UNL     1      -5.357   5.186 -32.199  1.00  0.00     0.001 A 
HETATM   25  C   UNL     1      -6.054   5.203 -33.406  1.00  0.00     0.000 A 
HETATM   26  C   UNL     1      -6.141   4.044 -34.174  1.00  0.00     0.001 A 
HETATM   27  C   UNL     1      -5.530   2.866 -33.736  1.00  0.00     0.014 A 
ENDBRANCH   1  22
TORSDOF 3
ENDMDL
MODEL 7
REMARK VINA RESULT:      -8.3      1.892      3.018
REMARK  3 active torsions:
REMARK  status: ('A' for Active; 'I' for Inactive)
REMARK    1  A    between atoms: C_4  and  C_5 
REMARK    2  A    between atoms: C_11  and  C_12 
REMARK    3  A    between atoms: C_21  and  N_22 
ROOT
HETATM    1  C   UNL     1      -6.448   1.764 -33.652  1.00  0.00     0.071 A 
HETATM    2  N   UNL     1      -7.608   2.394 -34.054  1.00  0.00    -0.274 N 
HETATM    3  H   UNL     1      -8.432   1.964 -34.458  1.00  0.00     0.189 HD
HETATM    4  N   UNL     1      -7.579   3.737 -33.938  1.00  0.00    -0.148 NA
HETATM    5  C   UNL     1      -6.372   3.946 -33.430  1.00  0.00     0.199 A 
HETATM    6  C   UNL     1      -5.637   2.783 -33.180  1.00  0.00     0.036 A 
HETATM    7  C   UNL     1      -4.265   2.859 -32.594  1.00  0.00     0.081 C 
HETATM    8  C   UNL     1      -3.743   4.303 -32.720  1.00  0.00     0.077 C 
HETATM    9  C   UNL     1      -2.342   4.499 -32.530  1.00  0.00     0.100 C 
HETATM   10  N   UNL     1      -1.199   4.642 -32.395  1.00  0.00    -0.192 NA
HETATM   11  C   UNL     1      -4.550   5.359 -33.009  1.00  0.00     0.140 C 
HETATM   12  O   UNL     1      -5.918   5.201 -33.263  1.00  0.00    -0.277 OA
ENDROOT
BRANCH   7  13
HETATM   13  C   UNL     1      -4.156   2.351 -31.112  1.00  0.00     0.022 C 
HETATM   14  C   UNL     1      -3.919   0.860 -31.016  1.00  0.00    -0.025 C 
HETATM   15  C   UNL     1      -4.734   0.011 -30.372  1.00  0.00    -0.030 C 
HETATM   16  C   UNL     1      -6.004   0.431 -29.696  1.00  0.00     0.027 C 
HETATM   17  C   UNL     1      -6.461   1.835 -30.088  1.00  0.00     0.004 C 
HETATM   18  C   UNL     1      -5.291   2.813 -30.165  1.00  0.00     0.010 C 
ENDBRANCH   7  13
BRANCH  11  19
HETATM   19  N   UNL     1      -4.142   6.673 -33.100  1.00  0.00    -0.282 NA
HETATM   20  H   UNL     1      -4.516   7.199 -33.886  1.00  0.00     0.126 HD
HETATM   21  H   UNL     1      -4.240   7.159 -32.211  1.00  0.00     0.126 HD
ENDBRANCH  11  19
BRANCH   1  22
HETATM   22  C   UNL     1      -6.253   0.328 -33.800  1.00  0.00    -0.007 A 
HETATM   23  C   UNL     1      -4.961  -0.213 -33.836  1.00  0.00     0.014 A 
HETATM   24  C   UNL     1      -4.771  -1.588 -33.989  1.00  0.00     0.001 A 
HETATM   25  C   UNL     1      -5.871  -2.435 -34.112  1.00  0.00     0.000 A 
HETATM   26  C   UNL     1      -7.160  -1.908 -34.082  1.00  0.00     0.001 A 
HETATM   27  C   UNL     1      -7.352  -0.533 -33.928  1.00  0.00     0.014 A 
ENDBRANCH   1  22
TORSDOF 3
ENDMDL
MODEL 8
REMARK VINA RESULT:      -8.3     15.451     17.387
REMARK  3 active torsions:
REMARK  status: ('A' for Active; 'I' for Inactive)
REMARK    1  A    between atoms: C_4  and  C_5 
REMARK    2  A    between atoms: C_11  and  C_12 
REMARK    3  A    between atoms: C_21  and  N_22 
ROOT
HETATM    1  C   UNL     1      -4.621 -13.547 -39.282  1.00  0.00     0.071 A 
HETATM    2  N   UNL     1      -3.575 -12.650 -39.209  1.00  0.00    -0.274 N 
HETATM    3  H   UNL     1      -2.969 -12.350 -39.965  1.00  0.00     0.189 HD
HETATM    4  N   UNL     1      -3.323 -12.191 -37.967  1.00  0.00    -0.148 NA
HETATM    5  C   UNL     1      -4.253 -12.806 -37.249  1.00  0.00     0.199 A 
HETATM    6  C   UNL     1      -5.119 -13.616 -37.991  1.00  0.00     0.036 A 
HETATM    7  C   UNL     1      -6.227 -14.361 -37.322  1.00  0.00     0.081 C 
HETATM    8  C   UNL     1      -5.970 -14.387 -35.803  1.00  0.00     0.077 C 
HETATM    9  C   UNL     1      -6.725 -15.328 -35.040  1.00  0.00     0.100 C 
HETATM   10  N   UNL     1      -7.328 -16.112 -34.435  1.00  0.00    -0.192 NA
HETATM   11  C   UNL     1      -5.068 -13.575 -35.191  1.00  0.00     0.140 C 
HETATM   12  O   UNL     1      -4.264 -12.682 -35.911  1.00  0.00    -0.277 OA
ENDROOT
BRANCH   7  13
HETATM   13  C   UNL     1      -7.667 -13.819 -37.638  1.00  0.00     0.022 C 
HETATM   14  C   UNL     1      -8.524 -14.821 -38.379  1.00  0.00    -0.025 C 
HETATM   15  C   UNL     1      -9.075 -14.594 -39.581  1.00  0.00    -0.030 C 
HETATM   16  C   UNL     1      -8.879 -13.327 -40.358  1.00  0.00     0.027 C 
HETATM   17  C   UNL     1      -7.737 -12.463 -39.826  1.00  0.00     0.004 C 
HETATM   18  C   UNL     1      -7.720 -12.419 -38.300  1.00  0.00     0.010 C 
ENDBRANCH   7  13
BRANCH  11  19
HETATM   19  N   UNL     1      -4.824 -13.534 -33.835  1.00  0.00    -0.282 NA
HETATM   20  H   UNL     1      -3.972 -13.055 -33.552  1.00  0.00     0.126 HD
HETATM   21  H   UNL     1      -5.644 -13.230 -33.314  1.00  0.00     0.126 HD
ENDBRANCH  11  19
BRANCH   1  22
HETATM   22  C   UNL     1      -4.974 -14.228 -40.520  1.00  0.00    -0.007 A 
HETATM   23  C   UNL     1      -4.745 -13.613 -41.758  1.00  0.00     0.014 A 
HETATM   24  C   UNL     1      -5.092 -14.259 -42.947  1.00  0.00     0.001 A 
HETATM   25  C   UNL     1      -5.675 -15.524 -42.909  1.00  0.00     0.000 A 
HETATM   26  C   UNL     1      -5.911 -16.143 -41.684  1.00  0.00     0.001 A 
HETATM   27  C   UNL     1      -5.564 -15.499 -40.494  1.00  0.00     0.014 A 
ENDBRANCH   1  22
TORSDOF 3
ENDMDL
MODEL 9
REMARK VINA RESULT:      -8.3      6.629      9.922
REMARK  3 active torsions:
REMARK  status: ('A' for Active; 'I' for Inactive)
REMARK    1  A    between atoms: C_4  and  C_5 
REMARK    2  A    between atoms: C_11  and  C_12 
REMARK    3  A    between atoms: C_21  and  N_22 
ROOT
HETATM    1  C   UNL     1      -2.502   9.326 -28.718  1.00  0.00     0.071 A 
HETATM    2  N   UNL     1      -2.629  10.591 -29.254  1.00  0.00    -0.274 N 
HETATM    3  H   UNL     1      -2.936  11.432 -28.778  1.00  0.00     0.189 HD
HETATM    4  N   UNL     1      -2.364  10.664 -30.573  1.00  0.00    -0.148 NA
HETATM    5  C   UNL     1      -2.045   9.410 -30.862  1.00  0.00     0.199 A 
HETATM    6  C   UNL     1      -2.058   8.539 -29.768  1.00  0.00     0.036 A 
HETATM    7  C   UNL     1      -1.705   7.098 -29.936  1.00  0.00     0.081 C 
HETATM    8  C   UNL     1      -1.748   6.740 -31.434  1.00  0.00     0.077 C 
HETATM    9  C   UNL     1      -1.774   5.352 -31.763  1.00  0.00     0.100 C 
HETATM   10  N   UNL     1      -1.817   4.221 -32.015  1.00  0.00    -0.192 NA
HETATM   11  C   UNL     1      -1.773   7.678 -32.418  1.00  0.00     0.140 C 
HETATM   12  O   UNL     1      -1.811   9.049 -32.136  1.00  0.00    -0.277 OA
ENDROOT
BRANCH   7  13
HETATM   13  C   UNL     1      -0.331   6.680 -29.300  1.00  0.00     0.022 C 
HETATM   14  C   UNL     1      -0.471   6.157 -27.887  1.00  0.00    -0.025 C 
HETATM   15  C   UNL     1       0.143   6.695 -26.823  1.00  0.00    -0.030 C 
HETATM   16  C   UNL     1       1.019   7.909 -26.896  1.00  0.00     0.027 C 
HETATM   17  C   UNL     1       0.883   8.674 -28.211  1.00  0.00     0.004 C 
HETATM   18  C   UNL     1       0.801   7.732 -29.411  1.00  0.00     0.010 C 
ENDBRANCH   7  13
BRANCH  11  19
HETATM   19  N   UNL     1      -1.778   7.414 -33.771  1.00  0.00    -0.282 NA
HETATM   20  H   UNL     1      -2.064   8.183 -34.372  1.00  0.00     0.126 HD
HETATM   21  H   UNL     1      -0.911   6.974 -34.071  1.00  0.00     0.126 HD
ENDBRANCH  11  19
BRANCH   1  22
HETATM   22  C   UNL     1      -2.847   9.031 -27.334  1.00  0.00    -0.007 A 
HETATM   23  C   UNL     1      -3.903   8.160 -27.036  1.00  0.00     0.014 A 
HETATM   24  C   UNL     1      -4.243   7.884 -25.709  1.00  0.00     0.001 A 
HETATM   25  C   UNL     1      -3.533   8.480 -24.668  1.00  0.00     0.000 A 
HETATM   26  C   UNL     1      -2.484   9.351 -24.953  1.00  0.00     0.001 A 
HETATM   27  C   UNL     1      -2.142   9.627 -26.279  1.00  0.00     0.014 A 
ENDBRANCH   1  22
TORSDOF 3
ENDMDL
MODEL 10
REMARK VINA RESULT:      -8.2      2.322      3.279
REMARK  3 active torsions:
REMARK  status: ('A' for Active; 'I' for Inactive)
REMARK    1  A    between atoms: C_4  and  C_5 
REMARK    2  A    between atoms: C_11  and  C_12 
REMARK    3  A    between atoms: C_21  and  N_22 
ROOT
HETATM    1  C   UNL     1      -8.186   1.813 -32.036  1.00  0.00     0.071 A 
HETATM    2  N   UNL     1      -9.368   1.674 -31.337  1.00  0.00    -0.274 N 
HETATM    3  H   UNL     1     -10.057   0.937 -31.437  1.00  0.00     0.189 HD
HETATM    4  N   UNL     1      -9.628   2.682 -30.481  1.00  0.00    -0.148 NA
HETATM    5  C   UNL     1      -8.566   3.461 -30.638  1.00  0.00     0.199 A 
HETATM    6  C   UNL     1      -7.614   2.972 -31.538  1.00  0.00     0.036 A 
HETATM    7  C   UNL     1      -6.357   3.733 -31.807  1.00  0.00     0.081 C 
HETATM    8  C   UNL     1      -6.521   5.174 -31.289  1.00  0.00     0.077 C 
HETATM    9  C   UNL     1      -5.572   6.135 -31.751  1.00  0.00     0.100 C 
HETATM   10  N   UNL     1      -4.809   6.910 -32.152  1.00  0.00    -0.192 NA
HETATM   11  C   UNL     1      -7.516   5.547 -30.441  1.00  0.00     0.140 C 
HETATM   12  O   UNL     1      -8.503   4.650 -30.013  1.00  0.00    -0.277 OA
ENDROOT
BRANCH   7  13
HETATM   13  C   UNL     1      -5.054   3.074 -31.228  1.00  0.00     0.022 C 
HETATM   14  C   UNL     1      -4.324   2.222 -32.243  1.00  0.00    -0.025 C 
HETATM   15  C   UNL     1      -4.063   0.917 -32.078  1.00  0.00    -0.030 C 
HETATM   16  C   UNL     1      -4.495   0.129 -30.879  1.00  0.00     0.027 C 
HETATM   17  C   UNL     1      -5.541   0.848 -30.029  1.00  0.00     0.004 C 
HETATM   18  C   UNL     1      -5.226   2.334 -29.878  1.00  0.00     0.010 C 
ENDBRANCH   7  13
BRANCH  11  19
HETATM   19  N   UNL     1      -7.689   6.813 -29.922  1.00  0.00    -0.282 NA
HETATM   20  H   UNL     1      -6.914   7.457 -30.057  1.00  0.00     0.126 HD
HETATM   21  H   UNL     1      -8.589   7.208 -30.188  1.00  0.00     0.126 HD
ENDBRANCH  11  19
BRANCH   1  22
HETATM   22  C   UNL     1      -7.788   0.879 -33.080  1.00  0.00    -0.007 A 
HETATM   23  C   UNL     1      -7.586   1.326 -34.393  1.00  0.00     0.014 A 
HETATM   24  C   UNL     1      -7.215   0.430 -35.399  1.00  0.00     0.001 A 
HETATM   25  C   UNL     1      -7.045  -0.921 -35.102  1.00  0.00     0.000 A 
HETATM   26  C   UNL     1      -7.246  -1.377 -33.802  1.00  0.00     0.001 A 
HETATM   27  C   UNL     1      -7.617  -0.482 -32.795  1.00  0.00     0.014 A 
ENDBRANCH   1  22
TORSDOF 3
ENDMDL
