MODEL 1
REMARK VINA RESULT:      -8.9      0.000      0.000
REMARK  10 active torsions:
REMARK  status: ('A' for Active; 'I' for Inactive)
REMARK    1  A    between atoms: N_7  and  C_8 
REMARK    2  A    between atoms: C_8  and  C_9 
REMARK       I    between atoms: C_9  and  N_10 
REMARK    3  A    between atoms: N_10  and  C_11 
REMARK    4  A    between atoms: C_11  and  C_12 
REMARK    5  A    between atoms: C_12  and  C_13 
REMARK    6  A    between atoms: C_13  and  C_14 
REMARK       I    between atoms: C_14  and  N_15 
REMARK    7  A    between atoms: N_15  and  C_16 
REMARK    8  A    between atoms: C_16  and  C_17 
REMARK    9  A    between atoms: C_17  and  C_18 
REMARK   10  A    between atoms: C_18  and  N_19 
ROOT
HETATM    1  C   UNL     1      -4.054   5.492 -33.007  1.00  0.00     0.123 C 
ENDROOT
BRANCH   1   2
HETATM    2  N   UNL     1      -4.563   4.348 -32.281  1.00  0.00    -0.360 N 
HETATM    3  C   UNL     1      -3.717   3.434 -31.681  1.00  0.00     0.235 C 
HETATM    4  O   UNL     1      -2.494   3.525 -31.742  1.00  0.00    -0.272 OA
HETATM    5  H   UNL     1      -5.564   4.189 -32.272  1.00  0.00     0.162 HD
BRANCH   3   6
HETATM    6  C   UNL     1      -4.435   2.354 -30.874  1.00  0.00     0.235 C 
BRANCH   6   7
HETATM    7  N   UNL     1      -4.314   1.068 -31.533  1.00  0.00    -0.299 N 
HETATM    8  C   UNL     1      -3.303   0.196 -31.174  1.00  0.00     0.214 A 
HETATM    9  N   UNL     1      -3.116  -0.983 -31.671  1.00  0.00    -0.235 NA
HETATM   10  C   UNL     1      -4.017  -1.338 -32.620  1.00  0.00     0.115 A 
HETATM   11  C   UNL     1      -5.043  -0.564 -33.117  1.00  0.00     0.075 A 
HETATM   12  S   UNL     1      -3.983  -2.876 -33.342  1.00  0.00    -0.074 SA
HETATM   13  C   UNL     1      -5.817  -1.240 -34.128  1.00  0.00    -0.031 A 
HETATM   14  C   UNL     1      -5.200   0.773 -32.565  1.00  0.00     0.262 A 
HETATM   15  C   UNL     1      -6.978  -0.629 -34.845  1.00  0.00     0.050 C 
HETATM   16  C   UNL     1      -5.352  -2.535 -34.314  1.00  0.00    -0.012 A 
HETATM   17  C   UNL     1      -5.876  -3.601 -35.222  1.00  0.00     0.057 C 
HETATM   18  O   UNL     1      -6.043   1.571 -32.972  1.00  0.00    -0.267 OA
ENDBRANCH   6   7
ENDBRANCH   3   6
ENDBRANCH   1   2
BRANCH   1  19
HETATM   19  C   UNL     1      -3.888   5.204 -34.497  1.00  0.00     0.029 C 
BRANCH  19  20
HETATM   20  C   UNL     1      -2.426   5.329 -34.910  1.00  0.00     0.104 C 
BRANCH  20  21
HETATM   21  C   UNL     1      -1.685   6.344 -34.071  1.00  0.00     0.217 C 
HETATM   22  N   UNL     1      -0.977   5.816 -33.014  1.00  0.00    -0.361 N 
HETATM   23  H   UNL     1      -1.113   4.831 -32.803  1.00  0.00     0.162 HD
HETATM   24  O   UNL     1      -1.700   7.547 -34.321  1.00  0.00    -0.274 OA
BRANCH  22  25
HETATM   25  C   UNL     1      -0.399   6.649 -31.980  1.00  0.00     0.124 C 
BRANCH  25  26
HETATM   26  C   UNL     1      -1.024   6.448 -30.596  1.00  0.00     0.047 C 
BRANCH  26  27
HETATM   27  C   UNL     1      -0.091   5.721 -29.629  1.00  0.00     0.236 C 
BRANCH  27  28
HETATM   28  N   UNL     1      -0.251   6.241 -28.202  1.00  0.00    -0.070 N 
HETATM   29  H   UNL     1      -0.406   5.421 -27.603  1.00  0.00     0.279 HD
HETATM   30  C   UNL     1       0.975   6.971 -27.702  1.00  0.00     0.239 C 
HETATM   31  C   UNL     1       0.767   7.399 -26.248  1.00  0.00     0.008 C 
HETATM   32  C   UNL     1      -0.498   8.250 -26.098  1.00  0.00     0.011 C 
HETATM   33  C   UNL     1       1.990   8.166 -25.744  1.00  0.00     0.011 C 
HETATM   34  C   UNL     1      -1.742   7.564 -26.676  1.00  0.00     0.008 C 
HETATM   35  C   UNL     1      -1.492   7.110 -28.115  1.00  0.00     0.239 C 
HETATM   36  C   UNL     1      -2.226   6.416 -25.785  1.00  0.00     0.011 C 
ENDBRANCH  27  28
ENDBRANCH  26  27
ENDBRANCH  25  26
ENDBRANCH  22  25
ENDBRANCH  20  21
ENDBRANCH  19  20
ENDBRANCH   1  19
TORSDOF 10
ENDMDL
MODEL 2
REMARK VINA RESULT:      -8.6      2.746      9.472
REMARK  10 active torsions:
REMARK  status: ('A' for Active; 'I' for Inactive)
REMARK    1  A    between atoms: N_7  and  C_8 
REMARK    2  A    between atoms: C_8  and  C_9 
REMARK       I    between atoms: C_9  and  N_10 
REMARK    3  A    between atoms: N_10  and  C_11 
REMARK    4  A    between atoms: C_11  and  C_12 
REMARK    5  A    between atoms: C_12  and  C_13 
REMARK    6  A    between atoms: C_13  and  C_14 
REMARK       I    between atoms: C_14  and  N_15 
REMARK    7  A    between atoms: N_15  and  C_16 
REMARK    8  A    between atoms: C_16  and  C_17 
REMARK    9  A    between atoms: C_17  and  C_18 
REMARK   10  A    between atoms: C_18  and  N_19 
ROOT
HETATM    1  C   UNL     1      -7.249   4.609 -31.482  1.00  0.00     0.123 C 
ENDROOT
BRANCH   1   2
HETATM    2  N   UNL     1      -6.079   5.281 -32.007  1.00  0.00    -0.360 N 
HETATM    3  C   UNL     1      -5.300   4.712 -32.997  1.00  0.00     0.235 C 
HETATM    4  O   UNL     1      -5.538   3.605 -33.473  1.00  0.00    -0.272 OA
HETATM    5  H   UNL     1      -5.799   6.160 -31.589  1.00  0.00     0.162 HD
BRANCH   3   6
HETATM    6  C   UNL     1      -4.171   5.612 -33.498  1.00  0.00     0.235 C 
BRANCH   6   7
HETATM    7  N   UNL     1      -3.077   5.623 -32.546  1.00  0.00    -0.299 N 
HETATM    8  C   UNL     1      -2.263   4.515 -32.409  1.00  0.00     0.214 A 
HETATM    9  N   UNL     1      -1.245   4.423 -31.618  1.00  0.00    -0.235 NA
HETATM   10  C   UNL     1      -1.005   5.538 -30.885  1.00  0.00     0.115 A 
HETATM   11  C   UNL     1      -1.752   6.696 -30.874  1.00  0.00     0.075 A 
HETATM   12  S   UNL     1       0.330   5.640 -29.839  1.00  0.00    -0.074 SA
HETATM   13  C   UNL     1      -1.227   7.693 -29.974  1.00  0.00    -0.031 A 
HETATM   14  C   UNL     1      -2.914   6.751 -31.747  1.00  0.00     0.262 A 
HETATM   15  C   UNL     1      -1.848   9.035 -29.755  1.00  0.00     0.050 C 
HETATM   16  C   UNL     1      -0.060   7.242 -29.373  1.00  0.00    -0.012 A 
HETATM   17  C   UNL     1       0.837   7.952 -28.411  1.00  0.00     0.057 C 
HETATM   18  O   UNL     1      -3.685   7.710 -31.776  1.00  0.00    -0.267 OA
ENDBRANCH   6   7
ENDBRANCH   3   6
ENDBRANCH   1   2
BRANCH   1  19
HETATM   19  C   UNL     1      -6.949   3.849 -30.193  1.00  0.00     0.029 C 
BRANCH  19  20
HETATM   20  C   UNL     1      -7.192   2.355 -30.380  1.00  0.00     0.104 C 
BRANCH  20  21
HETATM   21  C   UNL     1      -5.926   1.549 -30.203  1.00  0.00     0.217 C 
HETATM   22  N   UNL     1      -4.880   1.930 -31.014  1.00  0.00    -0.361 N 
HETATM   23  H   UNL     1      -5.075   2.611 -31.744  1.00  0.00     0.162 HD
HETATM   24  O   UNL     1      -5.831   0.636 -29.387  1.00  0.00    -0.274 OA
BRANCH  22  25
HETATM   25  C   UNL     1      -3.676   1.135 -31.143  1.00  0.00     0.124 C 
BRANCH  25  26
HETATM   26  C   UNL     1      -3.405   0.640 -32.568  1.00  0.00     0.047 C 
BRANCH  26  27
HETATM   27  C   UNL     1      -3.514  -0.878 -32.695  1.00  0.00     0.236 C 
BRANCH  27  28
HETATM   28  N   UNL     1      -4.651  -1.280 -33.630  1.00  0.00    -0.070 N 
HETATM   29  H   UNL     1      -4.523  -0.751 -34.501  1.00  0.00     0.279 HD
HETATM   30  C   UNL     1      -4.644  -2.755 -33.964  1.00  0.00     0.239 C 
HETATM   31  C   UNL     1      -5.765  -3.068 -34.956  1.00  0.00     0.008 C 
HETATM   32  C   UNL     1      -7.126  -2.620 -34.412  1.00  0.00     0.011 C 
HETATM   33  C   UNL     1      -5.784  -4.563 -35.276  1.00  0.00     0.011 C 
HETATM   34  C   UNL     1      -7.133  -1.146 -33.987  1.00  0.00     0.008 C 
HETATM   35  C   UNL     1      -5.977  -0.852 -33.029  1.00  0.00     0.239 C 
HETATM   36  C   UNL     1      -7.135  -0.204 -35.194  1.00  0.00     0.011 C 
ENDBRANCH  27  28
ENDBRANCH  26  27
ENDBRANCH  25  26
ENDBRANCH  22  25
ENDBRANCH  20  21
ENDBRANCH  19  20
ENDBRANCH   1  19
TORSDOF 10
ENDMDL
MODEL 3
REMARK VINA RESULT:      -8.4      1.149      1.916
REMARK  10 active torsions:
REMARK  status: ('A' for Active; 'I' for Inactive)
REMARK    1  A    between atoms: N_7  and  C_8 
REMARK    2  A    between atoms: C_8  and  C_9 
REMARK       I    between atoms: C_9  and  N_10 
REMARK    3  A    between atoms: N_10  and  C_11 
REMARK    4  A    between atoms: C_11  and  C_12 
REMARK    5  A    between atoms: C_12  and  C_13 
REMARK    6  A    between atoms: C_13  and  C_14 
REMARK       I    between atoms: C_14  and  N_15 
REMARK    7  A    between atoms: N_15  and  C_16 
REMARK    8  A    between atoms: C_16  and  C_17 
REMARK    9  A    between atoms: C_17  and  C_18 
REMARK   10  A    between atoms: C_18  and  N_19 
ROOT
HETATM    1  C   UNL     1      -4.594   4.646 -32.987  1.00  0.00     0.123 C 
ENDROOT
BRANCH   1   2
HETATM    2  N   UNL     1      -4.902   3.433 -32.259  1.00  0.00    -0.360 N 
HETATM    3  C   UNL     1      -3.916   2.689 -31.639  1.00  0.00     0.235 C 
HETATM    4  O   UNL     1      -2.728   2.997 -31.684  1.00  0.00    -0.272 OA
HETATM    5  H   UNL     1      -5.858   3.098 -32.263  1.00  0.00     0.162 HD
BRANCH   3   6
HETATM    6  C   UNL     1      -4.442   1.503 -30.834  1.00  0.00     0.235 C 
BRANCH   6   7
HETATM    7  N   UNL     1      -4.324   0.279 -31.603  1.00  0.00    -0.299 N 
HETATM    8  C   UNL     1      -3.223  -0.540 -31.441  1.00  0.00     0.214 A 
HETATM    9  N   UNL     1      -3.026  -1.665 -32.049  1.00  0.00    -0.235 NA
HETATM   10  C   UNL     1      -4.016  -2.016 -32.906  1.00  0.00     0.115 A 
HETATM   11  C   UNL     1      -5.143  -1.285 -33.212  1.00  0.00     0.075 A 
HETATM   12  S   UNL     1      -3.976  -3.492 -33.748  1.00  0.00    -0.074 SA
HETATM   13  C   UNL     1      -5.995  -1.942 -34.172  1.00  0.00    -0.031 A 
HETATM   14  C   UNL     1      -5.314  -0.006 -32.540  1.00  0.00     0.262 A 
HETATM   15  C   UNL     1      -7.274  -1.367 -34.691  1.00  0.00     0.050 C 
HETATM   16  C   UNL     1      -5.477  -3.183 -34.515  1.00  0.00    -0.012 A 
HETATM   17  C   UNL     1      -6.043  -4.217 -35.435  1.00  0.00     0.057 C 
HETATM   18  O   UNL     1      -6.250   0.756 -32.776  1.00  0.00    -0.267 OA
ENDBRANCH   6   7
ENDBRANCH   3   6
ENDBRANCH   1   2
BRANCH   1  19
HETATM   19  C   UNL     1      -4.744   4.469 -34.496  1.00  0.00     0.029 C 
BRANCH  19  20
HETATM   20  C   UNL     1      -3.854   5.454 -35.245  1.00  0.00     0.104 C 
BRANCH  20  21
HETATM   21  C   UNL     1      -2.500   5.604 -34.590  1.00  0.00     0.217 C 
HETATM   22  N   UNL     1      -2.343   6.751 -33.843  1.00  0.00    -0.361 N 
HETATM   23  H   UNL     1      -3.076   7.453 -33.900  1.00  0.00     0.162 HD
HETATM   24  O   UNL     1      -1.614   4.762 -34.701  1.00  0.00    -0.274 OA
BRANCH  22  25
HETATM   25  C   UNL     1      -1.052   7.169 -33.335  1.00  0.00     0.124 C 
BRANCH  25  26
HETATM   26  C   UNL     1      -0.843   6.878 -31.845  1.00  0.00     0.047 C 
BRANCH  26  27
HETATM   27  C   UNL     1      -1.574   7.871 -30.944  1.00  0.00     0.236 C 
BRANCH  27  28
HETATM   28  N   UNL     1      -1.010   7.857 -29.526  1.00  0.00    -0.070 N 
HETATM   29  H   UNL     1      -0.824   8.834 -29.269  1.00  0.00     0.279 HD
HETATM   30  C   UNL     1      -1.973   7.275 -28.516  1.00  0.00     0.239 C 
HETATM   31  C   UNL     1      -1.368   7.359 -27.113  1.00  0.00     0.008 C 
HETATM   32  C   UNL     1      -0.003   6.664 -27.057  1.00  0.00     0.011 C 
HETATM   33  C   UNL     1      -2.323   6.744 -26.089  1.00  0.00     0.011 C 
HETATM   34  C   UNL     1       0.964   7.180 -28.130  1.00  0.00     0.008 C 
HETATM   35  C   UNL     1       0.318   7.124 -29.515  1.00  0.00     0.239 C 
HETATM   36  C   UNL     1       1.493   8.578 -27.796  1.00  0.00     0.011 C 
ENDBRANCH  27  28
ENDBRANCH  26  27
ENDBRANCH  25  26
ENDBRANCH  22  25
ENDBRANCH  20  21
ENDBRANCH  19  20
ENDBRANCH   1  19
TORSDOF 10
ENDMDL
MODEL 4
REMARK VINA RESULT:      -8.3      1.701      2.266
REMARK  10 active torsions:
REMARK  status: ('A' for Active; 'I' for Inactive)
REMARK    1  A    between atoms: N_7  and  C_8 
REMARK    2  A    between atoms: C_8  and  C_9 
REMARK       I    between atoms: C_9  and  N_10 
REMARK    3  A    between atoms: N_10  and  C_11 
REMARK    4  A    between atoms: C_11  and  C_12 
REMARK    5  A    between atoms: C_12  and  C_13 
REMARK    6  A    between atoms: C_13  and  C_14 
REMARK       I    between atoms: C_14  and  N_15 
REMARK    7  A    between atoms: N_15  and  C_16 
REMARK    8  A    between atoms: C_16  and  C_17 
REMARK    9  A    between atoms: C_17  and  C_18 
REMARK   10  A    between atoms: C_18  and  N_19 
ROOT
HETATM    1  C   UNL     1      -4.262   4.533 -33.407  1.00  0.00     0.123 C 
ENDROOT
BRANCH   1   2
HETATM    2  N   UNL     1      -4.683   3.373 -32.650  1.00  0.00    -0.360 N 
HETATM    3  C   UNL     1      -3.810   2.689 -31.825  1.00  0.00     0.235 C 
HETATM    4  O   UNL     1      -2.630   3.008 -31.700  1.00  0.00    -0.272 OA
HETATM    5  H   UNL     1      -5.626   3.026 -32.783  1.00  0.00     0.162 HD
BRANCH   3   6
HETATM    6  C   UNL     1      -4.459   1.559 -31.029  1.00  0.00     0.235 C 
BRANCH   6   7
HETATM    7  N   UNL     1      -4.336   0.303 -31.745  1.00  0.00    -0.299 N 
HETATM    8  C   UNL     1      -3.233  -0.505 -31.545  1.00  0.00     0.214 A 
HETATM    9  N   UNL     1      -3.032  -1.654 -32.103  1.00  0.00    -0.235 NA
HETATM   10  C   UNL     1      -4.019  -2.044 -32.947  1.00  0.00     0.115 A 
HETATM   11  C   UNL     1      -5.147  -1.330 -33.286  1.00  0.00     0.075 A 
HETATM   12  S   UNL     1      -3.974  -3.555 -33.724  1.00  0.00    -0.074 SA
HETATM   13  C   UNL     1      -5.996  -2.030 -34.219  1.00  0.00    -0.031 A 
HETATM   14  C   UNL     1      -5.323  -0.024 -32.670  1.00  0.00     0.262 A 
HETATM   15  C   UNL     1      -7.274  -1.482 -34.765  1.00  0.00     0.050 C 
HETATM   16  C   UNL     1      -5.473  -3.284 -34.507  1.00  0.00    -0.012 A 
HETATM   17  C   UNL     1      -6.035  -4.357 -35.383  1.00  0.00     0.057 C 
HETATM   18  O   UNL     1      -6.260   0.724 -32.942  1.00  0.00    -0.267 OA
ENDBRANCH   6   7
ENDBRANCH   3   6
ENDBRANCH   1   2
BRANCH   1  19
HETATM   19  C   UNL     1      -4.100   5.770 -32.528  1.00  0.00     0.029 C 
BRANCH  19  20
HETATM   20  C   UNL     1      -2.707   6.367 -32.690  1.00  0.00     0.104 C 
BRANCH  20  21
HETATM   21  C   UNL     1      -2.656   7.813 -32.250  1.00  0.00     0.217 C 
HETATM   22  N   UNL     1      -3.570   8.154 -31.278  1.00  0.00    -0.361 N 
HETATM   23  H   UNL     1      -4.279   7.466 -31.037  1.00  0.00     0.162 HD
HETATM   24  O   UNL     1      -1.851   8.617 -32.712  1.00  0.00    -0.274 OA
BRANCH  22  25
HETATM   25  C   UNL     1      -3.817   9.532 -30.903  1.00  0.00     0.124 C 
BRANCH  25  26
HETATM   26  C   UNL     1      -2.661  10.187 -30.140  1.00  0.00     0.047 C 
BRANCH  26  27
HETATM   27  C   UNL     1      -2.388   9.517 -28.795  1.00  0.00     0.236 C 
BRANCH  27  28
HETATM   28  N   UNL     1      -1.086   8.720 -28.823  1.00  0.00    -0.070 N 
HETATM   29  H   UNL     1      -0.591   8.987 -29.682  1.00  0.00     0.279 HD
HETATM   30  C   UNL     1      -0.188   9.021 -27.644  1.00  0.00     0.239 C 
HETATM   31  C   UNL     1       1.122   8.242 -27.777  1.00  0.00     0.008 C 
HETATM   32  C   UNL     1       0.859   6.738 -27.916  1.00  0.00     0.011 C 
HETATM   33  C   UNL     1       2.023   8.516 -26.573  1.00  0.00     0.011 C 
HETATM   34  C   UNL     1      -0.118   6.415 -29.054  1.00  0.00     0.008 C 
HETATM   35  C   UNL     1      -1.400   7.239 -28.919  1.00  0.00     0.239 C 
HETATM   36  C   UNL     1       0.534   6.582 -30.429  1.00  0.00     0.011 C 
ENDBRANCH  27  28
ENDBRANCH  26  27
ENDBRANCH  25  26
ENDBRANCH  22  25
ENDBRANCH  20  21
ENDBRANCH  19  20
ENDBRANCH   1  19
TORSDOF 10
ENDMDL
MODEL 5
REMARK VINA RESULT:      -8.2      1.337      2.137
REMARK  10 active torsions:
REMARK  status: ('A' for Active; 'I' for Inactive)
REMARK    1  A    between atoms: N_7  and  C_8 
REMARK    2  A    between atoms: C_8  and  C_9 
REMARK       I    between atoms: C_9  and  N_10 
REMARK    3  A    between atoms: N_10  and  C_11 
REMARK    4  A    between atoms: C_11  and  C_12 
REMARK    5  A    between atoms: C_12  and  C_13 
REMARK    6  A    between atoms: C_13  and  C_14 
REMARK       I    between atoms: C_14  and  N_15 
REMARK    7  A    between atoms: N_15  and  C_16 
REMARK    8  A    between atoms: C_16  and  C_17 
REMARK    9  A    between atoms: C_17  and  C_18 
REMARK   10  A    between atoms: C_18  and  N_19 
ROOT
HETATM    1  C   UNL     1      -2.310   4.759 -33.735  1.00  0.00     0.123 C 
ENDROOT
BRANCH   1   2
HETATM    2  N   UNL     1      -3.201   3.862 -33.030  1.00  0.00    -0.360 N 
HETATM    3  C   UNL     1      -2.918   3.415 -31.753  1.00  0.00     0.235 C 
HETATM    4  O   UNL     1      -1.896   3.732 -31.151  1.00  0.00    -0.272 OA
HETATM    5  H   UNL     1      -4.016   3.510 -33.518  1.00  0.00     0.162 HD
BRANCH   3   6
HETATM    6  C   UNL     1      -4.022   2.560 -31.132  1.00  0.00     0.235 C 
BRANCH   6   7
HETATM    7  N   UNL     1      -4.013   1.229 -31.707  1.00  0.00    -0.299 N 
HETATM    8  C   UNL     1      -3.073   0.302 -31.298  1.00  0.00     0.214 A 
HETATM    9  N   UNL     1      -2.988  -0.918 -31.719  1.00  0.00    -0.235 NA
HETATM   10  C   UNL     1      -3.925  -1.258 -32.638  1.00  0.00     0.115 A 
HETATM   11  C   UNL     1      -4.889  -0.436 -33.178  1.00  0.00     0.075 A 
HETATM   12  S   UNL     1      -4.024  -2.837 -33.259  1.00  0.00    -0.074 SA
HETATM   13  C   UNL     1      -5.727  -1.110 -34.139  1.00  0.00    -0.031 A 
HETATM   14  C   UNL     1      -4.932   0.942 -32.713  1.00  0.00     0.262 A 
HETATM   15  C   UNL     1      -6.842  -0.453 -34.887  1.00  0.00     0.050 C 
HETATM   16  C   UNL     1      -5.371  -2.448 -34.243  1.00  0.00    -0.012 A 
HETATM   17  C   UNL     1      -5.990  -3.523 -35.077  1.00  0.00     0.057 C 
HETATM   18  O   UNL     1      -5.711   1.778 -33.166  1.00  0.00    -0.267 OA
ENDBRANCH   6   7
ENDBRANCH   3   6
ENDBRANCH   1   2
BRANCH   1  19
HETATM   19  C   UNL     1      -2.639   6.226 -33.471  1.00  0.00     0.029 C 
BRANCH  19  20
HETATM   20  C   UNL     1      -1.386   6.995 -33.068  1.00  0.00     0.104 C 
BRANCH  20  21
HETATM   21  C   UNL     1      -1.662   7.990 -31.965  1.00  0.00     0.217 C 
HETATM   22  N   UNL     1      -1.551   7.484 -30.688  1.00  0.00    -0.361 N 
HETATM   23  H   UNL     1      -1.431   6.479 -30.590  1.00  0.00     0.162 HD
HETATM   24  O   UNL     1      -1.947   9.163 -32.187  1.00  0.00    -0.274 OA
BRANCH  22  25
HETATM   25  C   UNL     1      -1.996   8.223 -29.525  1.00  0.00     0.124 C 
BRANCH  25  26
HETATM   26  C   UNL     1      -2.975   7.451 -28.633  1.00  0.00     0.047 C 
BRANCH  26  27
HETATM   27  C   UNL     1      -2.332   6.964 -27.337  1.00  0.00     0.236 C 
BRANCH  27  28
HETATM   28  N   UNL     1      -1.119   7.812 -26.963  1.00  0.00    -0.070 N 
HETATM   29  H   UNL     1      -1.019   8.527 -27.693  1.00  0.00     0.279 HD
HETATM   30  C   UNL     1      -1.280   8.512 -25.632  1.00  0.00     0.239 C 
HETATM   31  C   UNL     1      -0.061   9.395 -25.358  1.00  0.00     0.008 C 
HETATM   32  C   UNL     1       1.235   8.579 -25.415  1.00  0.00     0.011 C 
HETATM   33  C   UNL     1      -0.201  10.082 -24.000  1.00  0.00     0.011 C 
HETATM   34  C   UNL     1       1.380   7.792 -26.723  1.00  0.00     0.008 C 
HETATM   35  C   UNL     1       0.130   6.952 -26.992  1.00  0.00     0.239 C 
HETATM   36  C   UNL     1       1.725   8.706 -27.902  1.00  0.00     0.011 C 
ENDBRANCH  27  28
ENDBRANCH  26  27
ENDBRANCH  25  26
ENDBRANCH  22  25
ENDBRANCH  20  21
ENDBRANCH  19  20
ENDBRANCH   1  19
TORSDOF 10
ENDMDL
MODEL 6
REMARK VINA RESULT:      -8.2      2.785      9.888
REMARK  10 active torsions:
REMARK  status: ('A' for Active; 'I' for Inactive)
REMARK    1  A    between atoms: N_7  and  C_8 
REMARK    2  A    between atoms: C_8  and  C_9 
REMARK       I    between atoms: C_9  and  N_10 
REMARK    3  A    between atoms: N_10  and  C_11 
REMARK    4  A    between atoms: C_11  and  C_12 
REMARK    5  A    between atoms: C_12  and  C_13 
REMARK    6  A    between atoms: C_13  and  C_14 
REMARK       I    between atoms: C_14  and  N_15 
REMARK    7  A    between atoms: N_15  and  C_16 
REMARK    8  A    between atoms: C_16  and  C_17 
REMARK    9  A    between atoms: C_17  and  C_18 
REMARK   10  A    between atoms: C_18  and  N_19 
ROOT
HETATM    1  C   UNL     1      -4.502   5.013 -34.232  1.00  0.00     0.123 C 
ENDROOT
BRANCH   1   2
HETATM    2  N   UNL     1      -3.459   5.925 -33.812  1.00  0.00    -0.360 N 
HETATM    3  C   UNL     1      -2.197   5.891 -34.373  1.00  0.00     0.235 C 
HETATM    4  O   UNL     1      -1.879   5.081 -35.240  1.00  0.00    -0.272 OA
HETATM    5  H   UNL     1      -3.652   6.557 -33.043  1.00  0.00     0.162 HD
BRANCH   3   6
HETATM    6  C   UNL     1      -1.263   6.994 -33.879  1.00  0.00     0.235 C 
BRANCH   6   7
HETATM    7  N   UNL     1      -1.096   6.906 -32.441  1.00  0.00    -0.299 N 
HETATM    8  C   UNL     1      -0.580   5.758 -31.870  1.00  0.00     0.214 A 
HETATM    9  N   UNL     1      -0.360   5.579 -30.609  1.00  0.00    -0.235 NA
HETATM   10  C   UNL     1      -0.685   6.640 -29.830  1.00  0.00     0.115 A 
HETATM   11  C   UNL     1      -1.252   7.826 -30.242  1.00  0.00     0.075 A 
HETATM   12  S   UNL     1      -0.404   6.626 -28.153  1.00  0.00    -0.074 SA
HETATM   13  C   UNL     1      -1.478   8.747 -29.156  1.00  0.00    -0.031 A 
HETATM   14  C   UNL     1      -1.523   7.979 -31.663  1.00  0.00     0.262 A 
HETATM   15  C   UNL     1      -2.093  10.100 -29.318  1.00  0.00     0.050 C 
HETATM   16  C   UNL     1      -1.017   8.214 -27.960  1.00  0.00    -0.012 A 
HETATM   17  C   UNL     1      -1.007   8.830 -26.598  1.00  0.00     0.057 C 
HETATM   18  O   UNL     1      -2.079   8.969 -32.136  1.00  0.00    -0.267 OA
ENDBRANCH   6   7
ENDBRANCH   3   6
ENDBRANCH   1   2
BRANCH   1  19
HETATM   19  C   UNL     1      -4.511   3.726 -33.411  1.00  0.00     0.029 C 
BRANCH  19  20
HETATM   20  C   UNL     1      -4.396   4.036 -31.923  1.00  0.00     0.104 C 
BRANCH  20  21
HETATM   21  C   UNL     1      -5.408   3.268 -31.104  1.00  0.00     0.217 C 
HETATM   22  N   UNL     1      -6.316   2.541 -31.842  1.00  0.00    -0.361 N 
HETATM   23  H   UNL     1      -6.323   2.681 -32.849  1.00  0.00     0.162 HD
HETATM   24  O   UNL     1      -5.411   3.278 -29.877  1.00  0.00    -0.274 OA
BRANCH  22  25
HETATM   25  C   UNL     1      -7.485   1.932 -31.242  1.00  0.00     0.124 C 
BRANCH  25  26
HETATM   26  C   UNL     1      -7.590   0.421 -31.473  1.00  0.00     0.047 C 
BRANCH  26  27
HETATM   27  C   UNL     1      -7.529   0.047 -32.952  1.00  0.00     0.236 C 
BRANCH  27  28
HETATM   28  N   UNL     1      -6.551  -1.100 -33.198  1.00  0.00    -0.070 N 
HETATM   29  H   UNL     1      -6.405  -1.565 -32.294  1.00  0.00     0.279 HD
HETATM   30  C   UNL     1      -7.078  -2.122 -34.179  1.00  0.00     0.239 C 
HETATM   31  C   UNL     1      -6.078  -3.271 -34.320  1.00  0.00     0.008 C 
HETATM   32  C   UNL     1      -4.696  -2.752 -34.733  1.00  0.00     0.011 C 
HETATM   33  C   UNL     1      -6.589  -4.294 -35.335  1.00  0.00     0.011 C 
HETATM   34  C   UNL     1      -4.176  -1.653 -33.798  1.00  0.00     0.008 C 
HETATM   35  C   UNL     1      -5.213  -0.538 -33.642  1.00  0.00     0.239 C 
HETATM   36  C   UNL     1      -3.729  -2.217 -32.447  1.00  0.00     0.011 C 
ENDBRANCH  27  28
ENDBRANCH  26  27
ENDBRANCH  25  26
ENDBRANCH  22  25
ENDBRANCH  20  21
ENDBRANCH  19  20
ENDBRANCH   1  19
TORSDOF 10
ENDMDL
MODEL 7
REMARK VINA RESULT:      -8.1      4.313      7.991
REMARK  10 active torsions:
REMARK  status: ('A' for Active; 'I' for Inactive)
REMARK    1  A    between atoms: N_7  and  C_8 
REMARK    2  A    between atoms: C_8  and  C_9 
REMARK       I    between atoms: C_9  and  N_10 
REMARK    3  A    between atoms: N_10  and  C_11 
REMARK    4  A    between atoms: C_11  and  C_12 
REMARK    5  A    between atoms: C_12  and  C_13 
REMARK    6  A    between atoms: C_13  and  C_14 
REMARK       I    between atoms: C_14  and  N_15 
REMARK    7  A    between atoms: N_15  and  C_16 
REMARK    8  A    between atoms: C_16  and  C_17 
REMARK    9  A    between atoms: C_17  and  C_18 
REMARK   10  A    between atoms: C_18  and  N_19 
ROOT
HETATM    1  C   UNL     1      -3.578   4.401 -33.263  1.00  0.00     0.123 C 
ENDROOT
BRANCH   1   2
HETATM    2  N   UNL     1      -4.210   3.280 -32.600  1.00  0.00    -0.360 N 
HETATM    3  C   UNL     1      -3.572   2.576 -31.596  1.00  0.00     0.235 C 
HETATM    4  O   UNL     1      -2.433   2.843 -31.222  1.00  0.00    -0.272 OA
HETATM    5  H   UNL     1      -5.118   2.974 -32.930  1.00  0.00     0.162 HD
BRANCH   3   6
HETATM    6  C   UNL     1      -4.434   1.496 -30.945  1.00  0.00     0.235 C 
BRANCH   6   7
HETATM    7  N   UNL     1      -4.325   0.252 -31.683  1.00  0.00    -0.299 N 
HETATM    8  C   UNL     1      -3.256  -0.595 -31.463  1.00  0.00     0.214 A 
HETATM    9  N   UNL     1      -3.072  -1.738 -32.039  1.00  0.00    -0.235 NA
HETATM   10  C   UNL     1      -4.041  -2.080 -32.924  1.00  0.00     0.115 A 
HETATM   11  C   UNL     1      -5.134  -1.323 -33.286  1.00  0.00     0.075 A 
HETATM   12  S   UNL     1      -4.016  -3.575 -33.731  1.00  0.00    -0.074 SA
HETATM   13  C   UNL     1      -5.971  -1.977 -34.261  1.00  0.00    -0.031 A 
HETATM   14  C   UNL     1      -5.290  -0.025 -32.648  1.00  0.00     0.262 A 
HETATM   15  C   UNL     1      -7.213  -1.377 -34.838  1.00  0.00     0.050 C 
HETATM   16  C   UNL     1      -5.478  -3.240 -34.559  1.00  0.00    -0.012 A 
HETATM   17  C   UNL     1      -6.042  -4.277 -35.475  1.00  0.00     0.057 C 
HETATM   18  O   UNL     1      -6.194   0.758 -32.935  1.00  0.00    -0.267 OA
ENDBRANCH   6   7
ENDBRANCH   3   6
ENDBRANCH   1   2
BRANCH   1  19
HETATM   19  C   UNL     1      -4.578   5.255 -34.036  1.00  0.00     0.029 C 
BRANCH  19  20
HETATM   20  C   UNL     1      -5.600   5.876 -33.090  1.00  0.00     0.104 C 
BRANCH  20  21
HETATM   21  C   UNL     1      -6.929   5.157 -33.142  1.00  0.00     0.217 C 
HETATM   22  N   UNL     1      -7.935   5.846 -33.781  1.00  0.00    -0.361 N 
HETATM   23  H   UNL     1      -7.752   6.813 -34.038  1.00  0.00     0.162 HD
HETATM   24  O   UNL     1      -7.094   4.037 -32.666  1.00  0.00    -0.274 OA
BRANCH  22  25
HETATM   25  C   UNL     1      -9.318   5.417 -33.728  1.00  0.00     0.124 C 
BRANCH  25  26
HETATM   26  C   UNL     1      -9.948   5.514 -32.334  1.00  0.00     0.047 C 
BRANCH  26  27
HETATM   27  C   UNL     1     -11.316   4.838 -32.259  1.00  0.00     0.236 C 
BRANCH  27  28
HETATM   28  N   UNL     1     -11.354   3.560 -33.092  1.00  0.00    -0.070 N 
HETATM   29  H   UNL     1     -10.929   3.784 -34.001  1.00  0.00     0.279 HD
HETATM   30  C   UNL     1     -10.569   2.428 -32.468  1.00  0.00     0.239 C 
HETATM   31  C   UNL     1     -10.595   1.207 -33.390  1.00  0.00     0.008 C 
HETATM   32  C   UNL     1     -12.034   0.788 -33.712  1.00  0.00     0.011 C 
HETATM   33  C   UNL     1      -9.831   0.047 -32.752  1.00  0.00     0.011 C 
HETATM   34  C   UNL     1     -12.874   1.945 -34.269  1.00  0.00     0.008 C 
HETATM   35  C   UNL     1     -12.796   3.164 -33.348  1.00  0.00     0.239 C 
HETATM   36  C   UNL     1     -12.489   2.286 -35.711  1.00  0.00     0.011 C 
ENDBRANCH  27  28
ENDBRANCH  26  27
ENDBRANCH  25  26
ENDBRANCH  22  25
ENDBRANCH  20  21
ENDBRANCH  19  20
ENDBRANCH   1  19
TORSDOF 10
ENDMDL
MODEL 8
REMARK VINA RESULT:      -8.0      1.721      2.695
REMARK  10 active torsions:
REMARK  status: ('A' for Active; 'I' for Inactive)
REMARK    1  A    between atoms: N_7  and  C_8 
REMARK    2  A    between atoms: C_8  and  C_9 
REMARK       I    between atoms: C_9  and  N_10 
REMARK    3  A    between atoms: N_10  and  C_11 
REMARK    4  A    between atoms: C_11  and  C_12 
REMARK    5  A    between atoms: C_12  and  C_13 
REMARK    6  A    between atoms: C_13  and  C_14 
REMARK       I    between atoms: C_14  and  N_15 
REMARK    7  A    between atoms: N_15  and  C_16 
REMARK    8  A    between atoms: C_16  and  C_17 
REMARK    9  A    between atoms: C_17  and  C_18 
REMARK   10  A    between atoms: C_18  and  N_19 
ROOT
HETATM    1  C   UNL     1      -2.210   4.696 -34.081  1.00  0.00     0.123 C 
ENDROOT
BRANCH   1   2
HETATM    2  N   UNL     1      -3.184   4.023 -33.247  1.00  0.00    -0.360 N 
HETATM    3  C   UNL     1      -2.924   3.730 -31.922  1.00  0.00     0.235 C 
HETATM    4  O   UNL     1      -1.855   4.001 -31.381  1.00  0.00    -0.272 OA
HETATM    5  H   UNL     1      -4.048   3.709 -33.672  1.00  0.00     0.162 HD
BRANCH   3   6
HETATM    6  C   UNL     1      -4.106   3.114 -31.175  1.00  0.00     0.235 C 
BRANCH   6   7
HETATM    7  N   UNL     1      -4.758   2.116 -32.000  1.00  0.00    -0.299 N 
HETATM    8  C   UNL     1      -5.872   2.451 -32.746  1.00  0.00     0.214 A 
HETATM    9  N   UNL     1      -6.516   1.655 -33.536  1.00  0.00    -0.235 NA
HETATM   10  C   UNL     1      -6.009   0.399 -33.595  1.00  0.00     0.115 A 
HETATM   11  C   UNL     1      -4.942  -0.098 -32.878  1.00  0.00     0.075 A 
HETATM   12  S   UNL     1      -6.671  -0.775 -34.631  1.00  0.00    -0.074 SA
HETATM   13  C   UNL     1      -4.664  -1.482 -33.171  1.00  0.00    -0.031 A 
HETATM   14  C   UNL     1      -4.266   0.814 -31.968  1.00  0.00     0.262 A 
HETATM   15  C   UNL     1      -3.572  -2.273 -32.526  1.00  0.00     0.050 C 
HETATM   16  C   UNL     1      -5.527  -1.956 -34.150  1.00  0.00    -0.012 A 
HETATM   17  C   UNL     1      -5.573  -3.308 -34.787  1.00  0.00     0.057 C 
HETATM   18  O   UNL     1      -3.340   0.466 -31.236  1.00  0.00    -0.267 OA
ENDBRANCH   6   7
ENDBRANCH   3   6
ENDBRANCH   1   2
BRANCH   1  19
HETATM   19  C   UNL     1      -2.512   6.184 -34.238  1.00  0.00     0.029 C 
BRANCH  19  20
HETATM   20  C   UNL     1      -1.272   7.019 -33.936  1.00  0.00     0.104 C 
BRANCH  20  21
HETATM   21  C   UNL     1      -1.336   7.651 -32.564  1.00  0.00     0.217 C 
HETATM   22  N   UNL     1      -0.730   6.924 -31.564  1.00  0.00    -0.361 N 
HETATM   23  H   UNL     1      -0.418   5.983 -31.790  1.00  0.00     0.162 HD
HETATM   24  O   UNL     1      -1.871   8.737 -32.360  1.00  0.00    -0.274 OA
BRANCH  22  25
HETATM   25  C   UNL     1      -0.888   7.260 -30.163  1.00  0.00     0.124 C 
BRANCH  25  26
HETATM   26  C   UNL     1       0.392   7.101 -29.336  1.00  0.00     0.047 C 
BRANCH  26  27
HETATM   27  C   UNL     1       0.111   6.716 -27.885  1.00  0.00     0.236 C 
BRANCH  27  28
HETATM   28  N   UNL     1      -0.315   7.927 -27.059  1.00  0.00    -0.070 N 
HETATM   29  H   UNL     1      -0.703   8.615 -27.716  1.00  0.00     0.279 HD
HETATM   30  C   UNL     1      -1.379   7.596 -26.036  1.00  0.00     0.239 C 
HETATM   31  C   UNL     1      -1.804   8.867 -25.298  1.00  0.00     0.008 C 
HETATM   32  C   UNL     1      -0.598   9.561 -24.655  1.00  0.00     0.011 C 
HETATM   33  C   UNL     1      -2.857   8.536 -24.241  1.00  0.00     0.011 C 
HETATM   34  C   UNL     1       0.530   9.832 -25.658  1.00  0.00     0.008 C 
HETATM   35  C   UNL     1       0.905   8.554 -26.411  1.00  0.00     0.239 C 
HETATM   36  C   UNL     1       0.184  10.980 -26.610  1.00  0.00     0.011 C 
ENDBRANCH  27  28
ENDBRANCH  26  27
ENDBRANCH  25  26
ENDBRANCH  22  25
ENDBRANCH  20  21
ENDBRANCH  19  20
ENDBRANCH   1  19
TORSDOF 10
ENDMDL
MODEL 9
REMARK VINA RESULT:      -7.9      3.023      9.746
REMARK  10 active torsions:
REMARK  status: ('A' for Active; 'I' for Inactive)
REMARK    1  A    between atoms: N_7  and  C_8 
REMARK    2  A    between atoms: C_8  and  C_9 
REMARK       I    between atoms: C_9  and  N_10 
REMARK    3  A    between atoms: N_10  and  C_11 
REMARK    4  A    between atoms: C_11  and  C_12 
REMARK    5  A    between atoms: C_12  and  C_13 
REMARK    6  A    between atoms: C_13  and  C_14 
REMARK       I    between atoms: C_14  and  N_15 
REMARK    7  A    between atoms: N_15  and  C_16 
REMARK    8  A    between atoms: C_16  and  C_17 
REMARK    9  A    between atoms: C_17  and  C_18 
REMARK   10  A    between atoms: C_18  and  N_19 
ROOT
HETATM    1  C   UNL     1      -5.175   4.363 -34.314  1.00  0.00     0.123 C 
ENDROOT
BRANCH   1   2
HETATM    2  N   UNL     1      -4.001   5.209 -34.258  1.00  0.00    -0.360 N 
HETATM    3  C   UNL     1      -2.804   4.755 -33.736  1.00  0.00     0.235 C 
HETATM    4  O   UNL     1      -2.669   3.624 -33.275  1.00  0.00    -0.272 OA
HETATM    5  H   UNL     1      -4.088   6.174 -34.553  1.00  0.00     0.162 HD
BRANCH   3   6
HETATM    6  C   UNL     1      -1.653   5.751 -33.856  1.00  0.00     0.235 C 
BRANCH   6   7
HETATM    7  N   UNL     1      -1.560   6.561 -32.657  1.00  0.00    -0.299 N 
HETATM    8  C   UNL     1      -2.195   7.787 -32.596  1.00  0.00     0.214 A 
HETATM    9  N   UNL     1      -2.206   8.579 -31.573  1.00  0.00    -0.235 NA
HETATM   10  C   UNL     1      -1.519   8.113 -30.501  1.00  0.00     0.115 A 
HETATM   11  C   UNL     1      -0.798   6.942 -30.425  1.00  0.00     0.075 A 
HETATM   12  S   UNL     1      -1.474   8.975 -29.037  1.00  0.00    -0.074 SA
HETATM   13  C   UNL     1      -0.177   6.747 -29.139  1.00  0.00    -0.031 A 
HETATM   14  C   UNL     1      -0.773   6.094 -31.608  1.00  0.00     0.262 A 
HETATM   15  C   UNL     1       0.674   5.569 -28.787  1.00  0.00     0.050 C 
HETATM   16  C   UNL     1      -0.508   7.783 -28.275  1.00  0.00    -0.012 A 
HETATM   17  C   UNL     1      -0.127   7.969 -26.842  1.00  0.00     0.057 C 
HETATM   18  O   UNL     1      -0.116   5.057 -31.674  1.00  0.00    -0.267 OA
ENDBRANCH   6   7
ENDBRANCH   3   6
ENDBRANCH   1   2
BRANCH   1  19
HETATM   19  C   UNL     1      -6.391   5.017 -33.664  1.00  0.00     0.029 C 
BRANCH  19  20
HETATM   20  C   UNL     1      -6.198   5.134 -32.156  1.00  0.00     0.104 C 
BRANCH  20  21
HETATM   21  C   UNL     1      -6.034   3.782 -31.500  1.00  0.00     0.217 C 
HETATM   22  N   UNL     1      -7.103   2.929 -31.659  1.00  0.00    -0.361 N 
HETATM   23  H   UNL     1      -7.950   3.309 -32.074  1.00  0.00     0.162 HD
HETATM   24  O   UNL     1      -5.019   3.463 -30.887  1.00  0.00    -0.274 OA
BRANCH  22  25
HETATM   25  C   UNL     1      -7.217   1.690 -30.917  1.00  0.00     0.124 C 
BRANCH  25  26
HETATM   26  C   UNL     1      -7.909   0.562 -31.689  1.00  0.00     0.047 C 
BRANCH  26  27
HETATM   27  C   UNL     1      -7.378   0.413 -33.113  1.00  0.00     0.236 C 
BRANCH  27  28
HETATM   28  N   UNL     1      -6.474  -0.810 -33.246  1.00  0.00    -0.070 N 
HETATM   29  H   UNL     1      -6.403  -1.231 -32.312  1.00  0.00     0.279 HD
HETATM   30  C   UNL     1      -7.026  -1.849 -34.196  1.00  0.00     0.239 C 
HETATM   31  C   UNL     1      -6.103  -3.070 -34.224  1.00  0.00     0.008 C 
HETATM   32  C   UNL     1      -4.671  -2.671 -34.593  1.00  0.00     0.011 C 
HETATM   33  C   UNL     1      -6.638  -4.112 -35.205  1.00  0.00     0.011 C 
HETATM   34  C   UNL     1      -4.119  -1.557 -33.695  1.00  0.00     0.008 C 
HETATM   35  C   UNL     1      -5.080  -0.368 -33.653  1.00  0.00     0.239 C 
HETATM   36  C   UNL     1      -3.776  -2.071 -32.294  1.00  0.00     0.011 C 
ENDBRANCH  27  28
ENDBRANCH  26  27
ENDBRANCH  25  26
ENDBRANCH  22  25
ENDBRANCH  20  21
ENDBRANCH  19  20
ENDBRANCH   1  19
TORSDOF 10
ENDMDL
MODEL 10
REMARK VINA RESULT:      -7.9      1.913      2.860
REMARK  10 active torsions:
REMARK  status: ('A' for Active; 'I' for Inactive)
REMARK    1  A    between atoms: N_7  and  C_8 
REMARK    2  A    between atoms: C_8  and  C_9 
REMARK       I    between atoms: C_9  and  N_10 
REMARK    3  A    between atoms: N_10  and  C_11 
REMARK    4  A    between atoms: C_11  and  C_12 
REMARK    5  A    between atoms: C_12  and  C_13 
REMARK    6  A    between atoms: C_13  and  C_14 
REMARK       I    between atoms: C_14  and  N_15 
REMARK    7  A    between atoms: N_15  and  C_16 
REMARK    8  A    between atoms: C_16  and  C_17 
REMARK    9  A    between atoms: C_17  and  C_18 
REMARK   10  A    between atoms: C_18  and  N_19 
ROOT
HETATM    1  C   UNL     1      -3.569   5.349 -34.683  1.00  0.00     0.123 C 
ENDROOT
BRANCH   1   2
HETATM    2  N   UNL     1      -4.202   4.540 -33.663  1.00  0.00    -0.360 N 
HETATM    3  C   UNL     1      -5.577   4.425 -33.579  1.00  0.00     0.235 C 
HETATM    4  O   UNL     1      -6.339   5.011 -34.343  1.00  0.00    -0.272 OA
HETATM    5  H   UNL     1      -3.616   4.103 -32.962  1.00  0.00     0.162 HD
BRANCH   3   6
HETATM    6  C   UNL     1      -6.057   3.448 -32.507  1.00  0.00     0.235 C 
BRANCH   6   7
HETATM    7  N   UNL     1      -6.087   2.097 -33.033  1.00  0.00    -0.299 N 
HETATM    8  C   UNL     1      -7.074   1.721 -33.924  1.00  0.00     0.214 A 
HETATM    9  N   UNL     1      -7.183   0.557 -34.478  1.00  0.00    -0.235 NA
HETATM   10  C   UNL     1      -6.220  -0.325 -34.116  1.00  0.00     0.115 A 
HETATM   11  C   UNL     1      -5.206  -0.116 -33.207  1.00  0.00     0.075 A 
HETATM   12  S   UNL     1      -6.148  -1.884 -34.789  1.00  0.00    -0.074 SA
HETATM   13  C   UNL     1      -4.351  -1.266 -33.043  1.00  0.00    -0.031 A 
HETATM   14  C   UNL     1      -5.137   1.191 -32.571  1.00  0.00     0.262 A 
HETATM   15  C   UNL     1      -3.184  -1.318 -32.111  1.00  0.00     0.050 C 
HETATM   16  C   UNL     1      -4.748  -2.292 -33.891  1.00  0.00    -0.012 A 
HETATM   17  C   UNL     1      -4.131  -3.639 -34.087  1.00  0.00     0.057 C 
HETATM   18  O   UNL     1      -4.311   1.471 -31.704  1.00  0.00    -0.267 OA
ENDBRANCH   6   7
ENDBRANCH   3   6
ENDBRANCH   1   2
BRANCH   1  19
HETATM   19  C   UNL     1      -2.488   6.261 -34.110  1.00  0.00     0.029 C 
BRANCH  19  20
HETATM   20  C   UNL     1      -1.205   5.479 -33.852  1.00  0.00     0.104 C 
BRANCH  20  21
HETATM   21  C   UNL     1      -1.051   5.110 -32.394  1.00  0.00     0.217 C 
HETATM   22  N   UNL     1      -0.154   5.885 -31.693  1.00  0.00    -0.361 N 
HETATM   23  H   UNL     1       0.420   6.535 -32.224  1.00  0.00     0.162 HD
HETATM   24  O   UNL     1      -1.688   4.200 -31.871  1.00  0.00    -0.274 OA
BRANCH  22  25
HETATM   25  C   UNL     1       0.287   5.536 -30.358  1.00  0.00     0.124 C 
BRANCH  25  26
HETATM   26  C   UNL     1       0.240   6.700 -29.362  1.00  0.00     0.047 C 
BRANCH  26  27
HETATM   27  C   UNL     1      -0.031   6.239 -27.932  1.00  0.00     0.236 C 
BRANCH  27  28
HETATM   28  N   UNL     1      -1.426   6.651 -27.468  1.00  0.00    -0.070 N 
HETATM   29  H   UNL     1      -1.988   5.793 -27.414  1.00  0.00     0.279 HD
HETATM   30  C   UNL     1      -1.423   7.303 -26.103  1.00  0.00     0.239 C 
HETATM   31  C   UNL     1      -2.857   7.623 -25.677  1.00  0.00     0.008 C 
HETATM   32  C   UNL     1      -3.561   8.498 -26.720  1.00  0.00     0.011 C 
HETATM   33  C   UNL     1      -2.861   8.312 -24.312  1.00  0.00     0.011 C 
HETATM   34  C   UNL     1      -3.504   7.896 -28.130  1.00  0.00     0.008 C 
HETATM   35  C   UNL     1      -2.064   7.548 -28.512  1.00  0.00     0.239 C 
HETATM   36  C   UNL     1      -4.445   6.698 -28.277  1.00  0.00     0.011 C 
ENDBRANCH  27  28
ENDBRANCH  26  27
ENDBRANCH  25  26
ENDBRANCH  22  25
ENDBRANCH  20  21
ENDBRANCH  19  20
ENDBRANCH   1  19
TORSDOF 10
ENDMDL
