MODEL 1
REMARK VINA RESULT:      -8.0      0.000      0.000
REMARK  3 active torsions:
REMARK  status: ('A' for Active; 'I' for Inactive)
REMARK    1  A    between atoms: C_3  and  N_4 
REMARK       I    between atoms: N_4  and  C_5 
REMARK    2  A    between atoms: C_5  and  C_6 
REMARK    3  A    between atoms: C_6  and  C_7 
ROOT
HETATM    1  C   UNL     1      -4.423   2.191 -32.545  1.00  0.00     0.286 C 
HETATM    2  N   UNL     1      -5.824   2.296 -31.945  1.00  0.00    -0.056 N 
HETATM    3  H   UNL     1      -6.368   2.949 -32.521  1.00  0.00     0.278 HD
HETATM    4  H   UNL     1      -6.280   1.369 -32.083  1.00  0.00     0.278 HD
HETATM    5  C   UNL     1      -5.853   2.708 -30.495  1.00  0.00     0.209 C 
HETATM    6  C   UNL     1      -5.071   4.038 -30.329  1.00  0.00     0.115 C 
HETATM    7  N   UNL     1      -3.761   4.000 -30.978  1.00  0.00    -0.353 N 
HETATM    8  C   UNL     1      -3.522   3.378 -32.178  1.00  0.00     0.249 C 
HETATM    9  O   UNL     1      -2.546   3.685 -32.853  1.00  0.00    -0.271 OA
HETATM   10  C   UNL     1      -7.305   2.807 -30.022  1.00  0.00     0.035 C 
HETATM   11  C   UNL     1      -8.039   4.040 -30.547  1.00  0.00     0.002 C 
HETATM   12  C   UNL     1      -7.258   5.318 -30.264  1.00  0.00     0.002 C 
HETATM   13  C   UNL     1      -5.855   5.249 -30.854  1.00  0.00     0.027 C 
HETATM   14  H   UNL     1      -3.110   4.760 -30.783  1.00  0.00     0.163 HD
ENDROOT
BRANCH   1  15
HETATM   15  C   UNL     1      -3.700   0.913 -32.104  1.00  0.00     0.146 C 
BRANCH  15  16
HETATM   16  C   UNL     1      -4.578  -0.305 -32.260  1.00  0.00     0.224 C 
HETATM   17  N   UNL     1      -4.329  -0.979 -33.433  1.00  0.00    -0.327 N 
HETATM   18  H   UNL     1      -3.466  -0.738 -33.912  1.00  0.00     0.169 HD
HETATM   19  O   UNL     1      -5.314  -0.627 -31.331  1.00  0.00    -0.273 OA
BRANCH  17  20
HETATM   20  C   UNL     1      -4.955  -2.142 -33.939  1.00  0.00     0.040 A 
HETATM   21  C   UNL     1      -6.238  -2.225 -34.507  1.00  0.00    -0.035 A 
HETATM   22  C   UNL     1      -7.143  -1.055 -34.769  1.00  0.00     0.050 C 
HETATM   23  C   UNL     1      -6.713  -3.489 -34.922  1.00  0.00     0.009 A 
HETATM   24  C   UNL     1      -5.922  -4.632 -34.835  1.00  0.00     0.001 A 
HETATM   25  C   UNL     1      -4.632  -4.535 -34.336  1.00  0.00     0.002 A 
HETATM   26  C   UNL     1      -4.153  -3.300 -33.900  1.00  0.00     0.030 A 
ENDBRANCH  17  20
ENDBRANCH  15  16
ENDBRANCH   1  15
TORSDOF 3
ENDMDL
MODEL 2
REMARK VINA RESULT:      -8.0      1.908      2.736
REMARK  3 active torsions:
REMARK  status: ('A' for Active; 'I' for Inactive)
REMARK    1  A    between atoms: C_3  and  N_4 
REMARK       I    between atoms: N_4  and  C_5 
REMARK    2  A    between atoms: C_5  and  C_6 
REMARK    3  A    between atoms: C_6  and  C_7 
ROOT
HETATM    1  C   UNL     1      -4.098   2.112 -31.678  1.00  0.00     0.286 C 
HETATM    2  N   UNL     1      -3.075   3.113 -31.142  1.00  0.00    -0.056 N 
HETATM    3  H   UNL     1      -3.524   3.658 -30.397  1.00  0.00     0.278 HD
HETATM    4  H   UNL     1      -2.335   2.558 -30.661  1.00  0.00     0.278 HD
HETATM    5  C   UNL     1      -2.483   4.021 -32.188  1.00  0.00     0.209 C 
HETATM    6  C   UNL     1      -3.631   4.744 -32.943  1.00  0.00     0.115 C 
HETATM    7  N   UNL     1      -4.675   3.820 -33.386  1.00  0.00    -0.353 N 
HETATM    8  C   UNL     1      -5.104   2.745 -32.649  1.00  0.00     0.249 C 
HETATM    9  O   UNL     1      -6.201   2.242 -32.866  1.00  0.00    -0.271 OA
HETATM   10  C   UNL     1      -1.503   4.992 -31.525  1.00  0.00     0.035 C 
HETATM   11  C   UNL     1      -2.184   6.101 -30.725  1.00  0.00     0.002 C 
HETATM   12  C   UNL     1      -3.231   6.829 -31.559  1.00  0.00     0.002 C 
HETATM   13  C   UNL     1      -4.271   5.861 -32.106  1.00  0.00     0.027 C 
HETATM   14  H   UNL     1      -5.381   4.173 -34.030  1.00  0.00     0.163 HD
ENDROOT
BRANCH   1  15
HETATM   15  C   UNL     1      -3.431   0.940 -32.407  1.00  0.00     0.146 C 
BRANCH  15  16
HETATM   16  C   UNL     1      -4.322  -0.277 -32.437  1.00  0.00     0.224 C 
HETATM   17  N   UNL     1      -4.242  -0.951 -33.633  1.00  0.00    -0.327 N 
HETATM   18  H   UNL     1      -3.456  -0.711 -34.230  1.00  0.00     0.169 HD
HETATM   19  O   UNL     1      -4.920  -0.599 -31.414  1.00  0.00    -0.273 OA
BRANCH  17  20
HETATM   20  C   UNL     1      -4.935  -2.114 -34.046  1.00  0.00     0.040 A 
HETATM   21  C   UNL     1      -6.250  -2.177 -34.537  1.00  0.00    -0.035 A 
HETATM   22  C   UNL     1      -7.129  -0.990 -34.806  1.00  0.00     0.050 C 
HETATM   23  C   UNL     1      -6.790  -3.442 -34.862  1.00  0.00     0.009 A 
HETATM   24  C   UNL     1      -6.033  -4.607 -34.762  1.00  0.00     0.001 A 
HETATM   25  C   UNL     1      -4.714  -4.533 -34.342  1.00  0.00     0.002 A 
HETATM   26  C   UNL     1      -4.171  -3.296 -33.994  1.00  0.00     0.030 A 
ENDBRANCH  17  20
ENDBRANCH  15  16
ENDBRANCH   1  15
TORSDOF 3
ENDMDL
MODEL 3
REMARK VINA RESULT:      -7.9      2.600      3.492
REMARK  3 active torsions:
REMARK  status: ('A' for Active; 'I' for Inactive)
REMARK    1  A    between atoms: C_3  and  N_4 
REMARK       I    between atoms: N_4  and  C_5 
REMARK    2  A    between atoms: C_5  and  C_6 
REMARK    3  A    between atoms: C_6  and  C_7 
ROOT
HETATM    1  C   UNL     1      -6.418   1.667 -34.061  1.00  0.00     0.286 C 
HETATM    2  N   UNL     1      -7.784   0.995 -33.938  1.00  0.00    -0.056 N 
HETATM    3  H   UNL     1      -8.263   1.078 -34.842  1.00  0.00     0.278 HD
HETATM    4  H   UNL     1      -7.607  -0.026 -33.820  1.00  0.00     0.278 HD
HETATM    5  C   UNL     1      -8.645   1.531 -32.824  1.00  0.00     0.209 C 
HETATM    6  C   UNL     1      -8.790   3.068 -32.989  1.00  0.00     0.115 C 
HETATM    7  N   UNL     1      -7.504   3.729 -33.205  1.00  0.00    -0.353 N 
HETATM    8  C   UNL     1      -6.491   3.197 -33.963  1.00  0.00     0.249 C 
HETATM    9  O   UNL     1      -5.615   3.920 -34.423  1.00  0.00    -0.271 OA
HETATM   10  C   UNL     1      -9.991   0.803 -32.823  1.00  0.00     0.035 C 
HETATM   11  C   UNL     1     -10.921   1.230 -33.957  1.00  0.00     0.002 C 
HETATM   12  C   UNL     1     -11.093   2.744 -33.998  1.00  0.00     0.002 C 
HETATM   13  C   UNL     1      -9.748   3.448 -34.127  1.00  0.00     0.027 C 
HETATM   14  H   UNL     1      -7.477   4.747 -33.158  1.00  0.00     0.163 HD
ENDROOT
BRANCH   1  15
HETATM   15  C   UNL     1      -5.437   1.183 -32.987  1.00  0.00     0.146 C 
BRANCH  15  16
HETATM   16  C   UNL     1      -5.546  -0.305 -32.763  1.00  0.00     0.224 C 
HETATM   17  N   UNL     1      -4.853  -1.025 -33.708  1.00  0.00    -0.327 N 
HETATM   18  H   UNL     1      -4.185  -0.504 -34.267  1.00  0.00     0.169 HD
HETATM   19  O   UNL     1      -6.118  -0.712 -31.756  1.00  0.00    -0.273 OA
BRANCH  17  20
HETATM   20  C   UNL     1      -4.735  -2.429 -33.845  1.00  0.00     0.040 A 
HETATM   21  C   UNL     1      -3.869  -3.271 -33.128  1.00  0.00    -0.035 A 
HETATM   22  C   UNL     1      -2.975  -2.834 -32.003  1.00  0.00     0.050 C 
HETATM   23  C   UNL     1      -3.861  -4.650 -33.433  1.00  0.00     0.009 A 
HETATM   24  C   UNL     1      -4.727  -5.195 -34.379  1.00  0.00     0.001 A 
HETATM   25  C   UNL     1      -5.627  -4.371 -35.037  1.00  0.00     0.002 A 
HETATM   26  C   UNL     1      -5.633  -3.003 -34.766  1.00  0.00     0.030 A 
ENDBRANCH  17  20
ENDBRANCH  15  16
ENDBRANCH   1  15
TORSDOF 3
ENDMDL
MODEL 4
REMARK VINA RESULT:      -7.9      3.744      4.736
REMARK  3 active torsions:
REMARK  status: ('A' for Active; 'I' for Inactive)
REMARK    1  A    between atoms: C_3  and  N_4 
REMARK       I    between atoms: N_4  and  C_5 
REMARK    2  A    between atoms: C_5  and  C_6 
REMARK    3  A    between atoms: C_6  and  C_7 
ROOT
HETATM    1  C   UNL     1      -8.150   2.698 -34.106  1.00  0.00     0.286 C 
HETATM    2  N   UNL     1      -9.361   1.806 -34.373  1.00  0.00    -0.056 N 
HETATM    3  H   UNL     1      -9.604   1.888 -35.367  1.00  0.00     0.278 HD
HETATM    4  H   UNL     1      -9.041   0.821 -34.254  1.00  0.00     0.278 HD
HETATM    5  C   UNL     1     -10.556   2.099 -33.502  1.00  0.00     0.209 C 
HETATM    6  C   UNL     1     -10.926   3.600 -33.637  1.00  0.00     0.115 C 
HETATM    7  N   UNL     1      -9.766   4.477 -33.481  1.00  0.00    -0.353 N 
HETATM    8  C   UNL     1      -8.516   4.182 -33.967  1.00  0.00     0.249 C 
HETATM    9  O   UNL     1      -7.696   5.073 -34.152  1.00  0.00    -0.271 OA
HETATM   10  C   UNL     1     -11.707   1.166 -33.885  1.00  0.00     0.035 C 
HETATM   11  C   UNL     1     -12.383   1.533 -35.205  1.00  0.00     0.002 C 
HETATM   12  C   UNL     1     -12.805   2.997 -35.228  1.00  0.00     0.002 C 
HETATM   13  C   UNL     1     -11.618   3.917 -34.970  1.00  0.00     0.027 C 
HETATM   14  H   UNL     1      -9.933   5.478 -33.387  1.00  0.00     0.163 HD
ENDROOT
BRANCH   1  15
HETATM   15  C   UNL     1      -7.400   2.289 -32.833  1.00  0.00     0.146 C 
BRANCH  15  16
HETATM   16  C   UNL     1      -7.205   0.795 -32.757  1.00  0.00     0.224 C 
HETATM   17  N   UNL     1      -6.328   0.335 -33.712  1.00  0.00    -0.327 N 
HETATM   18  H   UNL     1      -5.756   1.039 -34.169  1.00  0.00     0.169 HD
HETATM   19  O   UNL     1      -7.731   0.175 -31.836  1.00  0.00    -0.273 OA
BRANCH  17  20
HETATM   20  C   UNL     1      -5.910  -0.991 -33.970  1.00  0.00     0.040 A 
HETATM   21  C   UNL     1      -4.642  -1.537 -33.711  1.00  0.00    -0.035 A 
HETATM   22  C   UNL     1      -3.521  -0.821 -33.011  1.00  0.00     0.050 C 
HETATM   23  C   UNL     1      -4.395  -2.878 -34.077  1.00  0.00     0.009 A 
HETATM   24  C   UNL     1      -5.390  -3.680 -34.631  1.00  0.00     0.001 A 
HETATM   25  C   UNL     1      -6.660  -3.159 -34.824  1.00  0.00     0.002 A 
HETATM   26  C   UNL     1      -6.917  -1.829 -34.490  1.00  0.00     0.030 A 
ENDBRANCH  17  20
ENDBRANCH  15  16
ENDBRANCH   1  15
TORSDOF 3
ENDMDL
MODEL 5
REMARK VINA RESULT:      -7.8      2.476      7.279
REMARK  3 active torsions:
REMARK  status: ('A' for Active; 'I' for Inactive)
REMARK    1  A    between atoms: C_3  and  N_4 
REMARK       I    between atoms: N_4  and  C_5 
REMARK    2  A    between atoms: C_5  and  C_6 
REMARK    3  A    between atoms: C_6  and  C_7 
ROOT
HETATM    1  C   UNL     1      -4.682   1.231 -32.989  1.00  0.00     0.286 C 
HETATM    2  N   UNL     1      -4.106  -0.125 -33.395  1.00  0.00    -0.056 N 
HETATM    3  H   UNL     1      -4.168  -0.204 -34.417  1.00  0.00     0.278 HD
HETATM    4  H   UNL     1      -3.085  -0.092 -33.189  1.00  0.00     0.278 HD
HETATM    5  C   UNL     1      -4.760  -1.306 -32.726  1.00  0.00     0.209 C 
HETATM    6  C   UNL     1      -6.291  -1.250 -32.977  1.00  0.00     0.115 C 
HETATM    7  N   UNL     1      -6.855   0.069 -32.687  1.00  0.00    -0.353 N 
HETATM    8  C   UNL     1      -6.216   1.250 -32.969  1.00  0.00     0.249 C 
HETATM    9  O   UNL     1      -6.853   2.292 -33.067  1.00  0.00    -0.271 OA
HETATM   10  C   UNL     1      -4.121  -2.600 -33.235  1.00  0.00     0.035 C 
HETATM   11  C   UNL     1      -4.541  -2.975 -34.655  1.00  0.00     0.002 C 
HETATM   12  C   UNL     1      -6.058  -2.992 -34.802  1.00  0.00     0.002 C 
HETATM   13  C   UNL     1      -6.666  -1.652 -34.410  1.00  0.00     0.027 C 
HETATM   14  H   UNL     1      -7.870   0.157 -32.661  1.00  0.00     0.163 HD
ENDROOT
BRANCH   1  15
HETATM   15  C   UNL     1      -4.198   1.671 -31.602  1.00  0.00     0.146 C 
BRANCH  15  16
HETATM   16  C   UNL     1      -3.802   3.127 -31.587  1.00  0.00     0.224 C 
HETATM   17  N   UNL     1      -2.882   3.426 -32.564  1.00  0.00    -0.327 N 
HETATM   18  H   UNL     1      -2.768   2.734 -33.299  1.00  0.00     0.169 HD
HETATM   19  O   UNL     1      -4.382   3.891 -30.820  1.00  0.00    -0.273 OA
BRANCH  17  20
HETATM   20  C   UNL     1      -2.261   4.665 -32.851  1.00  0.00     0.040 A 
HETATM   21  C   UNL     1      -2.532   5.507 -33.943  1.00  0.00    -0.035 A 
HETATM   22  C   UNL     1      -3.615   5.281 -34.958  1.00  0.00     0.050 C 
HETATM   23  C   UNL     1      -1.776   6.691 -34.088  1.00  0.00     0.009 A 
HETATM   24  C   UNL     1      -0.819   7.066 -33.148  1.00  0.00     0.001 A 
HETATM   25  C   UNL     1      -0.600   6.268 -32.036  1.00  0.00     0.002 A 
HETATM   26  C   UNL     1      -1.321   5.082 -31.888  1.00  0.00     0.030 A 
ENDBRANCH  17  20
ENDBRANCH  15  16
ENDBRANCH   1  15
TORSDOF 3
ENDMDL
MODEL 6
REMARK VINA RESULT:      -7.7      1.831      3.280
REMARK  3 active torsions:
REMARK  status: ('A' for Active; 'I' for Inactive)
REMARK    1  A    between atoms: C_3  and  N_4 
REMARK       I    between atoms: N_4  and  C_5 
REMARK    2  A    between atoms: C_5  and  C_6 
REMARK    3  A    between atoms: C_6  and  C_7 
ROOT
HETATM    1  C   UNL     1      -4.756   1.943 -31.818  1.00  0.00     0.286 C 
HETATM    2  N   UNL     1      -3.439   2.571 -32.272  1.00  0.00    -0.056 N 
HETATM    3  H   UNL     1      -2.846   2.699 -31.444  1.00  0.00     0.278 HD
HETATM    4  H   UNL     1      -2.948   1.855 -32.847  1.00  0.00     0.278 HD
HETATM    5  C   UNL     1      -3.593   3.866 -33.027  1.00  0.00     0.209 C 
HETATM    6  C   UNL     1      -4.420   4.860 -32.169  1.00  0.00     0.115 C 
HETATM    7  N   UNL     1      -5.643   4.256 -31.640  1.00  0.00    -0.353 N 
HETATM    8  C   UNL     1      -5.722   2.960 -31.194  1.00  0.00     0.249 C 
HETATM    9  O   UNL     1      -6.618   2.620 -30.430  1.00  0.00    -0.271 OA
HETATM   10  C   UNL     1      -2.210   4.407 -33.398  1.00  0.00     0.035 C 
HETATM   11  C   UNL     1      -1.449   5.007 -32.217  1.00  0.00     0.002 C 
HETATM   12  C   UNL     1      -2.288   6.043 -31.479  1.00  0.00     0.002 C 
HETATM   13  C   UNL     1      -3.608   5.449 -31.007  1.00  0.00     0.027 C 
HETATM   14  H   UNL     1      -6.330   4.872 -31.207  1.00  0.00     0.163 HD
ENDROOT
BRANCH   1  15
HETATM   15  C   UNL     1      -5.495   1.254 -32.971  1.00  0.00     0.146 C 
BRANCH  15  16
HETATM   16  C   UNL     1      -5.595  -0.236 -32.757  1.00  0.00     0.224 C 
HETATM   17  N   UNL     1      -4.900  -0.946 -33.708  1.00  0.00    -0.327 N 
HETATM   18  H   UNL     1      -4.235  -0.416 -34.264  1.00  0.00     0.169 HD
HETATM   19  O   UNL     1      -6.164  -0.653 -31.752  1.00  0.00    -0.273 OA
BRANCH  17  20
HETATM   20  C   UNL     1      -4.774  -2.347 -33.855  1.00  0.00     0.040 A 
HETATM   21  C   UNL     1      -3.914  -3.193 -33.134  1.00  0.00    -0.035 A 
HETATM   22  C   UNL     1      -3.036  -2.761 -31.994  1.00  0.00     0.050 C 
HETATM   23  C   UNL     1      -3.897  -4.569 -33.451  1.00  0.00     0.009 A 
HETATM   24  C   UNL     1      -4.748  -5.109 -34.412  1.00  0.00     0.001 A 
HETATM   25  C   UNL     1      -5.643  -4.283 -35.075  1.00  0.00     0.002 A 
HETATM   26  C   UNL     1      -5.659  -2.917 -34.792  1.00  0.00     0.030 A 
ENDBRANCH  17  20
ENDBRANCH  15  16
ENDBRANCH   1  15
TORSDOF 3
ENDMDL
MODEL 7
REMARK VINA RESULT:      -7.6      2.498      4.095
REMARK  3 active torsions:
REMARK  status: ('A' for Active; 'I' for Inactive)
REMARK    1  A    between atoms: C_3  and  N_4 
REMARK       I    between atoms: N_4  and  C_5 
REMARK    2  A    between atoms: C_5  and  C_6 
REMARK    3  A    between atoms: C_6  and  C_7 
ROOT
HETATM    1  C   UNL     1      -4.522   3.804 -31.743  1.00  0.00     0.286 C 
HETATM    2  N   UNL     1      -3.609   3.945 -32.961  1.00  0.00    -0.056 N 
HETATM    3  H   UNL     1      -2.636   3.894 -32.637  1.00  0.00     0.278 HD
HETATM    4  H   UNL     1      -3.746   3.089 -33.540  1.00  0.00     0.278 HD
HETATM    5  C   UNL     1      -3.840   5.194 -33.771  1.00  0.00     0.209 C 
HETATM    6  C   UNL     1      -3.727   6.432 -32.841  1.00  0.00     0.115 C 
HETATM    7  N   UNL     1      -4.517   6.284 -31.619  1.00  0.00    -0.353 N 
HETATM    8  C   UNL     1      -4.648   5.101 -30.934  1.00  0.00     0.249 C 
HETATM    9  O   UNL     1      -4.981   5.101 -29.755  1.00  0.00    -0.271 OA
HETATM   10  C   UNL     1      -2.850   5.235 -34.938  1.00  0.00     0.035 C 
HETATM   11  C   UNL     1      -1.422   5.583 -34.520  1.00  0.00     0.002 C 
HETATM   12  C   UNL     1      -1.378   6.861 -33.691  1.00  0.00     0.002 C 
HETATM   13  C   UNL     1      -2.274   6.753 -32.464  1.00  0.00     0.027 C 
HETATM   14  H   UNL     1      -4.640   7.105 -31.028  1.00  0.00     0.163 HD
ENDROOT
BRANCH   1  15
HETATM   15  C   UNL     1      -5.938   3.364 -32.131  1.00  0.00     0.146 C 
BRANCH  15  16
HETATM   16  C   UNL     1      -5.918   2.281 -33.181  1.00  0.00     0.224 C 
HETATM   17  N   UNL     1      -5.753   1.030 -32.634  1.00  0.00    -0.327 N 
HETATM   18  H   UNL     1      -5.905   0.956 -31.633  1.00  0.00     0.169 HD
HETATM   19  O   UNL     1      -6.145   2.584 -34.349  1.00  0.00    -0.273 OA
BRANCH  17  20
HETATM   20  C   UNL     1      -5.664  -0.222 -33.289  1.00  0.00     0.040 A 
HETATM   21  C   UNL     1      -4.529  -1.045 -33.374  1.00  0.00    -0.035 A 
HETATM   22  C   UNL     1      -3.218  -0.781 -32.690  1.00  0.00     0.050 C 
HETATM   23  C   UNL     1      -4.619  -2.247 -34.110  1.00  0.00     0.009 A 
HETATM   24  C   UNL     1      -5.814  -2.657 -34.697  1.00  0.00     0.001 A 
HETATM   25  C   UNL     1      -6.950  -1.875 -34.554  1.00  0.00     0.002 A 
HETATM   26  C   UNL     1      -6.875  -0.673 -33.851  1.00  0.00     0.030 A 
ENDBRANCH  17  20
ENDBRANCH  15  16
ENDBRANCH   1  15
TORSDOF 3
ENDMDL
MODEL 8
REMARK VINA RESULT:      -7.4      2.311      3.641
REMARK  3 active torsions:
REMARK  status: ('A' for Active; 'I' for Inactive)
REMARK    1  A    between atoms: C_3  and  N_4 
REMARK       I    between atoms: N_4  and  C_5 
REMARK    2  A    between atoms: C_5  and  C_6 
REMARK    3  A    between atoms: C_6  and  C_7 
ROOT
HETATM    1  C   UNL     1      -4.556   3.559 -30.881  1.00  0.00     0.286 C 
HETATM    2  N   UNL     1      -3.134   3.698 -31.425  1.00  0.00    -0.056 N 
HETATM    3  H   UNL     1      -2.482   3.612 -30.637  1.00  0.00     0.278 HD
HETATM    4  H   UNL     1      -2.956   2.859 -32.016  1.00  0.00     0.278 HD
HETATM    5  C   UNL     1      -2.882   4.969 -32.194  1.00  0.00     0.209 C 
HETATM    6  C   UNL     1      -3.263   6.184 -31.306  1.00  0.00     0.115 C 
HETATM    7  N   UNL     1      -4.582   6.035 -30.693  1.00  0.00    -0.353 N 
HETATM    8  C   UNL     1      -5.073   4.844 -30.219  1.00  0.00     0.249 C 
HETATM    9  O   UNL     1      -5.981   4.830 -29.397  1.00  0.00    -0.271 OA
HETATM   10  C   UNL     1      -1.424   5.005 -32.657  1.00  0.00     0.035 C 
HETATM   11  C   UNL     1      -0.430   5.302 -31.535  1.00  0.00     0.002 C 
HETATM   12  C   UNL     1      -0.815   6.561 -30.768  1.00  0.00     0.002 C 
HETATM   13  C   UNL     1      -2.226   6.455 -30.206  1.00  0.00     0.027 C 
HETATM   14  H   UNL     1      -4.988   6.848 -30.231  1.00  0.00     0.163 HD
ENDROOT
BRANCH   1  15
HETATM   15  C   UNL     1      -5.557   3.170 -31.975  1.00  0.00     0.146 C 
BRANCH  15  16
HETATM   16  C   UNL     1      -5.751   1.676 -32.046  1.00  0.00     0.224 C 
HETATM   17  N   UNL     1      -5.491   1.176 -33.301  1.00  0.00    -0.327 N 
HETATM   18  H   UNL     1      -4.989   1.793 -33.932  1.00  0.00     0.169 HD
HETATM   19  O   UNL     1      -6.003   1.061 -31.013  1.00  0.00    -0.273 OA
BRANCH  17  20
HETATM   20  C   UNL     1      -5.581  -0.158 -33.763  1.00  0.00     0.040 A 
HETATM   21  C   UNL     1      -6.606  -0.705 -34.554  1.00  0.00    -0.035 A 
HETATM   22  C   UNL     1      -7.752   0.070 -35.139  1.00  0.00     0.050 C 
HETATM   23  C   UNL     1      -6.545  -2.077 -34.884  1.00  0.00     0.009 A 
HETATM   24  C   UNL     1      -5.473  -2.876 -34.494  1.00  0.00     0.001 A 
HETATM   25  C   UNL     1      -4.430  -2.318 -33.771  1.00  0.00     0.002 A 
HETATM   26  C   UNL     1      -4.483  -0.970 -33.416  1.00  0.00     0.030 A 
ENDBRANCH  17  20
ENDBRANCH  15  16
ENDBRANCH   1  15
TORSDOF 3
ENDMDL
MODEL 9
REMARK VINA RESULT:      -7.4      3.682      5.742
REMARK  3 active torsions:
REMARK  status: ('A' for Active; 'I' for Inactive)
REMARK    1  A    between atoms: C_3  and  N_4 
REMARK       I    between atoms: N_4  and  C_5 
REMARK    2  A    between atoms: C_5  and  C_6 
REMARK    3  A    between atoms: C_6  and  C_7 
ROOT
HETATM    1  C   UNL     1      -2.196   5.493 -31.566  1.00  0.00     0.286 C 
HETATM    2  N   UNL     1      -1.415   5.156 -30.296  1.00  0.00    -0.056 N 
HETATM    3  H   UNL     1      -1.796   5.722 -29.529  1.00  0.00     0.278 HD
HETATM    4  H   UNL     1      -1.653   4.172 -30.050  1.00  0.00     0.278 HD
HETATM    5  C   UNL     1       0.075   5.344 -30.412  1.00  0.00     0.209 C 
HETATM    6  C   UNL     1       0.370   6.794 -30.882  1.00  0.00     0.115 C 
HETATM    7  N   UNL     1      -0.436   7.179 -32.041  1.00  0.00    -0.353 N 
HETATM    8  C   UNL     1      -1.746   6.808 -32.216  1.00  0.00     0.249 C 
HETATM    9  O   UNL     1      -2.474   7.442 -32.971  1.00  0.00    -0.271 OA
HETATM   10  C   UNL     1       0.737   5.006 -29.075  1.00  0.00     0.035 C 
HETATM   11  C   UNL     1       0.530   6.072 -28.000  1.00  0.00     0.002 C 
HETATM   12  C   UNL     1       0.930   7.455 -28.501  1.00  0.00     0.002 C 
HETATM   13  C   UNL     1       0.165   7.826 -29.765  1.00  0.00     0.027 C 
HETATM   14  H   UNL     1      -0.196   8.045 -32.522  1.00  0.00     0.163 HD
ENDROOT
BRANCH   1  15
HETATM   15  C   UNL     1      -2.077   4.392 -32.626  1.00  0.00     0.146 C 
BRANCH  15  16
HETATM   16  C   UNL     1      -3.322   3.543 -32.690  1.00  0.00     0.224 C 
HETATM   17  N   UNL     1      -3.321   2.546 -31.742  1.00  0.00    -0.327 N 
HETATM   18  H   UNL     1      -2.643   2.642 -30.992  1.00  0.00     0.169 HD
HETATM   19  O   UNL     1      -4.220   3.865 -33.463  1.00  0.00    -0.273 OA
BRANCH  17  20
HETATM   20  C   UNL     1      -4.293   1.546 -31.503  1.00  0.00     0.040 A 
HETATM   21  C   UNL     1      -4.348   0.270 -32.091  1.00  0.00    -0.035 A 
HETATM   22  C   UNL     1      -3.310  -0.298 -33.016  1.00  0.00     0.050 C 
HETATM   23  C   UNL     1      -5.424  -0.582 -31.758  1.00  0.00     0.009 A 
HETATM   24  C   UNL     1      -6.389  -0.211 -30.825  1.00  0.00     0.001 A 
HETATM   25  C   UNL     1      -6.296   1.022 -30.197  1.00  0.00     0.002 A 
HETATM   26  C   UNL     1      -5.253   1.887 -30.529  1.00  0.00     0.030 A 
ENDBRANCH  17  20
ENDBRANCH  15  16
ENDBRANCH   1  15
TORSDOF 3
ENDMDL
MODEL 10
REMARK VINA RESULT:      -7.3      2.762      4.394
REMARK  3 active torsions:
REMARK  status: ('A' for Active; 'I' for Inactive)
REMARK    1  A    between atoms: C_3  and  N_4 
REMARK       I    between atoms: N_4  and  C_5 
REMARK    2  A    between atoms: C_5  and  C_6 
REMARK    3  A    between atoms: C_6  and  C_7 
ROOT
HETATM    1  C   UNL     1      -9.046   0.775 -33.219  1.00  0.00     0.286 C 
HETATM    2  N   UNL     1      -8.157   1.810 -32.530  1.00  0.00    -0.056 N 
HETATM    3  H   UNL     1      -8.127   1.587 -31.529  1.00  0.00     0.278 HD
HETATM    4  H   UNL     1      -7.186   1.648 -32.873  1.00  0.00     0.278 HD
HETATM    5  C   UNL     1      -8.580   3.240 -32.749  1.00  0.00     0.209 C 
HETATM    6  C   UNL     1     -10.063   3.402 -32.320  1.00  0.00     0.115 C 
HETATM    7  N   UNL     1     -10.924   2.366 -32.889  1.00  0.00    -0.353 N 
HETATM    8  C   UNL     1     -10.544   1.055 -33.038  1.00  0.00     0.249 C 
HETATM    9  O   UNL     1     -11.388   0.173 -33.151  1.00  0.00    -0.271 OA
HETATM   10  C   UNL     1      -7.635   4.173 -31.988  1.00  0.00     0.035 C 
HETATM   11  C   UNL     1      -7.859   4.174 -30.476  1.00  0.00     0.002 C 
HETATM   12  C   UNL     1      -9.320   4.434 -30.128  1.00  0.00     0.002 C 
HETATM   13  C   UNL     1     -10.236   3.416 -30.795  1.00  0.00     0.027 C 
HETATM   14  H   UNL     1     -11.933   2.483 -32.802  1.00  0.00     0.163 HD
ENDROOT
BRANCH   1  15
HETATM   15  C   UNL     1      -8.773   0.691 -34.725  1.00  0.00     0.146 C 
BRANCH  15  16
HETATM   16  C   UNL     1      -7.515  -0.086 -35.021  1.00  0.00     0.224 C 
HETATM   17  N   UNL     1      -7.455  -1.267 -34.318  1.00  0.00    -0.327 N 
HETATM   18  H   UNL     1      -8.324  -1.581 -33.897  1.00  0.00     0.169 HD
HETATM   19  O   UNL     1      -6.754   0.327 -35.892  1.00  0.00    -0.273 OA
BRANCH  17  20
HETATM   20  C   UNL     1      -6.434  -2.246 -34.311  1.00  0.00     0.040 A 
HETATM   21  C   UNL     1      -5.116  -2.082 -33.850  1.00  0.00    -0.035 A 
HETATM   22  C   UNL     1      -4.583  -0.847 -33.182  1.00  0.00     0.050 C 
HETATM   23  C   UNL     1      -4.221  -3.168 -33.963  1.00  0.00     0.009 A 
HETATM   24  C   UNL     1      -4.628  -4.403 -34.462  1.00  0.00     0.001 A 
HETATM   25  C   UNL     1      -5.946  -4.582 -34.853  1.00  0.00     0.002 A 
HETATM   26  C   UNL     1      -6.840  -3.514 -34.771  1.00  0.00     0.030 A 
ENDBRANCH  17  20
ENDBRANCH  15  16
ENDBRANCH   1  15
TORSDOF 3
ENDMDL
