MODEL 1
REMARK VINA RESULT:      -8.3      0.000      0.000
REMARK  6 active torsions:
REMARK  status: ('A' for Active; 'I' for Inactive)
REMARK    1  A    between atoms: C_5  and  C_6 
REMARK    2  A    between atoms: C_6  and  O_7 
REMARK    3  A    between atoms: C_6  and  C_8 
REMARK    4  A    between atoms: C_8  and  N_9 
REMARK    5  A    between atoms: C_11  and  C_12 
REMARK    6  A    between atoms: C_13  and  O_14 
ROOT
HETATM    1  N   UNL     1      -5.259   0.634 -31.889  1.00  0.00    -0.395 N 
HETATM    2  H   UNL     1      -5.253   0.138 -30.984  1.00  0.00     0.159 HD
HETATM    3  C   UNL     1      -4.868  -0.036 -32.915  1.00  0.00     0.098 C 
ENDROOT
BRANCH   1   4
HETATM    4  C   UNL     1      -5.736   2.039 -31.886  1.00  0.00     0.155 C 
BRANCH   4   5
HETATM    5  C   UNL     1      -5.628   2.646 -33.295  1.00  0.00     0.170 C 
BRANCH   5   6
HETATM    6  C   UNL     1      -4.572   3.717 -33.405  1.00  0.00    -0.011 A 
HETATM    7  C   UNL     1      -4.800   4.840 -34.195  1.00  0.00     0.126 A 
HETATM    8  N   UNL     1      -3.901   5.825 -34.390  1.00  0.00    -0.265 NA
HETATM    9  C   UNL     1      -2.718   5.740 -33.741  1.00  0.00     0.030 A 
HETATM   10  C   UNL     1      -1.751   6.873 -33.915  1.00  0.00     0.070 C 
HETATM   11  C   UNL     1      -2.402   4.666 -32.917  1.00  0.00     0.027 A 
HETATM   12  C   UNL     1      -3.334   3.642 -32.758  1.00  0.00     0.013 A 
ENDBRANCH   5   6
BRANCH   5  13
HETATM   13  O   UNL     1      -6.916   3.136 -33.677  1.00  0.00    -0.389 OA
HETATM   14  H   UNL     1      -7.467   2.357 -33.890  1.00  0.00     0.210 HD
ENDBRANCH   5  13
ENDBRANCH   4   5
ENDBRANCH   1   4
BRANCH   3  15
HETATM   15  C   UNL     1      -4.391  -1.441 -32.847  1.00  0.00     0.023 A 
HETATM   16  C   UNL     1      -3.321  -1.780 -31.994  1.00  0.00     0.078 A 
HETATM   17  C   UNL     1      -2.821  -3.075 -31.956  1.00  0.00     0.038 A 
HETATM   18  C   UNL     1      -3.389  -4.049 -32.771  1.00  0.00     0.015 A 
HETATM   19  C   UNL     1      -4.465  -3.753 -33.619  1.00  0.00    -0.025 A 
HETATM   20  C   UNL     1      -4.997  -2.436 -33.673  1.00  0.00    -0.012 A 
HETATM   21  C   UNL     1      -5.012  -4.774 -34.413  1.00  0.00     0.012 A 
HETATM   22  C   UNL     1      -6.102  -2.227 -34.542  1.00  0.00     0.013 A 
HETATM   23  C   UNL     1      -6.636  -3.258 -35.321  1.00  0.00     0.001 A 
HETATM   24  C   UNL     1      -6.088  -4.530 -35.259  1.00  0.00     0.001 A 
BRANCH  16  25
HETATM   25  O   UNL     1      -2.755  -0.825 -31.183  1.00  0.00    -0.360 OA
HETATM   26  H   UNL     1      -2.682  -1.198 -30.279  1.00  0.00     0.217 HD
ENDBRANCH  16  25
ENDBRANCH   3  15
TORSDOF 6
ENDMDL
MODEL 2
REMARK VINA RESULT:      -8.3      4.647      6.318
REMARK  6 active torsions:
REMARK  status: ('A' for Active; 'I' for Inactive)
REMARK    1  A    between atoms: C_5  and  C_6 
REMARK    2  A    between atoms: C_6  and  O_7 
REMARK    3  A    between atoms: C_6  and  C_8 
REMARK    4  A    between atoms: C_8  and  N_9 
REMARK    5  A    between atoms: C_11  and  C_12 
REMARK    6  A    between atoms: C_13  and  O_14 
ROOT
HETATM    1  N   UNL     1      -7.868   1.607 -32.704  1.00  0.00    -0.395 N 
HETATM    2  H   UNL     1      -7.068   2.114 -33.115  1.00  0.00     0.159 HD
HETATM    3  C   UNL     1      -7.609   0.469 -32.164  1.00  0.00     0.098 C 
ENDROOT
BRANCH   1   4
HETATM    4  C   UNL     1      -9.195   2.266 -32.775  1.00  0.00     0.155 C 
BRANCH   4   5
HETATM    5  C   UNL     1      -9.766   2.171 -34.200  1.00  0.00     0.170 C 
BRANCH   5   6
HETATM    6  C   UNL     1     -11.195   1.692 -34.240  1.00  0.00    -0.011 A 
HETATM    7  C   UNL     1     -12.131   2.361 -35.024  1.00  0.00     0.126 A 
HETATM    8  N   UNL     1     -13.437   2.036 -35.088  1.00  0.00    -0.265 NA
HETATM    9  C   UNL     1     -13.859   0.964 -34.380  1.00  0.00     0.030 A 
HETATM   10  C   UNL     1     -15.301   0.573 -34.509  1.00  0.00     0.070 C 
HETATM   11  C   UNL     1     -12.998   0.221 -33.581  1.00  0.00     0.027 A 
HETATM   12  C   UNL     1     -11.658   0.597 -33.502  1.00  0.00     0.013 A 
ENDBRANCH   5   6
BRANCH   5  13
HETATM   13  O   UNL     1      -8.908   1.330 -34.976  1.00  0.00    -0.389 OA
HETATM   14  H   UNL     1      -9.260   1.327 -35.889  1.00  0.00     0.210 HD
ENDBRANCH   5  13
ENDBRANCH   4   5
ENDBRANCH   1   4
BRANCH   3  15
HETATM   15  C   UNL     1      -6.255  -0.141 -32.136  1.00  0.00     0.023 A 
HETATM   16  C   UNL     1      -5.283   0.344 -31.236  1.00  0.00     0.078 A 
HETATM   17  C   UNL     1      -3.994  -0.172 -31.231  1.00  0.00     0.038 A 
HETATM   18  C   UNL     1      -3.662  -1.185 -32.125  1.00  0.00     0.015 A 
HETATM   19  C   UNL     1      -4.606  -1.704 -33.022  1.00  0.00    -0.025 A 
HETATM   20  C   UNL     1      -5.932  -1.195 -33.044  1.00  0.00    -0.012 A 
HETATM   21  C   UNL     1      -4.225  -2.734 -33.896  1.00  0.00     0.012 A 
HETATM   22  C   UNL     1      -6.832  -1.793 -33.967  1.00  0.00     0.013 A 
HETATM   23  C   UNL     1      -6.435  -2.821 -34.827  1.00  0.00     0.001 A 
HETATM   24  C   UNL     1      -5.131  -3.289 -34.793  1.00  0.00     0.001 A 
BRANCH  16  25
HETATM   25  O   UNL     1      -5.603   1.343 -30.347  1.00  0.00    -0.360 OA
HETATM   26  H   UNL     1      -5.178   2.171 -30.655  1.00  0.00     0.217 HD
ENDBRANCH  16  25
ENDBRANCH   3  15
TORSDOF 6
ENDMDL
MODEL 3
REMARK VINA RESULT:      -8.2      2.617      3.266
REMARK  6 active torsions:
REMARK  status: ('A' for Active; 'I' for Inactive)
REMARK    1  A    between atoms: C_5  and  C_6 
REMARK    2  A    between atoms: C_6  and  O_7 
REMARK    3  A    between atoms: C_6  and  C_8 
REMARK    4  A    between atoms: C_8  and  N_9 
REMARK    5  A    between atoms: C_11  and  C_12 
REMARK    6  A    between atoms: C_13  and  O_14 
ROOT
HETATM    1  N   UNL     1      -3.353   2.346 -32.301  1.00  0.00    -0.395 N 
HETATM    2  H   UNL     1      -2.447   1.963 -32.614  1.00  0.00     0.159 HD
HETATM    3  C   UNL     1      -4.304   1.499 -32.122  1.00  0.00     0.098 C 
ENDROOT
BRANCH   1   4
HETATM    4  C   UNL     1      -3.427   3.812 -32.080  1.00  0.00     0.155 C 
BRANCH   4   5
HETATM    5  C   UNL     1      -2.208   4.511 -32.705  1.00  0.00     0.170 C 
BRANCH   5   6
HETATM    6  C   UNL     1      -1.414   5.325 -31.715  1.00  0.00    -0.011 A 
HETATM    7  C   UNL     1      -2.074   6.110 -30.773  1.00  0.00     0.126 A 
HETATM    8  N   UNL     1      -1.452   6.904 -29.879  1.00  0.00    -0.265 NA
HETATM    9  C   UNL     1      -0.100   6.907 -29.867  1.00  0.00     0.030 A 
HETATM   10  C   UNL     1       0.580   7.745 -28.826  1.00  0.00     0.070 C 
HETATM   11  C   UNL     1       0.649   6.145 -30.755  1.00  0.00     0.027 A 
HETATM   12  C   UNL     1      -0.016   5.357 -31.694  1.00  0.00     0.013 A 
ENDBRANCH   5   6
BRANCH   5  13
HETATM   13  O   UNL     1      -2.658   5.310 -33.803  1.00  0.00    -0.389 OA
HETATM   14  H   UNL     1      -3.576   5.581 -33.601  1.00  0.00     0.210 HD
ENDBRANCH   5  13
ENDBRANCH   4   5
ENDBRANCH   1   4
BRANCH   3  15
HETATM   15  C   UNL     1      -4.166   0.041 -32.372  1.00  0.00     0.023 A 
HETATM   16  C   UNL     1      -3.140  -0.687 -31.737  1.00  0.00     0.078 A 
HETATM   17  C   UNL     1      -2.956  -2.039 -31.998  1.00  0.00     0.038 A 
HETATM   18  C   UNL     1      -3.802  -2.680 -32.898  1.00  0.00     0.015 A 
HETATM   19  C   UNL     1      -4.844  -1.991 -33.536  1.00  0.00    -0.025 A 
HETATM   20  C   UNL     1      -5.054  -0.610 -33.281  1.00  0.00    -0.012 A 
HETATM   21  C   UNL     1      -5.678  -2.686 -34.426  1.00  0.00     0.012 A 
HETATM   22  C   UNL     1      -6.147   0.005 -33.951  1.00  0.00     0.013 A 
HETATM   23  C   UNL     1      -6.969  -0.704 -34.831  1.00  0.00     0.001 A 
HETATM   24  C   UNL     1      -6.733  -2.049 -35.071  1.00  0.00     0.001 A 
BRANCH  16  25
HETATM   25  O   UNL     1      -2.301  -0.063 -30.844  1.00  0.00    -0.360 OA
HETATM   26  H   UNL     1      -1.439   0.084 -31.289  1.00  0.00     0.217 HD
ENDBRANCH  16  25
ENDBRANCH   3  15
TORSDOF 6
ENDMDL
MODEL 4
REMARK VINA RESULT:      -8.2      3.116      4.810
REMARK  6 active torsions:
REMARK  status: ('A' for Active; 'I' for Inactive)
REMARK    1  A    between atoms: C_5  and  C_6 
REMARK    2  A    between atoms: C_6  and  O_7 
REMARK    3  A    between atoms: C_6  and  C_8 
REMARK    4  A    between atoms: C_8  and  N_9 
REMARK    5  A    between atoms: C_11  and  C_12 
REMARK    6  A    between atoms: C_13  and  O_14 
ROOT
HETATM    1  N   UNL     1      -5.954   0.283 -31.934  1.00  0.00    -0.395 N 
HETATM    2  H   UNL     1      -6.094  -0.322 -31.109  1.00  0.00     0.159 HD
HETATM    3  C   UNL     1      -5.253  -0.208 -32.894  1.00  0.00     0.098 C 
ENDROOT
BRANCH   1   4
HETATM    4  C   UNL     1      -6.595   1.621 -31.907  1.00  0.00     0.155 C 
BRANCH   4   5
HETATM    5  C   UNL     1      -7.919   1.566 -31.126  1.00  0.00     0.170 C 
BRANCH   5   6
HETATM    6  C   UNL     1      -9.131   1.458 -32.016  1.00  0.00    -0.011 A 
HETATM    7  C   UNL     1      -9.833   2.605 -32.378  1.00  0.00     0.126 A 
HETATM    8  N   UNL     1     -10.952   2.603 -33.130  1.00  0.00    -0.265 NA
HETATM    9  C   UNL     1     -11.397   1.416 -33.601  1.00  0.00     0.030 A 
HETATM   10  C   UNL     1     -12.605   1.435 -34.489  1.00  0.00     0.070 C 
HETATM   11  C   UNL     1     -10.757   0.218 -33.309  1.00  0.00     0.027 A 
HETATM   12  C   UNL     1      -9.621   0.240 -32.500  1.00  0.00     0.013 A 
ENDBRANCH   5   6
BRANCH   5  13
HETATM   13  O   UNL     1      -7.991   2.713 -30.276  1.00  0.00    -0.389 OA
HETATM   14  H   UNL     1      -8.746   2.572 -29.670  1.00  0.00     0.210 HD
ENDBRANCH   5  13
ENDBRANCH   4   5
ENDBRANCH   1   4
BRANCH   3  15
HETATM   15  C   UNL     1      -4.628  -1.554 -32.853  1.00  0.00     0.023 A 
HETATM   16  C   UNL     1      -3.523  -1.792 -32.010  1.00  0.00     0.078 A 
HETATM   17  C   UNL     1      -2.887  -3.026 -31.997  1.00  0.00     0.038 A 
HETATM   18  C   UNL     1      -3.352  -4.042 -32.826  1.00  0.00     0.015 A 
HETATM   19  C   UNL     1      -4.459  -3.848 -33.664  1.00  0.00    -0.025 A 
HETATM   20  C   UNL     1      -5.129  -2.595 -33.693  1.00  0.00    -0.012 A 
HETATM   21  C   UNL     1      -4.899  -4.908 -34.473  1.00  0.00     0.012 A 
HETATM   22  C   UNL     1      -6.256  -2.491 -34.553  1.00  0.00     0.013 A 
HETATM   23  C   UNL     1      -6.681  -3.559 -35.348  1.00  0.00     0.001 A 
HETATM   24  C   UNL     1      -6.001  -4.766 -35.310  1.00  0.00     0.001 A 
BRANCH  16  25
HETATM   25  O   UNL     1      -3.057  -0.795 -31.186  1.00  0.00    -0.360 OA
HETATM   26  H   UNL     1      -3.813  -0.216 -30.951  1.00  0.00     0.217 HD
ENDBRANCH  16  25
ENDBRANCH   3  15
TORSDOF 6
ENDMDL
MODEL 5
REMARK VINA RESULT:      -8.1      4.842      6.509
REMARK  6 active torsions:
REMARK  status: ('A' for Active; 'I' for Inactive)
REMARK    1  A    between atoms: C_5  and  C_6 
REMARK    2  A    between atoms: C_6  and  O_7 
REMARK    3  A    between atoms: C_6  and  C_8 
REMARK    4  A    between atoms: C_8  and  N_9 
REMARK    5  A    between atoms: C_11  and  C_12 
REMARK    6  A    between atoms: C_13  and  O_14 
ROOT
HETATM    1  N   UNL     1      -8.436   0.373 -34.046  1.00  0.00    -0.395 N 
HETATM    2  H   UNL     1      -8.239   0.488 -33.039  1.00  0.00     0.159 HD
HETATM    3  C   UNL     1      -7.546  -0.246 -34.738  1.00  0.00     0.098 C 
ENDROOT
BRANCH   1   4
HETATM    4  C   UNL     1      -9.722   0.916 -34.548  1.00  0.00     0.155 C 
BRANCH   4   5
HETATM    5  C   UNL     1     -10.214   2.056 -33.640  1.00  0.00     0.170 C 
BRANCH   5   6
HETATM    6  C   UNL     1     -11.697   2.008 -33.373  1.00  0.00    -0.011 A 
HETATM    7  C   UNL     1     -12.323   3.074 -32.732  1.00  0.00     0.126 A 
HETATM    8  N   UNL     1     -13.632   3.102 -32.411  1.00  0.00    -0.265 NA
HETATM    9  C   UNL     1     -14.396   2.046 -32.772  1.00  0.00     0.030 A 
HETATM   10  C   UNL     1     -15.862   2.117 -32.466  1.00  0.00     0.070 C 
HETATM   11  C   UNL     1     -13.867   0.942 -33.430  1.00  0.00     0.027 A 
HETATM   12  C   UNL     1     -12.504   0.920 -33.721  1.00  0.00     0.013 A 
ENDBRANCH   5   6
BRANCH   5  13
HETATM   13  O   UNL     1      -9.826   3.302 -34.227  1.00  0.00    -0.389 OA
HETATM   14  H   UNL     1      -9.865   3.976 -33.518  1.00  0.00     0.210 HD
ENDBRANCH   5  13
ENDBRANCH   4   5
ENDBRANCH   1   4
BRANCH   3  15
HETATM   15  C   UNL     1      -6.272  -0.758 -34.174  1.00  0.00     0.023 A 
HETATM   16  C   UNL     1      -5.389   0.125 -33.518  1.00  0.00     0.078 A 
HETATM   17  C   UNL     1      -4.166  -0.318 -33.032  1.00  0.00     0.038 A 
HETATM   18  C   UNL     1      -3.812  -1.654 -33.194  1.00  0.00     0.015 A 
HETATM   19  C   UNL     1      -4.672  -2.564 -33.826  1.00  0.00    -0.025 A 
HETATM   20  C   UNL     1      -5.929  -2.135 -34.328  1.00  0.00    -0.012 A 
HETATM   21  C   UNL     1      -4.274  -3.905 -33.953  1.00  0.00     0.012 A 
HETATM   22  C   UNL     1      -6.749  -3.127 -34.933  1.00  0.00     0.013 A 
HETATM   23  C   UNL     1      -6.338  -4.458 -35.047  1.00  0.00     0.001 A 
HETATM   24  C   UNL     1      -5.099  -4.846 -34.560  1.00  0.00     0.001 A 
BRANCH  16  25
HETATM   25  O   UNL     1      -5.731   1.446 -33.351  1.00  0.00    -0.360 OA
HETATM   26  H   UNL     1      -6.401   1.675 -34.030  1.00  0.00     0.217 HD
ENDBRANCH  16  25
ENDBRANCH   3  15
TORSDOF 6
ENDMDL
MODEL 6
REMARK VINA RESULT:      -8.0      2.662      4.163
REMARK  6 active torsions:
REMARK  status: ('A' for Active; 'I' for Inactive)
REMARK    1  A    between atoms: C_5  and  C_6 
REMARK    2  A    between atoms: C_6  and  O_7 
REMARK    3  A    between atoms: C_6  and  C_8 
REMARK    4  A    between atoms: C_8  and  N_9 
REMARK    5  A    between atoms: C_11  and  C_12 
REMARK    6  A    between atoms: C_13  and  O_14 
ROOT
HETATM    1  N   UNL     1      -4.200   2.683 -32.638  1.00  0.00    -0.395 N 
HETATM    2  H   UNL     1      -4.225   3.012 -33.616  1.00  0.00     0.159 HD
HETATM    3  C   UNL     1      -4.907   1.644 -32.364  1.00  0.00     0.098 C 
ENDROOT
BRANCH   1   4
HETATM    4  C   UNL     1      -3.341   3.438 -31.693  1.00  0.00     0.155 C 
BRANCH   4   5
HETATM    5  C   UNL     1      -2.366   4.346 -32.462  1.00  0.00     0.170 C 
BRANCH   5   6
HETATM    6  C   UNL     1      -1.532   5.223 -31.562  1.00  0.00    -0.011 A 
HETATM    7  C   UNL     1      -2.147   5.994 -30.578  1.00  0.00     0.126 A 
HETATM    8  N   UNL     1      -1.491   6.839 -29.759  1.00  0.00    -0.265 NA
HETATM    9  C   UNL     1      -0.145   6.913 -29.869  1.00  0.00     0.030 A 
HETATM   10  C   UNL     1       0.579   7.809 -28.909  1.00  0.00     0.070 C 
HETATM   11  C   UNL     1       0.561   6.171 -30.809  1.00  0.00     0.027 A 
HETATM   12  C   UNL     1      -0.141   5.328 -31.669  1.00  0.00     0.013 A 
ENDBRANCH   5   6
BRANCH   5  13
HETATM   13  O   UNL     1      -3.115   5.119 -33.403  1.00  0.00    -0.389 OA
HETATM   14  H   UNL     1      -4.060   5.010 -33.176  1.00  0.00     0.210 HD
ENDBRANCH   5  13
ENDBRANCH   4   5
ENDBRANCH   1   4
BRANCH   3  15
HETATM   15  C   UNL     1      -5.756   0.939 -33.358  1.00  0.00     0.023 A 
HETATM   16  C   UNL     1      -6.844   1.609 -33.955  1.00  0.00     0.078 A 
HETATM   17  C   UNL     1      -7.686   0.954 -34.844  1.00  0.00     0.038 A 
HETATM   18  C   UNL     1      -7.447  -0.382 -35.150  1.00  0.00     0.015 A 
HETATM   19  C   UNL     1      -6.365  -1.075 -34.589  1.00  0.00    -0.025 A 
HETATM   20  C   UNL     1      -5.487  -0.426 -33.680  1.00  0.00    -0.012 A 
HETATM   21  C   UNL     1      -6.158  -2.419 -34.940  1.00  0.00     0.012 A 
HETATM   22  C   UNL     1      -4.403  -1.194 -33.177  1.00  0.00     0.013 A 
HETATM   23  C   UNL     1      -4.211  -2.530 -33.541  1.00  0.00     0.001 A 
HETATM   24  C   UNL     1      -5.091  -3.143 -34.420  1.00  0.00     0.001 A 
BRANCH  16  25
HETATM   25  O   UNL     1      -7.086   2.931 -33.660  1.00  0.00    -0.360 OA
HETATM   26  H   UNL     1      -6.294   3.291 -33.207  1.00  0.00     0.217 HD
ENDBRANCH  16  25
ENDBRANCH   3  15
TORSDOF 6
ENDMDL
MODEL 7
REMARK VINA RESULT:      -7.8      2.491      3.366
REMARK  6 active torsions:
REMARK  status: ('A' for Active; 'I' for Inactive)
REMARK    1  A    between atoms: C_5  and  C_6 
REMARK    2  A    between atoms: C_6  and  O_7 
REMARK    3  A    between atoms: C_6  and  C_8 
REMARK    4  A    between atoms: C_8  and  N_9 
REMARK    5  A    between atoms: C_11  and  C_12 
REMARK    6  A    between atoms: C_13  and  O_14 
ROOT
HETATM    1  N   UNL     1      -8.311   0.429 -32.807  1.00  0.00    -0.395 N 
HETATM    2  H   UNL     1      -7.863   0.387 -31.878  1.00  0.00     0.159 HD
HETATM    3  C   UNL     1      -7.647  -0.073 -33.788  1.00  0.00     0.098 C 
ENDROOT
BRANCH   1   4
HETATM    4  C   UNL     1      -9.660   1.042 -32.880  1.00  0.00     0.155 C 
BRANCH   4   5
HETATM    5  C   UNL     1      -9.714   2.323 -32.032  1.00  0.00     0.170 C 
BRANCH   5   6
HETATM    6  C   UNL     1      -8.601   3.292 -32.343  1.00  0.00    -0.011 A 
HETATM    7  C   UNL     1      -7.738   3.708 -31.332  1.00  0.00     0.126 A 
HETATM    8  N   UNL     1      -6.745   4.602 -31.504  1.00  0.00    -0.265 NA
HETATM    9  C   UNL     1      -6.544   5.096 -32.747  1.00  0.00     0.030 A 
HETATM   10  C   UNL     1      -5.396   6.041 -32.938  1.00  0.00     0.070 C 
HETATM   11  C   UNL     1      -7.341   4.729 -33.825  1.00  0.00     0.027 A 
HETATM   12  C   UNL     1      -8.385   3.829 -33.617  1.00  0.00     0.013 A 
ENDBRANCH   5   6
BRANCH   5  13
HETATM   13  O   UNL     1      -9.718   1.953 -30.650  1.00  0.00    -0.389 OA
HETATM   14  H   UNL     1      -9.030   2.491 -30.208  1.00  0.00     0.210 HD
ENDBRANCH   5  13
ENDBRANCH   4   5
ENDBRANCH   1   4
BRANCH   3  15
HETATM   15  C   UNL     1      -6.291  -0.663 -33.648  1.00  0.00     0.023 A 
HETATM   16  C   UNL     1      -5.229   0.124 -33.156  1.00  0.00     0.078 A 
HETATM   17  C   UNL     1      -3.941  -0.388 -33.071  1.00  0.00     0.038 A 
HETATM   18  C   UNL     1      -3.701  -1.698 -33.473  1.00  0.00     0.015 A 
HETATM   19  C   UNL     1      -4.735  -2.515 -33.951  1.00  0.00    -0.025 A 
HETATM   20  C   UNL     1      -6.062  -2.015 -34.045  1.00  0.00    -0.012 A 
HETATM   21  C   UNL     1      -4.444  -3.835 -34.333  1.00  0.00     0.012 A 
HETATM   22  C   UNL     1      -7.054  -2.917 -34.517  1.00  0.00     0.013 A 
HETATM   23  C   UNL     1      -6.745  -4.228 -34.888  1.00  0.00     0.001 A 
HETATM   24  C   UNL     1      -5.440  -4.686 -34.800  1.00  0.00     0.001 A 
BRANCH  16  25
HETATM   25  O   UNL     1      -5.458   1.419 -32.754  1.00  0.00    -0.360 OA
HETATM   26  H   UNL     1      -6.401   1.628 -32.924  1.00  0.00     0.217 HD
ENDBRANCH  16  25
ENDBRANCH   3  15
TORSDOF 6
ENDMDL
MODEL 8
REMARK VINA RESULT:      -7.4      4.428      5.561
REMARK  6 active torsions:
REMARK  status: ('A' for Active; 'I' for Inactive)
REMARK    1  A    between atoms: C_5  and  C_6 
REMARK    2  A    between atoms: C_6  and  O_7 
REMARK    3  A    between atoms: C_6  and  C_8 
REMARK    4  A    between atoms: C_8  and  N_9 
REMARK    5  A    between atoms: C_11  and  C_12 
REMARK    6  A    between atoms: C_13  and  O_14 
ROOT
HETATM    1  N   UNL     1      -7.906   1.659 -32.333  1.00  0.00    -0.395 N 
HETATM    2  H   UNL     1      -7.123   2.209 -32.720  1.00  0.00     0.159 HD
HETATM    3  C   UNL     1      -7.623   0.477 -31.911  1.00  0.00     0.098 C 
ENDROOT
BRANCH   1   4
HETATM    4  C   UNL     1      -9.238   2.310 -32.297  1.00  0.00     0.155 C 
BRANCH   4   5
HETATM    5  C   UNL     1     -10.147   1.734 -33.396  1.00  0.00     0.170 C 
BRANCH   5   6
HETATM    6  C   UNL     1     -10.989   2.779 -34.083  1.00  0.00    -0.011 A 
HETATM    7  C   UNL     1     -10.917   4.108 -33.676  1.00  0.00     0.126 A 
HETATM    8  N   UNL     1     -11.662   5.103 -34.198  1.00  0.00    -0.265 NA
HETATM    9  C   UNL     1     -12.504   4.798 -35.212  1.00  0.00     0.030 A 
HETATM   10  C   UNL     1     -13.281   5.924 -35.827  1.00  0.00     0.070 C 
HETATM   11  C   UNL     1     -12.636   3.504 -35.700  1.00  0.00     0.027 A 
HETATM   12  C   UNL     1     -11.880   2.485 -35.121  1.00  0.00     0.013 A 
ENDBRANCH   5   6
BRANCH   5  13
HETATM   13  O   UNL     1     -10.953   0.703 -32.821  1.00  0.00    -0.389 OA
HETATM   14  H   UNL     1     -11.856   0.809 -33.185  1.00  0.00     0.210 HD
ENDBRANCH   5  13
ENDBRANCH   4   5
ENDBRANCH   1   4
BRANCH   3  15
HETATM   15  C   UNL     1      -6.266  -0.122 -31.986  1.00  0.00     0.023 A 
HETATM   16  C   UNL     1      -5.257   0.310 -31.100  1.00  0.00     0.078 A 
HETATM   17  C   UNL     1      -3.966  -0.194 -31.188  1.00  0.00     0.038 A 
HETATM   18  C   UNL     1      -3.669  -1.141 -32.163  1.00  0.00     0.015 A 
HETATM   19  C   UNL     1      -4.651  -1.607 -33.049  1.00  0.00    -0.025 A 
HETATM   20  C   UNL     1      -5.979  -1.109 -32.977  1.00  0.00    -0.012 A 
HETATM   21  C   UNL     1      -4.304  -2.573 -34.007  1.00  0.00     0.012 A 
HETATM   22  C   UNL     1      -6.917  -1.651 -33.897  1.00  0.00     0.013 A 
HETATM   23  C   UNL     1      -6.554  -2.616 -34.841  1.00  0.00     0.001 A 
HETATM   24  C   UNL     1      -5.247  -3.074 -34.898  1.00  0.00     0.001 A 
BRANCH  16  25
HETATM   25  O   UNL     1      -5.541   1.244 -30.131  1.00  0.00    -0.360 OA
HETATM   26  H   UNL     1      -6.196   1.874 -30.501  1.00  0.00     0.217 HD
ENDBRANCH  16  25
ENDBRANCH   3  15
TORSDOF 6
ENDMDL
MODEL 9
REMARK VINA RESULT:      -7.4      2.571      4.029
REMARK  6 active torsions:
REMARK  status: ('A' for Active; 'I' for Inactive)
REMARK    1  A    between atoms: C_5  and  C_6 
REMARK    2  A    between atoms: C_6  and  O_7 
REMARK    3  A    between atoms: C_6  and  C_8 
REMARK    4  A    between atoms: C_8  and  N_9 
REMARK    5  A    between atoms: C_11  and  C_12 
REMARK    6  A    between atoms: C_13  and  O_14 
ROOT
HETATM    1  N   UNL     1      -7.700  -0.635 -33.857  1.00  0.00    -0.395 N 
HETATM    2  H   UNL     1      -7.602  -0.873 -32.858  1.00  0.00     0.159 HD
HETATM    3  C   UNL     1      -6.854  -1.176 -34.661  1.00  0.00     0.098 C 
ENDROOT
BRANCH   1   4
HETATM    4  C   UNL     1      -8.811   0.275 -34.229  1.00  0.00     0.155 C 
BRANCH   4   5
HETATM    5  C   UNL     1      -9.023   1.337 -33.137  1.00  0.00     0.170 C 
BRANCH   5   6
HETATM    6  C   UNL     1      -7.749   2.029 -32.722  1.00  0.00    -0.011 A 
HETATM    7  C   UNL     1      -7.355   2.018 -31.387  1.00  0.00     0.126 A 
HETATM    8  N   UNL     1      -6.259   2.645 -30.915  1.00  0.00    -0.265 NA
HETATM    9  C   UNL     1      -5.468   3.291 -31.801  1.00  0.00     0.030 A 
HETATM   10  C   UNL     1      -4.218   3.931 -31.274  1.00  0.00     0.070 C 
HETATM   11  C   UNL     1      -5.767   3.345 -33.157  1.00  0.00     0.027 A 
HETATM   12  C   UNL     1      -6.924   2.718 -33.618  1.00  0.00     0.013 A 
ENDBRANCH   5   6
BRANCH   5  13
HETATM   13  O   UNL     1      -9.671   0.717 -32.023  1.00  0.00    -0.389 OA
HETATM   14  H   UNL     1      -9.835  -0.216 -32.270  1.00  0.00     0.210 HD
ENDBRANCH   5  13
ENDBRANCH   4   5
ENDBRANCH   1   4
BRANCH   3  15
HETATM   15  C   UNL     1      -5.755  -2.073 -34.221  1.00  0.00     0.023 A 
HETATM   16  C   UNL     1      -5.722  -3.412 -34.662  1.00  0.00     0.078 A 
HETATM   17  C   UNL     1      -4.737  -4.285 -34.219  1.00  0.00     0.038 A 
HETATM   18  C   UNL     1      -3.769  -3.827 -33.330  1.00  0.00     0.015 A 
HETATM   19  C   UNL     1      -3.761  -2.498 -32.884  1.00  0.00    -0.025 A 
HETATM   20  C   UNL     1      -4.756  -1.585 -33.326  1.00  0.00    -0.012 A 
HETATM   21  C   UNL     1      -2.756  -2.080 -31.997  1.00  0.00     0.012 A 
HETATM   22  C   UNL     1      -4.660  -0.251 -32.844  1.00  0.00     0.013 A 
HETATM   23  C   UNL     1      -3.649   0.147 -31.964  1.00  0.00     0.001 A 
HETATM   24  C   UNL     1      -2.700  -0.768 -31.539  1.00  0.00     0.001 A 
BRANCH  16  25
HETATM   25  O   UNL     1      -6.672  -3.873 -35.542  1.00  0.00    -0.360 OA
HETATM   26  H   UNL     1      -7.556  -3.683 -35.161  1.00  0.00     0.217 HD
ENDBRANCH  16  25
ENDBRANCH   3  15
TORSDOF 6
ENDMDL
MODEL 10
REMARK VINA RESULT:      -7.4      1.834      3.125
REMARK  6 active torsions:
REMARK  status: ('A' for Active; 'I' for Inactive)
REMARK    1  A    between atoms: C_5  and  C_6 
REMARK    2  A    between atoms: C_6  and  O_7 
REMARK    3  A    between atoms: C_6  and  C_8 
REMARK    4  A    between atoms: C_8  and  N_9 
REMARK    5  A    between atoms: C_11  and  C_12 
REMARK    6  A    between atoms: C_13  and  O_14 
ROOT
HETATM    1  N   UNL     1      -5.232   1.795 -32.678  1.00  0.00    -0.395 N 
HETATM    2  H   UNL     1      -6.130   1.833 -33.185  1.00  0.00     0.159 HD
HETATM    3  C   UNL     1      -4.571   0.694 -32.763  1.00  0.00     0.098 C 
ENDROOT
BRANCH   1   4
HETATM    4  C   UNL     1      -4.819   3.015 -31.942  1.00  0.00     0.155 C 
BRANCH   4   5
HETATM    5  C   UNL     1      -4.370   4.109 -32.925  1.00  0.00     0.170 C 
BRANCH   5   6
HETATM    6  C   UNL     1      -3.088   4.790 -32.516  1.00  0.00    -0.011 A 
HETATM    7  C   UNL     1      -2.253   4.193 -31.575  1.00  0.00     0.126 A 
HETATM    8  N   UNL     1      -1.113   4.745 -31.115  1.00  0.00    -0.265 NA
HETATM    9  C   UNL     1      -0.732   5.935 -31.632  1.00  0.00     0.030 A 
HETATM   10  C   UNL     1       0.570   6.509 -31.159  1.00  0.00     0.070 C 
HETATM   11  C   UNL     1      -1.489   6.602 -32.588  1.00  0.00     0.027 A 
HETATM   12  C   UNL     1      -2.682   6.029 -33.024  1.00  0.00     0.013 A 
ENDBRANCH   5   6
BRANCH   5  13
HETATM   13  O   UNL     1      -5.439   5.047 -33.076  1.00  0.00    -0.389 OA
HETATM   14  H   UNL     1      -6.272   4.534 -33.075  1.00  0.00     0.210 HD
ENDBRANCH   5  13
ENDBRANCH   4   5
ENDBRANCH   1   4
BRANCH   3  15
HETATM   15  C   UNL     1      -5.047  -0.497 -33.511  1.00  0.00     0.023 A 
HETATM   16  C   UNL     1      -6.082  -0.365 -34.459  1.00  0.00     0.078 A 
HETATM   17  C   UNL     1      -6.583  -1.473 -35.129  1.00  0.00     0.038 A 
HETATM   18  C   UNL     1      -6.050  -2.730 -34.860  1.00  0.00     0.015 A 
HETATM   19  C   UNL     1      -5.009  -2.898 -33.936  1.00  0.00    -0.025 A 
HETATM   20  C   UNL     1      -4.477  -1.778 -33.242  1.00  0.00    -0.012 A 
HETATM   21  C   UNL     1      -4.496  -4.185 -33.709  1.00  0.00     0.012 A 
HETATM   22  C   UNL     1      -3.407  -2.033 -32.341  1.00  0.00     0.013 A 
HETATM   23  C   UNL     1      -2.907  -3.321 -32.131  1.00  0.00     0.001 A 
HETATM   24  C   UNL     1      -3.454  -4.397 -32.813  1.00  0.00     0.001 A 
BRANCH  16  25
HETATM   25  O   UNL     1      -6.614   0.873 -34.733  1.00  0.00    -0.360 OA
HETATM   26  H   UNL     1      -6.628   1.389 -33.899  1.00  0.00     0.217 HD
ENDBRANCH  16  25
ENDBRANCH   3  15
TORSDOF 6
ENDMDL
