MODEL 1
REMARK VINA RESULT:      -8.2      0.000      0.000
REMARK  5 active torsions:
REMARK  status: ('A' for Active; 'I' for Inactive)
REMARK    1  A    between atoms: O_2  and  C_3 
REMARK    2  A    between atoms: C_5  and  C_15 
REMARK    3  A    between atoms: C_8  and  C_9 
REMARK       I    between atoms: C_15  and  N_17 
REMARK    4  A    between atoms: N_17  and  C_18 
REMARK    5  A    between atoms: C_18  and  C_19 
ROOT
HETATM    1  C   UNL     1      -5.168  -0.790 -33.125  1.00  0.00     0.080 A 
HETATM    2  C   UNL     1      -5.202   0.590 -32.870  1.00  0.00     0.054 A 
HETATM    3  C   UNL     1      -6.008   1.439 -33.642  1.00  0.00     0.034 A 
HETATM    4  C   UNL     1      -6.755   0.914 -34.698  1.00  0.00     0.018 A 
HETATM    5  C   UNL     1      -6.735  -0.458 -34.951  1.00  0.00     0.016 A 
HETATM    6  C   UNL     1      -5.961  -1.329 -34.164  1.00  0.00     0.010 A 
ENDROOT
BRANCH   3   7
HETATM    7  C   UNL     1      -6.088   2.901 -33.374  1.00  0.00     0.252 C 
HETATM    8  O   UNL     1      -6.679   3.320 -32.387  1.00  0.00    -0.268 OA
HETATM    9  N   UNL     1      -5.430   3.713 -34.272  1.00  0.00    -0.353 N 
HETATM   10  H   UNL     1      -4.730   3.290 -34.868  1.00  0.00     0.163 HD
BRANCH   9  11
HETATM   11  C   UNL     1      -5.286   5.130 -34.028  1.00  0.00     0.163 C 
BRANCH  11  12
HETATM   12  C   UNL     1      -3.988   5.430 -33.321  1.00  0.00    -0.019 A 
HETATM   13  C   UNL     1      -2.776   5.158 -33.980  1.00  0.00     0.012 A 
HETATM   14  C   UNL     1      -1.550   5.406 -33.359  1.00  0.00     0.020 A 
HETATM   15  C   UNL     1      -1.524   5.922 -32.066  1.00  0.00     0.012 A 
HETATM   16 BR   UNL     1       0.135   6.247 -31.221  1.00  0.00    -0.051 Br
HETATM   17  C   UNL     1      -2.709   6.194 -31.390  1.00  0.00     0.043 A 
HETATM   18  C   UNL     1      -3.935   5.950 -32.016  1.00  0.00     0.043 A 
HETATM   19 CL   UNL     1      -5.372   6.287 -31.116  1.00  0.00    -0.084 Cl
ENDBRANCH  11  12
ENDBRANCH   9  11
ENDBRANCH   3   7
BRANCH   1  20
HETATM   20  O   UNL     1      -4.428  -1.672 -32.379  1.00  0.00    -0.355 OA
HETATM   21  C   UNL     1      -3.128  -1.268 -31.967  1.00  0.00     0.210 C 
ENDBRANCH   1  20
BRANCH   6  22
HETATM   22  C   UNL     1      -5.985  -2.759 -34.458  1.00  0.00     0.013 A 
HETATM   23  C   UNL     1      -4.939  -3.694 -34.643  1.00  0.00     0.152 A 
HETATM   24  N   UNL     1      -5.384  -4.928 -34.899  1.00  0.00    -0.187 NA
HETATM   25  N   UNL     1      -6.717  -4.793 -34.862  1.00  0.00    -0.289 N 
HETATM   26  H   UNL     1      -7.288  -5.617 -35.019  1.00  0.00     0.188 HD
HETATM   27  C   UNL     1      -7.129  -3.517 -34.607  1.00  0.00     0.123 A 
ENDBRANCH   6  22
TORSDOF 5
ENDMDL
MODEL 2
REMARK VINA RESULT:      -7.8      5.674      7.878
REMARK  5 active torsions:
REMARK  status: ('A' for Active; 'I' for Inactive)
REMARK    1  A    between atoms: O_2  and  C_3 
REMARK    2  A    between atoms: C_5  and  C_15 
REMARK    3  A    between atoms: C_8  and  C_9 
REMARK       I    between atoms: C_15  and  N_17 
REMARK    4  A    between atoms: N_17  and  C_18 
REMARK    5  A    between atoms: C_18  and  C_19 
ROOT
HETATM    1  C   UNL     1     -11.586   3.112 -33.677  1.00  0.00     0.080 A 
HETATM    2  C   UNL     1     -10.189   3.247 -33.655  1.00  0.00     0.054 A 
HETATM    3  C   UNL     1      -9.365   2.121 -33.512  1.00  0.00     0.034 A 
HETATM    4  C   UNL     1      -9.939   0.859 -33.352  1.00  0.00     0.018 A 
HETATM    5  C   UNL     1     -11.326   0.716 -33.382  1.00  0.00     0.016 A 
HETATM    6  C   UNL     1     -12.167   1.829 -33.561  1.00  0.00     0.010 A 
ENDROOT
BRANCH   3   7
HETATM    7  C   UNL     1      -7.881   2.231 -33.517  1.00  0.00     0.252 C 
HETATM    8  O   UNL     1      -7.339   3.326 -33.603  1.00  0.00    -0.268 OA
HETATM    9  N   UNL     1      -7.190   1.046 -33.381  1.00  0.00    -0.353 N 
HETATM   10  H   UNL     1      -7.692   0.245 -33.019  1.00  0.00     0.163 HD
BRANCH   9  11
HETATM   11  C   UNL     1      -5.757   1.037 -33.198  1.00  0.00     0.163 C 
BRANCH  11  12
HETATM   12  C   UNL     1      -5.202  -0.359 -33.337  1.00  0.00    -0.019 A 
HETATM   13  C   UNL     1      -5.757  -1.219 -34.300  1.00  0.00     0.012 A 
HETATM   14  C   UNL     1      -5.285  -2.525 -34.454  1.00  0.00     0.020 A 
HETATM   15  C   UNL     1      -4.256  -2.986 -33.638  1.00  0.00     0.012 A 
HETATM   16 BR   UNL     1      -3.623  -4.756 -33.837  1.00  0.00    -0.051 Br
HETATM   17  C   UNL     1      -3.693  -2.156 -32.673  1.00  0.00     0.043 A 
HETATM   18  C   UNL     1      -4.164  -0.849 -32.524  1.00  0.00     0.043 A 
HETATM   19 CL   UNL     1      -3.441   0.125 -31.292  1.00  0.00    -0.084 Cl
ENDBRANCH  11  12
ENDBRANCH   9  11
ENDBRANCH   3   7
BRANCH   1  20
HETATM   20  O   UNL     1     -12.438   4.174 -33.852  1.00  0.00    -0.355 OA
HETATM   21  C   UNL     1     -12.075   5.421 -33.275  1.00  0.00     0.210 C 
ENDBRANCH   1  20
BRANCH   6  22
HETATM   22  C   UNL     1     -13.612   1.626 -33.603  1.00  0.00     0.013 A 
HETATM   23  C   UNL     1     -14.632   1.974 -32.687  1.00  0.00     0.152 A 
HETATM   24  N   UNL     1     -15.849   1.608 -33.099  1.00  0.00    -0.187 NA
HETATM   25  N   UNL     1     -15.616   1.038 -34.290  1.00  0.00    -0.289 N 
HETATM   26  H   UNL     1     -16.408   0.682 -34.816  1.00  0.00     0.188 HD
HETATM   27  C   UNL     1     -14.297   1.018 -34.637  1.00  0.00     0.123 A 
ENDBRANCH   6  22
TORSDOF 5
ENDMDL
MODEL 3
REMARK VINA RESULT:      -7.8      5.087      6.672
REMARK  5 active torsions:
REMARK  status: ('A' for Active; 'I' for Inactive)
REMARK    1  A    between atoms: O_2  and  C_3 
REMARK    2  A    between atoms: C_5  and  C_15 
REMARK    3  A    between atoms: C_8  and  C_9 
REMARK       I    between atoms: C_15  and  N_17 
REMARK    4  A    between atoms: N_17  and  C_18 
REMARK    5  A    between atoms: C_18  and  C_19 
ROOT
HETATM    1  C   UNL     1      -5.960  -0.854 -32.969  1.00  0.00     0.080 A 
HETATM    2  C   UNL     1      -6.727   0.320 -32.903  1.00  0.00     0.054 A 
HETATM    3  C   UNL     1      -7.598   0.662 -33.947  1.00  0.00     0.034 A 
HETATM    4  C   UNL     1      -7.677  -0.150 -35.079  1.00  0.00     0.018 A 
HETATM    5  C   UNL     1      -6.926  -1.324 -35.147  1.00  0.00     0.016 A 
HETATM    6  C   UNL     1      -6.074  -1.702 -34.094  1.00  0.00     0.010 A 
ENDROOT
BRANCH   3   7
HETATM    7  C   UNL     1      -8.446   1.885 -33.890  1.00  0.00     0.252 C 
HETATM    8  O   UNL     1      -8.094   2.855 -33.232  1.00  0.00    -0.268 OA
HETATM    9  N   UNL     1      -9.598   1.853 -34.645  1.00  0.00    -0.353 N 
HETATM   10  H   UNL     1      -9.664   1.158 -35.379  1.00  0.00     0.163 HD
BRANCH   9  11
HETATM   11  C   UNL     1     -10.414   3.034 -34.811  1.00  0.00     0.163 C 
BRANCH  11  12
HETATM   12  C   UNL     1     -11.752   2.869 -34.135  1.00  0.00    -0.019 A 
HETATM   13  C   UNL     1     -12.693   1.988 -34.695  1.00  0.00     0.012 A 
HETATM   14  C   UNL     1     -13.950   1.814 -34.111  1.00  0.00     0.020 A 
HETATM   15  C   UNL     1     -14.281   2.529 -32.963  1.00  0.00     0.012 A 
HETATM   16 BR   UNL     1     -15.986   2.303 -32.178  1.00  0.00    -0.051 Br
HETATM   17  C   UNL     1     -13.369   3.411 -32.392  1.00  0.00     0.043 A 
HETATM   18  C   UNL     1     -12.110   3.579 -32.976  1.00  0.00     0.043 A 
HETATM   19 CL   UNL     1     -11.030   4.707 -32.233  1.00  0.00    -0.084 Cl
ENDBRANCH  11  12
ENDBRANCH   9  11
ENDBRANCH   3   7
BRANCH   1  20
HETATM   20  O   UNL     1      -5.120  -1.257 -31.961  1.00  0.00    -0.355 OA
HETATM   21  C   UNL     1      -4.174  -0.318 -31.467  1.00  0.00     0.210 C 
ENDBRANCH   1  20
BRANCH   6  22
HETATM   22  C   UNL     1      -5.321  -2.948 -34.204  1.00  0.00     0.013 A 
HETATM   23  C   UNL     1      -3.970  -3.253 -33.918  1.00  0.00     0.152 A 
HETATM   24  N   UNL     1      -3.663  -4.531 -34.155  1.00  0.00    -0.187 NA
HETATM   25  N   UNL     1      -4.821  -5.056 -34.580  1.00  0.00    -0.289 N 
HETATM   26  H   UNL     1      -4.843  -6.043 -34.817  1.00  0.00     0.188 HD
HETATM   27  C   UNL     1      -5.843  -4.153 -34.632  1.00  0.00     0.123 A 
ENDBRANCH   6  22
TORSDOF 5
ENDMDL
MODEL 4
REMARK VINA RESULT:      -7.6      5.829      8.038
REMARK  5 active torsions:
REMARK  status: ('A' for Active; 'I' for Inactive)
REMARK    1  A    between atoms: O_2  and  C_3 
REMARK    2  A    between atoms: C_5  and  C_15 
REMARK    3  A    between atoms: C_8  and  C_9 
REMARK       I    between atoms: C_15  and  N_17 
REMARK    4  A    between atoms: N_17  and  C_18 
REMARK    5  A    between atoms: C_18  and  C_19 
ROOT
HETATM    1  C   UNL     1     -11.612   3.045 -33.760  1.00  0.00     0.080 A 
HETATM    2  C   UNL     1     -10.211   3.139 -33.764  1.00  0.00     0.054 A 
HETATM    3  C   UNL     1      -9.419   1.998 -33.569  1.00  0.00     0.034 A 
HETATM    4  C   UNL     1     -10.027   0.764 -33.332  1.00  0.00     0.018 A 
HETATM    5  C   UNL     1     -11.418   0.661 -33.337  1.00  0.00     0.016 A 
HETATM    6  C   UNL     1     -12.228   1.787 -33.567  1.00  0.00     0.010 A 
ENDROOT
BRANCH   3   7
HETATM    7  C   UNL     1      -7.932   2.063 -33.599  1.00  0.00     0.252 C 
HETATM    8  O   UNL     1      -7.362   3.095 -33.928  1.00  0.00    -0.268 OA
HETATM    9  N   UNL     1      -7.272   0.921 -33.201  1.00  0.00    -0.353 N 
HETATM   10  H   UNL     1      -7.793   0.235 -32.669  1.00  0.00     0.163 HD
BRANCH   9  11
HETATM   11  C   UNL     1      -5.839   0.913 -33.021  1.00  0.00     0.163 C 
BRANCH  11  12
HETATM   12  C   UNL     1      -5.279  -0.478 -33.191  1.00  0.00    -0.019 A 
HETATM   13  C   UNL     1      -4.250  -0.906 -32.334  1.00  0.00     0.012 A 
HETATM   14  C   UNL     1      -3.691  -2.180 -32.464  1.00  0.00     0.020 A 
HETATM   15  C   UNL     1      -4.152  -3.036 -33.460  1.00  0.00     0.012 A 
HETATM   16 BR   UNL     1      -3.389  -4.755 -33.643  1.00  0.00    -0.051 Br
HETATM   17  C   UNL     1      -5.166  -2.634 -34.324  1.00  0.00     0.043 A 
HETATM   18  C   UNL     1      -5.727  -1.361 -34.189  1.00  0.00     0.043 A 
HETATM   19 CL   UNL     1      -6.965  -0.911 -35.308  1.00  0.00    -0.084 Cl
ENDBRANCH  11  12
ENDBRANCH   9  11
ENDBRANCH   3   7
BRANCH   1  20
HETATM   20  O   UNL     1     -12.435   4.120 -33.983  1.00  0.00    -0.355 OA
HETATM   21  C   UNL     1     -12.568   4.592 -35.317  1.00  0.00     0.210 C 
ENDBRANCH   1  20
BRANCH   6  22
HETATM   22  C   UNL     1     -13.679   1.626 -33.578  1.00  0.00     0.013 A 
HETATM   23  C   UNL     1     -14.671   2.017 -32.650  1.00  0.00     0.152 A 
HETATM   24  N   UNL     1     -15.906   1.680 -33.034  1.00  0.00    -0.187 NA
HETATM   25  N   UNL     1     -15.712   1.085 -34.220  1.00  0.00    -0.289 N 
HETATM   26  H   UNL     1     -16.524   0.745 -34.725  1.00  0.00     0.188 HD
HETATM   27  C   UNL     1     -14.400   1.023 -34.590  1.00  0.00     0.123 A 
ENDBRANCH   6  22
TORSDOF 5
ENDMDL
MODEL 5
REMARK VINA RESULT:      -7.6     15.936     17.358
REMARK  5 active torsions:
REMARK  status: ('A' for Active; 'I' for Inactive)
REMARK    1  A    between atoms: O_2  and  C_3 
REMARK    2  A    between atoms: C_5  and  C_15 
REMARK    3  A    between atoms: C_8  and  C_9 
REMARK       I    between atoms: C_15  and  N_17 
REMARK    4  A    between atoms: N_17  and  C_18 
REMARK    5  A    between atoms: C_18  and  C_19 
ROOT
HETATM    1  C   UNL     1      -7.204 -13.059 -38.296  1.00  0.00     0.080 A 
HETATM    2  C   UNL     1      -5.846 -12.896 -37.979  1.00  0.00     0.054 A 
HETATM    3  C   UNL     1      -4.944 -12.407 -38.934  1.00  0.00     0.034 A 
HETATM    4  C   UNL     1      -5.390 -12.114 -40.223  1.00  0.00     0.018 A 
HETATM    5  C   UNL     1      -6.740 -12.263 -40.543  1.00  0.00     0.016 A 
HETATM    6  C   UNL     1      -7.666 -12.718 -39.587  1.00  0.00     0.010 A 
ENDROOT
BRANCH   3   7
HETATM    7  C   UNL     1      -3.505 -12.194 -38.616  1.00  0.00     0.252 C 
HETATM    8  O   UNL     1      -3.004 -11.081 -38.715  1.00  0.00    -0.268 OA
HETATM    9  N   UNL     1      -2.816 -13.304 -38.176  1.00  0.00    -0.353 N 
HETATM   10  H   UNL     1      -3.355 -14.091 -37.838  1.00  0.00     0.163 HD
BRANCH   9  11
HETATM   11  C   UNL     1      -1.467 -13.192 -37.673  1.00  0.00     0.163 C 
BRANCH  11  12
HETATM   12  C   UNL     1      -0.679 -14.448 -37.949  1.00  0.00    -0.019 A 
HETATM   13  C   UNL     1      -0.326 -15.280 -36.872  1.00  0.00     0.012 A 
HETATM   14  C   UNL     1       0.415 -16.446 -37.079  1.00  0.00     0.020 A 
HETATM   15  C   UNL     1       0.818 -16.787 -38.367  1.00  0.00     0.012 A 
HETATM   16 BR   UNL     1       1.831 -18.358 -38.646  1.00  0.00    -0.051 Br
HETATM   17  C   UNL     1       0.487 -15.978 -39.449  1.00  0.00     0.043 A 
HETATM   18  C   UNL     1      -0.259 -14.814 -39.240  1.00  0.00     0.043 A 
HETATM   19 CL   UNL     1      -0.620 -13.838 -40.621  1.00  0.00    -0.084 Cl
ENDBRANCH  11  12
ENDBRANCH   9  11
ENDBRANCH   3   7
BRANCH   1  20
HETATM   20  O   UNL     1      -8.137 -13.498 -37.390  1.00  0.00    -0.355 OA
HETATM   21  C   UNL     1      -7.736 -13.633 -36.033  1.00  0.00     0.210 C 
ENDBRANCH   1  20
BRANCH   6  22
HETATM   22  C   UNL     1      -9.071 -12.843 -39.965  1.00  0.00     0.013 A 
HETATM   23  C   UNL     1      -9.901 -13.978 -40.120  1.00  0.00     0.152 A 
HETATM   24  N   UNL     1     -11.149 -13.665 -40.482  1.00  0.00    -0.187 NA
HETATM   25  N   UNL     1     -11.128 -12.326 -40.545  1.00  0.00    -0.289 N 
HETATM   26  H   UNL     1     -11.985 -11.843 -40.795  1.00  0.00     0.188 HD
HETATM   27  C   UNL     1      -9.911 -11.784 -40.249  1.00  0.00     0.123 A 
ENDBRANCH   6  22
TORSDOF 5
ENDMDL
MODEL 6
REMARK VINA RESULT:      -7.5      1.911      2.915
REMARK  5 active torsions:
REMARK  status: ('A' for Active; 'I' for Inactive)
REMARK    1  A    between atoms: O_2  and  C_3 
REMARK    2  A    between atoms: C_5  and  C_15 
REMARK    3  A    between atoms: C_8  and  C_9 
REMARK       I    between atoms: C_15  and  N_17 
REMARK    4  A    between atoms: N_17  and  C_18 
REMARK    5  A    between atoms: C_18  and  C_19 
ROOT
HETATM    1  C   UNL     1      -5.582  -0.071 -33.395  1.00  0.00     0.080 A 
HETATM    2  C   UNL     1      -5.793   1.307 -33.234  1.00  0.00     0.054 A 
HETATM    3  C   UNL     1      -4.788   2.124 -32.695  1.00  0.00     0.034 A 
HETATM    4  C   UNL     1      -3.582   1.558 -32.281  1.00  0.00     0.018 A 
HETATM    5  C   UNL     1      -3.361   0.190 -32.447  1.00  0.00     0.016 A 
HETATM    6  C   UNL     1      -4.344  -0.638 -33.018  1.00  0.00     0.010 A 
ENDROOT
BRANCH   3   7
HETATM    7  C   UNL     1      -4.972   3.594 -32.542  1.00  0.00     0.252 C 
HETATM    8  O   UNL     1      -5.824   4.038 -31.783  1.00  0.00    -0.268 OA
HETATM    9  N   UNL     1      -4.109   4.386 -33.267  1.00  0.00    -0.353 N 
HETATM   10  H   UNL     1      -3.262   3.961 -33.622  1.00  0.00     0.163 HD
BRANCH   9  11
HETATM   11  C   UNL     1      -4.071   5.818 -33.073  1.00  0.00     0.163 C 
BRANCH  11  12
HETATM   12  C   UNL     1      -2.947   6.209 -32.146  1.00  0.00    -0.019 A 
HETATM   13  C   UNL     1      -3.231   6.424 -30.786  1.00  0.00     0.012 A 
HETATM   14  C   UNL     1      -2.225   6.802 -29.894  1.00  0.00     0.020 A 
HETATM   15  C   UNL     1      -0.924   6.977 -30.357  1.00  0.00     0.012 A 
HETATM   16 BR   UNL     1       0.436   7.499 -29.153  1.00  0.00    -0.051 Br
HETATM   17  C   UNL     1      -0.618   6.776 -31.699  1.00  0.00     0.043 A 
HETATM   18  C   UNL     1      -1.626   6.393 -32.589  1.00  0.00     0.043 A 
HETATM   19 CL   UNL     1      -1.188   6.181 -34.248  1.00  0.00    -0.084 Cl
ENDBRANCH  11  12
ENDBRANCH   9  11
ENDBRANCH   3   7
BRANCH   1  20
HETATM   20  O   UNL     1      -6.515  -0.911 -33.950  1.00  0.00    -0.355 OA
HETATM   21  C   UNL     1      -7.277  -0.428 -35.048  1.00  0.00     0.210 C 
ENDBRANCH   1  20
BRANCH   6  22
HETATM   22  C   UNL     1      -4.059  -2.061 -33.186  1.00  0.00     0.013 A 
HETATM   23  C   UNL     1      -4.337  -2.951 -34.250  1.00  0.00     0.152 A 
HETATM   24  N   UNL     1      -3.906  -4.194 -34.015  1.00  0.00    -0.187 NA
HETATM   25  N   UNL     1      -3.335  -4.101 -32.806  1.00  0.00    -0.289 N 
HETATM   26  H   UNL     1      -2.914  -4.935 -32.408  1.00  0.00     0.188 HD
HETATM   27  C   UNL     1      -3.402  -2.851 -32.265  1.00  0.00     0.123 A 
ENDBRANCH   6  22
TORSDOF 5
ENDMDL
MODEL 7
REMARK VINA RESULT:      -7.5     15.872     18.118
REMARK  5 active torsions:
REMARK  status: ('A' for Active; 'I' for Inactive)
REMARK    1  A    between atoms: O_2  and  C_3 
REMARK    2  A    between atoms: C_5  and  C_15 
REMARK    3  A    between atoms: C_8  and  C_9 
REMARK       I    between atoms: C_15  and  N_17 
REMARK    4  A    between atoms: N_17  and  C_18 
REMARK    5  A    between atoms: C_18  and  C_19 
ROOT
HETATM    1  C   UNL     1      -2.214 -14.815 -39.247  1.00  0.00     0.080 A 
HETATM    2  C   UNL     1      -3.484 -14.254 -39.459  1.00  0.00     0.054 A 
HETATM    3  C   UNL     1      -3.844 -13.049 -38.839  1.00  0.00     0.034 A 
HETATM    4  C   UNL     1      -2.949 -12.420 -37.974  1.00  0.00     0.018 A 
HETATM    5  C   UNL     1      -1.681 -12.965 -37.766  1.00  0.00     0.016 A 
HETATM    6  C   UNL     1      -1.289 -14.154 -38.408  1.00  0.00     0.010 A 
ENDROOT
BRANCH   3   7
HETATM    7  C   UNL     1      -5.172 -12.416 -39.071  1.00  0.00     0.252 C 
HETATM    8  O   UNL     1      -5.360 -11.710 -40.053  1.00  0.00    -0.268 OA
HETATM    9  N   UNL     1      -6.148 -12.711 -38.145  1.00  0.00    -0.353 N 
HETATM   10  H   UNL     1      -6.008 -13.520 -37.552  1.00  0.00     0.163 HD
BRANCH   9  11
HETATM   11  C   UNL     1      -7.519 -12.302 -38.351  1.00  0.00     0.163 C 
BRANCH  11  12
HETATM   12  C   UNL     1      -8.356 -13.447 -38.865  1.00  0.00    -0.019 A 
HETATM   13  C   UNL     1      -8.055 -14.753 -38.440  1.00  0.00     0.012 A 
HETATM   14  C   UNL     1      -8.794 -15.845 -38.901  1.00  0.00     0.020 A 
HETATM   15  C   UNL     1      -9.838 -15.641 -39.799  1.00  0.00     0.012 A 
HETATM   16 BR   UNL     1     -10.832 -17.119 -40.432  1.00  0.00    -0.051 Br
HETATM   17  C   UNL     1     -10.152 -14.359 -40.238  1.00  0.00     0.043 A 
HETATM   18  C   UNL     1      -9.414 -13.267 -39.772  1.00  0.00     0.043 A 
HETATM   19 CL   UNL     1      -9.838 -11.702 -40.373  1.00  0.00    -0.084 Cl
ENDBRANCH  11  12
ENDBRANCH   9  11
ENDBRANCH   3   7
BRANCH   1  20
HETATM   20  O   UNL     1      -1.795 -15.971 -39.857  1.00  0.00    -0.355 OA
HETATM   21  C   UNL     1      -1.531 -15.929 -41.253  1.00  0.00     0.210 C 
ENDBRANCH   1  20
BRANCH   6  22
HETATM   22  C   UNL     1       0.053 -14.676 -38.171  1.00  0.00     0.013 A 
HETATM   23  C   UNL     1       1.284 -14.423 -38.821  1.00  0.00     0.152 A 
HETATM   24  N   UNL     1       2.302 -15.110 -38.295  1.00  0.00    -0.187 NA
HETATM   25  N   UNL     1       1.731 -15.795 -37.294  1.00  0.00    -0.289 N 
HETATM   26  H   UNL     1       2.319 -16.396 -36.725  1.00  0.00     0.188 HD
HETATM   27  C   UNL     1       0.389 -15.576 -37.179  1.00  0.00     0.123 A 
ENDBRANCH   6  22
TORSDOF 5
ENDMDL
MODEL 8
REMARK VINA RESULT:      -7.4      5.780      8.481
REMARK  5 active torsions:
REMARK  status: ('A' for Active; 'I' for Inactive)
REMARK    1  A    between atoms: O_2  and  C_3 
REMARK    2  A    between atoms: C_5  and  C_15 
REMARK    3  A    between atoms: C_8  and  C_9 
REMARK       I    between atoms: C_15  and  N_17 
REMARK    4  A    between atoms: N_17  and  C_18 
REMARK    5  A    between atoms: C_18  and  C_19 
ROOT
HETATM    1  C   UNL     1     -11.240   2.640 -33.192  1.00  0.00     0.080 A 
HETATM    2  C   UNL     1      -9.904   2.226 -33.083  1.00  0.00     0.054 A 
HETATM    3  C   UNL     1      -9.100   2.682 -32.028  1.00  0.00     0.034 A 
HETATM    4  C   UNL     1      -9.620   3.585 -31.100  1.00  0.00     0.018 A 
HETATM    5  C   UNL     1     -10.951   3.993 -31.196  1.00  0.00     0.016 A 
HETATM    6  C   UNL     1     -11.782   3.517 -32.226  1.00  0.00     0.010 A 
ENDROOT
BRANCH   3   7
HETATM    7  C   UNL     1      -7.688   2.236 -31.870  1.00  0.00     0.252 C 
HETATM    8  O   UNL     1      -7.182   2.161 -30.757  1.00  0.00    -0.268 OA
HETATM    9  N   UNL     1      -7.034   1.886 -33.031  1.00  0.00    -0.353 N 
HETATM   10  H   UNL     1      -7.597   1.687 -33.849  1.00  0.00     0.163 HD
BRANCH   9  11
HETATM   11  C   UNL     1      -5.726   1.274 -32.993  1.00  0.00     0.163 C 
BRANCH  11  12
HETATM   12  C   UNL     1      -5.767  -0.129 -33.545  1.00  0.00    -0.019 A 
HETATM   13  C   UNL     1      -6.988  -0.637 -34.020  1.00  0.00     0.012 A 
HETATM   14  C   UNL     1      -7.077  -1.937 -34.525  1.00  0.00     0.020 A 
HETATM   15  C   UNL     1      -5.943  -2.744 -34.553  1.00  0.00     0.012 A 
HETATM   16 BR   UNL     1      -6.064  -4.506 -35.227  1.00  0.00    -0.051 Br
HETATM   17  C   UNL     1      -4.723  -2.266 -34.084  1.00  0.00     0.043 A 
HETATM   18  C   UNL     1      -4.636  -0.964 -33.583  1.00  0.00     0.043 A 
HETATM   19 CL   UNL     1      -3.099  -0.437 -32.993  1.00  0.00    -0.084 Cl
ENDBRANCH  11  12
ENDBRANCH   9  11
ENDBRANCH   3   7
BRANCH   1  20
HETATM   20  O   UNL     1     -12.083   2.197 -34.181  1.00  0.00    -0.355 OA
HETATM   21  C   UNL     1     -12.618   0.885 -34.061  1.00  0.00     0.210 C 
ENDBRANCH   1  20
BRANCH   6  22
HETATM   22  C   UNL     1     -13.173   3.961 -32.275  1.00  0.00     0.013 A 
HETATM   23  C   UNL     1     -14.319   3.523 -31.571  1.00  0.00     0.152 A 
HETATM   24  N   UNL     1     -15.424   4.197 -31.906  1.00  0.00    -0.187 NA
HETATM   25  N   UNL     1     -14.987   5.080 -32.815  1.00  0.00    -0.289 N 
HETATM   26  H   UNL     1     -15.657   5.727 -33.218  1.00  0.00     0.188 HD
HETATM   27  C   UNL     1     -13.651   4.980 -33.075  1.00  0.00     0.123 A 
ENDBRANCH   6  22
TORSDOF 5
ENDMDL
MODEL 9
REMARK VINA RESULT:      -7.4      3.934      4.958
REMARK  5 active torsions:
REMARK  status: ('A' for Active; 'I' for Inactive)
REMARK    1  A    between atoms: O_2  and  C_3 
REMARK    2  A    between atoms: C_5  and  C_15 
REMARK    3  A    between atoms: C_8  and  C_9 
REMARK       I    between atoms: C_15  and  N_17 
REMARK    4  A    between atoms: N_17  and  C_18 
REMARK    5  A    between atoms: C_18  and  C_19 
ROOT
HETATM    1  C   UNL     1      -5.286  -0.821 -33.226  1.00  0.00     0.080 A 
HETATM    2  C   UNL     1      -5.429   0.560 -33.018  1.00  0.00     0.054 A 
HETATM    3  C   UNL     1      -6.270   1.323 -33.841  1.00  0.00     0.034 A 
HETATM    4  C   UNL     1      -6.942   0.713 -34.901  1.00  0.00     0.018 A 
HETATM    5  C   UNL     1      -6.813  -0.661 -35.108  1.00  0.00     0.016 A 
HETATM    6  C   UNL     1      -6.003  -1.448 -34.270  1.00  0.00     0.010 A 
ENDROOT
BRANCH   3   7
HETATM    7  C   UNL     1      -6.465   2.783 -33.623  1.00  0.00     0.252 C 
HETATM    8  O   UNL     1      -5.925   3.598 -34.360  1.00  0.00    -0.268 OA
HETATM    9  N   UNL     1      -7.305   3.129 -32.588  1.00  0.00    -0.353 N 
HETATM   10  H   UNL     1      -7.934   2.420 -32.232  1.00  0.00     0.163 HD
BRANCH   9  11
HETATM   11  C   UNL     1      -7.711   4.501 -32.385  1.00  0.00     0.163 C 
BRANCH  11  12
HETATM   12  C   UNL     1      -9.034   4.780 -33.054  1.00  0.00    -0.019 A 
HETATM   13  C   UNL     1      -9.038   5.346 -34.341  1.00  0.00     0.012 A 
HETATM   14  C   UNL     1     -10.240   5.634 -34.993  1.00  0.00     0.020 A 
HETATM   15  C   UNL     1     -11.450   5.366 -34.360  1.00  0.00     0.012 A 
HETATM   16 BR   UNL     1     -13.075   5.767 -35.237  1.00  0.00    -0.051 Br
HETATM   17  C   UNL     1     -11.472   4.811 -33.084  1.00  0.00     0.043 A 
HETATM   18  C   UNL     1     -10.269   4.519 -32.435  1.00  0.00     0.043 A 
HETATM   19 CL   UNL     1     -10.362   3.853 -30.843  1.00  0.00    -0.084 Cl
ENDBRANCH  11  12
ENDBRANCH   9  11
ENDBRANCH   3   7
BRANCH   1  20
HETATM   20  O   UNL     1      -4.508  -1.622 -32.429  1.00  0.00    -0.355 OA
HETATM   21  C   UNL     1      -3.177  -1.201 -32.159  1.00  0.00     0.210 C 
ENDBRANCH   1  20
BRANCH   6  22
HETATM   22  C   UNL     1      -5.913  -2.884 -34.518  1.00  0.00     0.013 A 
HETATM   23  C   UNL     1      -4.809  -3.768 -34.506  1.00  0.00     0.152 A 
HETATM   24  N   UNL     1      -5.148  -5.030 -34.788  1.00  0.00    -0.187 NA
HETATM   25  N   UNL     1      -6.475  -4.962 -34.966  1.00  0.00    -0.289 N 
HETATM   26  H   UNL     1      -6.975  -5.819 -35.184  1.00  0.00     0.188 HD
HETATM   27  C   UNL     1      -6.982  -3.704 -34.820  1.00  0.00     0.123 A 
ENDBRANCH   6  22
TORSDOF 5
ENDMDL
MODEL 10
REMARK VINA RESULT:      -7.3      4.172      8.807
REMARK  5 active torsions:
REMARK  status: ('A' for Active; 'I' for Inactive)
REMARK    1  A    between atoms: O_2  and  C_3 
REMARK    2  A    between atoms: C_5  and  C_15 
REMARK    3  A    between atoms: C_8  and  C_9 
REMARK       I    between atoms: C_15  and  N_17 
REMARK    4  A    between atoms: N_17  and  C_18 
REMARK    5  A    between atoms: C_18  and  C_19 
ROOT
HETATM    1  C   UNL     1      -3.238   6.688 -31.770  1.00  0.00     0.080 A 
HETATM    2  C   UNL     1      -4.236   6.040 -32.515  1.00  0.00     0.054 A 
HETATM    3  C   UNL     1      -4.219   4.647 -32.671  1.00  0.00     0.034 A 
HETATM    4  C   UNL     1      -3.181   3.900 -32.113  1.00  0.00     0.018 A 
HETATM    5  C   UNL     1      -2.191   4.535 -31.362  1.00  0.00     0.016 A 
HETATM    6  C   UNL     1      -2.212   5.927 -31.165  1.00  0.00     0.010 A 
ENDROOT
BRANCH   3   7
HETATM    7  C   UNL     1      -5.281   3.931 -33.429  1.00  0.00     0.252 C 
HETATM    8  O   UNL     1      -5.865   4.483 -34.353  1.00  0.00    -0.268 OA
HETATM    9  N   UNL     1      -5.518   2.628 -33.047  1.00  0.00    -0.353 N 
HETATM   10  H   UNL     1      -4.807   2.160 -32.499  1.00  0.00     0.163 HD
BRANCH   9  11
HETATM   11  C   UNL     1      -6.397   1.775 -33.814  1.00  0.00     0.163 C 
BRANCH  11  12
HETATM   12  C   UNL     1      -5.871   0.362 -33.866  1.00  0.00    -0.019 A 
HETATM   13  C   UNL     1      -4.682   0.053 -33.183  1.00  0.00     0.012 A 
HETATM   14  C   UNL     1      -4.150  -1.238 -33.216  1.00  0.00     0.020 A 
HETATM   15  C   UNL     1      -4.802  -2.233 -33.939  1.00  0.00     0.012 A 
HETATM   16 BR   UNL     1      -4.077  -3.979 -33.993  1.00  0.00    -0.051 Br
HETATM   17  C   UNL     1      -5.978  -1.952 -34.627  1.00  0.00     0.043 A 
HETATM   18  C   UNL     1      -6.510  -0.660 -34.590  1.00  0.00     0.043 A 
HETATM   19 CL   UNL     1      -7.960  -0.368 -35.484  1.00  0.00    -0.084 Cl
ENDBRANCH  11  12
ENDBRANCH   9  11
ENDBRANCH   3   7
BRANCH   1  20
HETATM   20  O   UNL     1      -3.225   8.043 -31.553  1.00  0.00    -0.355 OA
HETATM   21  C   UNL     1      -4.381   8.636 -30.975  1.00  0.00     0.210 C 
ENDBRANCH   1  20
BRANCH   6  22
HETATM   22  C   UNL     1      -1.163   6.544 -30.358  1.00  0.00     0.013 A 
HETATM   23  C   UNL     1      -1.144   6.956 -29.005  1.00  0.00     0.152 A 
HETATM   24  N   UNL     1       0.028   7.483 -28.638  1.00  0.00    -0.187 NA
HETATM   25  N   UNL     1       0.771   7.396 -29.751  1.00  0.00    -0.289 N 
HETATM   26  H   UNL     1       1.729   7.731 -29.717  1.00  0.00     0.188 HD
HETATM   27  C   UNL     1       0.108   6.846 -30.808  1.00  0.00     0.123 A 
ENDBRANCH   6  22
TORSDOF 5
ENDMDL
