MODEL 1
REMARK VINA RESULT:      -8.8      0.000      0.000
REMARK  4 active torsions:
REMARK  status: ('A' for Active; 'I' for Inactive)
REMARK    1  A    between atoms: O_2  and  C_3 
REMARK    2  A    between atoms: C_6  and  C_7 
REMARK    3  A    between atoms: C_12  and  N_13 
REMARK    4  A    between atoms: C_15  and  C_16 
ROOT
HETATM    1  C   UNL     1      -4.847   0.669 -31.795  1.00  0.00     0.135 C 
HETATM    2  N   UNL     1      -6.102   1.395 -31.637  1.00  0.00    -0.214 N 
HETATM    3  C   UNL     1      -6.064   2.587 -31.005  1.00  0.00     0.736 A 
HETATM    4  N   UNL     1      -4.904   3.313 -30.924  1.00  0.00    -0.074 N 
HETATM    5  N   UNL     1      -5.066   4.401 -30.150  1.00  0.00     0.037 NA
HETATM    6  C   UNL     1      -6.362   4.313 -29.865  1.00  0.00     0.753 A 
HETATM    7  N   UNL     1      -7.012   3.229 -30.375  1.00  0.00     0.131 NA
HETATM    8  C   UNL     1      -3.609   2.838 -31.401  1.00  0.00     0.164 C 
HETATM    9  C   UNL     1      -3.772   1.625 -32.337  1.00  0.00     0.063 C 
HETATM   10  H   UNL     1      -6.915   0.816 -31.436  1.00  0.00     0.178 HD
ENDROOT
BRANCH   1  11
HETATM   11  C   UNL     1      -5.038  -0.514 -32.726  1.00  0.00    -0.035 A 
HETATM   12  C   UNL     1      -6.230  -0.698 -33.442  1.00  0.00     0.012 A 
HETATM   13  C   UNL     1      -6.366  -1.765 -34.332  1.00  0.00     0.037 A 
HETATM   14  C   UNL     1      -5.318  -2.665 -34.533  1.00  0.00     0.068 A 
HETATM   15  C   UNL     1      -4.135  -2.500 -33.815  1.00  0.00     0.037 A 
HETATM   16  C   UNL     1      -3.995  -1.432 -32.920  1.00  0.00     0.012 A 
BRANCH  14  17
HETATM   17  O   UNL     1      -5.577  -3.652 -35.443  1.00  0.00    -0.356 OA
HETATM   18  C   UNL     1      -6.692  -4.492 -35.175  1.00  0.00     0.210 C 
ENDBRANCH  14  17
ENDBRANCH   1  11
BRANCH   8  19
HETATM   19  C   UNL     1      -2.798   3.930 -32.085  1.00  0.00    -0.031 A 
HETATM   20  C   UNL     1      -1.782   4.593 -31.375  1.00  0.00     0.028 A 
HETATM   21  C   UNL     1      -1.010   5.573 -32.001  1.00  0.00     0.011 A 
HETATM   22 BR   UNL     1       0.353   6.452 -31.031  1.00  0.00    -0.051 Br
HETATM   23  C   UNL     1      -1.231   5.905 -33.336  1.00  0.00     0.019 A 
HETATM   24  C   UNL     1      -2.234   5.254 -34.051  1.00  0.00     0.002 A 
HETATM   25  C   UNL     1      -3.011   4.273 -33.431  1.00  0.00     0.009 A 
ENDBRANCH   8  19
BRANCH   6  26
HETATM   26  N   UNL     1      -7.054   5.190 -29.142  1.00  0.00    -0.229 N 
HETATM   27  H   UNL     1      -6.556   6.013 -28.832  1.00  0.00     0.174 HD
HETATM   28  H   UNL     1      -8.010   5.353 -29.426  1.00  0.00     0.174 HD
ENDBRANCH   6  26
TORSDOF 4
ENDMDL
MODEL 2
REMARK VINA RESULT:      -8.7      4.751      6.447
REMARK  4 active torsions:
REMARK  status: ('A' for Active; 'I' for Inactive)
REMARK    1  A    between atoms: O_2  and  C_3 
REMARK    2  A    between atoms: C_6  and  C_7 
REMARK    3  A    between atoms: C_12  and  N_13 
REMARK    4  A    between atoms: C_15  and  C_16 
ROOT
HETATM    1  C   UNL     1      -6.790   0.754 -33.656  1.00  0.00     0.135 C 
HETATM    2  N   UNL     1      -6.931   0.952 -32.218  1.00  0.00    -0.214 N 
HETATM    3  C   UNL     1      -7.613   2.037 -31.795  1.00  0.00     0.736 A 
HETATM    4  N   UNL     1      -8.518   2.669 -32.608  1.00  0.00    -0.074 N 
HETATM    5  N   UNL     1      -8.986   3.791 -32.031  1.00  0.00     0.037 NA
HETATM    6  C   UNL     1      -8.385   3.732 -30.846  1.00  0.00     0.753 A 
HETATM    7  N   UNL     1      -7.547   2.674 -30.656  1.00  0.00     0.131 NA
HETATM    8  C   UNL     1      -8.751   2.312 -34.004  1.00  0.00     0.164 C 
HETATM    9  C   UNL     1      -8.161   0.926 -34.328  1.00  0.00     0.063 C 
HETATM   10  H   UNL     1      -6.113   0.703 -31.664  1.00  0.00     0.178 HD
ENDROOT
BRANCH   1  11
HETATM   11  C   UNL     1      -6.214  -0.619 -33.943  1.00  0.00    -0.035 A 
HETATM   12  C   UNL     1      -4.898  -0.952 -33.590  1.00  0.00     0.012 A 
HETATM   13  C   UNL     1      -4.405  -2.238 -33.817  1.00  0.00     0.037 A 
HETATM   14  C   UNL     1      -5.211  -3.220 -34.393  1.00  0.00     0.068 A 
HETATM   15  C   UNL     1      -6.516  -2.897 -34.762  1.00  0.00     0.037 A 
HETATM   16  C   UNL     1      -7.014  -1.607 -34.537  1.00  0.00     0.012 A 
BRANCH  14  17
HETATM   17  O   UNL     1      -4.611  -4.439 -34.544  1.00  0.00    -0.356 OA
HETATM   18  C   UNL     1      -3.510  -4.720 -33.689  1.00  0.00     0.210 C 
ENDBRANCH  14  17
ENDBRANCH   1  11
BRANCH   8  19
HETATM   19  C   UNL     1     -10.223   2.365 -34.386  1.00  0.00    -0.031 A 
HETATM   20  C   UNL     1     -11.086   1.329 -33.989  1.00  0.00     0.028 A 
HETATM   21  C   UNL     1     -12.444   1.384 -34.304  1.00  0.00     0.011 A 
HETATM   22 BR   UNL     1     -13.588  -0.019 -33.760  1.00  0.00    -0.051 Br
HETATM   23  C   UNL     1     -12.966   2.464 -35.012  1.00  0.00     0.019 A 
HETATM   24  C   UNL     1     -12.122   3.499 -35.409  1.00  0.00     0.002 A 
HETATM   25  C   UNL     1     -10.761   3.452 -35.098  1.00  0.00     0.009 A 
ENDBRANCH   8  19
BRANCH   6  26
HETATM   26  N   UNL     1      -8.545   4.606 -29.856  1.00  0.00    -0.229 N 
HETATM   27  H   UNL     1      -9.392   5.157 -29.873  1.00  0.00     0.174 HD
HETATM   28  H   UNL     1      -8.251   4.305 -28.938  1.00  0.00     0.174 HD
ENDBRANCH   6  26
TORSDOF 4
ENDMDL
MODEL 3
REMARK VINA RESULT:      -8.6      1.787      1.788
REMARK  4 active torsions:
REMARK  status: ('A' for Active; 'I' for Inactive)
REMARK    1  A    between atoms: O_2  and  C_3 
REMARK    2  A    between atoms: C_6  and  C_7 
REMARK    3  A    between atoms: C_12  and  N_13 
REMARK    4  A    between atoms: C_15  and  C_16 
ROOT
HETATM    1  C   UNL     1      -5.714   1.281 -32.790  1.00  0.00     0.135 C 
HETATM    2  N   UNL     1      -6.597   2.073 -33.639  1.00  0.00    -0.214 N 
HETATM    3  C   UNL     1      -6.651   3.403 -33.423  1.00  0.00     0.736 A 
HETATM    4  N   UNL     1      -5.629   4.064 -32.791  1.00  0.00    -0.074 N 
HETATM    5  N   UNL     1      -5.947   5.353 -32.574  1.00  0.00     0.037 NA
HETATM    6  C   UNL     1      -7.134   5.421 -33.169  1.00  0.00     0.753 A 
HETATM    7  N   UNL     1      -7.597   4.258 -33.709  1.00  0.00     0.131 NA
HETATM    8  C   UNL     1      -4.466   3.401 -32.209  1.00  0.00     0.164 C 
HETATM    9  C   UNL     1      -4.334   1.955 -32.724  1.00  0.00     0.063 C 
HETATM   10  H   UNL     1      -7.483   1.628 -33.877  1.00  0.00     0.178 HD
ENDROOT
BRANCH   1  11
HETATM   11  C   UNL     1      -5.600  -0.134 -33.325  1.00  0.00    -0.035 A 
HETATM   12  C   UNL     1      -6.581  -0.682 -34.165  1.00  0.00     0.012 A 
HETATM   13  C   UNL     1      -6.431  -1.967 -34.689  1.00  0.00     0.037 A 
HETATM   14  C   UNL     1      -5.300  -2.730 -34.393  1.00  0.00     0.068 A 
HETATM   15  C   UNL     1      -4.327  -2.202 -33.548  1.00  0.00     0.037 A 
HETATM   16  C   UNL     1      -4.474  -0.913 -33.019  1.00  0.00     0.012 A 
BRANCH  14  17
HETATM   17  O   UNL     1      -5.270  -3.963 -34.983  1.00  0.00    -0.356 OA
HETATM   18  C   UNL     1      -6.526  -4.546 -35.310  1.00  0.00     0.210 C 
ENDBRANCH  14  17
ENDBRANCH   1  11
BRANCH   8  19
HETATM   19  C   UNL     1      -3.173   4.169 -32.447  1.00  0.00    -0.031 A 
HETATM   20  C   UNL     1      -2.317   4.447 -31.367  1.00  0.00     0.028 A 
HETATM   21  C   UNL     1      -1.113   5.120 -31.578  1.00  0.00     0.011 A 
HETATM   22 BR   UNL     1       0.025   5.482 -30.113  1.00  0.00    -0.051 Br
HETATM   23  C   UNL     1      -0.740   5.523 -32.858  1.00  0.00     0.019 A 
HETATM   24  C   UNL     1      -1.579   5.252 -33.937  1.00  0.00     0.002 A 
HETATM   25  C   UNL     1      -2.785   4.579 -33.735  1.00  0.00     0.009 A 
ENDBRANCH   8  19
BRANCH   6  26
HETATM   26  N   UNL     1      -7.880   6.517 -33.279  1.00  0.00    -0.229 N 
HETATM   27  H   UNL     1      -7.778   7.049 -34.133  1.00  0.00     0.174 HD
HETATM   28  H   UNL     1      -8.824   6.457 -32.925  1.00  0.00     0.174 HD
ENDBRANCH   6  26
TORSDOF 4
ENDMDL
MODEL 4
REMARK VINA RESULT:      -8.1      4.498      6.172
REMARK  4 active torsions:
REMARK  status: ('A' for Active; 'I' for Inactive)
REMARK    1  A    between atoms: O_2  and  C_3 
REMARK    2  A    between atoms: C_6  and  C_7 
REMARK    3  A    between atoms: C_12  and  N_13 
REMARK    4  A    between atoms: C_15  and  C_16 
ROOT
HETATM    1  C   UNL     1      -6.775   0.911 -33.500  1.00  0.00     0.135 C 
HETATM    2  N   UNL     1      -6.944   1.136 -32.069  1.00  0.00    -0.214 N 
HETATM    3  C   UNL     1      -7.623   2.234 -31.680  1.00  0.00     0.736 A 
HETATM    4  N   UNL     1      -8.505   2.861 -32.522  1.00  0.00    -0.074 N 
HETATM    5  N   UNL     1      -8.972   3.998 -31.975  1.00  0.00     0.037 NA
HETATM    6  C   UNL     1      -8.397   3.954 -30.776  1.00  0.00     0.753 A 
HETATM    7  N   UNL     1      -7.575   2.890 -30.550  1.00  0.00     0.131 NA
HETATM    8  C   UNL     1      -8.711   2.482 -33.916  1.00  0.00     0.164 C 
HETATM    9  C   UNL     1      -8.130   1.085 -34.204  1.00  0.00     0.063 C 
HETATM   10  H   UNL     1      -6.140   0.887 -31.493  1.00  0.00     0.178 HD
ENDROOT
BRANCH   1  11
HETATM   11  C   UNL     1      -6.208  -0.473 -33.752  1.00  0.00    -0.035 A 
HETATM   12  C   UNL     1      -6.926  -1.440 -34.471  1.00  0.00     0.012 A 
HETATM   13  C   UNL     1      -6.365  -2.690 -34.736  1.00  0.00     0.037 A 
HETATM   14  C   UNL     1      -5.077  -3.002 -34.297  1.00  0.00     0.068 A 
HETATM   15  C   UNL     1      -4.361  -2.055 -33.568  1.00  0.00     0.037 A 
HETATM   16  C   UNL     1      -4.920  -0.799 -33.299  1.00  0.00     0.012 A 
BRANCH  14  17
HETATM   17  O   UNL     1      -4.642  -4.252 -34.638  1.00  0.00    -0.356 OA
HETATM   18  C   UNL     1      -3.503  -4.744 -33.944  1.00  0.00     0.210 C 
ENDBRANCH  14  17
ENDBRANCH   1  11
BRANCH   8  19
HETATM   19  C   UNL     1     -10.175   2.544 -34.330  1.00  0.00    -0.031 A 
HETATM   20  C   UNL     1     -10.739   3.770 -34.722  1.00  0.00     0.028 A 
HETATM   21  C   UNL     1     -12.070   3.833 -35.136  1.00  0.00     0.011 A 
HETATM   22 BR   UNL     1     -12.809   5.491 -35.662  1.00  0.00    -0.051 Br
HETATM   23  C   UNL     1     -12.857   2.684 -35.171  1.00  0.00     0.019 A 
HETATM   24  C   UNL     1     -12.310   1.462 -34.786  1.00  0.00     0.002 A 
HETATM   25  C   UNL     1     -10.979   1.391 -34.370  1.00  0.00     0.009 A 
ENDBRANCH   8  19
BRANCH   6  26
HETATM   26  N   UNL     1      -8.568   4.846 -29.805  1.00  0.00    -0.229 N 
HETATM   27  H   UNL     1      -8.907   5.756 -30.083  1.00  0.00     0.174 HD
HETATM   28  H   UNL     1      -8.946   4.498 -28.935  1.00  0.00     0.174 HD
ENDBRANCH   6  26
TORSDOF 4
ENDMDL
MODEL 5
REMARK VINA RESULT:      -8.0      4.095      7.487
REMARK  4 active torsions:
REMARK  status: ('A' for Active; 'I' for Inactive)
REMARK    1  A    between atoms: O_2  and  C_3 
REMARK    2  A    between atoms: C_6  and  C_7 
REMARK    3  A    between atoms: C_12  and  N_13 
REMARK    4  A    between atoms: C_15  and  C_16 
ROOT
HETATM    1  C   UNL     1      -5.563   2.739 -32.802  1.00  0.00     0.135 C 
HETATM    2  N   UNL     1      -6.716   2.531 -31.934  1.00  0.00    -0.214 N 
HETATM    3  C   UNL     1      -7.592   1.562 -32.273  1.00  0.00     0.736 A 
HETATM    4  N   UNL     1      -7.224   0.523 -33.088  1.00  0.00    -0.074 N 
HETATM    5  N   UNL     1      -8.281  -0.253 -33.391  1.00  0.00     0.037 NA
HETATM    6  C   UNL     1      -9.232   0.326 -32.665  1.00  0.00     0.753 A 
HETATM    7  N   UNL     1      -8.854   1.429 -31.959  1.00  0.00     0.131 NA
HETATM    8  C   UNL     1      -5.922   0.419 -33.740  1.00  0.00     0.164 C 
HETATM    9  C   UNL     1      -4.903   1.384 -33.104  1.00  0.00     0.063 C 
HETATM   10  H   UNL     1      -7.126   3.379 -31.547  1.00  0.00     0.178 HD
ENDROOT
BRANCH   1  11
HETATM   11  C   UNL     1      -4.576   3.687 -32.147  1.00  0.00    -0.035 A 
HETATM   12  C   UNL     1      -3.193   3.551 -32.336  1.00  0.00     0.012 A 
HETATM   13  C   UNL     1      -2.305   4.465 -31.765  1.00  0.00     0.037 A 
HETATM   14  C   UNL     1      -2.775   5.535 -31.003  1.00  0.00     0.068 A 
HETATM   15  C   UNL     1      -4.146   5.671 -30.796  1.00  0.00     0.037 A 
HETATM   16  C   UNL     1      -5.041   4.756 -31.366  1.00  0.00     0.012 A 
BRANCH  14  17
HETATM   17  O   UNL     1      -1.802   6.364 -30.517  1.00  0.00    -0.356 OA
HETATM   18  C   UNL     1      -0.564   5.759 -30.166  1.00  0.00     0.210 C 
ENDBRANCH  14  17
ENDBRANCH   1  11
BRANCH   8  19
HETATM   19  C   UNL     1      -5.378  -1.003 -33.740  1.00  0.00    -0.031 A 
HETATM   20  C   UNL     1      -6.014  -1.994 -34.508  1.00  0.00     0.028 A 
HETATM   21  C   UNL     1      -5.504  -3.293 -34.542  1.00  0.00     0.011 A 
HETATM   22 BR   UNL     1      -6.372  -4.611 -35.582  1.00  0.00    -0.051 Br
HETATM   23  C   UNL     1      -4.359  -3.625 -33.822  1.00  0.00     0.019 A 
HETATM   24  C   UNL     1      -3.719  -2.652 -33.059  1.00  0.00     0.002 A 
HETATM   25  C   UNL     1      -4.222  -1.350 -33.019  1.00  0.00     0.009 A 
ENDBRANCH   8  19
BRANCH   6  26
HETATM   26  N   UNL     1     -10.493  -0.089 -32.573  1.00  0.00    -0.229 N 
HETATM   27  H   UNL     1     -11.094   0.429 -31.948  1.00  0.00     0.174 HD
HETATM   28  H   UNL     1     -10.931  -0.391 -33.432  1.00  0.00     0.174 HD
ENDBRANCH   6  26
TORSDOF 4
ENDMDL
MODEL 6
REMARK VINA RESULT:      -8.0      2.338      2.573
REMARK  4 active torsions:
REMARK  status: ('A' for Active; 'I' for Inactive)
REMARK    1  A    between atoms: O_2  and  C_3 
REMARK    2  A    between atoms: C_6  and  C_7 
REMARK    3  A    between atoms: C_12  and  N_13 
REMARK    4  A    between atoms: C_15  and  C_16 
ROOT
HETATM    1  C   UNL     1      -6.536   1.406 -32.898  1.00  0.00     0.135 C 
HETATM    2  N   UNL     1      -7.312   2.165 -33.873  1.00  0.00    -0.214 N 
HETATM    3  C   UNL     1      -7.509   3.478 -33.635  1.00  0.00     0.736 A 
HETATM    4  N   UNL     1      -6.674   4.186 -32.810  1.00  0.00    -0.074 N 
HETATM    5  N   UNL     1      -7.127   5.438 -32.620  1.00  0.00     0.037 NA
HETATM    6  C   UNL     1      -8.189   5.444 -33.420  1.00  0.00     0.753 A 
HETATM    7  N   UNL     1      -8.453   4.273 -34.067  1.00  0.00     0.131 NA
HETATM    8  C   UNL     1      -5.586   3.588 -32.043  1.00  0.00     0.164 C 
HETATM    9  C   UNL     1      -5.249   2.177 -32.563  1.00  0.00     0.063 C 
HETATM   10  H   UNL     1      -8.102   1.667 -34.280  1.00  0.00     0.178 HD
ENDROOT
BRANCH   1  11
HETATM   11  C   UNL     1      -6.214   0.027 -33.441  1.00  0.00    -0.035 A 
HETATM   12  C   UNL     1      -7.162  -0.717 -34.159  1.00  0.00     0.012 A 
HETATM   13  C   UNL     1      -6.829  -1.963 -34.695  1.00  0.00     0.037 A 
HETATM   14  C   UNL     1      -5.547  -2.490 -34.533  1.00  0.00     0.068 A 
HETATM   15  C   UNL     1      -4.603  -1.766 -33.807  1.00  0.00     0.037 A 
HETATM   16  C   UNL     1      -4.933  -0.517 -33.267  1.00  0.00     0.012 A 
BRANCH  14  17
HETATM   17  O   UNL     1      -5.350  -3.708 -35.120  1.00  0.00    -0.356 OA
HETATM   18  C   UNL     1      -6.497  -4.533 -35.284  1.00  0.00     0.210 C 
ENDBRANCH  14  17
ENDBRANCH   1  11
BRANCH   8  19
HETATM   19  C   UNL     1      -4.337   4.457 -32.020  1.00  0.00    -0.031 A 
HETATM   20  C   UNL     1      -3.525   4.544 -33.164  1.00  0.00     0.028 A 
HETATM   21  C   UNL     1      -2.396   5.364 -33.166  1.00  0.00     0.011 A 
HETATM   22 BR   UNL     1      -1.318   5.468 -34.715  1.00  0.00    -0.051 Br
HETATM   23  C   UNL     1      -2.059   6.111 -32.039  1.00  0.00     0.019 A 
HETATM   24  C   UNL     1      -2.857   6.035 -30.899  1.00  0.00     0.002 A 
HETATM   25  C   UNL     1      -3.988   5.217 -30.889  1.00  0.00     0.009 A 
ENDBRANCH   8  19
BRANCH   6  26
HETATM   26  N   UNL     1      -8.988   6.485 -33.635  1.00  0.00    -0.229 N 
HETATM   27  H   UNL     1      -9.151   6.738 -34.600  1.00  0.00     0.174 HD
HETATM   28  H   UNL     1      -9.794   6.567 -33.032  1.00  0.00     0.174 HD
ENDBRANCH   6  26
TORSDOF 4
ENDMDL
MODEL 7
REMARK VINA RESULT:      -8.0      3.902      7.381
REMARK  4 active torsions:
REMARK  status: ('A' for Active; 'I' for Inactive)
REMARK    1  A    between atoms: O_2  and  C_3 
REMARK    2  A    between atoms: C_6  and  C_7 
REMARK    3  A    between atoms: C_12  and  N_13 
REMARK    4  A    between atoms: C_15  and  C_16 
ROOT
HETATM    1  C   UNL     1      -4.318   3.988 -31.952  1.00  0.00     0.135 C 
HETATM    2  N   UNL     1      -5.342   3.919 -30.916  1.00  0.00    -0.214 N 
HETATM    3  C   UNL     1      -6.338   3.022 -31.074  1.00  0.00     0.736 A 
HETATM    4  N   UNL     1      -6.186   1.925 -31.881  1.00  0.00    -0.074 N 
HETATM    5  N   UNL     1      -7.339   1.239 -31.988  1.00  0.00     0.037 NA
HETATM    6  C   UNL     1      -8.118   1.929 -31.160  1.00  0.00     0.753 A 
HETATM    7  N   UNL     1      -7.545   3.018 -30.573  1.00  0.00     0.131 NA
HETATM    8  C   UNL     1      -5.010   1.678 -32.710  1.00  0.00     0.164 C 
HETATM    9  C   UNL     1      -3.829   2.568 -32.278  1.00  0.00     0.063 C 
HETATM   10  H   UNL     1      -5.615   4.815 -30.515  1.00  0.00     0.178 HD
ENDROOT
BRANCH   1  11
HETATM   11  C   UNL     1      -3.167   4.865 -31.496  1.00  0.00    -0.035 A 
HETATM   12  C   UNL     1      -3.378   5.982 -30.673  1.00  0.00     0.012 A 
HETATM   13  C   UNL     1      -2.299   6.745 -30.223  1.00  0.00     0.037 A 
HETATM   14  C   UNL     1      -0.991   6.410 -30.575  1.00  0.00     0.068 A 
HETATM   15  C   UNL     1      -0.772   5.312 -31.405  1.00  0.00     0.037 A 
HETATM   16  C   UNL     1      -1.851   4.544 -31.860  1.00  0.00     0.012 A 
BRANCH  14  17
HETATM   17  O   UNL     1      -0.029   7.230 -30.053  1.00  0.00    -0.356 OA
HETATM   18  C   UNL     1      -0.405   8.029 -28.939  1.00  0.00     0.210 C 
ENDBRANCH  14  17
ENDBRANCH   1  11
BRANCH   8  19
HETATM   19  C   UNL     1      -4.596   0.213 -32.718  1.00  0.00    -0.031 A 
HETATM   20  C   UNL     1      -5.138  -0.661 -33.676  1.00  0.00     0.028 A 
HETATM   21  C   UNL     1      -4.740  -1.998 -33.715  1.00  0.00     0.011 A 
HETATM   22 BR   UNL     1      -5.480  -3.157 -35.013  1.00  0.00    -0.051 Br
HETATM   23  C   UNL     1      -3.799  -2.485 -32.811  1.00  0.00     0.019 A 
HETATM   24  C   UNL     1      -3.253  -1.629 -31.858  1.00  0.00     0.002 A 
HETATM   25  C   UNL     1      -3.646  -0.289 -31.812  1.00  0.00     0.009 A 
ENDBRANCH   8  19
BRANCH   6  26
HETATM   26  N   UNL     1      -9.381   1.635 -30.865  1.00  0.00    -0.229 N 
HETATM   27  H   UNL     1     -10.007   2.417 -30.731  1.00  0.00     0.174 HD
HETATM   28  H   UNL     1      -9.785   0.845 -31.348  1.00  0.00     0.174 HD
ENDBRANCH   6  26
TORSDOF 4
ENDMDL
MODEL 8
REMARK VINA RESULT:      -7.8     15.820     17.321
REMARK  4 active torsions:
REMARK  status: ('A' for Active; 'I' for Inactive)
REMARK    1  A    between atoms: O_2  and  C_3 
REMARK    2  A    between atoms: C_6  and  C_7 
REMARK    3  A    between atoms: C_12  and  N_13 
REMARK    4  A    between atoms: C_15  and  C_16 
ROOT
HETATM    1  C   UNL     1      -7.511 -14.733 -37.452  1.00  0.00     0.135 C 
HETATM    2  N   UNL     1      -7.777 -13.826 -36.341  1.00  0.00    -0.214 N 
HETATM    3  C   UNL     1      -6.807 -13.661 -35.417  1.00  0.00     0.736 A 
HETATM    4  N   UNL     1      -5.495 -13.931 -35.707  1.00  0.00    -0.074 N 
HETATM    5  N   UNL     1      -4.723 -13.816 -34.612  1.00  0.00     0.037 NA
HETATM    6  C   UNL     1      -5.616 -13.397 -33.720  1.00  0.00     0.753 A 
HETATM    7  N   UNL     1      -6.897 -13.279 -34.171  1.00  0.00     0.131 NA
HETATM    8  C   UNL     1      -5.040 -14.509 -36.968  1.00  0.00     0.164 C 
HETATM    9  C   UNL     1      -6.132 -14.412 -38.050  1.00  0.00     0.063 C 
HETATM   10  H   UNL     1      -8.729 -13.850 -35.980  1.00  0.00     0.178 HD
ENDROOT
BRANCH   1  11
HETATM   11  C   UNL     1      -8.599 -14.610 -38.502  1.00  0.00    -0.035 A 
HETATM   12  C   UNL     1      -9.034 -15.721 -39.241  1.00  0.00     0.012 A 
HETATM   13  C   UNL     1     -10.071 -15.596 -40.166  1.00  0.00     0.037 A 
HETATM   14  C   UNL     1     -10.702 -14.368 -40.370  1.00  0.00     0.068 A 
HETATM   15  C   UNL     1     -10.267 -13.255 -39.654  1.00  0.00     0.037 A 
HETATM   16  C   UNL     1      -9.225 -13.375 -38.725  1.00  0.00     0.012 A 
BRANCH  14  17
HETATM   17  O   UNL     1     -11.712 -14.388 -41.291  1.00  0.00    -0.356 OA
HETATM   18  C   UNL     1     -11.896 -15.600 -42.012  1.00  0.00     0.210 C 
ENDBRANCH  14  17
ENDBRANCH   1  11
BRANCH   8  19
HETATM   19  C   UNL     1      -3.743 -13.886 -37.466  1.00  0.00    -0.031 A 
HETATM   20  C   UNL     1      -2.565 -14.651 -37.489  1.00  0.00     0.028 A 
HETATM   21  C   UNL     1      -1.377 -14.101 -37.974  1.00  0.00     0.011 A 
HETATM   22 BR   UNL     1       0.197 -15.147 -37.999  1.00  0.00    -0.051 Br
HETATM   23  C   UNL     1      -1.343 -12.791 -38.446  1.00  0.00     0.019 A 
HETATM   24  C   UNL     1      -2.505 -12.023 -38.430  1.00  0.00     0.002 A 
HETATM   25  C   UNL     1      -3.697 -12.566 -37.946  1.00  0.00     0.009 A 
ENDBRANCH   8  19
BRANCH   6  26
HETATM   26  N   UNL     1      -5.354 -13.086 -32.453  1.00  0.00    -0.229 N 
HETATM   27  H   UNL     1      -4.388 -13.148 -32.163  1.00  0.00     0.174 HD
HETATM   28  H   UNL     1      -5.865 -12.305 -32.066  1.00  0.00     0.174 HD
ENDBRANCH   6  26
TORSDOF 4
ENDMDL
MODEL 9
REMARK VINA RESULT:      -7.6      4.499      6.545
REMARK  4 active torsions:
REMARK  status: ('A' for Active; 'I' for Inactive)
REMARK    1  A    between atoms: O_2  and  C_3 
REMARK    2  A    between atoms: C_6  and  C_7 
REMARK    3  A    between atoms: C_12  and  N_13 
REMARK    4  A    between atoms: C_15  and  C_16 
ROOT
HETATM    1  C   UNL     1      -7.714   2.232 -32.157  1.00  0.00     0.135 C 
HETATM    2  N   UNL     1      -6.948   3.134 -33.009  1.00  0.00    -0.214 N 
HETATM    3  C   UNL     1      -5.603   3.108 -32.906  1.00  0.00     0.736 A 
HETATM    4  N   UNL     1      -4.949   2.013 -32.403  1.00  0.00    -0.074 N 
HETATM    5  N   UNL     1      -3.632   2.252 -32.277  1.00  0.00     0.037 NA
HETATM    6  C   UNL     1      -3.548   3.474 -32.794  1.00  0.00     0.753 A 
HETATM    7  N   UNL     1      -4.725   4.029 -33.200  1.00  0.00     0.131 NA
HETATM    8  C   UNL     1      -5.623   0.845 -31.846  1.00  0.00     0.164 C 
HETATM    9  C   UNL     1      -7.112   0.820 -32.242  1.00  0.00     0.063 C 
HETATM   10  H   UNL     1      -7.362   4.055 -33.148  1.00  0.00     0.178 HD
ENDROOT
BRANCH   1  11
HETATM   11  C   UNL     1      -9.172   2.224 -32.575  1.00  0.00    -0.035 A 
HETATM   12  C   UNL     1     -10.025   3.298 -32.279  1.00  0.00     0.012 A 
HETATM   13  C   UNL     1     -11.350   3.294 -32.718  1.00  0.00     0.037 A 
HETATM   14  C   UNL     1     -11.852   2.227 -33.465  1.00  0.00     0.068 A 
HETATM   15  C   UNL     1     -11.017   1.148 -33.751  1.00  0.00     0.037 A 
HETATM   16  C   UNL     1      -9.687   1.147 -33.312  1.00  0.00     0.012 A 
BRANCH  14  17
HETATM   17  O   UNL     1     -13.158   2.357 -33.845  1.00  0.00    -0.356 OA
HETATM   18  C   UNL     1     -14.111   1.574 -33.137  1.00  0.00     0.210 C 
ENDBRANCH  14  17
ENDBRANCH   1  11
BRANCH   8  19
HETATM   19  C   UNL     1      -4.949  -0.464 -32.235  1.00  0.00    -0.031 A 
HETATM   20  C   UNL     1      -5.464  -1.225 -33.298  1.00  0.00     0.028 A 
HETATM   21  C   UNL     1      -4.834  -2.409 -33.686  1.00  0.00     0.011 A 
HETATM   22 BR   UNL     1      -5.541  -3.418 -35.120  1.00  0.00    -0.051 Br
HETATM   23  C   UNL     1      -3.687  -2.850 -33.031  1.00  0.00     0.019 A 
HETATM   24  C   UNL     1      -3.166  -2.104 -31.976  1.00  0.00     0.002 A 
HETATM   25  C   UNL     1      -3.790  -0.918 -31.582  1.00  0.00     0.009 A 
ENDBRANCH   8  19
BRANCH   6  26
HETATM   26  N   UNL     1      -2.426   4.172 -32.948  1.00  0.00    -0.229 N 
HETATM   27  H   UNL     1      -2.249   4.545 -33.870  1.00  0.00     0.174 HD
HETATM   28  H   UNL     1      -2.167   4.781 -32.185  1.00  0.00     0.174 HD
ENDBRANCH   6  26
TORSDOF 4
ENDMDL
MODEL 10
REMARK VINA RESULT:      -7.6     16.110     17.741
REMARK  4 active torsions:
REMARK  status: ('A' for Active; 'I' for Inactive)
REMARK    1  A    between atoms: O_2  and  C_3 
REMARK    2  A    between atoms: C_6  and  C_7 
REMARK    3  A    between atoms: C_12  and  N_13 
REMARK    4  A    between atoms: C_15  and  C_16 
ROOT
HETATM    1  C   UNL     1      -7.582 -12.801 -38.547  1.00  0.00     0.135 C 
HETATM    2  N   UNL     1      -6.417 -12.791 -39.425  1.00  0.00    -0.214 N 
HETATM    3  C   UNL     1      -5.201 -12.650 -38.856  1.00  0.00     0.736 A 
HETATM    4  N   UNL     1      -4.992 -12.964 -37.538  1.00  0.00    -0.074 N 
HETATM    5  N   UNL     1      -3.746 -12.632 -37.153  1.00  0.00     0.037 NA
HETATM    6  C   UNL     1      -3.236 -12.200 -38.303  1.00  0.00     0.753 A 
HETATM    7  N   UNL     1      -4.085 -12.204 -39.369  1.00  0.00     0.131 NA
HETATM    8  C   UNL     1      -6.050 -13.366 -36.617  1.00  0.00     0.164 C 
HETATM    9  C   UNL     1      -7.328 -13.767 -37.379  1.00  0.00     0.063 C 
HETATM   10  H   UNL     1      -6.547 -12.307 -40.312  1.00  0.00     0.178 HD
ENDROOT
BRANCH   1  11
HETATM   11  C   UNL     1      -8.821 -13.205 -39.324  1.00  0.00    -0.035 A 
HETATM   12  C   UNL     1      -9.096 -14.549 -39.617  1.00  0.00     0.012 A 
HETATM   13  C   UNL     1     -10.268 -14.904 -40.288  1.00  0.00     0.037 A 
HETATM   14  C   UNL     1     -11.192 -13.932 -40.674  1.00  0.00     0.068 A 
HETATM   15  C   UNL     1     -10.921 -12.592 -40.401  1.00  0.00     0.037 A 
HETATM   16  C   UNL     1      -9.746 -12.232 -39.729  1.00  0.00     0.012 A 
BRANCH  14  17
HETATM   17  O   UNL     1     -12.302 -14.416 -41.307  1.00  0.00    -0.356 OA
HETATM   18  C   UNL     1     -12.148 -15.630 -42.030  1.00  0.00     0.210 C 
ENDBRANCH  14  17
ENDBRANCH   1  11
BRANCH   8  19
HETATM   19  C   UNL     1      -5.618 -14.484 -35.679  1.00  0.00    -0.031 A 
HETATM   20  C   UNL     1      -5.617 -14.269 -34.290  1.00  0.00     0.028 A 
HETATM   21  C   UNL     1      -5.255 -15.298 -33.418  1.00  0.00     0.011 A 
HETATM   22 BR   UNL     1      -5.261 -14.989 -31.553  1.00  0.00    -0.051 Br
HETATM   23  C   UNL     1      -4.896 -16.551 -33.909  1.00  0.00     0.019 A 
HETATM   24  C   UNL     1      -4.895 -16.777 -35.284  1.00  0.00     0.002 A 
HETATM   25  C   UNL     1      -5.256 -15.753 -36.163  1.00  0.00     0.009 A 
ENDBRANCH   8  19
BRANCH   6  26
HETATM   26  N   UNL     1      -1.986 -11.783 -38.484  1.00  0.00    -0.229 N 
HETATM   27  H   UNL     1      -1.386 -12.381 -39.035  1.00  0.00     0.174 HD
HETATM   28  H   UNL     1      -1.860 -10.793 -38.640  1.00  0.00     0.174 HD
ENDBRANCH   6  26
TORSDOF 4
ENDMDL
