MODEL 1
REMARK VINA RESULT:      -9.4      0.000      0.000
REMARK  10 active torsions:
REMARK  status: ('A' for Active; 'I' for Inactive)
REMARK    1  A    between atoms: C_2  and  C_3 
REMARK    2  A    between atoms: C_3  and  C_4 
REMARK    3  A    between atoms: C_4  and  O_5 
REMARK    4  A    between atoms: O_5  and  C_6 
REMARK    5  A    between atoms: C_9  and  C_10 
REMARK       I    between atoms: C_10  and  N_11 
REMARK    6  A    between atoms: N_11  and  C_12 
REMARK    7  A    between atoms: C_12  and  N_13 
REMARK    8  A    between atoms: N_13  and  C_14 
REMARK    9  A    between atoms: C_16  and  C_17 
REMARK   10  A    between atoms: C_27  and  O_28 
ROOT
HETATM    1  N   UNL     1      -2.145   4.449 -31.860  1.00  0.00    -0.333 N 
HETATM    2  H   UNL     1      -1.295   3.980 -32.163  1.00  0.00     0.168 HD
ENDROOT
BRANCH   1   3
HETATM    3  C   UNL     1      -1.888   5.709 -31.395  1.00  0.00     0.179 C 
HETATM    4  S   UNL     1      -2.259   6.982 -32.419  1.00  0.00    -0.040 SA
BRANCH   3   5
HETATM    5  N   UNL     1      -1.439   5.829 -30.107  1.00  0.00    -0.299 N 
HETATM    6  C   UNL     1      -0.144   5.578 -29.683  1.00  0.00     0.257 C 
HETATM    7  O   UNL     1       0.489   4.562 -29.946  1.00  0.00    -0.267 OA
HETATM    8  H   UNL     1      -1.979   6.489 -29.563  1.00  0.00     0.171 HD
BRANCH   6   9
HETATM    9  C   UNL     1       0.382   6.517 -28.670  1.00  0.00     0.032 A 
HETATM   10  C   UNL     1       0.940   7.725 -29.095  1.00  0.00     0.020 A 
HETATM   11  C   UNL     1       1.412   8.646 -28.155  1.00  0.00     0.038 A 
HETATM   12  C   UNL     1       1.307   8.370 -26.790  1.00  0.00     0.068 A 
HETATM   13  C   UNL     1       0.725   7.167 -26.372  1.00  0.00     0.038 A 
HETATM   14  C   UNL     1       0.268   6.233 -27.307  1.00  0.00     0.020 A 
BRANCH  12  15
HETATM   15  O   UNL     1       1.704   9.197 -25.775  1.00  0.00    -0.351 OA
BRANCH  15  16
HETATM   16  C   UNL     1       2.319   8.575 -24.646  1.00  0.00     0.175 C 
BRANCH  16  17
HETATM   17  C   UNL     1       3.531   9.411 -24.243  1.00  0.00     0.026 C 
BRANCH  17  18
HETATM   18  C   UNL     1       4.414   8.666 -23.244  1.00  0.00    -0.002 C 
HETATM   19  C   UNL     1       3.625   8.216 -22.025  1.00  0.00     0.005 C 
ENDBRANCH  17  18
ENDBRANCH  16  17
ENDBRANCH  15  16
ENDBRANCH  12  15
ENDBRANCH   6   9
ENDBRANCH   3   5
ENDBRANCH   1   3
BRANCH   1  20
HETATM   20  C   UNL     1      -3.281   3.615 -31.762  1.00  0.00     0.035 A 
HETATM   21  C   UNL     1      -3.356   2.295 -32.225  1.00  0.00     0.048 A 
HETATM   22  C   UNL     1      -4.564   1.571 -32.160  1.00  0.00     0.052 A 
HETATM   23  C   UNL     1      -5.703   2.210 -31.646  1.00  0.00     0.080 A 
HETATM   24  C   UNL     1      -5.639   3.515 -31.174  1.00  0.00     0.040 A 
HETATM   25  C   UNL     1      -4.433   4.211 -31.230  1.00  0.00     0.032 A 
BRANCH  22  26
HETATM   26  C   UNL     1      -4.652   0.190 -32.622  1.00  0.00     0.183 A 
HETATM   27  O   UNL     1      -5.759  -0.166 -33.350  1.00  0.00    -0.289 OA
HETATM   28  C   UNL     1      -5.503  -1.455 -33.723  1.00  0.00     0.107 A 
HETATM   29  C   UNL     1      -4.276  -1.815 -33.191  1.00  0.00     0.093 A 
HETATM   30  C   UNL     1      -6.297  -2.282 -34.509  1.00  0.00     0.046 A 
HETATM   31  N   UNL     1      -3.735  -0.757 -32.506  1.00  0.00    -0.221 NA
HETATM   32  C   UNL     1      -3.784  -3.103 -33.426  1.00  0.00     0.035 A 
HETATM   33  C   UNL     1      -4.555  -3.971 -34.216  1.00  0.00     0.009 A 
HETATM   34  C   UNL     1      -5.790  -3.570 -34.759  1.00  0.00    -0.059 A 
HETATM   35  C   UNL     1      -6.552  -4.530 -35.630  1.00  0.00     0.048 C 
ENDBRANCH  22  26
BRANCH  23  36
HETATM   36  O   UNL     1      -6.934   1.609 -31.581  1.00  0.00    -0.360 OA
HETATM   37  H   UNL     1      -7.558   2.219 -31.131  1.00  0.00     0.217 HD
ENDBRANCH  23  36
ENDBRANCH   1  20
TORSDOF 10
ENDMDL
MODEL 2
REMARK VINA RESULT:      -9.1      6.971     11.228
REMARK  10 active torsions:
REMARK  status: ('A' for Active; 'I' for Inactive)
REMARK    1  A    between atoms: C_2  and  C_3 
REMARK    2  A    between atoms: C_3  and  C_4 
REMARK    3  A    between atoms: C_4  and  O_5 
REMARK    4  A    between atoms: O_5  and  C_6 
REMARK    5  A    between atoms: C_9  and  C_10 
REMARK       I    between atoms: C_10  and  N_11 
REMARK    6  A    between atoms: N_11  and  C_12 
REMARK    7  A    between atoms: C_12  and  N_13 
REMARK    8  A    between atoms: N_13  and  C_14 
REMARK    9  A    between atoms: C_16  and  C_17 
REMARK   10  A    between atoms: C_27  and  O_28 
ROOT
HETATM    1  N   UNL     1      -7.683   5.554 -32.559  1.00  0.00    -0.333 N 
HETATM    2  H   UNL     1      -6.945   6.054 -33.047  1.00  0.00     0.168 HD
ENDROOT
BRANCH   1   3
HETATM    3  C   UNL     1      -8.844   6.276 -32.526  1.00  0.00     0.179 C 
HETATM    4  S   UNL     1      -8.773   7.786 -31.802  1.00  0.00    -0.040 SA
BRANCH   3   5
HETATM    5  N   UNL     1      -9.935   5.751 -33.164  1.00  0.00    -0.299 N 
HETATM    6  C   UNL     1      -9.928   5.184 -34.429  1.00  0.00     0.257 C 
HETATM    7  O   UNL     1      -9.437   5.707 -35.423  1.00  0.00    -0.267 OA
HETATM    8  H   UNL     1     -10.649   5.430 -32.523  1.00  0.00     0.171 HD
BRANCH   6   9
HETATM    9  C   UNL     1     -10.772   3.980 -34.586  1.00  0.00     0.032 A 
HETATM   10  C   UNL     1     -10.693   2.971 -33.624  1.00  0.00     0.020 A 
HETATM   11  C   UNL     1     -11.507   1.839 -33.730  1.00  0.00     0.038 A 
HETATM   12  C   UNL     1     -12.415   1.725 -34.785  1.00  0.00     0.068 A 
HETATM   13  C   UNL     1     -12.503   2.753 -35.732  1.00  0.00     0.038 A 
HETATM   14  C   UNL     1     -11.680   3.879 -35.643  1.00  0.00     0.020 A 
BRANCH  12  15
HETATM   15  O   UNL     1     -13.282   0.685 -34.986  1.00  0.00    -0.351 OA
BRANCH  15  16
HETATM   16  C   UNL     1     -14.045   0.262 -33.855  1.00  0.00     0.175 C 
BRANCH  16  17
HETATM   17  C   UNL     1     -15.263   1.173 -33.735  1.00  0.00     0.026 C 
BRANCH  17  18
HETATM   18  C   UNL     1     -15.263   1.929 -32.408  1.00  0.00    -0.002 C 
HETATM   19  C   UNL     1     -16.624   2.536 -32.108  1.00  0.00     0.005 C 
ENDBRANCH  17  18
ENDBRANCH  16  17
ENDBRANCH  15  16
ENDBRANCH  12  15
ENDBRANCH   6   9
ENDBRANCH   3   5
ENDBRANCH   1   3
BRANCH   1  20
HETATM   20  C   UNL     1      -7.258   4.409 -31.851  1.00  0.00     0.035 A 
HETATM   21  C   UNL     1      -6.905   3.184 -32.432  1.00  0.00     0.048 A 
HETATM   22  C   UNL     1      -6.576   2.070 -31.633  1.00  0.00     0.052 A 
HETATM   23  C   UNL     1      -6.638   2.202 -30.237  1.00  0.00     0.080 A 
HETATM   24  C   UNL     1      -6.977   3.413 -29.648  1.00  0.00     0.040 A 
HETATM   25  C   UNL     1      -7.283   4.510 -30.453  1.00  0.00     0.032 A 
BRANCH  22  26
HETATM   26  C   UNL     1      -6.189   0.794 -32.226  1.00  0.00     0.183 A 
HETATM   27  O   UNL     1      -7.174   0.043 -32.814  1.00  0.00    -0.289 OA
HETATM   28  C   UNL     1      -6.498  -1.011 -33.360  1.00  0.00     0.107 A 
HETATM   29  C   UNL     1      -5.155  -0.856 -33.060  1.00  0.00     0.093 A 
HETATM   30  C   UNL     1      -7.024  -2.061 -34.105  1.00  0.00     0.046 A 
HETATM   31  N   UNL     1      -4.966   0.303 -32.352  1.00  0.00    -0.221 NA
HETATM   32  C   UNL     1      -4.242  -1.818 -33.505  1.00  0.00     0.035 A 
HETATM   33  C   UNL     1      -4.732  -2.894 -34.261  1.00  0.00     0.009 A 
HETATM   34  C   UNL     1      -6.101  -3.016 -34.567  1.00  0.00    -0.059 A 
HETATM   35  C   UNL     1      -6.561  -4.169 -35.414  1.00  0.00     0.048 C 
ENDBRANCH  22  26
BRANCH  23  36
HETATM   36  O   UNL     1      -6.381   1.167 -29.375  1.00  0.00    -0.360 OA
HETATM   37  H   UNL     1      -6.051   0.401 -29.894  1.00  0.00     0.217 HD
ENDBRANCH  23  36
ENDBRANCH   1  20
TORSDOF 10
ENDMDL
MODEL 3
REMARK VINA RESULT:      -9.1      2.216      2.947
REMARK  10 active torsions:
REMARK  status: ('A' for Active; 'I' for Inactive)
REMARK    1  A    between atoms: C_2  and  C_3 
REMARK    2  A    between atoms: C_3  and  C_4 
REMARK    3  A    between atoms: C_4  and  O_5 
REMARK    4  A    between atoms: O_5  and  C_6 
REMARK    5  A    between atoms: C_9  and  C_10 
REMARK       I    between atoms: C_10  and  N_11 
REMARK    6  A    between atoms: N_11  and  C_12 
REMARK    7  A    between atoms: C_12  and  N_13 
REMARK    8  A    between atoms: N_13  and  C_14 
REMARK    9  A    between atoms: C_16  and  C_17 
REMARK   10  A    between atoms: C_27  and  O_28 
ROOT
HETATM    1  N   UNL     1      -4.499   5.316 -32.409  1.00  0.00    -0.333 N 
HETATM    2  H   UNL     1      -4.956   6.201 -32.205  1.00  0.00     0.168 HD
ENDROOT
BRANCH   1   3
HETATM    3  C   UNL     1      -3.416   5.486 -33.227  1.00  0.00     0.179 C 
HETATM    4  S   UNL     1      -3.690   5.370 -34.876  1.00  0.00    -0.040 SA
BRANCH   3   5
HETATM    5  N   UNL     1      -2.226   5.826 -32.640  1.00  0.00    -0.299 N 
HETATM    6  C   UNL     1      -1.725   7.113 -32.534  1.00  0.00     0.257 C 
HETATM    7  O   UNL     1      -1.640   7.906 -33.465  1.00  0.00    -0.267 OA
HETATM    8  H   UNL     1      -1.930   5.159 -31.940  1.00  0.00     0.171 HD
BRANCH   6   9
HETATM    9  C   UNL     1      -1.055   7.427 -31.254  1.00  0.00     0.032 A 
HETATM   10  C   UNL     1      -1.710   8.249 -30.334  1.00  0.00     0.020 A 
HETATM   11  C   UNL     1      -1.114   8.531 -29.101  1.00  0.00     0.038 A 
HETATM   12  C   UNL     1       0.126   7.975 -28.778  1.00  0.00     0.068 A 
HETATM   13  C   UNL     1       0.764   7.133 -29.697  1.00  0.00     0.038 A 
HETATM   14  C   UNL     1       0.183   6.861 -30.939  1.00  0.00     0.020 A 
BRANCH  12  15
HETATM   15  O   UNL     1       0.798   8.151 -27.600  1.00  0.00    -0.351 OA
BRANCH  15  16
HETATM   16  C   UNL     1       0.070   7.881 -26.401  1.00  0.00     0.175 C 
BRANCH  16  17
HETATM   17  C   UNL     1      -0.337   6.410 -26.413  1.00  0.00     0.026 C 
BRANCH  17  18
HETATM   18  C   UNL     1      -1.802   6.235 -26.021  1.00  0.00    -0.002 C 
HETATM   19  C   UNL     1      -2.437   7.556 -25.619  1.00  0.00     0.005 C 
ENDBRANCH  17  18
ENDBRANCH  16  17
ENDBRANCH  15  16
ENDBRANCH  12  15
ENDBRANCH   6   9
ENDBRANCH   3   5
ENDBRANCH   1   3
BRANCH   1  20
HETATM   20  C   UNL     1      -5.225   4.168 -32.022  1.00  0.00     0.035 A 
HETATM   21  C   UNL     1      -5.023   2.877 -32.527  1.00  0.00     0.048 A 
HETATM   22  C   UNL     1      -5.860   1.809 -32.142  1.00  0.00     0.052 A 
HETATM   23  C   UNL     1      -6.921   2.070 -31.262  1.00  0.00     0.080 A 
HETATM   24  C   UNL     1      -7.125   3.344 -30.746  1.00  0.00     0.040 A 
HETATM   25  C   UNL     1      -6.279   4.385 -31.124  1.00  0.00     0.032 A 
BRANCH  22  26
HETATM   26  C   UNL     1      -5.650   0.456 -32.647  1.00  0.00     0.183 A 
HETATM   27  O   UNL     1      -6.720  -0.178 -33.226  1.00  0.00    -0.289 OA
HETATM   28  C   UNL     1      -6.193  -1.351 -33.687  1.00  0.00     0.107 A 
HETATM   29  C   UNL     1      -4.850  -1.375 -33.348  1.00  0.00     0.093 A 
HETATM   30  C   UNL     1      -6.849  -2.356 -34.388  1.00  0.00     0.046 A 
HETATM   31  N   UNL     1      -4.510  -0.215 -32.701  1.00  0.00    -0.221 NA
HETATM   32  C   UNL     1      -4.079  -2.486 -33.704  1.00  0.00     0.035 A 
HETATM   33  C   UNL     1      -4.703  -3.524 -34.415  1.00  0.00     0.009 A 
HETATM   34  C   UNL     1      -6.065  -3.463 -34.761  1.00  0.00    -0.059 A 
HETATM   35  C   UNL     1      -6.669  -4.586 -35.557  1.00  0.00     0.048 C 
ENDBRANCH  22  26
BRANCH  23  36
HETATM   36  O   UNL     1      -7.816   1.111 -30.862  1.00  0.00    -0.360 OA
HETATM   37  H   UNL     1      -8.709   1.363 -31.182  1.00  0.00     0.217 HD
ENDBRANCH  23  36
ENDBRANCH   1  20
TORSDOF 10
ENDMDL
MODEL 4
REMARK VINA RESULT:      -9.1      5.762      9.361
REMARK  10 active torsions:
REMARK  status: ('A' for Active; 'I' for Inactive)
REMARK    1  A    between atoms: C_2  and  C_3 
REMARK    2  A    between atoms: C_3  and  C_4 
REMARK    3  A    between atoms: C_4  and  O_5 
REMARK    4  A    between atoms: O_5  and  C_6 
REMARK    5  A    between atoms: C_9  and  C_10 
REMARK       I    between atoms: C_10  and  N_11 
REMARK    6  A    between atoms: N_11  and  C_12 
REMARK    7  A    between atoms: C_12  and  N_13 
REMARK    8  A    between atoms: N_13  and  C_14 
REMARK    9  A    between atoms: C_16  and  C_17 
REMARK   10  A    between atoms: C_27  and  O_28 
ROOT
HETATM    1  N   UNL     1      -3.661   4.614 -31.549  1.00  0.00    -0.333 N 
HETATM    2  H   UNL     1      -2.847   4.810 -30.972  1.00  0.00     0.168 HD
ENDROOT
BRANCH   1   3
HETATM    3  C   UNL     1      -3.967   5.669 -32.363  1.00  0.00     0.179 C 
HETATM    4  S   UNL     1      -2.735   6.758 -32.684  1.00  0.00    -0.040 SA
BRANCH   3   5
HETATM    5  N   UNL     1      -5.218   5.696 -32.920  1.00  0.00    -0.299 N 
HETATM    6  C   UNL     1      -5.648   4.894 -33.965  1.00  0.00     0.257 C 
HETATM    7  O   UNL     1      -5.042   4.741 -35.019  1.00  0.00    -0.267 OA
HETATM    8  H   UNL     1      -5.925   6.033 -32.280  1.00  0.00     0.171 HD
BRANCH   6   9
HETATM    9  C   UNL     1      -7.034   4.393 -33.848  1.00  0.00     0.032 A 
HETATM   10  C   UNL     1      -8.089   5.304 -33.927  1.00  0.00     0.020 A 
HETATM   11  C   UNL     1      -9.410   4.852 -33.856  1.00  0.00     0.038 A 
HETATM   12  C   UNL     1      -9.678   3.487 -33.727  1.00  0.00     0.068 A 
HETATM   13  C   UNL     1      -8.614   2.579 -33.671  1.00  0.00     0.038 A 
HETATM   14  C   UNL     1      -7.290   3.025 -33.723  1.00  0.00     0.020 A 
BRANCH  12  15
HETATM   15  O   UNL     1     -10.921   2.918 -33.673  1.00  0.00    -0.351 OA
BRANCH  15  16
HETATM   16  C   UNL     1     -11.076   1.657 -34.325  1.00  0.00     0.175 C 
BRANCH  16  17
HETATM   17  C   UNL     1     -12.344   1.713 -35.173  1.00  0.00     0.026 C 
BRANCH  17  18
HETATM   18  C   UNL     1     -13.509   1.010 -34.478  1.00  0.00    -0.002 C 
HETATM   19  C   UNL     1     -13.038  -0.186 -33.667  1.00  0.00     0.005 C 
ENDBRANCH  17  18
ENDBRANCH  16  17
ENDBRANCH  15  16
ENDBRANCH  12  15
ENDBRANCH   6   9
ENDBRANCH   3   5
ENDBRANCH   1   3
BRANCH   1  20
HETATM   20  C   UNL     1      -4.382   3.455 -31.185  1.00  0.00     0.035 A 
HETATM   21  C   UNL     1      -4.305   2.218 -31.837  1.00  0.00     0.048 A 
HETATM   22  C   UNL     1      -5.132   1.142 -31.452  1.00  0.00     0.052 A 
HETATM   23  C   UNL     1      -6.059   1.344 -30.418  1.00  0.00     0.080 A 
HETATM   24  C   UNL     1      -6.139   2.563 -29.757  1.00  0.00     0.040 A 
HETATM   25  C   UNL     1      -5.303   3.611 -30.139  1.00  0.00     0.032 A 
BRANCH  22  26
HETATM   26  C   UNL     1      -5.049  -0.157 -32.111  1.00  0.00     0.183 A 
HETATM   27  O   UNL     1      -6.125  -0.558 -32.861  1.00  0.00    -0.289 OA
HETATM   28  C   UNL     1      -5.710  -1.732 -33.424  1.00  0.00     0.107 A 
HETATM   29  C   UNL     1      -4.425  -1.988 -32.974  1.00  0.00     0.093 A 
HETATM   30  C   UNL     1      -6.414  -2.542 -34.307  1.00  0.00     0.046 A 
HETATM   31  N   UNL     1      -4.007  -0.973 -32.152  1.00  0.00    -0.221 NA
HETATM   32  C   UNL     1      -3.772  -3.147 -33.405  1.00  0.00     0.035 A 
HETATM   33  C   UNL     1      -4.448  -3.993 -34.299  1.00  0.00     0.009 A 
HETATM   34  C   UNL     1      -5.747  -3.697 -34.753  1.00  0.00    -0.059 A 
HETATM   35  C   UNL     1      -6.405  -4.621 -35.740  1.00  0.00     0.048 C 
ENDBRANCH  22  26
BRANCH  23  36
HETATM   36  O   UNL     1      -6.937   0.377 -30.001  1.00  0.00    -0.360 OA
HETATM   37  H   UNL     1      -7.109  -0.234 -30.750  1.00  0.00     0.217 HD
ENDBRANCH  23  36
ENDBRANCH   1  20
TORSDOF 10
ENDMDL
MODEL 5
REMARK VINA RESULT:      -9.1      3.003     11.309
REMARK  10 active torsions:
REMARK  status: ('A' for Active; 'I' for Inactive)
REMARK    1  A    between atoms: C_2  and  C_3 
REMARK    2  A    between atoms: C_3  and  C_4 
REMARK    3  A    between atoms: C_4  and  O_5 
REMARK    4  A    between atoms: O_5  and  C_6 
REMARK    5  A    between atoms: C_9  and  C_10 
REMARK       I    between atoms: C_10  and  N_11 
REMARK    6  A    between atoms: N_11  and  C_12 
REMARK    7  A    between atoms: C_12  and  N_13 
REMARK    8  A    between atoms: N_13  and  C_14 
REMARK    9  A    between atoms: C_16  and  C_17 
REMARK   10  A    between atoms: C_27  and  O_28 
ROOT
HETATM    1  N   UNL     1      -7.020   3.974 -32.353  1.00  0.00    -0.333 N 
HETATM    2  H   UNL     1      -7.787   4.554 -32.683  1.00  0.00     0.168 HD
ENDROOT
BRANCH   1   3
HETATM    3  C   UNL     1      -7.424   3.119 -31.365  1.00  0.00     0.179 C 
HETATM    4  S   UNL     1      -7.937   3.813 -29.929  1.00  0.00    -0.040 SA
BRANCH   3   5
HETATM    5  N   UNL     1      -7.464   1.783 -31.662  1.00  0.00    -0.299 N 
HETATM    6  C   UNL     1      -8.003   1.233 -32.815  1.00  0.00     0.257 C 
HETATM    7  O   UNL     1      -9.116   1.497 -33.255  1.00  0.00    -0.267 OA
HETATM    8  H   UNL     1      -6.733   1.256 -31.203  1.00  0.00     0.171 HD
BRANCH   6   9
HETATM    9  C   UNL     1      -7.247   0.100 -33.388  1.00  0.00     0.032 A 
HETATM   10  C   UNL     1      -7.621  -0.396 -34.639  1.00  0.00     0.020 A 
HETATM   11  C   UNL     1      -6.900  -1.443 -35.219  1.00  0.00     0.038 A 
HETATM   12  C   UNL     1      -5.792  -1.981 -34.560  1.00  0.00     0.068 A 
HETATM   13  C   UNL     1      -5.411  -1.463 -33.317  1.00  0.00     0.038 A 
HETATM   14  C   UNL     1      -6.139  -0.428 -32.722  1.00  0.00     0.020 A 
BRANCH  12  15
HETATM   15  O   UNL     1      -4.991  -2.985 -35.032  1.00  0.00    -0.351 OA
BRANCH  15  16
HETATM   16  C   UNL     1      -5.554  -4.298 -35.049  1.00  0.00     0.175 C 
BRANCH  16  17
HETATM   17  C   UNL     1      -4.817  -5.145 -34.015  1.00  0.00     0.026 C 
BRANCH  17  18
HETATM   18  C   UNL     1      -3.396  -4.632 -33.787  1.00  0.00    -0.002 C 
HETATM   19  C   UNL     1      -3.197  -4.148 -32.360  1.00  0.00     0.005 C 
ENDBRANCH  17  18
ENDBRANCH  16  17
ENDBRANCH  15  16
ENDBRANCH  12  15
ENDBRANCH   6   9
ENDBRANCH   3   5
ENDBRANCH   1   3
BRANCH   1  20
HETATM   20  C   UNL     1      -5.740   4.369 -32.800  1.00  0.00     0.035 A 
HETATM   21  C   UNL     1      -4.650   4.666 -31.971  1.00  0.00     0.048 A 
HETATM   22  C   UNL     1      -3.436   5.137 -32.510  1.00  0.00     0.052 A 
HETATM   23  C   UNL     1      -3.347   5.332 -33.897  1.00  0.00     0.080 A 
HETATM   24  C   UNL     1      -4.416   5.032 -34.731  1.00  0.00     0.040 A 
HETATM   25  C   UNL     1      -5.604   4.551 -34.184  1.00  0.00     0.032 A 
BRANCH  22  26
HETATM   26  C   UNL     1      -2.288   5.433 -31.659  1.00  0.00     0.183 A 
HETATM   27  O   UNL     1      -2.152   6.719 -31.202  1.00  0.00    -0.289 OA
HETATM   28  C   UNL     1      -1.074   6.655 -30.364  1.00  0.00     0.107 A 
HETATM   29  C   UNL     1      -0.607   5.351 -30.373  1.00  0.00     0.093 A 
HETATM   30  C   UNL     1      -0.527   7.685 -29.608  1.00  0.00     0.046 A 
HETATM   31  N   UNL     1      -1.394   4.578 -31.187  1.00  0.00    -0.221 NA
HETATM   32  C   UNL     1       0.507   5.022 -29.593  1.00  0.00     0.035 A 
HETATM   33  C   UNL     1       1.090   6.034 -28.814  1.00  0.00     0.009 A 
HETATM   34  C   UNL     1       0.581   7.346 -28.811  1.00  0.00    -0.059 A 
HETATM   35  C   UNL     1       1.223   8.378 -27.925  1.00  0.00     0.048 C 
ENDBRANCH  22  26
BRANCH  23  36
HETATM   36  O   UNL     1      -2.226   5.828 -34.513  1.00  0.00    -0.360 OA
HETATM   37  H   UNL     1      -1.434   5.442 -34.080  1.00  0.00     0.217 HD
ENDBRANCH  23  36
ENDBRANCH   1  20
TORSDOF 10
ENDMDL
MODEL 6
REMARK VINA RESULT:      -9.0      1.210      2.060
REMARK  10 active torsions:
REMARK  status: ('A' for Active; 'I' for Inactive)
REMARK    1  A    between atoms: C_2  and  C_3 
REMARK    2  A    between atoms: C_3  and  C_4 
REMARK    3  A    between atoms: C_4  and  O_5 
REMARK    4  A    between atoms: O_5  and  C_6 
REMARK    5  A    between atoms: C_9  and  C_10 
REMARK       I    between atoms: C_10  and  N_11 
REMARK    6  A    between atoms: N_11  and  C_12 
REMARK    7  A    between atoms: C_12  and  N_13 
REMARK    8  A    between atoms: N_13  and  C_14 
REMARK    9  A    between atoms: C_16  and  C_17 
REMARK   10  A    between atoms: C_27  and  O_28 
ROOT
HETATM    1  N   UNL     1      -2.198   4.318 -31.765  1.00  0.00    -0.333 N 
HETATM    2  H   UNL     1      -1.355   3.874 -32.120  1.00  0.00     0.168 HD
ENDROOT
BRANCH   1   3
HETATM    3  C   UNL     1      -1.936   5.559 -31.254  1.00  0.00     0.179 C 
HETATM    4  S   UNL     1      -2.419   6.872 -32.177  1.00  0.00    -0.040 SA
BRANCH   3   5
HETATM    5  N   UNL     1      -1.391   5.627 -30.000  1.00  0.00    -0.299 N 
HETATM    6  C   UNL     1      -0.035   5.667 -29.717  1.00  0.00     0.257 C 
HETATM    7  O   UNL     1       0.795   4.891 -30.177  1.00  0.00    -0.267 OA
HETATM    8  H   UNL     1      -2.013   6.050 -29.324  1.00  0.00     0.171 HD
BRANCH   6   9
HETATM    9  C   UNL     1       0.354   6.574 -28.616  1.00  0.00     0.032 A 
HETATM   10  C   UNL     1       0.013   6.228 -27.306  1.00  0.00     0.020 A 
HETATM   11  C   UNL     1       0.400   7.050 -26.244  1.00  0.00     0.038 A 
HETATM   12  C   UNL     1       1.146   8.205 -26.486  1.00  0.00     0.068 A 
HETATM   13  C   UNL     1       1.503   8.531 -27.800  1.00  0.00     0.038 A 
HETATM   14  C   UNL     1       1.103   7.725 -28.870  1.00  0.00     0.020 A 
BRANCH  12  15
HETATM   15  O   UNL     1       1.607   9.074 -25.535  1.00  0.00    -0.351 OA
BRANCH  15  16
HETATM   16  C   UNL     1       0.629   9.653 -24.670  1.00  0.00     0.175 C 
BRANCH  16  17
HETATM   17  C   UNL     1       0.225  11.007 -25.247  1.00  0.00     0.026 C 
BRANCH  17  18
HETATM   18  C   UNL     1      -1.243  11.015 -25.670  1.00  0.00    -0.002 C 
HETATM   19  C   UNL     1      -1.402  10.710 -27.150  1.00  0.00     0.005 C 
ENDBRANCH  17  18
ENDBRANCH  16  17
ENDBRANCH  15  16
ENDBRANCH  12  15
ENDBRANCH   6   9
ENDBRANCH   3   5
ENDBRANCH   1   3
BRANCH   1  20
HETATM   20  C   UNL     1      -3.320   3.466 -31.660  1.00  0.00     0.035 A 
HETATM   21  C   UNL     1      -3.388   2.157 -32.152  1.00  0.00     0.048 A 
HETATM   22  C   UNL     1      -4.585   1.415 -32.076  1.00  0.00     0.052 A 
HETATM   23  C   UNL     1      -5.720   2.026 -31.521  1.00  0.00     0.080 A 
HETATM   24  C   UNL     1      -5.662   3.320 -31.019  1.00  0.00     0.040 A 
HETATM   25  C   UNL     1      -4.467   4.034 -31.087  1.00  0.00     0.032 A 
BRANCH  22  26
HETATM   26  C   UNL     1      -4.666   0.044 -32.569  1.00  0.00     0.183 A 
HETATM   27  O   UNL     1      -5.801  -0.320 -33.247  1.00  0.00    -0.289 OA
HETATM   28  C   UNL     1      -5.535  -1.593 -33.667  1.00  0.00     0.107 A 
HETATM   29  C   UNL     1      -4.274  -1.937 -33.208  1.00  0.00     0.093 A 
HETATM   30  C   UNL     1      -6.350  -2.420 -34.432  1.00  0.00     0.046 A 
HETATM   31  N   UNL     1      -3.722  -0.884 -32.525  1.00  0.00    -0.221 NA
HETATM   32  C   UNL     1      -3.766  -3.207 -33.502  1.00  0.00     0.035 A 
HETATM   33  C   UNL     1      -4.557  -4.073 -34.273  1.00  0.00     0.009 A 
HETATM   34  C   UNL     1      -5.828  -3.689 -34.741  1.00  0.00    -0.059 A 
HETATM   35  C   UNL     1      -6.612  -4.644 -35.596  1.00  0.00     0.048 C 
ENDBRANCH  22  26
BRANCH  23  36
HETATM   36  O   UNL     1      -6.941   1.406 -31.441  1.00  0.00    -0.360 OA
HETATM   37  H   UNL     1      -6.842   0.585 -30.911  1.00  0.00     0.217 HD
ENDBRANCH  23  36
ENDBRANCH   1  20
TORSDOF 10
ENDMDL
MODEL 7
REMARK VINA RESULT:      -9.0      2.106      2.739
REMARK  10 active torsions:
REMARK  status: ('A' for Active; 'I' for Inactive)
REMARK    1  A    between atoms: C_2  and  C_3 
REMARK    2  A    between atoms: C_3  and  C_4 
REMARK    3  A    between atoms: C_4  and  O_5 
REMARK    4  A    between atoms: O_5  and  C_6 
REMARK    5  A    between atoms: C_9  and  C_10 
REMARK       I    between atoms: C_10  and  N_11 
REMARK    6  A    between atoms: N_11  and  C_12 
REMARK    7  A    between atoms: C_12  and  N_13 
REMARK    8  A    between atoms: N_13  and  C_14 
REMARK    9  A    between atoms: C_16  and  C_17 
REMARK   10  A    between atoms: C_27  and  O_28 
ROOT
HETATM    1  N   UNL     1      -4.578   5.484 -32.818  1.00  0.00    -0.333 N 
HETATM    2  H   UNL     1      -5.206   6.254 -33.038  1.00  0.00     0.168 HD
ENDROOT
BRANCH   1   3
HETATM    3  C   UNL     1      -3.328   5.690 -33.333  1.00  0.00     0.179 C 
HETATM    4  S   UNL     1      -3.120   5.365 -34.964  1.00  0.00    -0.040 SA
BRANCH   3   5
HETATM    5  N   UNL     1      -2.383   6.230 -32.503  1.00  0.00    -0.299 N 
HETATM    6  C   UNL     1      -2.032   7.570 -32.451  1.00  0.00     0.257 C 
HETATM    7  O   UNL     1      -1.750   8.253 -33.429  1.00  0.00    -0.267 OA
HETATM    8  H   UNL     1      -2.245   5.688 -31.661  1.00  0.00     0.171 HD
BRANCH   6   9
HETATM    9  C   UNL     1      -1.778   8.105 -31.097  1.00  0.00     0.032 A 
HETATM   10  C   UNL     1      -0.892   7.423 -30.259  1.00  0.00     0.020 A 
HETATM   11  C   UNL     1      -0.606   7.927 -28.987  1.00  0.00     0.038 A 
HETATM   12  C   UNL     1      -1.187   9.123 -28.560  1.00  0.00     0.068 A 
HETATM   13  C   UNL     1      -2.056   9.811 -29.415  1.00  0.00     0.038 A 
HETATM   14  C   UNL     1      -2.361   9.304 -30.682  1.00  0.00     0.020 A 
BRANCH  12  15
HETATM   15  O   UNL     1      -0.969   9.732 -27.354  1.00  0.00    -0.351 OA
BRANCH  15  16
HETATM   16  C   UNL     1      -0.826   8.875 -26.221  1.00  0.00     0.175 C 
BRANCH  16  17
HETATM   17  C   UNL     1       0.223   9.484 -25.294  1.00  0.00     0.026 C 
BRANCH  17  18
HETATM   18  C   UNL     1       1.636   9.259 -25.830  1.00  0.00    -0.002 C 
HETATM   19  C   UNL     1       1.826   7.837 -26.332  1.00  0.00     0.005 C 
ENDBRANCH  17  18
ENDBRANCH  16  17
ENDBRANCH  15  16
ENDBRANCH  12  15
ENDBRANCH   6   9
ENDBRANCH   3   5
ENDBRANCH   1   3
BRANCH   1  20
HETATM   20  C   UNL     1      -5.208   4.337 -32.287  1.00  0.00     0.035 A 
HETATM   21  C   UNL     1      -5.037   3.030 -32.760  1.00  0.00     0.048 A 
HETATM   22  C   UNL     1      -5.778   1.960 -32.218  1.00  0.00     0.052 A 
HETATM   23  C   UNL     1      -6.716   2.234 -31.210  1.00  0.00     0.080 A 
HETATM   24  C   UNL     1      -6.887   3.524 -30.725  1.00  0.00     0.040 A 
HETATM   25  C   UNL     1      -6.134   4.568 -31.260  1.00  0.00     0.032 A 
BRANCH  22  26
HETATM   26  C   UNL     1      -5.598   0.591 -32.690  1.00  0.00     0.183 A 
HETATM   27  O   UNL     1      -6.683  -0.037 -33.246  1.00  0.00    -0.289 OA
HETATM   28  C   UNL     1      -6.181  -1.231 -33.680  1.00  0.00     0.107 A 
HETATM   29  C   UNL     1      -4.837  -1.273 -33.349  1.00  0.00     0.093 A 
HETATM   30  C   UNL     1      -6.860  -2.241 -34.353  1.00  0.00     0.046 A 
HETATM   31  N   UNL     1      -4.471  -0.103 -32.734  1.00  0.00    -0.221 NA
HETATM   32  C   UNL     1      -4.089  -2.407 -33.683  1.00  0.00     0.035 A 
HETATM   33  C   UNL     1      -4.737  -3.450 -34.363  1.00  0.00     0.009 A 
HETATM   34  C   UNL     1      -6.100  -3.371 -34.702  1.00  0.00    -0.059 A 
HETATM   35  C   UNL     1      -6.730  -4.503 -35.466  1.00  0.00     0.048 C 
ENDBRANCH  22  26
BRANCH  23  36
HETATM   36  O   UNL     1      -7.516   1.271 -30.650  1.00  0.00    -0.360 OA
HETATM   37  H   UNL     1      -7.622   0.538 -31.295  1.00  0.00     0.217 HD
ENDBRANCH  23  36
ENDBRANCH   1  20
TORSDOF 10
ENDMDL
MODEL 8
REMARK VINA RESULT:      -8.9      3.630      5.360
REMARK  10 active torsions:
REMARK  status: ('A' for Active; 'I' for Inactive)
REMARK    1  A    between atoms: C_2  and  C_3 
REMARK    2  A    between atoms: C_3  and  C_4 
REMARK    3  A    between atoms: C_4  and  O_5 
REMARK    4  A    between atoms: O_5  and  C_6 
REMARK    5  A    between atoms: C_9  and  C_10 
REMARK       I    between atoms: C_10  and  N_11 
REMARK    6  A    between atoms: N_11  and  C_12 
REMARK    7  A    between atoms: C_12  and  N_13 
REMARK    8  A    between atoms: N_13  and  C_14 
REMARK    9  A    between atoms: C_16  and  C_17 
REMARK   10  A    between atoms: C_27  and  O_28 
ROOT
HETATM    1  N   UNL     1      -8.804   4.838 -32.415  1.00  0.00    -0.333 N 
HETATM    2  H   UNL     1      -9.737   4.566 -32.714  1.00  0.00     0.168 HD
ENDROOT
BRANCH   1   3
HETATM    3  C   UNL     1      -8.437   6.043 -32.947  1.00  0.00     0.179 C 
HETATM    4  S   UNL     1      -9.660   7.159 -33.205  1.00  0.00    -0.040 SA
BRANCH   3   5
HETATM    5  N   UNL     1      -7.100   6.271 -33.137  1.00  0.00    -0.299 N 
HETATM    6  C   UNL     1      -6.252   6.875 -32.222  1.00  0.00     0.257 C 
HETATM    7  O   UNL     1      -6.485   7.937 -31.655  1.00  0.00    -0.267 OA
HETATM    8  H   UNL     1      -6.681   5.624 -33.791  1.00  0.00     0.171 HD
BRANCH   6   9
HETATM    9  C   UNL     1      -4.901   6.284 -32.126  1.00  0.00     0.032 A 
HETATM   10  C   UNL     1      -4.748   4.914 -32.348  1.00  0.00     0.020 A 
HETATM   11  C   UNL     1      -3.476   4.336 -32.299  1.00  0.00     0.038 A 
HETATM   12  C   UNL     1      -2.354   5.130 -32.050  1.00  0.00     0.068 A 
HETATM   13  C   UNL     1      -2.515   6.507 -31.851  1.00  0.00     0.038 A 
HETATM   14  C   UNL     1      -3.786   7.089 -31.880  1.00  0.00     0.020 A 
BRANCH  12  15
HETATM   15  O   UNL     1      -1.059   4.692 -32.003  1.00  0.00    -0.351 OA
BRANCH  15  16
HETATM   16  C   UNL     1      -0.120   5.539 -31.337  1.00  0.00     0.175 C 
BRANCH  16  17
HETATM   17  C   UNL     1       0.155   4.950 -29.957  1.00  0.00     0.026 C 
BRANCH  17  18
HETATM   18  C   UNL     1       0.651   6.019 -28.985  1.00  0.00    -0.002 C 
HETATM   19  C   UNL     1       0.200   7.409 -29.402  1.00  0.00     0.005 C 
ENDBRANCH  17  18
ENDBRANCH  16  17
ENDBRANCH  15  16
ENDBRANCH  12  15
ENDBRANCH   6   9
ENDBRANCH   3   5
ENDBRANCH   1   3
BRANCH   1  20
HETATM   20  C   UNL     1      -8.066   3.823 -31.768  1.00  0.00     0.035 A 
HETATM   21  C   UNL     1      -7.608   2.646 -32.375  1.00  0.00     0.048 A 
HETATM   22  C   UNL     1      -6.954   1.649 -31.623  1.00  0.00     0.052 A 
HETATM   23  C   UNL     1      -6.794   1.846 -30.243  1.00  0.00     0.080 A 
HETATM   24  C   UNL     1      -7.235   3.012 -29.630  1.00  0.00     0.040 A 
HETATM   25  C   UNL     1      -7.865   3.995 -30.392  1.00  0.00     0.032 A 
BRANCH  22  26
HETATM   26  C   UNL     1      -6.456   0.427 -32.246  1.00  0.00     0.183 A 
HETATM   27  O   UNL     1      -7.364  -0.369 -32.896  1.00  0.00    -0.289 OA
HETATM   28  C   UNL     1      -6.596  -1.351 -33.454  1.00  0.00     0.107 A 
HETATM   29  C   UNL     1      -5.278  -1.113 -33.099  1.00  0.00     0.093 A 
HETATM   30  C   UNL     1      -7.019  -2.406 -34.254  1.00  0.00     0.046 A 
HETATM   31  N   UNL     1      -5.197   0.029 -32.344  1.00  0.00    -0.221 NA
HETATM   32  C   UNL     1      -4.284  -1.991 -33.544  1.00  0.00     0.035 A 
HETATM   33  C   UNL     1      -4.670  -3.069 -34.355  1.00  0.00     0.009 A 
HETATM   34  C   UNL     1      -6.015  -3.275 -34.715  1.00  0.00    -0.059 A 
HETATM   35  C   UNL     1      -6.362  -4.425 -35.619  1.00  0.00     0.048 C 
ENDBRANCH  22  26
BRANCH  23  36
HETATM   36  O   UNL     1      -6.212   0.918 -29.417  1.00  0.00    -0.360 OA
HETATM   37  H   UNL     1      -6.917   0.473 -28.898  1.00  0.00     0.217 HD
ENDBRANCH  23  36
ENDBRANCH   1  20
TORSDOF 10
ENDMDL
MODEL 9
REMARK VINA RESULT:      -8.8      1.292      1.415
REMARK  10 active torsions:
REMARK  status: ('A' for Active; 'I' for Inactive)
REMARK    1  A    between atoms: C_2  and  C_3 
REMARK    2  A    between atoms: C_3  and  C_4 
REMARK    3  A    between atoms: C_4  and  O_5 
REMARK    4  A    between atoms: O_5  and  C_6 
REMARK    5  A    between atoms: C_9  and  C_10 
REMARK       I    between atoms: C_10  and  N_11 
REMARK    6  A    between atoms: N_11  and  C_12 
REMARK    7  A    between atoms: C_12  and  N_13 
REMARK    8  A    between atoms: N_13  and  C_14 
REMARK    9  A    between atoms: C_16  and  C_17 
REMARK   10  A    between atoms: C_27  and  O_28 
ROOT
HETATM    1  N   UNL     1      -2.366   4.383 -31.197  1.00  0.00    -0.333 N 
HETATM    2  H   UNL     1      -1.957   4.384 -30.266  1.00  0.00     0.168 HD
ENDROOT
BRANCH   1   3
HETATM    3  C   UNL     1      -1.822   5.359 -31.986  1.00  0.00     0.179 C 
HETATM    4  S   UNL     1      -1.781   5.062 -33.635  1.00  0.00    -0.040 SA
BRANCH   3   5
HETATM    5  N   UNL     1      -1.444   6.527 -31.380  1.00  0.00    -0.299 N 
HETATM    6  C   UNL     1      -2.050   7.082 -30.264  1.00  0.00     0.257 C 
HETATM    7  O   UNL     1      -3.257   7.259 -30.144  1.00  0.00    -0.267 OA
HETATM    8  H   UNL     1      -0.469   6.750 -31.530  1.00  0.00     0.171 HD
BRANCH   6   9
HETATM    9  C   UNL     1      -1.128   7.690 -29.281  1.00  0.00     0.032 A 
HETATM   10  C   UNL     1       0.201   7.261 -29.248  1.00  0.00     0.020 A 
HETATM   11  C   UNL     1       1.102   7.844 -28.353  1.00  0.00     0.038 A 
HETATM   12  C   UNL     1       0.681   8.872 -27.505  1.00  0.00     0.068 A 
HETATM   13  C   UNL     1      -0.647   9.311 -27.561  1.00  0.00     0.038 A 
HETATM   14  C   UNL     1      -1.558   8.720 -28.441  1.00  0.00     0.020 A 
BRANCH  12  15
HETATM   15  O   UNL     1       1.469   9.540 -26.607  1.00  0.00    -0.351 OA
BRANCH  15  16
HETATM   16  C   UNL     1       2.202   8.739 -25.679  1.00  0.00     0.175 C 
BRANCH  16  17
HETATM   17  C   UNL     1       2.142   9.418 -24.314  1.00  0.00     0.026 C 
BRANCH  17  18
HETATM   18  C   UNL     1       3.460   9.264 -23.557  1.00  0.00    -0.002 C 
HETATM   19  C   UNL     1       3.297   8.400 -22.318  1.00  0.00     0.005 C 
ENDBRANCH  17  18
ENDBRANCH  16  17
ENDBRANCH  15  16
ENDBRANCH  12  15
ENDBRANCH   6   9
ENDBRANCH   3   5
ENDBRANCH   1   3
BRANCH   1  20
HETATM   20  C   UNL     1      -3.519   3.581 -31.341  1.00  0.00     0.035 A 
HETATM   21  C   UNL     1      -3.533   2.267 -31.825  1.00  0.00     0.048 A 
HETATM   22  C   UNL     1      -4.748   1.576 -32.014  1.00  0.00     0.052 A 
HETATM   23  C   UNL     1      -5.951   2.244 -31.733  1.00  0.00     0.080 A 
HETATM   24  C   UNL     1      -5.950   3.543 -31.242  1.00  0.00     0.040 A 
HETATM   25  C   UNL     1      -4.739   4.205 -31.046  1.00  0.00     0.032 A 
BRANCH  22  26
HETATM   26  C   UNL     1      -4.777   0.201 -32.500  1.00  0.00     0.183 A 
HETATM   27  O   UNL     1      -5.843  -0.175 -33.277  1.00  0.00    -0.289 OA
HETATM   28  C   UNL     1      -5.534  -1.449 -33.659  1.00  0.00     0.107 A 
HETATM   29  C   UNL     1      -4.319  -1.783 -33.084  1.00  0.00     0.093 A 
HETATM   30  C   UNL     1      -6.271  -2.287 -34.489  1.00  0.00     0.046 A 
HETATM   31  N   UNL     1      -3.837  -0.721 -32.362  1.00  0.00    -0.221 NA
HETATM   32  C   UNL     1      -3.780  -3.052 -33.319  1.00  0.00     0.035 A 
HETATM   33  C   UNL     1      -4.493  -3.929 -34.153  1.00  0.00     0.009 A 
HETATM   34  C   UNL     1      -5.717  -3.555 -34.738  1.00  0.00    -0.059 A 
HETATM   35  C   UNL     1      -6.415  -4.522 -35.654  1.00  0.00     0.048 C 
ENDBRANCH  22  26
BRANCH  23  36
HETATM   36  O   UNL     1      -7.185   1.676 -31.925  1.00  0.00    -0.360 OA
HETATM   37  H   UNL     1      -7.869   2.372 -31.821  1.00  0.00     0.217 HD
ENDBRANCH  23  36
ENDBRANCH   1  20
TORSDOF 10
ENDMDL
MODEL 10
REMARK VINA RESULT:      -8.6      5.165      6.589
REMARK  10 active torsions:
REMARK  status: ('A' for Active; 'I' for Inactive)
REMARK    1  A    between atoms: C_2  and  C_3 
REMARK    2  A    between atoms: C_3  and  C_4 
REMARK    3  A    between atoms: C_4  and  O_5 
REMARK    4  A    between atoms: O_5  and  C_6 
REMARK    5  A    between atoms: C_9  and  C_10 
REMARK       I    between atoms: C_10  and  N_11 
REMARK    6  A    between atoms: N_11  and  C_12 
REMARK    7  A    between atoms: C_12  and  N_13 
REMARK    8  A    between atoms: N_13  and  C_14 
REMARK    9  A    between atoms: C_16  and  C_17 
REMARK   10  A    between atoms: C_27  and  O_28 
ROOT
HETATM    1  N   UNL     1      -9.058   4.383 -30.297  1.00  0.00    -0.333 N 
HETATM    2  H   UNL     1      -9.586   4.158 -29.457  1.00  0.00     0.168 HD
ENDROOT
BRANCH   1   3
HETATM    3  C   UNL     1      -8.543   5.648 -30.244  1.00  0.00     0.179 C 
HETATM    4  S   UNL     1      -9.561   6.856 -29.686  1.00  0.00    -0.040 SA
BRANCH   3   5
HETATM    5  N   UNL     1      -7.220   5.807 -30.560  1.00  0.00    -0.299 N 
HETATM    6  C   UNL     1      -6.200   4.941 -30.198  1.00  0.00     0.257 C 
HETATM    7  O   UNL     1      -6.011   4.527 -29.060  1.00  0.00    -0.267 OA
HETATM    8  H   UNL     1      -7.080   6.354 -31.400  1.00  0.00     0.171 HD
BRANCH   6   9
HETATM    9  C   UNL     1      -5.169   4.711 -31.232  1.00  0.00     0.032 A 
HETATM   10  C   UNL     1      -5.380   5.215 -32.518  1.00  0.00     0.020 A 
HETATM   11  C   UNL     1      -4.405   5.043 -33.504  1.00  0.00     0.038 A 
HETATM   12  C   UNL     1      -3.210   4.386 -33.202  1.00  0.00     0.068 A 
HETATM   13  C   UNL     1      -2.998   3.904 -31.904  1.00  0.00     0.038 A 
HETATM   14  C   UNL     1      -3.976   4.057 -30.917  1.00  0.00     0.020 A 
BRANCH  12  15
HETATM   15  O   UNL     1      -2.171   4.178 -34.067  1.00  0.00    -0.351 OA
BRANCH  15  16
HETATM   16  C   UNL     1      -1.769   5.292 -34.865  1.00  0.00     0.175 C 
BRANCH  16  17
HETATM   17  C   UNL     1      -0.940   6.229 -33.991  1.00  0.00     0.026 C 
BRANCH  17  18
HETATM   18  C   UNL     1      -1.709   7.507 -33.661  1.00  0.00    -0.002 C 
HETATM   19  C   UNL     1      -1.834   7.716 -32.161  1.00  0.00     0.005 C 
ENDBRANCH  17  18
ENDBRANCH  16  17
ENDBRANCH  15  16
ENDBRANCH  12  15
ENDBRANCH   6   9
ENDBRANCH   3   5
ENDBRANCH   1   3
BRANCH   1  20
HETATM   20  C   UNL     1      -9.210   3.464 -31.358  1.00  0.00     0.035 A 
HETATM   21  C   UNL     1      -8.327   2.418 -31.654  1.00  0.00     0.048 A 
HETATM   22  C   UNL     1      -8.519   1.605 -32.790  1.00  0.00     0.052 A 
HETATM   23  C   UNL     1      -9.601   1.883 -33.640  1.00  0.00     0.080 A 
HETATM   24  C   UNL     1     -10.490   2.911 -33.352  1.00  0.00     0.040 A 
HETATM   25  C   UNL     1     -10.295   3.694 -32.216  1.00  0.00     0.032 A 
BRANCH  22  26
HETATM   26  C   UNL     1      -7.616   0.502 -33.100  1.00  0.00     0.183 A 
HETATM   27  O   UNL     1      -8.172  -0.659 -33.575  1.00  0.00    -0.289 OA
HETATM   28  C   UNL     1      -7.092  -1.441 -33.869  1.00  0.00     0.107 A 
HETATM   29  C   UNL     1      -5.950  -0.729 -33.542  1.00  0.00     0.093 A 
HETATM   30  C   UNL     1      -7.096  -2.720 -34.416  1.00  0.00     0.046 A 
HETATM   31  N   UNL     1      -6.293   0.511 -33.068  1.00  0.00    -0.221 NA
HETATM   32  C   UNL     1      -4.698  -1.320 -33.745  1.00  0.00     0.035 A 
HETATM   33  C   UNL     1      -4.658  -2.611 -34.296  1.00  0.00     0.009 A 
HETATM   34  C   UNL     1      -5.836  -3.303 -34.636  1.00  0.00    -0.059 A 
HETATM   35  C   UNL     1      -5.729  -4.666 -35.260  1.00  0.00     0.048 C 
ENDBRANCH  22  26
BRANCH  23  36
HETATM   36  O   UNL     1      -9.848   1.181 -34.792  1.00  0.00    -0.360 OA
HETATM   37  H   UNL     1      -9.456   1.671 -35.548  1.00  0.00     0.217 HD
ENDBRANCH  23  36
ENDBRANCH   1  20
TORSDOF 10
ENDMDL
