MODEL 1
REMARK VINA RESULT:      -8.2      0.000      0.000
REMARK  9 active torsions:
REMARK  status: ('A' for Active; 'I' for Inactive)
REMARK    1  A    between atoms: C_3  and  C_4 
REMARK       I    between atoms: C_4  and  N_5 
REMARK    2  A    between atoms: N_5  and  N_6 
REMARK    3  A    between atoms: N_6  and  C_7 
REMARK    4  A    between atoms: C_7  and  N_8 
REMARK    5  A    between atoms: N_8  and  C_9 
REMARK    6  A    between atoms: C_9  and  C_10 
REMARK    7  A    between atoms: C_18  and  C_19 
REMARK    8  A    between atoms: C_19  and  O_20 
REMARK    9  A    between atoms: O_20  and  C_21 
ROOT
HETATM    1  C   UNL     1      -4.652  -0.461 -33.218  1.00  0.00     0.069 A 
HETATM    2  C   UNL     1      -3.908  -1.641 -33.170  1.00  0.00     0.038 A 
HETATM    3  C   UNL     1      -4.383  -2.799 -33.798  1.00  0.00     0.025 A 
HETATM    4  C   UNL     1      -5.605  -2.783 -34.477  1.00  0.00     0.044 A 
HETATM    5  C   UNL     1      -6.086  -3.971 -35.120  1.00  0.00     0.099 C 
HETATM    6  N   UNL     1      -6.467  -4.937 -35.640  1.00  0.00    -0.191 NA
HETATM    7  C   UNL     1      -6.350  -1.604 -34.525  1.00  0.00     0.025 A 
HETATM    8  C   UNL     1      -5.872  -0.450 -33.898  1.00  0.00     0.038 A 
ENDROOT
BRANCH   1   9
HETATM    9  O   UNL     1      -4.302   0.736 -32.652  1.00  0.00    -0.347 OA
BRANCH   9  10
HETATM   10  C   UNL     1      -5.346   1.691 -32.486  1.00  0.00     0.214 C 
BRANCH  10  11
HETATM   11  C   UNL     1      -4.871   3.045 -32.952  1.00  0.00    -0.033 A 
HETATM   12  C   UNL     1      -3.510   3.386 -32.866  1.00  0.00     0.026 A 
HETATM   13  C   UNL     1      -3.082   4.682 -33.175  1.00  0.00     0.034 A 
HETATM   14  C   UNL     1      -4.012   5.608 -33.670  1.00  0.00     0.017 A 
HETATM   15  C   UNL     1      -5.354   5.260 -33.814  1.00  0.00     0.002 A 
HETATM   16  C   UNL     1      -5.784   3.988 -33.445  1.00  0.00     0.009 A 
BRANCH  13  17
HETATM   17  C   UNL     1      -1.672   5.134 -33.051  1.00  0.00     0.270 C 
HETATM   18  N   UNL     1      -1.074   5.359 -31.830  1.00  0.00    -0.264 N 
HETATM   19  H   UNL     1      -0.132   5.744 -31.874  1.00  0.00     0.190 HD
HETATM   20  O   UNL     1      -1.026   5.336 -34.081  1.00  0.00    -0.266 OA
BRANCH  18  21
HETATM   21  N   UNL     1      -1.695   5.416 -30.577  1.00  0.00    -0.274 N 
HETATM   22  H   UNL     1      -2.364   4.686 -30.328  1.00  0.00     0.189 HD
BRANCH  21  23
HETATM   23  C   UNL     1      -1.872   6.626 -29.950  1.00  0.00     0.186 C 
HETATM   24  S   UNL     1      -2.304   8.060 -30.694  1.00  0.00    -0.040 SA
BRANCH  23  25
HETATM   25  N   UNL     1      -1.610   6.649 -28.608  1.00  0.00    -0.364 N 
HETATM   26  H   UNL     1      -2.253   7.232 -28.083  1.00  0.00     0.162 HD
BRANCH  25  27
HETATM   27  C   UNL     1      -0.326   6.347 -27.984  1.00  0.00     0.154 C 
BRANCH  27  28
HETATM   28  C   UNL     1       0.071   7.298 -26.847  1.00  0.00     0.139 C 
HETATM   29  O   UNL     1      -0.570   8.579 -27.019  1.00  0.00    -0.384 OA
HETATM   30  C   UNL     1       0.438   9.597 -26.940  1.00  0.00     0.168 C 
HETATM   31  C   UNL     1       1.740   8.930 -27.317  1.00  0.00     0.029 C 
HETATM   32  C   UNL     1       1.569   7.550 -26.733  1.00  0.00     0.035 C 
ENDBRANCH  27  28
ENDBRANCH  25  27
ENDBRANCH  23  25
ENDBRANCH  21  23
ENDBRANCH  18  21
ENDBRANCH  13  17
ENDBRANCH  10  11
ENDBRANCH   9  10
ENDBRANCH   1   9
TORSDOF 9
ENDMDL
MODEL 2
REMARK VINA RESULT:      -8.2      2.607      3.251
REMARK  9 active torsions:
REMARK  status: ('A' for Active; 'I' for Inactive)
REMARK    1  A    between atoms: C_3  and  C_4 
REMARK       I    between atoms: C_4  and  N_5 
REMARK    2  A    between atoms: N_5  and  N_6 
REMARK    3  A    between atoms: N_6  and  C_7 
REMARK    4  A    between atoms: C_7  and  N_8 
REMARK    5  A    between atoms: N_8  and  C_9 
REMARK    6  A    between atoms: C_9  and  C_10 
REMARK    7  A    between atoms: C_18  and  C_19 
REMARK    8  A    between atoms: C_19  and  O_20 
REMARK    9  A    between atoms: O_20  and  C_21 
ROOT
HETATM    1  C   UNL     1      -5.195  -0.167 -33.406  1.00  0.00     0.069 A 
HETATM    2  C   UNL     1      -4.249  -1.194 -33.410  1.00  0.00     0.038 A 
HETATM    3  C   UNL     1      -4.566  -2.442 -33.962  1.00  0.00     0.025 A 
HETATM    4  C   UNL     1      -5.831  -2.670 -34.511  1.00  0.00     0.044 A 
HETATM    5  C   UNL     1      -6.150  -3.948 -35.077  1.00  0.00     0.099 C 
HETATM    6  N   UNL     1      -6.399  -4.986 -35.534  1.00  0.00    -0.191 NA
HETATM    7  C   UNL     1      -6.778  -1.644 -34.508  1.00  0.00     0.025 A 
HETATM    8  C   UNL     1      -6.458  -0.400 -33.957  1.00  0.00     0.038 A 
ENDROOT
BRANCH   1   9
HETATM    9  O   UNL     1      -5.014   1.093 -32.905  1.00  0.00    -0.347 OA
BRANCH   9  10
HETATM   10  C   UNL     1      -4.645   1.186 -31.532  1.00  0.00     0.214 C 
BRANCH  10  11
HETATM   11  C   UNL     1      -4.620   2.635 -31.112  1.00  0.00    -0.033 A 
HETATM   12  C   UNL     1      -5.503   3.101 -30.122  1.00  0.00     0.026 A 
HETATM   13  C   UNL     1      -5.574   4.465 -29.821  1.00  0.00     0.034 A 
HETATM   14  C   UNL     1      -4.682   5.351 -30.444  1.00  0.00     0.017 A 
HETATM   15  C   UNL     1      -3.764   4.888 -31.386  1.00  0.00     0.002 A 
HETATM   16  C   UNL     1      -3.742   3.538 -31.728  1.00  0.00     0.009 A 
BRANCH  13  17
HETATM   17  C   UNL     1      -6.521   5.040 -28.830  1.00  0.00     0.270 C 
HETATM   18  N   UNL     1      -6.114   5.475 -27.587  1.00  0.00    -0.264 N 
HETATM   19  H   UNL     1      -6.866   5.773 -26.966  1.00  0.00     0.190 HD
HETATM   20  O   UNL     1      -7.715   5.105 -29.127  1.00  0.00    -0.266 OA
BRANCH  18  21
HETATM   21  N   UNL     1      -4.871   5.272 -26.980  1.00  0.00    -0.274 N 
HETATM   22  H   UNL     1      -4.760   4.481 -26.343  1.00  0.00     0.189 HD
BRANCH  21  23
HETATM   23  C   UNL     1      -4.027   6.335 -26.764  1.00  0.00     0.186 C 
HETATM   24  S   UNL     1      -4.257   7.895 -27.317  1.00  0.00    -0.040 SA
BRANCH  23  25
HETATM   25  N   UNL     1      -2.875   6.055 -26.082  1.00  0.00    -0.364 N 
HETATM   26  H   UNL     1      -2.987   5.329 -25.383  1.00  0.00     0.162 HD
BRANCH  25  27
HETATM   27  C   UNL     1      -1.735   6.953 -25.928  1.00  0.00     0.154 C 
BRANCH  27  28
HETATM   28  C   UNL     1      -0.449   6.477 -26.618  1.00  0.00     0.139 C 
HETATM   29  O   UNL     1       0.686   7.219 -26.126  1.00  0.00    -0.384 OA
HETATM   30  C   UNL     1       1.406   7.734 -27.256  1.00  0.00     0.168 C 
HETATM   31  C   UNL     1       0.407   7.822 -28.386  1.00  0.00     0.029 C 
HETATM   32  C   UNL     1      -0.462   6.616 -28.135  1.00  0.00     0.035 C 
ENDBRANCH  27  28
ENDBRANCH  25  27
ENDBRANCH  23  25
ENDBRANCH  21  23
ENDBRANCH  18  21
ENDBRANCH  13  17
ENDBRANCH  10  11
ENDBRANCH   9  10
ENDBRANCH   1   9
TORSDOF 9
ENDMDL
MODEL 3
REMARK VINA RESULT:      -8.2      3.276      8.945
REMARK  9 active torsions:
REMARK  status: ('A' for Active; 'I' for Inactive)
REMARK    1  A    between atoms: C_3  and  C_4 
REMARK       I    between atoms: C_4  and  N_5 
REMARK    2  A    between atoms: N_5  and  N_6 
REMARK    3  A    between atoms: N_6  and  C_7 
REMARK    4  A    between atoms: C_7  and  N_8 
REMARK    5  A    between atoms: N_8  and  C_9 
REMARK    6  A    between atoms: C_9  and  C_10 
REMARK    7  A    between atoms: C_18  and  C_19 
REMARK    8  A    between atoms: C_19  and  O_20 
REMARK    9  A    between atoms: O_20  and  C_21 
ROOT
HETATM    1  C   UNL     1      -0.867   7.390 -32.256  1.00  0.00     0.069 A 
HETATM    2  C   UNL     1       0.242   6.820 -31.626  1.00  0.00     0.038 A 
HETATM    3  C   UNL     1       0.399   6.932 -30.239  1.00  0.00     0.025 A 
HETATM    4  C   UNL     1      -0.551   7.615 -29.474  1.00  0.00     0.044 A 
HETATM    5  C   UNL     1      -0.387   7.725 -28.054  1.00  0.00     0.099 C 
HETATM    6  N   UNL     1      -0.247   7.808 -26.904  1.00  0.00    -0.191 NA
HETATM    7  C   UNL     1      -1.660   8.186 -30.102  1.00  0.00     0.025 A 
HETATM    8  C   UNL     1      -1.813   8.071 -31.486  1.00  0.00     0.038 A 
ENDROOT
BRANCH   1   9
HETATM    9  O   UNL     1      -1.141   7.351 -33.596  1.00  0.00    -0.347 OA
BRANCH   9  10
HETATM   10  C   UNL     1      -1.120   6.067 -34.213  1.00  0.00     0.214 C 
BRANCH  10  11
HETATM   11  C   UNL     1      -2.387   5.322 -33.872  1.00  0.00    -0.033 A 
HETATM   12  C   UNL     1      -2.418   4.443 -32.776  1.00  0.00     0.026 A 
HETATM   13  C   UNL     1      -3.547   3.653 -32.532  1.00  0.00     0.034 A 
HETATM   14  C   UNL     1      -4.686   3.823 -33.333  1.00  0.00     0.017 A 
HETATM   15  C   UNL     1      -4.683   4.735 -34.387  1.00  0.00     0.002 A 
HETATM   16  C   UNL     1      -3.534   5.472 -34.664  1.00  0.00     0.009 A 
BRANCH  13  17
HETATM   17  C   UNL     1      -3.633   2.660 -31.430  1.00  0.00     0.270 C 
HETATM   18  N   UNL     1      -4.469   2.831 -30.347  1.00  0.00    -0.264 N 
HETATM   19  H   UNL     1      -4.381   2.125 -29.617  1.00  0.00     0.190 HD
HETATM   20  O   UNL     1      -2.912   1.663 -31.479  1.00  0.00    -0.266 OA
BRANCH  18  21
HETATM   21  N   UNL     1      -5.177   3.984 -29.993  1.00  0.00    -0.274 N 
HETATM   22  H   UNL     1      -4.659   4.780 -29.617  1.00  0.00     0.189 HD
BRANCH  21  23
HETATM   23  C   UNL     1      -6.494   3.894 -29.610  1.00  0.00     0.186 C 
HETATM   24  S   UNL     1      -7.387   5.108 -28.887  1.00  0.00    -0.040 SA
BRANCH  23  25
HETATM   25  N   UNL     1      -7.089   2.677 -29.794  1.00  0.00    -0.364 N 
HETATM   26  H   UNL     1      -6.845   1.998 -29.081  1.00  0.00     0.162 HD
BRANCH  25  27
HETATM   27  C   UNL     1      -7.596   2.158 -31.060  1.00  0.00     0.154 C 
BRANCH  27  28
HETATM   28  C   UNL     1      -7.447   0.640 -31.234  1.00  0.00     0.139 C 
HETATM   29  O   UNL     1      -6.185   0.197 -30.693  1.00  0.00    -0.384 OA
HETATM   30  C   UNL     1      -5.519  -0.584 -31.696  1.00  0.00     0.168 C 
HETATM   31  C   UNL     1      -6.076  -0.127 -33.023  1.00  0.00     0.029 C 
HETATM   32  C   UNL     1      -7.515   0.164 -32.680  1.00  0.00     0.035 C 
ENDBRANCH  27  28
ENDBRANCH  25  27
ENDBRANCH  23  25
ENDBRANCH  21  23
ENDBRANCH  18  21
ENDBRANCH  13  17
ENDBRANCH  10  11
ENDBRANCH   9  10
ENDBRANCH   1   9
TORSDOF 9
ENDMDL
MODEL 4
REMARK VINA RESULT:      -8.1      6.345      8.711
REMARK  9 active torsions:
REMARK  status: ('A' for Active; 'I' for Inactive)
REMARK    1  A    between atoms: C_3  and  C_4 
REMARK       I    between atoms: C_4  and  N_5 
REMARK    2  A    between atoms: N_5  and  N_6 
REMARK    3  A    between atoms: N_6  and  C_7 
REMARK    4  A    between atoms: C_7  and  N_8 
REMARK    5  A    between atoms: N_8  and  C_9 
REMARK    6  A    between atoms: C_9  and  C_10 
REMARK    7  A    between atoms: C_18  and  C_19 
REMARK    8  A    between atoms: C_19  and  O_20 
REMARK    9  A    between atoms: O_20  and  C_21 
ROOT
HETATM    1  C   UNL     1      -5.460  -0.163 -33.627  1.00  0.00     0.069 A 
HETATM    2  C   UNL     1      -6.694  -0.564 -34.142  1.00  0.00     0.038 A 
HETATM    3  C   UNL     1      -6.869  -1.870 -34.618  1.00  0.00     0.025 A 
HETATM    4  C   UNL     1      -5.809  -2.781 -34.583  1.00  0.00     0.044 A 
HETATM    5  C   UNL     1      -5.993  -4.117 -35.070  1.00  0.00     0.099 C 
HETATM    6  N   UNL     1      -6.151  -5.198 -35.465  1.00  0.00    -0.191 NA
HETATM    7  C   UNL     1      -4.574  -2.382 -34.069  1.00  0.00     0.025 A 
HETATM    8  C   UNL     1      -4.404  -1.079 -33.594  1.00  0.00     0.038 A 
ENDROOT
BRANCH   1   9
HETATM    9  O   UNL     1      -5.158   1.075 -33.129  1.00  0.00    -0.347 OA
BRANCH   9  10
HETATM   10  C   UNL     1      -5.796   1.443 -31.910  1.00  0.00     0.214 C 
BRANCH  10  11
HETATM   11  C   UNL     1      -6.650   2.667 -32.135  1.00  0.00    -0.033 A 
HETATM   12  C   UNL     1      -7.476   3.153 -31.107  1.00  0.00     0.026 A 
HETATM   13  C   UNL     1      -8.364   4.207 -31.349  1.00  0.00     0.034 A 
HETATM   14  C   UNL     1      -8.349   4.840 -32.601  1.00  0.00     0.017 A 
HETATM   15  C   UNL     1      -7.492   4.400 -33.609  1.00  0.00     0.002 A 
HETATM   16  C   UNL     1      -6.655   3.310 -33.381  1.00  0.00     0.009 A 
BRANCH  13  17
HETATM   17  C   UNL     1      -9.309   4.736 -30.332  1.00  0.00     0.270 C 
HETATM   18  N   UNL     1     -10.596   4.260 -30.202  1.00  0.00    -0.264 N 
HETATM   19  H   UNL     1     -11.175   4.756 -29.525  1.00  0.00     0.190 HD
HETATM   20  O   UNL     1      -8.930   5.649 -29.596  1.00  0.00    -0.266 OA
BRANCH  18  21
HETATM   21  N   UNL     1     -11.281   3.412 -31.078  1.00  0.00    -0.274 N 
HETATM   22  H   UNL     1     -10.799   2.584 -31.436  1.00  0.00     0.189 HD
BRANCH  21  23
HETATM   23  C   UNL     1     -12.285   3.907 -31.874  1.00  0.00     0.186 C 
HETATM   24  S   UNL     1     -13.118   5.335 -31.624  1.00  0.00    -0.040 SA
BRANCH  23  25
HETATM   25  N   UNL     1     -12.660   3.117 -32.926  1.00  0.00    -0.364 N 
HETATM   26  H   UNL     1     -13.248   2.337 -32.654  1.00  0.00     0.162 HD
BRANCH  25  27
HETATM   27  C   UNL     1     -11.961   3.008 -34.203  1.00  0.00     0.154 C 
BRANCH  27  28
HETATM   28  C   UNL     1     -11.343   1.630 -34.477  1.00  0.00     0.139 C 
HETATM   29  O   UNL     1     -11.976   0.626 -33.656  1.00  0.00    -0.384 OA
HETATM   30  C   UNL     1     -10.946  -0.106 -32.976  1.00  0.00     0.168 C 
HETATM   31  C   UNL     1      -9.750   0.813 -32.909  1.00  0.00     0.029 C 
HETATM   32  C   UNL     1      -9.844   1.552 -34.220  1.00  0.00     0.035 C 
ENDBRANCH  27  28
ENDBRANCH  25  27
ENDBRANCH  23  25
ENDBRANCH  21  23
ENDBRANCH  18  21
ENDBRANCH  13  17
ENDBRANCH  10  11
ENDBRANCH   9  10
ENDBRANCH   1   9
TORSDOF 9
ENDMDL
MODEL 5
REMARK VINA RESULT:      -8.1      2.563      4.188
REMARK  9 active torsions:
REMARK  status: ('A' for Active; 'I' for Inactive)
REMARK    1  A    between atoms: C_3  and  C_4 
REMARK       I    between atoms: C_4  and  N_5 
REMARK    2  A    between atoms: N_5  and  N_6 
REMARK    3  A    between atoms: N_6  and  C_7 
REMARK    4  A    between atoms: C_7  and  N_8 
REMARK    5  A    between atoms: N_8  and  C_9 
REMARK    6  A    between atoms: C_9  and  C_10 
REMARK    7  A    between atoms: C_18  and  C_19 
REMARK    8  A    between atoms: C_19  and  O_20 
REMARK    9  A    between atoms: O_20  and  C_21 
ROOT
HETATM    1  C   UNL     1      -5.112  -0.095 -33.531  1.00  0.00     0.069 A 
HETATM    2  C   UNL     1      -4.226  -1.165 -33.394  1.00  0.00     0.038 A 
HETATM    3  C   UNL     1      -4.568  -2.431 -33.884  1.00  0.00     0.025 A 
HETATM    4  C   UNL     1      -5.800  -2.634 -34.514  1.00  0.00     0.044 A 
HETATM    5  C   UNL     1      -6.146  -3.932 -35.016  1.00  0.00     0.099 C 
HETATM    6  N   UNL     1      -6.417  -4.986 -35.421  1.00  0.00    -0.191 NA
HETATM    7  C   UNL     1      -6.688  -1.565 -34.651  1.00  0.00     0.025 A 
HETATM    8  C   UNL     1      -6.341  -0.303 -34.162  1.00  0.00     0.038 A 
ENDROOT
BRANCH   1   9
HETATM    9  O   UNL     1      -4.900   1.188 -33.102  1.00  0.00    -0.347 OA
BRANCH   9  10
HETATM   10  C   UNL     1      -5.269   1.479 -31.757  1.00  0.00     0.214 C 
BRANCH  10  11
HETATM   11  C   UNL     1      -5.457   2.967 -31.596  1.00  0.00    -0.033 A 
HETATM   12  C   UNL     1      -5.227   3.579 -30.351  1.00  0.00     0.026 A 
HETATM   13  C   UNL     1      -5.522   4.933 -30.161  1.00  0.00     0.034 A 
HETATM   14  C   UNL     1      -5.955   5.699 -31.254  1.00  0.00     0.017 A 
HETATM   15  C   UNL     1      -6.131   5.112 -32.506  1.00  0.00     0.002 A 
HETATM   16  C   UNL     1      -5.896   3.750 -32.674  1.00  0.00     0.009 A 
BRANCH  13  17
HETATM   17  C   UNL     1      -5.361   5.635 -28.861  1.00  0.00     0.270 C 
HETATM   18  N   UNL     1      -4.236   6.371 -28.555  1.00  0.00    -0.264 N 
HETATM   19  H   UNL     1      -4.204   6.737 -27.604  1.00  0.00     0.190 HD
HETATM   20  O   UNL     1      -6.256   5.532 -28.021  1.00  0.00    -0.266 OA
BRANCH  18  21
HETATM   21  N   UNL     1      -3.030   6.414 -29.262  1.00  0.00    -0.274 N 
HETATM   22  H   UNL     1      -2.232   5.887 -28.902  1.00  0.00     0.189 HD
BRANCH  21  23
HETATM   23  C   UNL     1      -2.721   7.507 -30.034  1.00  0.00     0.186 C 
HETATM   24  S   UNL     1      -2.330   9.030 -29.464  1.00  0.00    -0.040 SA
BRANCH  23  25
HETATM   25  N   UNL     1      -2.805   7.327 -31.387  1.00  0.00    -0.364 N 
HETATM   26  H   UNL     1      -3.440   6.583 -31.656  1.00  0.00     0.162 HD
BRANCH  25  27
HETATM   27  C   UNL     1      -1.797   7.725 -32.365  1.00  0.00     0.154 C 
BRANCH  27  28
HETATM   28  C   UNL     1      -1.035   6.559 -33.009  1.00  0.00     0.139 C 
HETATM   29  O   UNL     1      -1.209   6.577 -34.441  1.00  0.00    -0.384 OA
HETATM   30  C   UNL     1      -1.641   5.273 -34.855  1.00  0.00     0.168 C 
HETATM   31  C   UNL     1      -2.299   4.646 -33.648  1.00  0.00     0.029 C 
HETATM   32  C   UNL     1      -1.462   5.182 -32.516  1.00  0.00     0.035 C 
ENDBRANCH  27  28
ENDBRANCH  25  27
ENDBRANCH  23  25
ENDBRANCH  21  23
ENDBRANCH  18  21
ENDBRANCH  13  17
ENDBRANCH  10  11
ENDBRANCH   9  10
ENDBRANCH   1   9
TORSDOF 9
ENDMDL
MODEL 6
REMARK VINA RESULT:      -8.0      1.496      2.037
REMARK  9 active torsions:
REMARK  status: ('A' for Active; 'I' for Inactive)
REMARK    1  A    between atoms: C_3  and  C_4 
REMARK       I    between atoms: C_4  and  N_5 
REMARK    2  A    between atoms: N_5  and  N_6 
REMARK    3  A    between atoms: N_6  and  C_7 
REMARK    4  A    between atoms: C_7  and  N_8 
REMARK    5  A    between atoms: N_8  and  C_9 
REMARK    6  A    between atoms: C_9  and  C_10 
REMARK    7  A    between atoms: C_18  and  C_19 
REMARK    8  A    between atoms: C_19  and  O_20 
REMARK    9  A    between atoms: O_20  and  C_21 
ROOT
HETATM    1  C   UNL     1      -4.464   0.806 -32.561  1.00  0.00     0.069 A 
HETATM    2  C   UNL     1      -3.667  -0.338 -32.481  1.00  0.00     0.038 A 
HETATM    3  C   UNL     1      -4.045  -1.508 -33.150  1.00  0.00     0.025 A 
HETATM    4  C   UNL     1      -5.224  -1.542 -33.902  1.00  0.00     0.044 A 
HETATM    5  C   UNL     1      -5.606  -2.742 -34.586  1.00  0.00     0.099 C 
HETATM    6  N   UNL     1      -5.908  -3.718 -35.139  1.00  0.00    -0.191 NA
HETATM    7  C   UNL     1      -6.022  -0.399 -33.982  1.00  0.00     0.025 A 
HETATM    8  C   UNL     1      -5.640   0.768 -33.314  1.00  0.00     0.038 A 
ENDROOT
BRANCH   1   9
HETATM    9  O   UNL     1      -4.208   2.010 -31.962  1.00  0.00    -0.347 OA
BRANCH   9  10
HETATM   10  C   UNL     1      -4.530   3.176 -32.713  1.00  0.00     0.214 C 
BRANCH  10  11
HETATM   11  C   UNL     1      -3.307   4.050 -32.839  1.00  0.00    -0.033 A 
HETATM   12  C   UNL     1      -2.335   4.060 -31.823  1.00  0.00     0.026 A 
HETATM   13  C   UNL     1      -1.266   4.960 -31.872  1.00  0.00     0.034 A 
HETATM   14  C   UNL     1      -1.117   5.785 -32.997  1.00  0.00     0.017 A 
HETATM   15  C   UNL     1      -2.045   5.741 -34.037  1.00  0.00     0.002 A 
HETATM   16  C   UNL     1      -3.142   4.887 -33.952  1.00  0.00     0.009 A 
BRANCH  13  17
HETATM   17  C   UNL     1      -0.234   5.070 -30.808  1.00  0.00     0.270 C 
HETATM   18  N   UNL     1      -0.480   5.694 -29.604  1.00  0.00    -0.264 N 
HETATM   19  H   UNL     1       0.328   5.779 -28.987  1.00  0.00     0.190 HD
HETATM   20  O   UNL     1       0.886   4.605 -31.024  1.00  0.00    -0.266 OA
BRANCH  18  21
HETATM   21  N   UNL     1      -1.587   6.479 -29.263  1.00  0.00    -0.274 N 
HETATM   22  H   UNL     1      -2.521   6.074 -29.351  1.00  0.00     0.189 HD
BRANCH  21  23
HETATM   23  C   UNL     1      -1.520   7.848 -29.365  1.00  0.00     0.186 C 
HETATM   24  S   UNL     1      -2.365   8.791 -30.456  1.00  0.00    -0.040 SA
BRANCH  23  25
HETATM   25  N   UNL     1      -0.632   8.467 -28.529  1.00  0.00    -0.364 N 
HETATM   26  H   UNL     1       0.332   8.200 -28.696  1.00  0.00     0.162 HD
BRANCH  25  27
HETATM   27  C   UNL     1      -0.946   9.038 -27.223  1.00  0.00     0.154 C 
BRANCH  27  28
HETATM   28  C   UNL     1      -0.237   8.361 -26.042  1.00  0.00     0.139 C 
HETATM   29  O   UNL     1       0.220   9.353 -25.099  1.00  0.00    -0.384 OA
HETATM   30  C   UNL     1       1.610   9.113 -24.837  1.00  0.00     0.168 C 
HETATM   31  C   UNL     1       2.144   8.375 -26.043  1.00  0.00     0.029 C 
HETATM   32  C   UNL     1       0.969   7.517 -26.434  1.00  0.00     0.035 C 
ENDBRANCH  27  28
ENDBRANCH  25  27
ENDBRANCH  23  25
ENDBRANCH  21  23
ENDBRANCH  18  21
ENDBRANCH  13  17
ENDBRANCH  10  11
ENDBRANCH   9  10
ENDBRANCH   1   9
TORSDOF 9
ENDMDL
MODEL 7
REMARK VINA RESULT:      -8.0      3.049     10.375
REMARK  9 active torsions:
REMARK  status: ('A' for Active; 'I' for Inactive)
REMARK    1  A    between atoms: C_3  and  C_4 
REMARK       I    between atoms: C_4  and  N_5 
REMARK    2  A    between atoms: N_5  and  N_6 
REMARK    3  A    between atoms: N_6  and  C_7 
REMARK    4  A    between atoms: C_7  and  N_8 
REMARK    5  A    between atoms: N_8  and  C_9 
REMARK    6  A    between atoms: C_9  and  C_10 
REMARK    7  A    between atoms: C_18  and  C_19 
REMARK    8  A    between atoms: C_19  and  O_20 
REMARK    9  A    between atoms: O_20  and  C_21 
ROOT
HETATM    1  C   UNL     1      -0.281   7.095 -28.560  1.00  0.00     0.069 A 
HETATM    2  C   UNL     1      -0.390   6.587 -27.264  1.00  0.00     0.038 A 
HETATM    3  C   UNL     1       0.467   7.041 -26.255  1.00  0.00     0.025 A 
HETATM    4  C   UNL     1       1.439   8.006 -26.535  1.00  0.00     0.044 A 
HETATM    5  C   UNL     1       2.313   8.470 -25.498  1.00  0.00     0.099 C 
HETATM    6  N   UNL     1       3.016   8.841 -24.651  1.00  0.00    -0.191 NA
HETATM    7  C   UNL     1       1.550   8.516 -27.831  1.00  0.00     0.025 A 
HETATM    8  C   UNL     1       0.691   8.060 -28.835  1.00  0.00     0.038 A 
ENDROOT
BRANCH   1   9
HETATM    9  O   UNL     1      -1.054   6.742 -29.633  1.00  0.00    -0.347 OA
BRANCH   9  10
HETATM   10  C   UNL     1      -0.387   6.609 -30.884  1.00  0.00     0.214 C 
BRANCH  10  11
HETATM   11  C   UNL     1      -1.196   5.722 -31.797  1.00  0.00    -0.033 A 
HETATM   12  C   UNL     1      -1.967   4.674 -31.265  1.00  0.00     0.026 A 
HETATM   13  C   UNL     1      -2.616   3.769 -32.112  1.00  0.00     0.034 A 
HETATM   14  C   UNL     1      -2.572   3.979 -33.499  1.00  0.00     0.017 A 
HETATM   15  C   UNL     1      -1.856   5.050 -34.032  1.00  0.00     0.002 A 
HETATM   16  C   UNL     1      -1.161   5.910 -33.186  1.00  0.00     0.009 A 
BRANCH  13  17
HETATM   17  C   UNL     1      -3.399   2.604 -31.626  1.00  0.00     0.270 C 
HETATM   18  N   UNL     1      -4.777   2.573 -31.669  1.00  0.00    -0.264 N 
HETATM   19  H   UNL     1      -5.205   1.757 -31.232  1.00  0.00     0.190 HD
HETATM   20  O   UNL     1      -2.793   1.645 -31.146  1.00  0.00    -0.266 OA
BRANCH  18  21
HETATM   21  N   UNL     1      -5.643   3.634 -31.949  1.00  0.00    -0.274 N 
HETATM   22  H   UNL     1      -5.889   4.279 -31.195  1.00  0.00     0.189 HD
BRANCH  21  23
HETATM   23  C   UNL     1      -6.565   3.523 -32.961  1.00  0.00     0.186 C 
HETATM   24  S   UNL     1      -8.093   4.202 -32.973  1.00  0.00    -0.040 SA
BRANCH  23  25
HETATM   25  N   UNL     1      -6.202   2.735 -34.018  1.00  0.00    -0.364 N 
HETATM   26  H   UNL     1      -5.624   3.216 -34.699  1.00  0.00     0.162 HD
BRANCH  25  27
HETATM   27  C   UNL     1      -6.903   1.536 -34.470  1.00  0.00     0.154 C 
BRANCH  27  28
HETATM   28  C   UNL     1      -6.704   0.305 -33.575  1.00  0.00     0.139 C 
HETATM   29  O   UNL     1      -5.298   0.057 -33.370  1.00  0.00    -0.384 OA
HETATM   30  C   UNL     1      -5.035  -1.317 -33.690  1.00  0.00     0.168 C 
HETATM   31  C   UNL     1      -6.126  -1.742 -34.645  1.00  0.00     0.029 C 
HETATM   32  C   UNL     1      -7.317  -0.976 -34.127  1.00  0.00     0.035 C 
ENDBRANCH  27  28
ENDBRANCH  25  27
ENDBRANCH  23  25
ENDBRANCH  21  23
ENDBRANCH  18  21
ENDBRANCH  13  17
ENDBRANCH  10  11
ENDBRANCH   9  10
ENDBRANCH   1   9
TORSDOF 9
ENDMDL
MODEL 8
REMARK VINA RESULT:      -7.8      4.989      6.752
REMARK  9 active torsions:
REMARK  status: ('A' for Active; 'I' for Inactive)
REMARK    1  A    between atoms: C_3  and  C_4 
REMARK       I    between atoms: C_4  and  N_5 
REMARK    2  A    between atoms: N_5  and  N_6 
REMARK    3  A    between atoms: N_6  and  C_7 
REMARK    4  A    between atoms: C_7  and  N_8 
REMARK    5  A    between atoms: N_8  and  C_9 
REMARK    6  A    between atoms: C_9  and  C_10 
REMARK    7  A    between atoms: C_18  and  C_19 
REMARK    8  A    between atoms: C_19  and  O_20 
REMARK    9  A    between atoms: O_20  and  C_21 
ROOT
HETATM    1  C   UNL     1     -11.023   1.749 -33.542  1.00  0.00     0.069 A 
HETATM    2  C   UNL     1     -11.838   0.666 -33.881  1.00  0.00     0.038 A 
HETATM    3  C   UNL     1     -13.218   0.724 -33.650  1.00  0.00     0.025 A 
HETATM    4  C   UNL     1     -13.791   1.864 -33.079  1.00  0.00     0.044 A 
HETATM    5  C   UNL     1     -15.204   1.920 -32.846  1.00  0.00     0.099 C 
HETATM    6  N   UNL     1     -16.350   1.957 -32.663  1.00  0.00    -0.191 NA
HETATM    7  C   UNL     1     -12.977   2.947 -32.739  1.00  0.00     0.025 A 
HETATM    8  C   UNL     1     -11.600   2.886 -32.972  1.00  0.00     0.038 A 
ENDROOT
BRANCH   1   9
HETATM    9  O   UNL     1      -9.667   1.823 -33.717  1.00  0.00    -0.347 OA
BRANCH   9  10
HETATM   10  C   UNL     1      -9.089   0.882 -34.617  1.00  0.00     0.214 C 
BRANCH  10  11
HETATM   11  C   UNL     1      -7.919   0.200 -33.953  1.00  0.00    -0.033 A 
HETATM   12  C   UNL     1      -7.547   0.548 -32.642  1.00  0.00     0.026 A 
HETATM   13  C   UNL     1      -6.388   0.015 -32.068  1.00  0.00     0.034 A 
HETATM   14  C   UNL     1      -5.656  -0.949 -32.776  1.00  0.00     0.017 A 
HETATM   15  C   UNL     1      -6.049  -1.342 -34.055  1.00  0.00     0.002 A 
HETATM   16  C   UNL     1      -7.169  -0.761 -34.646  1.00  0.00     0.009 A 
BRANCH  13  17
HETATM   17  C   UNL     1      -5.900   0.379 -30.713  1.00  0.00     0.270 C 
HETATM   18  N   UNL     1      -4.854   1.255 -30.516  1.00  0.00    -0.264 N 
HETATM   19  H   UNL     1      -4.556   1.363 -29.547  1.00  0.00     0.190 HD
HETATM   20  O   UNL     1      -6.437  -0.142 -29.734  1.00  0.00    -0.266 OA
BRANCH  18  21
HETATM   21  N   UNL     1      -3.974   1.758 -31.480  1.00  0.00    -0.274 N 
HETATM   22  H   UNL     1      -3.099   1.260 -31.653  1.00  0.00     0.189 HD
BRANCH  21  23
HETATM   23  C   UNL     1      -3.962   3.102 -31.768  1.00  0.00     0.186 C 
HETATM   24  S   UNL     1      -4.910   3.867 -32.913  1.00  0.00    -0.040 SA
BRANCH  23  25
HETATM   25  N   UNL     1      -3.044   3.852 -31.086  1.00  0.00    -0.364 N 
HETATM   26  H   UNL     1      -3.014   3.646 -30.093  1.00  0.00     0.162 HD
BRANCH  25  27
HETATM   27  C   UNL     1      -2.506   5.140 -31.513  1.00  0.00     0.154 C 
BRANCH  27  28
HETATM   28  C   UNL     1      -0.981   5.172 -31.679  1.00  0.00     0.139 C 
HETATM   29  O   UNL     1      -0.348   4.401 -30.636  1.00  0.00    -0.384 OA
HETATM   30  C   UNL     1       0.657   5.221 -30.022  1.00  0.00     0.168 C 
HETATM   31  C   UNL     1       0.242   6.652 -30.270  1.00  0.00     0.029 C 
HETATM   32  C   UNL     1      -0.375   6.570 -31.643  1.00  0.00     0.035 C 
ENDBRANCH  27  28
ENDBRANCH  25  27
ENDBRANCH  23  25
ENDBRANCH  21  23
ENDBRANCH  18  21
ENDBRANCH  13  17
ENDBRANCH  10  11
ENDBRANCH   9  10
ENDBRANCH   1   9
TORSDOF 9
ENDMDL
MODEL 9
REMARK VINA RESULT:      -7.7     18.372     19.949
REMARK  9 active torsions:
REMARK  status: ('A' for Active; 'I' for Inactive)
REMARK    1  A    between atoms: C_3  and  C_4 
REMARK       I    between atoms: C_4  and  N_5 
REMARK    2  A    between atoms: N_5  and  N_6 
REMARK    3  A    between atoms: N_6  and  C_7 
REMARK    4  A    between atoms: C_7  and  N_8 
REMARK    5  A    between atoms: N_8  and  C_9 
REMARK    6  A    between atoms: C_9  and  C_10 
REMARK    7  A    between atoms: C_18  and  C_19 
REMARK    8  A    between atoms: C_19  and  O_20 
REMARK    9  A    between atoms: O_20  and  C_21 
ROOT
HETATM    1  C   UNL     1      -2.464 -15.290 -41.377  1.00  0.00     0.069 A 
HETATM    2  C   UNL     1      -1.874 -16.439 -40.847  1.00  0.00     0.038 A 
HETATM    3  C   UNL     1      -0.609 -16.371 -40.251  1.00  0.00     0.025 A 
HETATM    4  C   UNL     1       0.075 -15.154 -40.184  1.00  0.00     0.044 A 
HETATM    5  C   UNL     1       1.370 -15.089 -39.571  1.00  0.00     0.099 C 
HETATM    6  N   UNL     1       2.417 -15.045 -39.072  1.00  0.00    -0.191 NA
HETATM    7  C   UNL     1      -0.513 -14.004 -40.714  1.00  0.00     0.025 A 
HETATM    8  C   UNL     1      -1.777 -14.076 -41.306  1.00  0.00     0.038 A 
ENDROOT
BRANCH   1   9
HETATM    9  O   UNL     1      -3.690 -15.218 -41.980  1.00  0.00    -0.347 OA
BRANCH   9  10
HETATM   10  C   UNL     1      -4.813 -15.587 -41.184  1.00  0.00     0.214 C 
BRANCH  10  11
HETATM   11  C   UNL     1      -5.380 -14.361 -40.512  1.00  0.00    -0.033 A 
HETATM   12  C   UNL     1      -6.136 -14.485 -39.333  1.00  0.00     0.026 A 
HETATM   13  C   UNL     1      -6.771 -13.370 -38.777  1.00  0.00     0.034 A 
HETATM   14  C   UNL     1      -6.562 -12.107 -39.350  1.00  0.00     0.017 A 
HETATM   15  C   UNL     1      -5.767 -11.966 -40.487  1.00  0.00     0.002 A 
HETATM   16  C   UNL     1      -5.189 -13.090 -41.073  1.00  0.00     0.009 A 
BRANCH  13  17
HETATM   17  C   UNL     1      -7.633 -13.433 -37.568  1.00  0.00     0.270 C 
HETATM   18  N   UNL     1      -7.130 -13.269 -36.295  1.00  0.00    -0.264 N 
HETATM   19  H   UNL     1      -7.802 -13.415 -35.542  1.00  0.00     0.190 HD
HETATM   20  O   UNL     1      -8.834 -13.664 -37.713  1.00  0.00    -0.266 OA
BRANCH  18  21
HETATM   21  N   UNL     1      -5.786 -13.237 -35.909  1.00  0.00    -0.274 N 
HETATM   22  H   UNL     1      -5.069 -13.171 -36.634  1.00  0.00     0.189 HD
BRANCH  21  23
HETATM   23  C   UNL     1      -5.392 -13.830 -34.734  1.00  0.00     0.186 C 
HETATM   24  S   UNL     1      -6.362 -14.100 -33.399  1.00  0.00    -0.040 SA
BRANCH  23  25
HETATM   25  N   UNL     1      -4.069 -14.168 -34.648  1.00  0.00    -0.364 N 
HETATM   26  H   UNL     1      -3.447 -13.367 -34.661  1.00  0.00     0.162 HD
BRANCH  25  27
HETATM   27  C   UNL     1      -3.494 -15.461 -35.007  1.00  0.00     0.154 C 
BRANCH  27  28
HETATM   28  C   UNL     1      -2.493 -15.414 -36.169  1.00  0.00     0.139 C 
HETATM   29  O   UNL     1      -1.536 -14.354 -35.962  1.00  0.00    -0.384 OA
HETATM   30  C   UNL     1      -1.496 -13.551 -37.151  1.00  0.00     0.168 C 
HETATM   31  C   UNL     1      -2.828 -13.748 -37.837  1.00  0.00     0.029 C 
HETATM   32  C   UNL     1      -3.127 -15.195 -37.537  1.00  0.00     0.035 C 
ENDBRANCH  27  28
ENDBRANCH  25  27
ENDBRANCH  23  25
ENDBRANCH  21  23
ENDBRANCH  18  21
ENDBRANCH  13  17
ENDBRANCH  10  11
ENDBRANCH   9  10
ENDBRANCH   1   9
TORSDOF 9
ENDMDL
MODEL 10
REMARK VINA RESULT:      -7.6      2.875     10.049
REMARK  9 active torsions:
REMARK  status: ('A' for Active; 'I' for Inactive)
REMARK    1  A    between atoms: C_3  and  C_4 
REMARK       I    between atoms: C_4  and  N_5 
REMARK    2  A    between atoms: N_5  and  N_6 
REMARK    3  A    between atoms: N_6  and  C_7 
REMARK    4  A    between atoms: C_7  and  N_8 
REMARK    5  A    between atoms: N_8  and  C_9 
REMARK    6  A    between atoms: C_9  and  C_10 
REMARK    7  A    between atoms: C_18  and  C_19 
REMARK    8  A    between atoms: C_19  and  O_20 
REMARK    9  A    between atoms: O_20  and  C_21 
ROOT
HETATM    1  C   UNL     1      -1.070   7.703 -29.602  1.00  0.00     0.069 A 
HETATM    2  C   UNL     1       0.240   7.221 -29.649  1.00  0.00     0.038 A 
HETATM    3  C   UNL     1       1.121   7.471 -28.590  1.00  0.00     0.025 A 
HETATM    4  C   UNL     1       0.699   8.205 -27.478  1.00  0.00     0.044 A 
HETATM    5  C   UNL     1       1.604   8.458 -26.396  1.00  0.00     0.099 C 
HETATM    6  N   UNL     1       2.344   8.656 -25.523  1.00  0.00    -0.191 NA
HETATM    7  C   UNL     1      -0.610   8.688 -27.430  1.00  0.00     0.025 A 
HETATM    8  C   UNL     1      -1.488   8.435 -28.488  1.00  0.00     0.038 A 
ENDROOT
BRANCH   1   9
HETATM    9  O   UNL     1      -2.029   7.526 -30.562  1.00  0.00    -0.347 OA
BRANCH   9  10
HETATM   10  C   UNL     1      -1.732   8.034 -31.859  1.00  0.00     0.214 C 
BRANCH  10  11
HETATM   11  C   UNL     1      -2.039   6.982 -32.896  1.00  0.00    -0.033 A 
HETATM   12  C   UNL     1      -3.294   6.349 -32.913  1.00  0.00     0.026 A 
HETATM   13  C   UNL     1      -3.540   5.285 -33.787  1.00  0.00     0.034 A 
HETATM   14  C   UNL     1      -2.556   4.923 -34.718  1.00  0.00     0.017 A 
HETATM   15  C   UNL     1      -1.329   5.584 -34.747  1.00  0.00     0.002 A 
HETATM   16  C   UNL     1      -1.067   6.600 -33.832  1.00  0.00     0.009 A 
BRANCH  13  17
HETATM   17  C   UNL     1      -4.820   4.529 -33.822  1.00  0.00     0.270 C 
HETATM   18  N   UNL     1      -5.036   3.411 -33.046  1.00  0.00    -0.264 N 
HETATM   19  H   UNL     1      -5.919   2.930 -33.216  1.00  0.00     0.190 HD
HETATM   20  O   UNL     1      -5.705   4.906 -34.591  1.00  0.00    -0.266 OA
BRANCH  18  21
HETATM   21  N   UNL     1      -4.092   2.696 -32.301  1.00  0.00    -0.274 N 
HETATM   22  H   UNL     1      -3.156   2.569 -32.689  1.00  0.00     0.189 HD
BRANCH  21  23
HETATM   23  C   UNL     1      -4.502   1.736 -31.407  1.00  0.00     0.186 C 
HETATM   24  S   UNL     1      -5.604   1.956 -30.170  1.00  0.00    -0.040 SA
BRANCH  23  25
HETATM   25  N   UNL     1      -3.898   0.514 -31.523  1.00  0.00    -0.364 N 
HETATM   26  H   UNL     1      -2.885   0.567 -31.549  1.00  0.00     0.162 HD
BRANCH  25  27
HETATM   27  C   UNL     1      -4.514  -0.695 -32.060  1.00  0.00     0.154 C 
BRANCH  27  28
HETATM   28  C   UNL     1      -4.778  -0.660 -33.572  1.00  0.00     0.139 C 
HETATM   29  O   UNL     1      -5.680   0.418 -33.897  1.00  0.00    -0.384 OA
HETATM   30  C   UNL     1      -6.751  -0.119 -34.688  1.00  0.00     0.168 C 
HETATM   31  C   UNL     1      -6.829  -1.588 -34.346  1.00  0.00     0.029 C 
HETATM   32  C   UNL     1      -5.379  -1.942 -34.134  1.00  0.00     0.035 C 
ENDBRANCH  27  28
ENDBRANCH  25  27
ENDBRANCH  23  25
ENDBRANCH  21  23
ENDBRANCH  18  21
ENDBRANCH  13  17
ENDBRANCH  10  11
ENDBRANCH   9  10
ENDBRANCH   1   9
TORSDOF 9
ENDMDL
