MODEL 1
REMARK VINA RESULT:      -8.3      0.000      0.000
REMARK  5 active torsions:
REMARK  status: ('A' for Active; 'I' for Inactive)
REMARK    1  A    between atoms: C_2  and  N_3 
REMARK       I    between atoms: N_3  and  C_4 
REMARK       I    between atoms: C_4  and  N_5 
REMARK    2  A    between atoms: N_5  and  C_6 
REMARK    3  A    between atoms: C_9  and  C_10 
REMARK    4  A    between atoms: C_10  and  N_11 
REMARK       I    between atoms: N_11  and  C_12 
REMARK    5  A    between atoms: C_12  and  C_13 
ROOT
HETATM    1  N   UNL     1      -6.943   0.731 -34.588  1.00  0.00    -0.353 N 
HETATM    2  C   UNL     1      -7.389  -0.406 -33.942  1.00  0.00     0.254 C 
HETATM    3  O   UNL     1      -8.358  -0.388 -33.186  1.00  0.00    -0.268 OA
HETATM    4  H   UNL     1      -6.051   0.758 -35.057  1.00  0.00     0.163 HD
ENDROOT
BRANCH   1   5
HETATM    5  C   UNL     1      -7.556   1.996 -34.260  1.00  0.00     0.161 C 
BRANCH   5   6
HETATM    6  C   UNL     1      -6.704   2.845 -33.359  1.00  0.00    -0.040 A 
HETATM    7  C   UNL     1      -6.605   2.547 -31.994  1.00  0.00     0.011 A 
HETATM    8  C   UNL     1      -5.698   3.232 -31.178  1.00  0.00     0.030 A 
HETATM    9  C   UNL     1      -4.880   4.229 -31.710  1.00  0.00     0.036 A 
HETATM   10  C   UNL     1      -5.046   4.591 -33.053  1.00  0.00     0.030 A 
HETATM   11  C   UNL     1      -5.948   3.904 -33.872  1.00  0.00     0.011 A 
BRANCH   9  12
HETATM   12  N   UNL     1      -3.845   4.866 -30.993  1.00  0.00    -0.309 N 
HETATM   13  C   UNL     1      -2.486   4.665 -31.140  1.00  0.00     0.321 C 
HETATM   14  N   UNL     1      -1.781   5.613 -30.422  1.00  0.00    -0.339 N 
HETATM   15  O   UNL     1      -1.945   3.826 -31.846  1.00  0.00    -0.247 OA
HETATM   16  H   UNL     1      -2.226   5.950 -29.582  1.00  0.00     0.164 HD
HETATM   17  H   UNL     1      -4.101   5.707 -30.501  1.00  0.00     0.170 HD
BRANCH  14  18
HETATM   18  C   UNL     1      -0.329   5.752 -30.479  1.00  0.00     0.078 C 
HETATM   19  C   UNL     1       0.292   6.017 -29.108  1.00  0.00     0.032 C 
HETATM   20  C   UNL     1       0.115   6.787 -31.508  1.00  0.00     0.032 C 
ENDBRANCH  14  18
ENDBRANCH   9  12
ENDBRANCH   5   6
ENDBRANCH   1   5
BRANCH   2  21
HETATM   21  C   UNL     1      -6.643  -1.676 -34.150  1.00  0.00     0.064 A 
HETATM   22  C   UNL     1      -5.387  -1.830 -33.581  1.00  0.00     0.077 A 
HETATM   23  C   UNL     1      -4.628  -2.992 -33.747  1.00  0.00     0.065 A 
HETATM   24  N   UNL     1      -4.644  -0.958 -32.780  1.00  0.00    -0.330 N 
HETATM   25  N   UNL     1      -3.428  -2.831 -33.055  1.00  0.00    -0.331 N 
HETATM   26  C   UNL     1      -5.075  -4.060 -34.482  1.00  0.00     0.074 A 
HETATM   27  C   UNL     1      -3.434  -1.569 -32.445  1.00  0.00     0.176 A 
HETATM   28  H   UNL     1      -2.676  -3.500 -32.978  1.00  0.00     0.168 HD
HETATM   29  S   UNL     1      -2.237  -0.937 -31.508  1.00  0.00    -0.041 SA
HETATM   30  C   UNL     1      -6.339  -3.924 -35.052  1.00  0.00     0.119 A 
HETATM   31  F   UNL     1      -6.835  -4.936 -35.776  1.00  0.00    -0.206 F 
HETATM   32  C   UNL     1      -7.124  -2.762 -34.895  1.00  0.00     0.061 A 
HETATM   33  H   UNL     1      -4.971  -0.043 -32.485  1.00  0.00     0.168 HD
ENDBRANCH   2  21
TORSDOF 5
ENDMDL
MODEL 2
REMARK VINA RESULT:      -8.3      3.794      8.412
REMARK  5 active torsions:
REMARK  status: ('A' for Active; 'I' for Inactive)
REMARK    1  A    between atoms: C_2  and  N_3 
REMARK       I    between atoms: N_3  and  C_4 
REMARK       I    between atoms: C_4  and  N_5 
REMARK    2  A    between atoms: N_5  and  C_6 
REMARK    3  A    between atoms: C_9  and  C_10 
REMARK    4  A    between atoms: C_10  and  N_11 
REMARK       I    between atoms: N_11  and  C_12 
REMARK    5  A    between atoms: C_12  and  C_13 
ROOT
HETATM    1  N   UNL     1      -3.416   1.273 -32.670  1.00  0.00    -0.353 N 
HETATM    2  C   UNL     1      -3.459   2.465 -31.972  1.00  0.00     0.254 C 
HETATM    3  O   UNL     1      -3.803   2.517 -30.793  1.00  0.00    -0.268 OA
HETATM    4  H   UNL     1      -3.315   1.250 -33.673  1.00  0.00     0.163 HD
ENDROOT
BRANCH   1   5
HETATM    5  C   UNL     1      -3.916   0.080 -32.029  1.00  0.00     0.161 C 
BRANCH   5   6
HETATM    6  C   UNL     1      -5.403  -0.085 -32.173  1.00  0.00    -0.040 A 
HETATM    7  C   UNL     1      -6.247   0.132 -31.077  1.00  0.00     0.011 A 
HETATM    8  C   UNL     1      -7.637   0.132 -31.236  1.00  0.00     0.030 A 
HETATM    9  C   UNL     1      -8.207  -0.089 -32.491  1.00  0.00     0.036 A 
HETATM   10  C   UNL     1      -7.365  -0.400 -33.566  1.00  0.00     0.030 A 
HETATM   11  C   UNL     1      -5.975  -0.395 -33.411  1.00  0.00     0.011 A 
BRANCH   9  12
HETATM   12  N   UNL     1      -9.585   0.035 -32.765  1.00  0.00    -0.309 N 
HETATM   13  C   UNL     1     -10.283   1.203 -33.006  1.00  0.00     0.321 C 
HETATM   14  N   UNL     1     -11.563   0.915 -33.441  1.00  0.00    -0.339 N 
HETATM   15  O   UNL     1      -9.848   2.343 -32.925  1.00  0.00    -0.247 OA
HETATM   16  H   UNL     1     -11.970   0.065 -33.082  1.00  0.00     0.164 HD
HETATM   17  H   UNL     1     -10.059  -0.810 -33.043  1.00  0.00     0.170 HD
BRANCH  14  18
HETATM   18  C   UNL     1     -12.504   1.930 -33.906  1.00  0.00     0.078 C 
HETATM   19  C   UNL     1     -13.940   1.648 -33.465  1.00  0.00     0.032 C 
HETATM   20  C   UNL     1     -12.412   2.161 -35.412  1.00  0.00     0.032 C 
ENDBRANCH  14  18
ENDBRANCH   9  12
ENDBRANCH   5   6
ENDBRANCH   1   5
BRANCH   2  21
HETATM   21  C   UNL     1      -3.108   3.718 -32.692  1.00  0.00     0.064 A 
HETATM   22  C   UNL     1      -2.236   4.622 -32.103  1.00  0.00     0.077 A 
HETATM   23  C   UNL     1      -1.874   5.823 -32.719  1.00  0.00     0.065 A 
HETATM   24  N   UNL     1      -1.567   4.565 -30.876  1.00  0.00    -0.330 N 
HETATM   25  N   UNL     1      -0.992   6.498 -31.875  1.00  0.00    -0.331 N 
HETATM   26  C   UNL     1      -2.355   6.189 -33.950  1.00  0.00     0.074 A 
HETATM   27  C   UNL     1      -0.792   5.717 -30.729  1.00  0.00     0.176 A 
HETATM   28  H   UNL     1      -0.549   7.388 -32.045  1.00  0.00     0.168 HD
HETATM   29  S   UNL     1       0.181   6.093 -29.454  1.00  0.00    -0.041 SA
HETATM   30  C   UNL     1      -3.225   5.285 -34.560  1.00  0.00     0.119 A 
HETATM   31  F   UNL     1      -3.723   5.582 -35.767  1.00  0.00    -0.206 F 
HETATM   32  C   UNL     1      -3.601   4.066 -33.957  1.00  0.00     0.061 A 
HETATM   33  H   UNL     1      -1.635   3.785 -30.230  1.00  0.00     0.168 HD
ENDBRANCH   2  21
TORSDOF 5
ENDMDL
MODEL 3
REMARK VINA RESULT:      -8.1      5.054      9.740
REMARK  5 active torsions:
REMARK  status: ('A' for Active; 'I' for Inactive)
REMARK    1  A    between atoms: C_2  and  N_3 
REMARK       I    between atoms: N_3  and  C_4 
REMARK       I    between atoms: C_4  and  N_5 
REMARK    2  A    between atoms: N_5  and  C_6 
REMARK    3  A    between atoms: C_9  and  C_10 
REMARK    4  A    between atoms: C_10  and  N_11 
REMARK       I    between atoms: N_11  and  C_12 
REMARK    5  A    between atoms: C_12  and  C_13 
ROOT
HETATM    1  N   UNL     1      -1.115   6.262 -32.507  1.00  0.00    -0.353 N 
HETATM    2  C   UNL     1      -0.441   5.796 -31.394  1.00  0.00     0.254 C 
HETATM    3  O   UNL     1       0.108   4.696 -31.379  1.00  0.00    -0.268 OA
HETATM    4  H   UNL     1      -1.715   7.071 -32.461  1.00  0.00     0.163 HD
ENDROOT
BRANCH   1   5
HETATM    5  C   UNL     1      -1.287   5.374 -33.632  1.00  0.00     0.161 C 
BRANCH   5   6
HETATM    6  C   UNL     1      -2.657   4.759 -33.690  1.00  0.00    -0.040 A 
HETATM    7  C   UNL     1      -3.004   3.724 -32.813  1.00  0.00     0.011 A 
HETATM    8  C   UNL     1      -4.320   3.250 -32.753  1.00  0.00     0.030 A 
HETATM    9  C   UNL     1      -5.309   3.799 -33.571  1.00  0.00     0.036 A 
HETATM   10  C   UNL     1      -4.941   4.768 -34.513  1.00  0.00     0.030 A 
HETATM   11  C   UNL     1      -3.628   5.247 -34.571  1.00  0.00     0.011 A 
BRANCH   9  12
HETATM   12  N   UNL     1      -6.680   3.481 -33.474  1.00  0.00    -0.309 N 
HETATM   13  C   UNL     1      -7.306   2.347 -33.953  1.00  0.00     0.321 C 
HETATM   14  N   UNL     1      -8.606   2.284 -33.488  1.00  0.00    -0.339 N 
HETATM   15  O   UNL     1      -6.799   1.467 -34.635  1.00  0.00    -0.247 OA
HETATM   16  H   UNL     1      -9.061   3.171 -33.333  1.00  0.00     0.164 HD
HETATM   17  H   UNL     1      -7.208   4.005 -32.794  1.00  0.00     0.170 HD
BRANCH  14  18
HETATM   18  C   UNL     1      -9.487   1.141 -33.707  1.00  0.00     0.078 C 
HETATM   19  C   UNL     1     -10.893   1.555 -34.143  1.00  0.00     0.032 C 
HETATM   20  C   UNL     1      -9.523   0.198 -32.509  1.00  0.00     0.032 C 
ENDBRANCH  14  18
ENDBRANCH   9  12
ENDBRANCH   5   6
ENDBRANCH   1   5
BRANCH   2  21
HETATM   21  C   UNL     1      -0.416   6.646 -30.175  1.00  0.00     0.064 A 
HETATM   22  C   UNL     1      -1.594   6.874 -29.478  1.00  0.00     0.077 A 
HETATM   23  C   UNL     1      -1.644   7.672 -28.332  1.00  0.00     0.065 A 
HETATM   24  N   UNL     1      -2.891   6.408 -29.717  1.00  0.00    -0.330 N 
HETATM   25  N   UNL     1      -2.961   7.697 -27.874  1.00  0.00    -0.331 N 
HETATM   26  C   UNL     1      -0.529   8.283 -27.816  1.00  0.00     0.074 A 
HETATM   27  C   UNL     1      -3.741   6.907 -28.729  1.00  0.00     0.176 A 
HETATM   28  H   UNL     1      -3.313   8.181 -27.062  1.00  0.00     0.168 HD
HETATM   29  S   UNL     1      -5.357   6.624 -28.584  1.00  0.00    -0.041 SA
HETATM   30  C   UNL     1       0.664   8.056 -28.500  1.00  0.00     0.119 A 
HETATM   31  F   UNL     1       1.789   8.620 -28.041  1.00  0.00    -0.206 F 
HETATM   32  C   UNL     1       0.737   7.251 -29.657  1.00  0.00     0.061 A 
HETATM   33  H   UNL     1      -3.137   5.787 -30.482  1.00  0.00     0.168 HD
ENDBRANCH   2  21
TORSDOF 5
ENDMDL
MODEL 4
REMARK VINA RESULT:      -8.1      6.223      9.207
REMARK  5 active torsions:
REMARK  status: ('A' for Active; 'I' for Inactive)
REMARK    1  A    between atoms: C_2  and  N_3 
REMARK       I    between atoms: N_3  and  C_4 
REMARK       I    between atoms: C_4  and  N_5 
REMARK    2  A    between atoms: N_5  and  C_6 
REMARK    3  A    between atoms: C_9  and  C_10 
REMARK    4  A    between atoms: C_10  and  N_11 
REMARK       I    between atoms: N_11  and  C_12 
REMARK    5  A    between atoms: C_12  and  C_13 
ROOT
HETATM    1  N   UNL     1      -2.423   6.574 -30.174  1.00  0.00    -0.353 N 
HETATM    2  C   UNL     1      -2.511   7.288 -31.353  1.00  0.00     0.254 C 
HETATM    3  O   UNL     1      -2.539   8.516 -31.370  1.00  0.00    -0.268 OA
HETATM    4  H   UNL     1      -2.584   5.579 -30.144  1.00  0.00     0.163 HD
ENDROOT
BRANCH   1   5
HETATM    5  C   UNL     1      -2.496   7.293 -28.924  1.00  0.00     0.161 C 
BRANCH   5   6
HETATM    6  C   UNL     1      -1.187   7.324 -28.187  1.00  0.00    -0.040 A 
HETATM    7  C   UNL     1      -0.111   8.064 -28.691  1.00  0.00     0.011 A 
HETATM    8  C   UNL     1       1.059   8.227 -27.938  1.00  0.00     0.030 A 
HETATM    9  C   UNL     1       1.173   7.648 -26.674  1.00  0.00     0.036 A 
HETATM   10  C   UNL     1       0.134   6.830 -26.212  1.00  0.00     0.030 A 
HETATM   11  C   UNL     1      -1.038   6.671 -26.959  1.00  0.00     0.011 A 
BRANCH   9  12
HETATM   12  N   UNL     1       2.253   7.878 -25.795  1.00  0.00    -0.309 N 
HETATM   13  C   UNL     1       2.257   8.692 -24.679  1.00  0.00     0.321 C 
HETATM   14  N   UNL     1       3.419   8.504 -23.953  1.00  0.00    -0.339 N 
HETATM   15  O   UNL     1       1.356   9.435 -24.314  1.00  0.00    -0.247 OA
HETATM   16  H   UNL     1       4.237   8.256 -24.488  1.00  0.00     0.164 HD
HETATM   17  H   UNL     1       3.011   7.217 -25.844  1.00  0.00     0.170 HD
BRANCH  14  18
HETATM   18  C   UNL     1       3.665   9.118 -22.652  1.00  0.00     0.078 C 
HETATM   19  C   UNL     1       4.679  10.259 -22.721  1.00  0.00     0.032 C 
HETATM   20  C   UNL     1       4.042   8.092 -21.587  1.00  0.00     0.032 C 
ENDBRANCH  14  18
ENDBRANCH   9  12
ENDBRANCH   5   6
ENDBRANCH   1   5
BRANCH   2  21
HETATM   21  C   UNL     1      -2.610   6.533 -32.630  1.00  0.00     0.064 A 
HETATM   22  C   UNL     1      -3.846   6.063 -33.051  1.00  0.00     0.077 A 
HETATM   23  C   UNL     1      -4.008   5.337 -34.234  1.00  0.00     0.065 A 
HETATM   24  N   UNL     1      -5.109   6.186 -32.462  1.00  0.00    -0.330 N 
HETATM   25  N   UNL     1      -5.359   5.016 -34.368  1.00  0.00    -0.331 N 
HETATM   26  C   UNL     1      -2.955   5.041 -35.062  1.00  0.00     0.074 A 
HETATM   27  C   UNL     1      -6.051   5.548 -33.272  1.00  0.00     0.176 A 
HETATM   28  H   UNL     1      -5.790   4.504 -35.123  1.00  0.00     0.168 HD
HETATM   29  S   UNL     1      -7.671   5.438 -32.999  1.00  0.00    -0.041 SA
HETATM   30  C   UNL     1      -1.708   5.516 -34.658  1.00  0.00     0.119 A 
HETATM   31  F   UNL     1      -0.641   5.266 -35.429  1.00  0.00    -0.206 F 
HETATM   32  C   UNL     1      -1.523   6.253 -33.470  1.00  0.00     0.061 A 
HETATM   33  H   UNL     1      -5.283   6.689 -31.598  1.00  0.00     0.168 HD
ENDBRANCH   2  21
TORSDOF 5
ENDMDL
MODEL 5
REMARK VINA RESULT:      -8.0      3.531      8.693
REMARK  5 active torsions:
REMARK  status: ('A' for Active; 'I' for Inactive)
REMARK    1  A    between atoms: C_2  and  N_3 
REMARK       I    between atoms: N_3  and  C_4 
REMARK       I    between atoms: C_4  and  N_5 
REMARK    2  A    between atoms: N_5  and  C_6 
REMARK    3  A    between atoms: C_9  and  C_10 
REMARK    4  A    between atoms: C_10  and  N_11 
REMARK       I    between atoms: N_11  and  C_12 
REMARK    5  A    between atoms: C_12  and  C_13 
ROOT
HETATM    1  N   UNL     1      -4.735   4.339 -30.095  1.00  0.00    -0.353 N 
HETATM    2  C   UNL     1      -4.538   5.375 -30.987  1.00  0.00     0.254 C 
HETATM    3  O   UNL     1      -5.474   6.028 -31.444  1.00  0.00    -0.268 OA
HETATM    4  H   UNL     1      -3.997   3.691 -29.864  1.00  0.00     0.163 HD
ENDROOT
BRANCH   1   5
HETATM    5  C   UNL     1      -6.088   3.932 -29.798  1.00  0.00     0.161 C 
BRANCH   5   6
HETATM    6  C   UNL     1      -6.491   2.670 -30.508  1.00  0.00    -0.040 A 
HETATM    7  C   UNL     1      -7.363   2.723 -31.602  1.00  0.00     0.011 A 
HETATM    8  C   UNL     1      -7.622   1.578 -32.364  1.00  0.00     0.030 A 
HETATM    9  C   UNL     1      -7.019   0.361 -32.042  1.00  0.00     0.036 A 
HETATM   10  C   UNL     1      -6.223   0.289 -30.893  1.00  0.00     0.030 A 
HETATM   11  C   UNL     1      -5.957   1.432 -30.133  1.00  0.00     0.011 A 
BRANCH   9  12
HETATM   12  N   UNL     1      -7.114  -0.800 -32.837  1.00  0.00    -0.309 N 
HETATM   13  C   UNL     1      -6.167  -1.284 -33.719  1.00  0.00     0.321 C 
HETATM   14  N   UNL     1      -6.519  -2.548 -34.155  1.00  0.00    -0.339 N 
HETATM   15  O   UNL     1      -5.122  -0.735 -34.041  1.00  0.00    -0.247 OA
HETATM   16  H   UNL     1      -7.508  -2.734 -34.214  1.00  0.00     0.164 HD
HETATM   17  H   UNL     1      -7.825  -1.462 -32.570  1.00  0.00     0.170 HD
BRANCH  14  18
HETATM   18  C   UNL     1      -5.658  -3.381 -34.989  1.00  0.00     0.078 C 
HETATM   19  C   UNL     1      -6.404  -4.564 -35.607  1.00  0.00     0.032 C 
HETATM   20  C   UNL     1      -4.398  -3.830 -34.257  1.00  0.00     0.032 C 
ENDBRANCH  14  18
ENDBRANCH   9  12
ENDBRANCH   5   6
ENDBRANCH   1   5
BRANCH   2  21
HETATM   21  C   UNL     1      -3.149   5.677 -31.424  1.00  0.00     0.064 A 
HETATM   22  C   UNL     1      -2.271   6.282 -30.537  1.00  0.00     0.077 A 
HETATM   23  C   UNL     1      -0.956   6.603 -30.887  1.00  0.00     0.065 A 
HETATM   24  N   UNL     1      -2.457   6.679 -29.209  1.00  0.00    -0.330 N 
HETATM   25  N   UNL     1      -0.343   7.195 -29.783  1.00  0.00    -0.331 N 
HETATM   26  C   UNL     1      -0.444   6.339 -32.132  1.00  0.00     0.074 A 
HETATM   27  C   UNL     1      -1.270   7.239 -28.733  1.00  0.00     0.176 A 
HETATM   28  H   UNL     1       0.608   7.527 -29.721  1.00  0.00     0.168 HD
HETATM   29  S   UNL     1      -1.000   7.838 -27.223  1.00  0.00    -0.041 SA
HETATM   30  C   UNL     1      -1.311   5.720 -33.031  1.00  0.00     0.119 A 
HETATM   31  F   UNL     1      -0.868   5.429 -34.261  1.00  0.00    -0.206 F 
HETATM   32  C   UNL     1      -2.641   5.385 -32.698  1.00  0.00     0.061 A 
HETATM   33  H   UNL     1      -3.322   6.545 -28.694  1.00  0.00     0.168 HD
ENDBRANCH   2  21
TORSDOF 5
ENDMDL
MODEL 6
REMARK VINA RESULT:      -8.0      3.944      5.659
REMARK  5 active torsions:
REMARK  status: ('A' for Active; 'I' for Inactive)
REMARK    1  A    between atoms: C_2  and  N_3 
REMARK       I    between atoms: N_3  and  C_4 
REMARK       I    between atoms: C_4  and  N_5 
REMARK    2  A    between atoms: N_5  and  C_6 
REMARK    3  A    between atoms: C_9  and  C_10 
REMARK    4  A    between atoms: C_10  and  N_11 
REMARK       I    between atoms: N_11  and  C_12 
REMARK    5  A    between atoms: C_12  and  C_13 
ROOT
HETATM    1  N   UNL     1      -8.488   0.057 -33.789  1.00  0.00    -0.353 N 
HETATM    2  C   UNL     1      -9.503   0.333 -32.893  1.00  0.00     0.254 C 
HETATM    3  O   UNL     1      -9.375   0.145 -31.685  1.00  0.00    -0.268 OA
HETATM    4  H   UNL     1      -8.651   0.036 -34.784  1.00  0.00     0.163 HD
ENDROOT
BRANCH   1   5
HETATM    5  C   UNL     1      -7.296  -0.594 -33.301  1.00  0.00     0.161 C 
BRANCH   5   6
HETATM    6  C   UNL     1      -6.223   0.376 -32.893  1.00  0.00    -0.040 A 
HETATM    7  C   UNL     1      -6.292   1.715 -33.295  1.00  0.00     0.011 A 
HETATM    8  C   UNL     1      -5.386   2.658 -32.796  1.00  0.00     0.030 A 
HETATM    9  C   UNL     1      -4.393   2.277 -31.892  1.00  0.00     0.036 A 
HETATM   10  C   UNL     1      -4.266   0.922 -31.565  1.00  0.00     0.030 A 
HETATM   11  C   UNL     1      -5.173  -0.022 -32.058  1.00  0.00     0.011 A 
BRANCH   9  12
HETATM   12  N   UNL     1      -3.534   3.184 -31.235  1.00  0.00    -0.309 N 
HETATM   13  C   UNL     1      -2.562   3.977 -31.814  1.00  0.00     0.321 C 
HETATM   14  N   UNL     1      -2.072   4.883 -30.893  1.00  0.00    -0.339 N 
HETATM   15  O   UNL     1      -2.206   3.957 -32.984  1.00  0.00    -0.247 OA
HETATM   16  H   UNL     1      -2.067   4.577 -29.933  1.00  0.00     0.164 HD
HETATM   17  H   UNL     1      -3.806   3.455 -30.304  1.00  0.00     0.170 HD
BRANCH  14  18
HETATM   18  C   UNL     1      -1.131   5.947 -31.231  1.00  0.00     0.078 C 
HETATM   19  C   UNL     1       0.309   5.603 -30.850  1.00  0.00     0.032 C 
HETATM   20  C   UNL     1      -1.556   7.299 -30.666  1.00  0.00     0.032 C 
ENDBRANCH  14  18
ENDBRANCH   9  12
ENDBRANCH   5   6
ENDBRANCH   1   5
BRANCH   2  21
HETATM   21  C   UNL     1     -10.795   0.842 -33.425  1.00  0.00     0.064 A 
HETATM   22  C   UNL     1     -10.884   2.157 -33.858  1.00  0.00     0.077 A 
HETATM   23  C   UNL     1     -12.070   2.703 -34.357  1.00  0.00     0.065 A 
HETATM   24  N   UNL     1      -9.913   3.162 -33.903  1.00  0.00    -0.330 N 
HETATM   25  N   UNL     1     -11.828   4.031 -34.704  1.00  0.00    -0.331 N 
HETATM   26  C   UNL     1     -13.228   1.973 -34.455  1.00  0.00     0.074 A 
HETATM   27  C   UNL     1     -10.485   4.322 -34.430  1.00  0.00     0.176 A 
HETATM   28  H   UNL     1     -12.486   4.686 -35.100  1.00  0.00     0.168 HD
HETATM   29  S   UNL     1      -9.730   5.763 -34.686  1.00  0.00    -0.041 SA
HETATM   30  C   UNL     1     -13.151   0.646 -34.034  1.00  0.00     0.119 A 
HETATM   31  F   UNL     1     -14.247  -0.121 -34.111  1.00  0.00    -0.206 F 
HETATM   32  C   UNL     1     -11.964   0.075 -33.529  1.00  0.00     0.061 A 
HETATM   33  H   UNL     1      -8.948   3.030 -33.616  1.00  0.00     0.168 HD
ENDBRANCH   2  21
TORSDOF 5
ENDMDL
MODEL 7
REMARK VINA RESULT:      -7.9      5.685      9.361
REMARK  5 active torsions:
REMARK  status: ('A' for Active; 'I' for Inactive)
REMARK    1  A    between atoms: C_2  and  N_3 
REMARK       I    between atoms: N_3  and  C_4 
REMARK       I    between atoms: C_4  and  N_5 
REMARK    2  A    between atoms: N_5  and  C_6 
REMARK    3  A    between atoms: C_9  and  C_10 
REMARK    4  A    between atoms: C_10  and  N_11 
REMARK       I    between atoms: N_11  and  C_12 
REMARK    5  A    between atoms: C_12  and  C_13 
ROOT
HETATM    1  N   UNL     1      -1.601   6.668 -29.150  1.00  0.00    -0.353 N 
HETATM    2  C   UNL     1      -2.640   6.644 -30.060  1.00  0.00     0.254 C 
HETATM    3  O   UNL     1      -3.730   7.157 -29.818  1.00  0.00    -0.268 OA
HETATM    4  H   UNL     1      -0.779   6.096 -29.269  1.00  0.00     0.163 HD
ENDROOT
BRANCH   1   5
HETATM    5  C   UNL     1      -1.851   7.198 -27.831  1.00  0.00     0.161 C 
BRANCH   5   6
HETATM    6  C   UNL     1      -0.716   8.032 -27.307  1.00  0.00    -0.040 A 
HETATM    7  C   UNL     1      -0.913   8.891 -26.220  1.00  0.00     0.011 A 
HETATM    8  C   UNL     1       0.168   9.554 -25.628  1.00  0.00     0.030 A 
HETATM    9  C   UNL     1       1.463   9.373 -26.116  1.00  0.00     0.036 A 
HETATM   10  C   UNL     1       1.646   8.589 -27.262  1.00  0.00     0.030 A 
HETATM   11  C   UNL     1       0.568   7.921 -27.852  1.00  0.00     0.011 A 
BRANCH   9  12
HETATM   12  N   UNL     1       2.620   9.888 -25.494  1.00  0.00    -0.309 N 
HETATM   13  C   UNL     1       3.276   9.365 -24.397  1.00  0.00     0.321 C 
HETATM   14  N   UNL     1       4.481  10.015 -24.204  1.00  0.00    -0.339 N 
HETATM   15  O   UNL     1       2.910   8.422 -23.709  1.00  0.00    -0.247 OA
HETATM   16  H   UNL     1       4.509  10.983 -24.484  1.00  0.00     0.164 HD
HETATM   17  H   UNL     1       3.151  10.554 -26.031  1.00  0.00     0.170 HD
BRANCH  14  18
HETATM   18  C   UNL     1       5.467   9.606 -23.209  1.00  0.00     0.078 C 
HETATM   19  C   UNL     1       5.397  10.443 -21.931  1.00  0.00     0.032 C 
HETATM   20  C   UNL     1       6.883   9.563 -23.777  1.00  0.00     0.032 C 
ENDBRANCH  14  18
ENDBRANCH   9  12
ENDBRANCH   5   6
ENDBRANCH   1   5
BRANCH   2  21
HETATM   21  C   UNL     1      -2.429   5.942 -31.354  1.00  0.00     0.064 A 
HETATM   22  C   UNL     1      -2.990   4.688 -31.549  1.00  0.00     0.077 A 
HETATM   23  C   UNL     1      -2.821   3.969 -32.735  1.00  0.00     0.065 A 
HETATM   24  N   UNL     1      -3.783   3.910 -30.700  1.00  0.00    -0.330 N 
HETATM   25  N   UNL     1      -3.504   2.759 -32.613  1.00  0.00    -0.331 N 
HETATM   26  C   UNL     1      -2.092   4.456 -33.790  1.00  0.00     0.074 A 
HETATM   27  C   UNL     1      -4.110   2.719 -31.350  1.00  0.00     0.176 A 
HETATM   28  H   UNL     1      -3.577   2.029 -33.306  1.00  0.00     0.168 HD
HETATM   29  S   UNL     1      -5.036   1.493 -30.755  1.00  0.00    -0.041 SA
HETATM   30  C   UNL     1      -1.532   5.720 -33.613  1.00  0.00     0.119 A 
HETATM   31  F   UNL     1      -0.814   6.254 -34.611  1.00  0.00    -0.206 F 
HETATM   32  C   UNL     1      -1.691   6.464 -32.425  1.00  0.00     0.061 A 
HETATM   33  H   UNL     1      -4.078   4.204 -29.774  1.00  0.00     0.168 HD
ENDBRANCH   2  21
TORSDOF 5
ENDMDL
MODEL 8
REMARK VINA RESULT:      -7.9      8.480     14.556
REMARK  5 active torsions:
REMARK  status: ('A' for Active; 'I' for Inactive)
REMARK    1  A    between atoms: C_2  and  N_3 
REMARK       I    between atoms: N_3  and  C_4 
REMARK       I    between atoms: C_4  and  N_5 
REMARK    2  A    between atoms: N_5  and  C_6 
REMARK    3  A    between atoms: C_9  and  C_10 
REMARK    4  A    between atoms: C_10  and  N_11 
REMARK       I    between atoms: N_11  and  C_12 
REMARK    5  A    between atoms: C_12  and  C_13 
ROOT
HETATM    1  N   UNL     1       2.530   8.676 -24.313  1.00  0.00    -0.353 N 
HETATM    2  C   UNL     1       3.493   9.389 -23.626  1.00  0.00     0.254 C 
HETATM    3  O   UNL     1       3.430  10.610 -23.495  1.00  0.00    -0.268 OA
HETATM    4  H   UNL     1       2.672   7.714 -24.578  1.00  0.00     0.163 HD
ENDROOT
BRANCH   1   5
HETATM    5  C   UNL     1       1.492   9.405 -25.003  1.00  0.00     0.161 C 
BRANCH   5   6
HETATM    6  C   UNL     1       0.946   8.664 -26.191  1.00  0.00    -0.040 A 
HETATM    7  C   UNL     1      -0.305   8.040 -26.120  1.00  0.00     0.011 A 
HETATM    8  C   UNL     1      -0.891   7.481 -27.262  1.00  0.00     0.030 A 
HETATM    9  C   UNL     1      -0.235   7.533 -28.492  1.00  0.00     0.036 A 
HETATM   10  C   UNL     1       1.056   8.073 -28.543  1.00  0.00     0.030 A 
HETATM   11  C   UNL     1       1.642   8.637 -27.405  1.00  0.00     0.011 A 
BRANCH   9  12
HETATM   12  N   UNL     1      -0.813   7.124 -29.712  1.00  0.00    -0.309 N 
HETATM   13  C   UNL     1      -0.681   5.892 -30.323  1.00  0.00     0.321 C 
HETATM   14  N   UNL     1      -1.555   5.790 -31.389  1.00  0.00    -0.339 N 
HETATM   15  O   UNL     1       0.043   4.974 -29.964  1.00  0.00    -0.247 OA
HETATM   16  H   UNL     1      -1.767   6.650 -31.869  1.00  0.00     0.164 HD
HETATM   17  H   UNL     1      -1.575   7.689 -30.052  1.00  0.00     0.170 HD
BRANCH  14  18
HETATM   18  C   UNL     1      -1.752   4.562 -32.155  1.00  0.00     0.078 C 
HETATM   19  C   UNL     1      -1.888   4.819 -33.655  1.00  0.00     0.032 C 
HETATM   20  C   UNL     1      -2.909   3.723 -31.620  1.00  0.00     0.032 C 
ENDBRANCH  14  18
ENDBRANCH   9  12
ENDBRANCH   5   6
ENDBRANCH   1   5
BRANCH   2  21
HETATM   21  C   UNL     1       4.654   8.649 -23.065  1.00  0.00     0.064 A 
HETATM   22  C   UNL     1       5.938   8.984 -23.470  1.00  0.00     0.077 A 
HETATM   23  C   UNL     1       7.072   8.322 -22.991  1.00  0.00     0.065 A 
HETATM   24  N   UNL     1       6.377   9.967 -24.363  1.00  0.00    -0.330 N 
HETATM   25  N   UNL     1       8.196   8.892 -23.587  1.00  0.00    -0.331 N 
HETATM   26  C   UNL     1       6.991   7.295 -22.085  1.00  0.00     0.074 A 
HETATM   27  C   UNL     1       7.770   9.922 -24.438  1.00  0.00     0.176 A 
HETATM   28  H   UNL     1       9.160   8.636 -23.437  1.00  0.00     0.168 HD
HETATM   29  S   UNL     1       8.740  10.894 -25.348  1.00  0.00    -0.041 SA
HETATM   30  C   UNL     1       5.709   6.954 -21.660  1.00  0.00     0.119 A 
HETATM   31  F   UNL     1       5.565   5.963 -20.769  1.00  0.00    -0.206 F 
HETATM   32  C   UNL     1       4.551   7.611 -22.128  1.00  0.00     0.061 A 
HETATM   33  H   UNL     1       5.757  10.612 -24.844  1.00  0.00     0.168 HD
ENDBRANCH   2  21
TORSDOF 5
ENDMDL
MODEL 9
REMARK VINA RESULT:      -7.8      5.072      9.099
REMARK  5 active torsions:
REMARK  status: ('A' for Active; 'I' for Inactive)
REMARK    1  A    between atoms: C_2  and  N_3 
REMARK       I    between atoms: N_3  and  C_4 
REMARK       I    between atoms: C_4  and  N_5 
REMARK    2  A    between atoms: N_5  and  C_6 
REMARK    3  A    between atoms: C_9  and  C_10 
REMARK    4  A    between atoms: C_10  and  N_11 
REMARK       I    between atoms: N_11  and  C_12 
REMARK    5  A    between atoms: C_12  and  C_13 
ROOT
HETATM    1  N   UNL     1      -4.514   3.961 -30.913  1.00  0.00    -0.353 N 
HETATM    2  C   UNL     1      -3.302   3.482 -31.372  1.00  0.00     0.254 C 
HETATM    3  O   UNL     1      -2.937   2.327 -31.162  1.00  0.00    -0.268 OA
HETATM    4  H   UNL     1      -4.731   4.946 -30.922  1.00  0.00     0.163 HD
ENDROOT
BRANCH   1   5
HETATM    5  C   UNL     1      -5.309   3.117 -30.053  1.00  0.00     0.161 C 
BRANCH   5   6
HETATM    6  C   UNL     1      -6.787   3.281 -30.274  1.00  0.00    -0.040 A 
HETATM    7  C   UNL     1      -7.540   2.233 -30.816  1.00  0.00     0.011 A 
HETATM    8  C   UNL     1      -8.936   2.317 -30.883  1.00  0.00     0.030 A 
HETATM    9  C   UNL     1      -9.600   3.450 -30.413  1.00  0.00     0.036 A 
HETATM   10  C   UNL     1      -8.841   4.535 -29.959  1.00  0.00     0.030 A 
HETATM   11  C   UNL     1      -7.446   4.452 -29.886  1.00  0.00     0.011 A 
BRANCH   9  12
HETATM   12  N   UNL     1     -11.003   3.557 -30.312  1.00  0.00    -0.309 N 
HETATM   13  C   UNL     1     -11.888   3.876 -31.325  1.00  0.00     0.321 C 
HETATM   14  N   UNL     1     -13.190   3.678 -30.904  1.00  0.00    -0.339 N 
HETATM   15  O   UNL     1     -11.601   4.222 -32.462  1.00  0.00    -0.247 OA
HETATM   16  H   UNL     1     -13.362   3.825 -29.921  1.00  0.00     0.164 HD
HETATM   17  H   UNL     1     -11.422   3.136 -29.498  1.00  0.00     0.170 HD
BRANCH  14  18
HETATM   18  C   UNL     1     -14.349   3.798 -31.784  1.00  0.00     0.078 C 
HETATM   19  C   UNL     1     -15.258   4.966 -31.404  1.00  0.00     0.032 C 
HETATM   20  C   UNL     1     -15.128   2.491 -31.900  1.00  0.00     0.032 C 
ENDBRANCH  14  18
ENDBRANCH   9  12
ENDBRANCH   5   6
ENDBRANCH   1   5
BRANCH   2  21
HETATM   21  C   UNL     1      -2.408   4.413 -32.110  1.00  0.00     0.064 A 
HETATM   22  C   UNL     1      -1.696   5.376 -31.409  1.00  0.00     0.077 A 
HETATM   23  C   UNL     1      -0.848   6.289 -32.041  1.00  0.00     0.065 A 
HETATM   24  N   UNL     1      -1.650   5.646 -30.037  1.00  0.00    -0.330 N 
HETATM   25  N   UNL     1      -0.289   7.113 -31.065  1.00  0.00    -0.331 N 
HETATM   26  C   UNL     1      -0.659   6.293 -33.400  1.00  0.00     0.074 A 
HETATM   27  C   UNL     1      -0.779   6.714 -29.815  1.00  0.00     0.176 A 
HETATM   28  H   UNL     1       0.370   7.864 -31.209  1.00  0.00     0.168 HD
HETATM   29  S   UNL     1      -0.392   7.383 -28.361  1.00  0.00    -0.041 SA
HETATM   30  C   UNL     1      -1.359   5.324 -34.117  1.00  0.00     0.119 A 
HETATM   31  F   UNL     1      -1.211   5.272 -35.448  1.00  0.00    -0.206 F 
HETATM   32  C   UNL     1      -2.218   4.391 -33.499  1.00  0.00     0.061 A 
HETATM   33  H   UNL     1      -2.160   5.115 -29.338  1.00  0.00     0.168 HD
ENDBRANCH   2  21
TORSDOF 5
ENDMDL
MODEL 10
REMARK VINA RESULT:      -7.7      3.762      6.056
REMARK  5 active torsions:
REMARK  status: ('A' for Active; 'I' for Inactive)
REMARK    1  A    between atoms: C_2  and  N_3 
REMARK       I    between atoms: N_3  and  C_4 
REMARK       I    between atoms: C_4  and  N_5 
REMARK    2  A    between atoms: N_5  and  C_6 
REMARK    3  A    between atoms: C_9  and  C_10 
REMARK    4  A    between atoms: C_10  and  N_11 
REMARK       I    between atoms: N_11  and  C_12 
REMARK    5  A    between atoms: C_12  and  C_13 
ROOT
HETATM    1  N   UNL     1      -2.545   3.603 -32.359  1.00  0.00    -0.353 N 
HETATM    2  C   UNL     1      -3.910   3.427 -32.479  1.00  0.00     0.254 C 
HETATM    3  O   UNL     1      -4.645   4.313 -32.911  1.00  0.00    -0.268 OA
HETATM    4  H   UNL     1      -1.972   2.956 -31.839  1.00  0.00     0.163 HD
ENDROOT
BRANCH   1   5
HETATM    5  C   UNL     1      -1.991   4.908 -32.627  1.00  0.00     0.161 C 
BRANCH   5   6
HETATM    6  C   UNL     1      -1.308   5.513 -31.433  1.00  0.00    -0.040 A 
HETATM    7  C   UNL     1      -1.973   6.458 -30.642  1.00  0.00     0.011 A 
HETATM    8  C   UNL     1      -1.408   6.911 -29.444  1.00  0.00     0.030 A 
HETATM    9  C   UNL     1      -0.168   6.431 -29.019  1.00  0.00     0.036 A 
HETATM   10  C   UNL     1       0.538   5.558 -29.857  1.00  0.00     0.030 A 
HETATM   11  C   UNL     1      -0.027   5.100 -31.051  1.00  0.00     0.011 A 
BRANCH   9  12
HETATM   12  N   UNL     1       0.403   6.725 -27.764  1.00  0.00    -0.309 N 
HETATM   13  C   UNL     1       1.214   7.799 -27.450  1.00  0.00     0.321 C 
HETATM   14  N   UNL     1       1.407   7.872 -26.083  1.00  0.00    -0.339 N 
HETATM   15  O   UNL     1       1.662   8.628 -28.231  1.00  0.00    -0.247 OA
HETATM   16  H   UNL     1       1.400   6.992 -25.590  1.00  0.00     0.164 HD
HETATM   17  H   UNL     1       0.000   6.251 -26.972  1.00  0.00     0.170 HD
BRANCH  14  18
HETATM   18  C   UNL     1       2.105   8.971 -25.425  1.00  0.00     0.078 C 
HETATM   19  C   UNL     1       2.873   8.521 -24.182  1.00  0.00     0.032 C 
HETATM   20  C   UNL     1       1.182  10.148 -25.122  1.00  0.00     0.032 C 
ENDBRANCH  14  18
ENDBRANCH   9  12
ENDBRANCH   5   6
ENDBRANCH   1   5
BRANCH   2  21
HETATM   21  C   UNL     1      -4.498   2.135 -32.036  1.00  0.00     0.064 A 
HETATM   22  C   UNL     1      -5.805   2.104 -31.571  1.00  0.00     0.077 A 
HETATM   23  C   UNL     1      -6.415   0.927 -31.129  1.00  0.00     0.065 A 
HETATM   24  N   UNL     1      -6.745   3.133 -31.444  1.00  0.00    -0.330 N 
HETATM   25  N   UNL     1      -7.717   1.232 -30.732  1.00  0.00    -0.331 N 
HETATM   26  C   UNL     1      -5.762  -0.279 -31.126  1.00  0.00     0.074 A 
HETATM   27  C   UNL     1      -7.931   2.603 -30.932  1.00  0.00     0.176 A 
HETATM   28  H   UNL     1      -8.409   0.591 -30.374  1.00  0.00     0.168 HD
HETATM   29  S   UNL     1      -9.324   3.424 -30.622  1.00  0.00    -0.041 SA
HETATM   30  C   UNL     1      -4.452  -0.266 -31.600  1.00  0.00     0.119 A 
HETATM   31  F   UNL     1      -3.763  -1.415 -31.630  1.00  0.00    -0.206 F 
HETATM   32  C   UNL     1      -3.818   0.910 -32.054  1.00  0.00     0.061 A 
HETATM   33  H   UNL     1      -6.570   4.095 -31.715  1.00  0.00     0.168 HD
ENDBRANCH   2  21
TORSDOF 5
ENDMDL
