MODEL 1
REMARK VINA RESULT:      -7.7      0.000      0.000
REMARK  5 active torsions:
REMARK  status: ('A' for Active; 'I' for Inactive)
REMARK    1  A    between atoms: C_2  and  N_3 
REMARK    2  A    between atoms: C_2  and  C_19 
REMARK       I    between atoms: N_3  and  C_4 
REMARK    3  A    between atoms: C_4  and  C_5 
REMARK    4  A    between atoms: C_6  and  O_7 
REMARK    5  A    between atoms: O_7  and  C_8 
ROOT
HETATM    1  C   UNL     1      -5.066  -0.968 -32.892  1.00  0.00     0.065 A 
HETATM    2  C   UNL     1      -6.456  -1.037 -33.073  1.00  0.00     0.091 A 
HETATM    3  C   UNL     1      -6.979  -1.883 -34.062  1.00  0.00     0.038 A 
HETATM    4  C   UNL     1      -6.132  -2.688 -34.825  1.00  0.00     0.003 A 
HETATM    5  C   UNL     1      -4.754  -2.637 -34.628  1.00  0.00     0.001 A 
HETATM    6  C   UNL     1      -4.219  -1.773 -33.672  1.00  0.00     0.020 A 
ENDROOT
BRANCH   1   7
HETATM    7  C   UNL     1      -4.468  -0.019 -31.913  1.00  0.00     0.255 C 
HETATM    8  N   UNL     1      -4.754   1.315 -32.127  1.00  0.00    -0.348 N 
HETATM    9  H   UNL     1      -5.212   1.594 -32.982  1.00  0.00     0.163 HD
HETATM   10  O   UNL     1      -3.784  -0.414 -30.977  1.00  0.00    -0.268 OA
BRANCH   8  11
HETATM   11  C   UNL     1      -4.205   2.355 -31.271  1.00  0.00     0.115 C 
HETATM   12  C   UNL     1      -3.210   3.224 -32.045  1.00  0.00     0.037 C 
BRANCH  11  13
HETATM   13  C   UNL     1      -5.332   3.151 -30.656  1.00  0.00    -0.018 A 
HETATM   14  C   UNL     1      -5.154   4.504 -30.374  1.00  0.00     0.125 A 
HETATM   15  N   UNL     1      -6.092   5.299 -29.809  1.00  0.00    -0.273 NA
HETATM   16  C   UNL     1      -7.271   4.720 -29.500  1.00  0.00     0.116 A 
HETATM   17  C   UNL     1      -7.551   3.383 -29.725  1.00  0.00     0.020 A 
HETATM   18  C   UNL     1      -6.567   2.589 -30.307  1.00  0.00     0.012 A 
ENDBRANCH  11  13
ENDBRANCH   8  11
ENDBRANCH   1   7
BRANCH   2  19
HETATM   19  O   UNL     1      -7.260  -0.216 -32.312  1.00  0.00    -0.310 OA
BRANCH  19  20
HETATM   20  C   UNL     1      -8.344   0.391 -32.900  1.00  0.00     0.076 A 
HETATM   21  C   UNL     1      -9.659  -0.045 -32.714  1.00  0.00     0.037 A 
HETATM   22  C   UNL     1     -10.709   0.648 -33.319  1.00  0.00     0.003 A 
HETATM   23  C   UNL     1     -10.448   1.785 -34.087  1.00  0.00     0.000 A 
HETATM   24  C   UNL     1      -9.137   2.235 -34.244  1.00  0.00     0.003 A 
HETATM   25  C   UNL     1      -8.086   1.542 -33.645  1.00  0.00     0.037 A 
ENDBRANCH  19  20
ENDBRANCH   2  19
TORSDOF 5
ENDMDL
MODEL 2
REMARK VINA RESULT:      -7.6      1.905      4.160
REMARK  5 active torsions:
REMARK  status: ('A' for Active; 'I' for Inactive)
REMARK    1  A    between atoms: C_2  and  N_3 
REMARK    2  A    between atoms: C_2  and  C_19 
REMARK       I    between atoms: N_3  and  C_4 
REMARK    3  A    between atoms: C_4  and  C_5 
REMARK    4  A    between atoms: C_6  and  O_7 
REMARK    5  A    between atoms: O_7  and  C_8 
ROOT
HETATM    1  C   UNL     1      -6.437  -1.495 -34.497  1.00  0.00     0.065 A 
HETATM    2  C   UNL     1      -5.175  -1.244 -33.938  1.00  0.00     0.091 A 
HETATM    3  C   UNL     1      -4.284  -2.312 -33.744  1.00  0.00     0.038 A 
HETATM    4  C   UNL     1      -4.627  -3.602 -34.152  1.00  0.00     0.003 A 
HETATM    5  C   UNL     1      -5.871  -3.845 -34.730  1.00  0.00     0.001 A 
HETATM    6  C   UNL     1      -6.779  -2.798 -34.894  1.00  0.00     0.020 A 
ENDROOT
BRANCH   1   7
HETATM    7  C   UNL     1      -7.441  -0.405 -34.639  1.00  0.00     0.255 C 
HETATM    8  N   UNL     1      -8.275  -0.221 -33.553  1.00  0.00    -0.348 N 
HETATM    9  H   UNL     1      -8.270  -0.896 -32.802  1.00  0.00     0.163 HD
HETATM   10  O   UNL     1      -7.499   0.283 -35.650  1.00  0.00    -0.268 OA
BRANCH   8  11
HETATM   11  C   UNL     1      -9.328   0.782 -33.567  1.00  0.00     0.115 C 
HETATM   12  C   UNL     1     -10.660   0.175 -33.120  1.00  0.00     0.037 C 
BRANCH  11  13
HETATM   13  C   UNL     1      -8.908   1.968 -32.731  1.00  0.00    -0.018 A 
HETATM   14  C   UNL     1      -8.166   2.997 -33.308  1.00  0.00     0.125 A 
HETATM   15  N   UNL     1      -7.728   4.091 -32.643  1.00  0.00    -0.273 NA
HETATM   16  C   UNL     1      -8.037   4.168 -31.332  1.00  0.00     0.116 A 
HETATM   17  C   UNL     1      -8.757   3.199 -30.656  1.00  0.00     0.020 A 
HETATM   18  C   UNL     1      -9.195   2.084 -31.365  1.00  0.00     0.012 A 
ENDBRANCH  11  13
ENDBRANCH   8  11
ENDBRANCH   1   7
BRANCH   2  19
HETATM   19  O   UNL     1      -4.876   0.039 -33.533  1.00  0.00    -0.310 OA
BRANCH  19  20
HETATM   20  C   UNL     1      -5.219   0.437 -32.263  1.00  0.00     0.076 A 
HETATM   21  C   UNL     1      -5.839  -0.407 -31.338  1.00  0.00     0.037 A 
HETATM   22  C   UNL     1      -6.124   0.064 -30.054  1.00  0.00     0.003 A 
HETATM   23  C   UNL     1      -5.770   1.364 -29.691  1.00  0.00     0.000 A 
HETATM   24  C   UNL     1      -5.122   2.194 -30.607  1.00  0.00     0.003 A 
HETATM   25  C   UNL     1      -4.841   1.728 -31.891  1.00  0.00     0.037 A 
ENDBRANCH  19  20
ENDBRANCH   2  19
TORSDOF 5
ENDMDL
MODEL 3
REMARK VINA RESULT:      -7.5      1.935      4.808
REMARK  5 active torsions:
REMARK  status: ('A' for Active; 'I' for Inactive)
REMARK    1  A    between atoms: C_2  and  N_3 
REMARK    2  A    between atoms: C_2  and  C_19 
REMARK       I    between atoms: N_3  and  C_4 
REMARK    3  A    between atoms: C_4  and  C_5 
REMARK    4  A    between atoms: C_6  and  O_7 
REMARK    5  A    between atoms: O_7  and  C_8 
ROOT
HETATM    1  C   UNL     1      -7.958   2.196 -32.790  1.00  0.00     0.065 A 
HETATM    2  C   UNL     1      -8.187   0.813 -32.848  1.00  0.00     0.091 A 
HETATM    3  C   UNL     1      -9.329   0.332 -33.507  1.00  0.00     0.038 A 
HETATM    4  C   UNL     1     -10.202   1.215 -34.144  1.00  0.00     0.003 A 
HETATM    5  C   UNL     1      -9.962   2.586 -34.106  1.00  0.00     0.001 A 
HETATM    6  C   UNL     1      -8.849   3.079 -33.423  1.00  0.00     0.020 A 
ENDROOT
BRANCH   1   7
HETATM    7  C   UNL     1      -6.806   2.750 -32.027  1.00  0.00     0.255 C 
HETATM    8  N   UNL     1      -5.586   2.693 -32.670  1.00  0.00    -0.348 N 
HETATM    9  H   UNL     1      -5.499   2.169 -33.529  1.00  0.00     0.163 HD
HETATM   10  O   UNL     1      -6.952   3.234 -30.912  1.00  0.00    -0.268 OA
BRANCH   8  11
HETATM   11  C   UNL     1      -4.368   3.162 -32.028  1.00  0.00     0.115 C 
HETATM   12  C   UNL     1      -3.517   1.983 -31.550  1.00  0.00     0.037 C 
BRANCH  11  13
HETATM   13  C   UNL     1      -3.625   4.085 -32.966  1.00  0.00    -0.018 A 
HETATM   14  C   UNL     1      -4.315   4.750 -33.978  1.00  0.00     0.125 A 
HETATM   15  N   UNL     1      -3.741   5.582 -34.877  1.00  0.00    -0.273 NA
HETATM   16  C   UNL     1      -2.408   5.762 -34.773  1.00  0.00     0.116 A 
HETATM   17  C   UNL     1      -1.624   5.143 -33.815  1.00  0.00     0.020 A 
HETATM   18  C   UNL     1      -2.242   4.292 -32.902  1.00  0.00     0.012 A 
ENDBRANCH  11  13
ENDBRANCH   8  11
ENDBRANCH   1   7
BRANCH   2  19
HETATM   19  O   UNL     1      -7.312  -0.028 -32.195  1.00  0.00    -0.310 OA
BRANCH  19  20
HETATM   20  C   UNL     1      -6.537  -0.891 -32.931  1.00  0.00     0.076 A 
HETATM   21  C   UNL     1      -7.026  -1.620 -34.018  1.00  0.00     0.037 A 
HETATM   22  C   UNL     1      -6.163  -2.450 -34.737  1.00  0.00     0.003 A 
HETATM   23  C   UNL     1      -4.815  -2.533 -34.386  1.00  0.00     0.000 A 
HETATM   24  C   UNL     1      -4.324  -1.779 -33.320  1.00  0.00     0.003 A 
HETATM   25  C   UNL     1      -5.183  -0.952 -32.597  1.00  0.00     0.037 A 
ENDBRANCH  19  20
ENDBRANCH   2  19
TORSDOF 5
ENDMDL
MODEL 4
REMARK VINA RESULT:      -7.4      2.696      5.148
REMARK  5 active torsions:
REMARK  status: ('A' for Active; 'I' for Inactive)
REMARK    1  A    between atoms: C_2  and  N_3 
REMARK    2  A    between atoms: C_2  and  C_19 
REMARK       I    between atoms: N_3  and  C_4 
REMARK    3  A    between atoms: C_4  and  C_5 
REMARK    4  A    between atoms: C_6  and  O_7 
REMARK    5  A    between atoms: O_7  and  C_8 
ROOT
HETATM    1  C   UNL     1      -5.272   3.079 -31.349  1.00  0.00     0.065 A 
HETATM    2  C   UNL     1      -6.194   2.492 -32.228  1.00  0.00     0.091 A 
HETATM    3  C   UNL     1      -7.525   2.322 -31.816  1.00  0.00     0.038 A 
HETATM    4  C   UNL     1      -7.941   2.780 -30.565  1.00  0.00     0.003 A 
HETATM    5  C   UNL     1      -7.030   3.384 -29.702  1.00  0.00     0.001 A 
HETATM    6  C   UNL     1      -5.697   3.526 -30.086  1.00  0.00     0.020 A 
ENDROOT
BRANCH   1   7
HETATM    7  C   UNL     1      -3.834   3.198 -31.715  1.00  0.00     0.255 C 
HETATM    8  N   UNL     1      -3.524   4.227 -32.583  1.00  0.00    -0.348 N 
HETATM    9  H   UNL     1      -4.270   4.742 -33.030  1.00  0.00     0.163 HD
HETATM   10  O   UNL     1      -2.993   2.436 -31.256  1.00  0.00    -0.268 OA
BRANCH   8  11
HETATM   11  C   UNL     1      -2.166   4.438 -33.056  1.00  0.00     0.115 C 
HETATM   12  C   UNL     1      -2.166   4.914 -34.511  1.00  0.00     0.037 C 
BRANCH  11  13
HETATM   13  C   UNL     1      -1.446   5.386 -32.124  1.00  0.00    -0.018 A 
HETATM   14  C   UNL     1      -2.055   6.580 -31.742  1.00  0.00     0.125 A 
HETATM   15  N   UNL     1      -1.490   7.501 -30.928  1.00  0.00    -0.273 NA
HETATM   16  C   UNL     1      -0.250   7.227 -30.471  1.00  0.00     0.116 A 
HETATM   17  C   UNL     1       0.450   6.079 -30.796  1.00  0.00     0.020 A 
HETATM   18  C   UNL     1      -0.156   5.148 -31.635  1.00  0.00     0.012 A 
ENDBRANCH  11  13
ENDBRANCH   8  11
ENDBRANCH   1   7
BRANCH   2  19
HETATM   19  O   UNL     1      -5.744   2.040 -33.449  1.00  0.00    -0.310 OA
BRANCH  19  20
HETATM   20  C   UNL     1      -5.903   0.713 -33.772  1.00  0.00     0.076 A 
HETATM   21  C   UNL     1      -6.826   0.263 -34.720  1.00  0.00     0.037 A 
HETATM   22  C   UNL     1      -6.903  -1.099 -35.017  1.00  0.00     0.003 A 
HETATM   23  C   UNL     1      -6.045  -2.003 -34.387  1.00  0.00     0.000 A 
HETATM   24  C   UNL     1      -5.103  -1.546 -33.466  1.00  0.00     0.003 A 
HETATM   25  C   UNL     1      -5.028  -0.187 -33.163  1.00  0.00     0.037 A 
ENDBRANCH  19  20
ENDBRANCH   2  19
TORSDOF 5
ENDMDL
MODEL 5
REMARK VINA RESULT:      -7.3      1.645      5.447
REMARK  5 active torsions:
REMARK  status: ('A' for Active; 'I' for Inactive)
REMARK    1  A    between atoms: C_2  and  N_3 
REMARK    2  A    between atoms: C_2  and  C_19 
REMARK       I    between atoms: N_3  and  C_4 
REMARK    3  A    between atoms: C_4  and  C_5 
REMARK    4  A    between atoms: C_6  and  O_7 
REMARK    5  A    between atoms: O_7  and  C_8 
ROOT
HETATM    1  C   UNL     1      -5.712   3.008 -31.407  1.00  0.00     0.065 A 
HETATM    2  C   UNL     1      -7.007   3.141 -31.931  1.00  0.00     0.091 A 
HETATM    3  C   UNL     1      -7.968   3.867 -31.211  1.00  0.00     0.038 A 
HETATM    4  C   UNL     1      -7.628   4.497 -30.013  1.00  0.00     0.003 A 
HETATM    5  C   UNL     1      -6.335   4.384 -29.506  1.00  0.00     0.001 A 
HETATM    6  C   UNL     1      -5.381   3.634 -30.194  1.00  0.00     0.020 A 
ENDROOT
BRANCH   1   7
HETATM    7  C   UNL     1      -4.690   2.173 -32.097  1.00  0.00     0.255 C 
HETATM    8  N   UNL     1      -4.961   0.820 -32.144  1.00  0.00    -0.348 N 
HETATM    9  H   UNL     1      -5.730   0.447 -31.606  1.00  0.00     0.163 HD
HETATM   10  O   UNL     1      -3.690   2.672 -32.597  1.00  0.00    -0.268 OA
BRANCH   8  11
HETATM   11  C   UNL     1      -4.032  -0.118 -32.753  1.00  0.00     0.115 C 
HETATM   12  C   UNL     1      -3.071  -0.688 -31.705  1.00  0.00     0.037 C 
BRANCH  11  13
HETATM   13  C   UNL     1      -4.803  -1.188 -33.491  1.00  0.00    -0.018 A 
HETATM   14  C   UNL     1      -4.226  -2.438 -33.706  1.00  0.00     0.125 A 
HETATM   15  N   UNL     1      -4.825  -3.455 -34.368  1.00  0.00    -0.273 NA
HETATM   16  C   UNL     1      -6.063  -3.219 -34.849  1.00  0.00     0.116 A 
HETATM   17  C   UNL     1      -6.725  -2.012 -34.703  1.00  0.00     0.020 A 
HETATM   18  C   UNL     1      -6.084  -0.984 -34.018  1.00  0.00     0.012 A 
ENDBRANCH  11  13
ENDBRANCH   8  11
ENDBRANCH   1   7
BRANCH   2  19
HETATM   19  O   UNL     1      -7.311   2.493 -33.108  1.00  0.00    -0.310 OA
BRANCH  19  20
HETATM   20  C   UNL     1      -8.527   1.866 -33.233  1.00  0.00     0.076 A 
HETATM   21  C   UNL     1      -9.514   2.282 -34.131  1.00  0.00     0.037 A 
HETATM   22  C   UNL     1     -10.711   1.569 -34.222  1.00  0.00     0.003 A 
HETATM   23  C   UNL     1     -10.911   0.433 -33.437  1.00  0.00     0.000 A 
HETATM   24  C   UNL     1      -9.911   0.002 -32.565  1.00  0.00     0.003 A 
HETATM   25  C   UNL     1      -8.717   0.714 -32.468  1.00  0.00     0.037 A 
ENDBRANCH  19  20
ENDBRANCH   2  19
TORSDOF 5
ENDMDL
MODEL 6
REMARK VINA RESULT:      -7.3      2.604      5.740
REMARK  5 active torsions:
REMARK  status: ('A' for Active; 'I' for Inactive)
REMARK    1  A    between atoms: C_2  and  N_3 
REMARK    2  A    between atoms: C_2  and  C_19 
REMARK       I    between atoms: N_3  and  C_4 
REMARK    3  A    between atoms: C_4  and  C_5 
REMARK    4  A    between atoms: C_6  and  O_7 
REMARK    5  A    between atoms: O_7  and  C_8 
ROOT
HETATM    1  C   UNL     1      -7.203  -0.316 -33.261  1.00  0.00     0.065 A 
HETATM    2  C   UNL     1      -5.892  -0.063 -32.830  1.00  0.00     0.091 A 
HETATM    3  C   UNL     1      -4.855  -0.910 -33.250  1.00  0.00     0.038 A 
HETATM    4  C   UNL     1      -5.113  -1.962 -34.129  1.00  0.00     0.003 A 
HETATM    5  C   UNL     1      -6.411  -2.199 -34.575  1.00  0.00     0.001 A 
HETATM    6  C   UNL     1      -7.456  -1.385 -34.136  1.00  0.00     0.020 A 
ENDROOT
BRANCH   1   7
HETATM    7  C   UNL     1      -8.342   0.506 -32.770  1.00  0.00     0.255 C 
HETATM    8  N   UNL     1      -8.972   1.281 -33.724  1.00  0.00    -0.348 N 
HETATM    9  H   UNL     1      -8.562   1.369 -34.643  1.00  0.00     0.163 HD
HETATM   10  O   UNL     1      -8.695   0.474 -31.598  1.00  0.00    -0.268 OA
BRANCH   8  11
HETATM   11  C   UNL     1     -10.076   2.162 -33.379  1.00  0.00     0.115 C 
HETATM   12  C   UNL     1      -9.880   3.546 -34.003  1.00  0.00     0.037 C 
BRANCH  11  13
HETATM   13  C   UNL     1     -11.383   1.515 -33.773  1.00  0.00    -0.018 A 
HETATM   14  C   UNL     1     -12.259   2.183 -34.626  1.00  0.00     0.125 A 
HETATM   15  N   UNL     1     -13.458   1.699 -35.025  1.00  0.00    -0.273 NA
HETATM   16  C   UNL     1     -13.812   0.488 -34.547  1.00  0.00     0.116 A 
HETATM   17  C   UNL     1     -13.025  -0.256 -33.686  1.00  0.00     0.020 A 
HETATM   18  C   UNL     1     -11.796   0.267 -33.292  1.00  0.00     0.012 A 
ENDBRANCH  11  13
ENDBRANCH   8  11
ENDBRANCH   1   7
BRANCH   2  19
HETATM   19  O   UNL     1      -5.677   0.976 -31.950  1.00  0.00    -0.310 OA
BRANCH  19  20
HETATM   20  C   UNL     1      -4.991   2.086 -32.380  1.00  0.00     0.076 A 
HETATM   21  C   UNL     1      -3.640   2.307 -32.097  1.00  0.00     0.037 A 
HETATM   22  C   UNL     1      -3.006   3.445 -32.600  1.00  0.00     0.003 A 
HETATM   23  C   UNL     1      -3.711   4.344 -33.402  1.00  0.00     0.000 A 
HETATM   24  C   UNL     1      -5.051   4.103 -33.709  1.00  0.00     0.003 A 
HETATM   25  C   UNL     1      -5.688   2.971 -33.204  1.00  0.00     0.037 A 
ENDBRANCH  19  20
ENDBRANCH   2  19
TORSDOF 5
ENDMDL
MODEL 7
REMARK VINA RESULT:      -7.1      2.300      6.308
REMARK  5 active torsions:
REMARK  status: ('A' for Active; 'I' for Inactive)
REMARK    1  A    between atoms: C_2  and  N_3 
REMARK    2  A    between atoms: C_2  and  C_19 
REMARK       I    between atoms: N_3  and  C_4 
REMARK    3  A    between atoms: C_4  and  C_5 
REMARK    4  A    between atoms: C_6  and  O_7 
REMARK    5  A    between atoms: O_7  and  C_8 
ROOT
HETATM    1  C   UNL     1      -8.502   1.212 -33.926  1.00  0.00     0.065 A 
HETATM    2  C   UNL     1      -8.560   2.569 -33.572  1.00  0.00     0.091 A 
HETATM    3  C   UNL     1      -9.779   3.115 -33.142  1.00  0.00     0.038 A 
HETATM    4  C   UNL     1     -10.911   2.308 -33.015  1.00  0.00     0.003 A 
HETATM    5  C   UNL     1     -10.846   0.956 -33.344  1.00  0.00     0.001 A 
HETATM    6  C   UNL     1      -9.650   0.409 -33.807  1.00  0.00     0.020 A 
ENDROOT
BRANCH   1   7
HETATM    7  C   UNL     1      -7.251   0.615 -34.469  1.00  0.00     0.255 C 
HETATM    8  N   UNL     1      -6.507  -0.123 -33.570  1.00  0.00    -0.348 N 
HETATM    9  H   UNL     1      -6.750  -0.107 -32.590  1.00  0.00     0.163 HD
HETATM   10  O   UNL     1      -6.928   0.766 -35.640  1.00  0.00    -0.268 OA
BRANCH   8  11
HETATM   11  C   UNL     1      -5.242  -0.732 -33.953  1.00  0.00     0.115 C 
HETATM   12  C   UNL     1      -4.169  -0.464 -32.894  1.00  0.00     0.037 C 
BRANCH  11  13
HETATM   13  C   UNL     1      -5.451  -2.204 -34.225  1.00  0.00    -0.018 A 
HETATM   14  C   UNL     1      -4.383  -3.090 -34.104  1.00  0.00     0.125 A 
HETATM   15  N   UNL     1      -4.460  -4.420 -34.341  1.00  0.00    -0.273 NA
HETATM   16  C   UNL     1      -5.662  -4.898 -34.725  1.00  0.00     0.116 A 
HETATM   17  C   UNL     1      -6.785  -4.106 -34.889  1.00  0.00     0.020 A 
HETATM   18  C   UNL     1      -6.676  -2.741 -34.638  1.00  0.00     0.012 A 
ENDBRANCH  11  13
ENDBRANCH   8  11
ENDBRANCH   1   7
BRANCH   2  19
HETATM   19  O   UNL     1      -7.427   3.338 -33.724  1.00  0.00    -0.310 OA
BRANCH  19  20
HETATM   20  C   UNL     1      -6.431   3.257 -32.781  1.00  0.00     0.076 A 
HETATM   21  C   UNL     1      -6.677   2.998 -31.430  1.00  0.00     0.037 A 
HETATM   22  C   UNL     1      -5.605   2.897 -30.540  1.00  0.00     0.003 A 
HETATM   23  C   UNL     1      -4.295   3.029 -31.003  1.00  0.00     0.000 A 
HETATM   24  C   UNL     1      -4.052   3.255 -32.358  1.00  0.00     0.003 A 
HETATM   25  C   UNL     1      -5.120   3.362 -33.248  1.00  0.00     0.037 A 
ENDBRANCH  19  20
ENDBRANCH   2  19
TORSDOF 5
ENDMDL
MODEL 8
REMARK VINA RESULT:      -7.1      3.796      7.954
REMARK  5 active torsions:
REMARK  status: ('A' for Active; 'I' for Inactive)
REMARK    1  A    between atoms: C_2  and  N_3 
REMARK    2  A    between atoms: C_2  and  C_19 
REMARK       I    between atoms: N_3  and  C_4 
REMARK    3  A    between atoms: C_4  and  C_5 
REMARK    4  A    between atoms: C_6  and  O_7 
REMARK    5  A    between atoms: O_7  and  C_8 
ROOT
HETATM    1  C   UNL     1      -2.516   4.745 -32.526  1.00  0.00     0.065 A 
HETATM    2  C   UNL     1      -2.147   6.017 -32.063  1.00  0.00     0.091 A 
HETATM    3  C   UNL     1      -1.466   6.891 -32.924  1.00  0.00     0.038 A 
HETATM    4  C   UNL     1      -1.204   6.521 -34.244  1.00  0.00     0.003 A 
HETATM    5  C   UNL     1      -1.592   5.267 -34.710  1.00  0.00     0.001 A 
HETATM    6  C   UNL     1      -2.238   4.376 -33.853  1.00  0.00     0.020 A 
ENDROOT
BRANCH   1   7
HETATM    7  C   UNL     1      -3.162   3.758 -31.618  1.00  0.00     0.255 C 
HETATM    8  N   UNL     1      -4.490   3.999 -31.327  1.00  0.00    -0.348 N 
HETATM    9  H   UNL     1      -4.911   4.874 -31.607  1.00  0.00     0.163 HD
HETATM   10  O   UNL     1      -2.547   2.794 -31.181  1.00  0.00    -0.268 OA
BRANCH   8  11
HETATM   11  C   UNL     1      -5.237   3.138 -30.423  1.00  0.00     0.115 C 
HETATM   12  C   UNL     1      -6.339   3.926 -29.710  1.00  0.00     0.037 C 
BRANCH  11  13
HETATM   13  C   UNL     1      -5.763   1.942 -31.183  1.00  0.00    -0.018 A 
HETATM   14  C   UNL     1      -6.704   2.121 -32.194  1.00  0.00     0.125 A 
HETATM   15  N   UNL     1      -7.249   1.116 -32.920  1.00  0.00    -0.273 NA
HETATM   16  C   UNL     1      -6.843  -0.135 -32.623  1.00  0.00     0.116 A 
HETATM   17  C   UNL     1      -5.923  -0.428 -31.630  1.00  0.00     0.020 A 
HETATM   18  C   UNL     1      -5.380   0.625 -30.900  1.00  0.00     0.012 A 
ENDBRANCH  11  13
ENDBRANCH   8  11
ENDBRANCH   1   7
BRANCH   2  19
HETATM   19  O   UNL     1      -2.408   6.341 -30.750  1.00  0.00    -0.310 OA
BRANCH  19  20
HETATM   20  C   UNL     1      -1.361   6.647 -29.914  1.00  0.00     0.076 A 
HETATM   21  C   UNL     1      -0.303   5.769 -29.662  1.00  0.00     0.037 A 
HETATM   22  C   UNL     1       0.742   6.169 -28.826  1.00  0.00     0.003 A 
HETATM   23  C   UNL     1       0.741   7.447 -28.265  1.00  0.00     0.000 A 
HETATM   24  C   UNL     1      -0.301   8.332 -28.545  1.00  0.00     0.003 A 
HETATM   25  C   UNL     1      -1.348   7.934 -29.375  1.00  0.00     0.037 A 
ENDBRANCH  19  20
ENDBRANCH   2  19
TORSDOF 5
ENDMDL
MODEL 9
REMARK VINA RESULT:      -7.0      3.346      7.935
REMARK  5 active torsions:
REMARK  status: ('A' for Active; 'I' for Inactive)
REMARK    1  A    between atoms: C_2  and  N_3 
REMARK    2  A    between atoms: C_2  and  C_19 
REMARK       I    between atoms: N_3  and  C_4 
REMARK    3  A    between atoms: C_4  and  C_5 
REMARK    4  A    between atoms: C_6  and  O_7 
REMARK    5  A    between atoms: O_7  and  C_8 
ROOT
HETATM    1  C   UNL     1      -3.136   4.232 -32.907  1.00  0.00     0.065 A 
HETATM    2  C   UNL     1      -1.851   4.696 -32.587  1.00  0.00     0.091 A 
HETATM    3  C   UNL     1      -1.162   5.499 -33.509  1.00  0.00     0.038 A 
HETATM    4  C   UNL     1      -1.766   5.878 -34.708  1.00  0.00     0.003 A 
HETATM    5  C   UNL     1      -3.051   5.437 -35.014  1.00  0.00     0.001 A 
HETATM    6  C   UNL     1      -3.733   4.608 -34.123  1.00  0.00     0.020 A 
ENDROOT
BRANCH   1   7
HETATM    7  C   UNL     1      -3.865   3.308 -31.996  1.00  0.00     0.255 C 
HETATM    8  N   UNL     1      -4.170   2.069 -32.525  1.00  0.00    -0.348 N 
HETATM    9  H   UNL     1      -4.027   1.900 -33.511  1.00  0.00     0.163 HD
HETATM   10  O   UNL     1      -4.151   3.634 -30.851  1.00  0.00    -0.268 OA
BRANCH   8  11
HETATM   11  C   UNL     1      -4.913   1.080 -31.761  1.00  0.00     0.115 C 
HETATM   12  C   UNL     1      -6.420   1.337 -31.861  1.00  0.00     0.037 C 
BRANCH  11  13
HETATM   13  C   UNL     1      -4.519  -0.308 -32.210  1.00  0.00    -0.018 A 
HETATM   14  C   UNL     1      -3.476  -0.975 -31.571  1.00  0.00     0.125 A 
HETATM   15  N   UNL     1      -3.036  -2.209 -31.907  1.00  0.00    -0.273 NA
HETATM   16  C   UNL     1      -3.660  -2.815 -32.939  1.00  0.00     0.116 A 
HETATM   17  C   UNL     1      -4.697  -2.239 -33.652  1.00  0.00     0.020 A 
HETATM   18  C   UNL     1      -5.129  -0.968 -33.283  1.00  0.00     0.012 A 
ENDBRANCH  11  13
ENDBRANCH   8  11
ENDBRANCH   1   7
BRANCH   2  19
HETATM   19  O   UNL     1      -1.280   4.289 -31.401  1.00  0.00    -0.310 OA
BRANCH  19  20
HETATM   20  C   UNL     1      -0.881   5.237 -30.490  1.00  0.00     0.076 A 
HETATM   21  C   UNL     1      -1.641   6.369 -30.182  1.00  0.00     0.037 A 
HETATM   22  C   UNL     1      -1.181   7.269 -29.218  1.00  0.00     0.003 A 
HETATM   23  C   UNL     1       0.020   7.025 -28.549  1.00  0.00     0.000 A 
HETATM   24  C   UNL     1       0.759   5.878 -28.836  1.00  0.00     0.003 A 
HETATM   25  C   UNL     1       0.305   4.980 -29.801  1.00  0.00     0.037 A 
ENDBRANCH  19  20
ENDBRANCH   2  19
TORSDOF 5
ENDMDL
MODEL 10
REMARK VINA RESULT:      -7.0     15.088     17.050
REMARK  5 active torsions:
REMARK  status: ('A' for Active; 'I' for Inactive)
REMARK    1  A    between atoms: C_2  and  N_3 
REMARK    2  A    between atoms: C_2  and  C_19 
REMARK       I    between atoms: N_3  and  C_4 
REMARK    3  A    between atoms: C_4  and  C_5 
REMARK    4  A    between atoms: C_6  and  O_7 
REMARK    5  A    between atoms: O_7  and  C_8 
ROOT
HETATM    1  C   UNL     1      -4.923 -13.346 -36.739  1.00  0.00     0.065 A 
HETATM    2  C   UNL     1      -6.159 -13.948 -37.015  1.00  0.00     0.091 A 
HETATM    3  C   UNL     1      -7.001 -14.309 -35.952  1.00  0.00     0.038 A 
HETATM    4  C   UNL     1      -6.638 -14.025 -34.635  1.00  0.00     0.003 A 
HETATM    5  C   UNL     1      -5.421 -13.406 -34.363  1.00  0.00     0.001 A 
HETATM    6  C   UNL     1      -4.559 -13.075 -35.409  1.00  0.00     0.020 A 
ENDROOT
BRANCH   1   7
HETATM    7  C   UNL     1      -3.965 -13.028 -37.833  1.00  0.00     0.255 C 
HETATM    8  N   UNL     1      -3.656 -14.077 -38.676  1.00  0.00    -0.348 N 
HETATM    9  H   UNL     1      -3.960 -15.011 -38.440  1.00  0.00     0.163 HD
HETATM   10  O   UNL     1      -3.504 -11.902 -37.971  1.00  0.00    -0.268 OA
BRANCH   8  11
HETATM   11  C   UNL     1      -2.705 -13.920 -39.765  1.00  0.00     0.115 C 
HETATM   12  C   UNL     1      -1.483 -14.819 -39.552  1.00  0.00     0.037 C 
BRANCH  11  13
HETATM   13  C   UNL     1      -3.399 -14.170 -41.083  1.00  0.00    -0.018 A 
HETATM   14  C   UNL     1      -2.752 -14.892 -42.084  1.00  0.00     0.125 A 
HETATM   15  N   UNL     1      -3.279 -15.154 -43.302  1.00  0.00    -0.273 NA
HETATM   16  C   UNL     1      -4.514 -14.670 -43.546  1.00  0.00     0.116 A 
HETATM   17  C   UNL     1      -5.242 -13.931 -42.629  1.00  0.00     0.020 A 
HETATM   18  C   UNL     1      -4.674 -13.676 -41.384  1.00  0.00     0.012 A 
ENDBRANCH  11  13
ENDBRANCH   8  11
ENDBRANCH   1   7
BRANCH   2  19
HETATM   19  O   UNL     1      -6.478 -14.227 -38.327  1.00  0.00    -0.310 OA
BRANCH  19  20
HETATM   20  C   UNL     1      -7.653 -13.742 -38.848  1.00  0.00     0.076 A 
HETATM   21  C   UNL     1      -7.784 -12.450 -39.366  1.00  0.00     0.037 A 
HETATM   22  C   UNL     1      -9.005 -12.045 -39.910  1.00  0.00     0.003 A 
HETATM   23  C   UNL     1     -10.080 -12.934 -39.959  1.00  0.00     0.000 A 
HETATM   24  C   UNL     1      -9.935 -14.233 -39.471  1.00  0.00     0.003 A 
HETATM   25  C   UNL     1      -8.720 -14.639 -38.922  1.00  0.00     0.037 A 
ENDBRANCH  19  20
ENDBRANCH   2  19
TORSDOF 5
ENDMDL
