MODEL 1
REMARK VINA RESULT:      -8.3      0.000      0.000
REMARK  9 active torsions:
REMARK  status: ('A' for Active; 'I' for Inactive)
REMARK    1  A    between atoms: C_5  and  N_6 
REMARK       I    between atoms: N_6  and  C_7 
REMARK    2  A    between atoms: C_7  and  C_8 
REMARK    3  A    between atoms: C_8  and  C_9 
REMARK    4  A    between atoms: C_9  and  C_10 
REMARK       I    between atoms: C_10  and  N_11 
REMARK    5  A    between atoms: N_11  and  C_12 
REMARK    6  A    between atoms: N_11  and  C_29 
REMARK    7  A    between atoms: C_12  and  C_13 
REMARK       I    between atoms: C_13  and  N_14 
REMARK    8  A    between atoms: N_14  and  C_15 
REMARK    9  A    between atoms: C_29  and  C_30 
ROOT
HETATM    1  C   UNL     1      -3.084   4.229 -32.861  1.00  0.00     0.221 C 
HETATM    2  N   UNL     1      -4.211   3.782 -32.161  1.00  0.00    -0.328 N 
HETATM    3  O   UNL     1      -1.968   3.739 -32.642  1.00  0.00    -0.273 OA
ENDROOT
BRANCH   2   4
HETATM    4  C   UNL     1      -5.628   4.372 -32.177  1.00  0.00     0.119 C 
HETATM    5  C   UNL     1      -5.685   5.931 -32.178  1.00  0.00     0.069 C 
HETATM    6  C   UNL     1      -5.044   6.539 -30.955  1.00  0.00     0.237 C 
HETATM    7  N   UNL     1      -5.863   6.142 -29.757  1.00  0.00    -0.075 N 
HETATM    8  H   UNL     1      -6.812   6.525 -29.893  1.00  0.00     0.279 HD
HETATM    9  C   UNL     1      -5.338   6.792 -28.502  1.00  0.00     0.269 C 
HETATM   10  C   UNL     1      -5.995   4.650 -29.611  1.00  0.00     0.237 C 
HETATM   11  C   UNL     1      -6.480   3.998 -30.913  1.00  0.00     0.069 C 
BRANCH   4  12
HETATM   12  C   UNL     1      -6.500   3.895 -33.390  1.00  0.00     0.246 C 
HETATM   13  N   UNL     1      -7.054   2.637 -33.341  1.00  0.00    -0.354 N 
HETATM   14  H   UNL     1      -6.883   2.043 -32.533  1.00  0.00     0.162 HD
HETATM   15  O   UNL     1      -6.826   4.707 -34.257  1.00  0.00    -0.271 OA
BRANCH  13  16
HETATM   16  C   UNL     1      -8.133   2.242 -34.261  1.00  0.00     0.084 C 
HETATM   17  C   UNL     1      -8.160   0.737 -34.594  1.00  0.00     0.025 C 
HETATM   18  C   UNL     1      -8.782  -0.141 -33.510  1.00  0.00     0.002 C 
HETATM   19  C   UNL     1     -10.136   0.377 -33.045  1.00  0.00     0.000 C 
HETATM   20  C   UNL     1     -10.048   1.838 -32.623  1.00  0.00     0.002 C 
HETATM   21  C   UNL     1      -9.507   2.707 -33.757  1.00  0.00     0.025 C 
ENDBRANCH  13  16
ENDBRANCH   4  12
ENDBRANCH   2   4
BRANCH   2  22
HETATM   22  C   UNL     1      -3.895   2.612 -31.301  1.00  0.00     0.192 C 
BRANCH  22  23
HETATM   23  C   UNL     1      -4.223   1.308 -31.937  1.00  0.00     0.070 A 
HETATM   24  O   UNL     1      -5.429   0.754 -31.625  1.00  0.00    -0.325 OA
HETATM   25  C   UNL     1      -5.458  -0.476 -32.208  1.00  0.00     0.142 A 
HETATM   26  C   UNL     1      -4.304  -0.701 -32.919  1.00  0.00     0.027 A 
HETATM   27  C   UNL     1      -3.501   0.447 -32.741  1.00  0.00     0.036 A 
ENDBRANCH  22  23
ENDBRANCH   2  22
BRANCH   1  28
HETATM   28  C   UNL     1      -3.139   5.234 -33.986  1.00  0.00     0.112 C 
BRANCH  28  29
HETATM   29  C   UNL     1      -1.786   5.887 -34.164  1.00  0.00     0.112 C 
BRANCH  29  30
HETATM   30  C   UNL     1      -1.525   6.933 -33.100  1.00  0.00     0.223 C 
HETATM   31  N   UNL     1      -1.186   6.377 -31.883  1.00  0.00    -0.310 N 
HETATM   32  H   UNL     1      -1.217   5.373 -31.756  1.00  0.00     0.170 HD
HETATM   33  O   UNL     1      -1.615   8.121 -33.382  1.00  0.00    -0.273 OA
BRANCH  31  34
HETATM   34  C   UNL     1      -0.856   7.108 -30.759  1.00  0.00     0.160 A 
HETATM   35  N   UNL     1      -1.641   7.986 -30.133  1.00  0.00    -0.110 NA
HETATM   36  O   UNL     1      -0.910   8.472 -29.069  1.00  0.00    -0.216 OA
HETATM   37  C   UNL     1       0.316   7.892 -29.064  1.00  0.00     0.078 A 
HETATM   38  C   UNL     1       1.235   8.299 -27.987  1.00  0.00     0.079 C 
HETATM   39  C   UNL     1       0.401   7.016 -30.117  1.00  0.00     0.087 A 
ENDBRANCH  31  34
ENDBRANCH  29  30
ENDBRANCH  28  29
ENDBRANCH   1  28
TORSDOF 9
ENDMDL
MODEL 2
REMARK VINA RESULT:      -8.3      3.295      7.671
REMARK  9 active torsions:
REMARK  status: ('A' for Active; 'I' for Inactive)
REMARK    1  A    between atoms: C_5  and  N_6 
REMARK       I    between atoms: N_6  and  C_7 
REMARK    2  A    between atoms: C_7  and  C_8 
REMARK    3  A    between atoms: C_8  and  C_9 
REMARK    4  A    between atoms: C_9  and  C_10 
REMARK       I    between atoms: C_10  and  N_11 
REMARK    5  A    between atoms: N_11  and  C_12 
REMARK    6  A    between atoms: N_11  and  C_29 
REMARK    7  A    between atoms: C_12  and  C_13 
REMARK       I    between atoms: C_13  and  N_14 
REMARK    8  A    between atoms: N_14  and  C_15 
REMARK    9  A    between atoms: C_29  and  C_30 
ROOT
HETATM    1  C   UNL     1      -7.193   4.872 -33.330  1.00  0.00     0.221 C 
HETATM    2  N   UNL     1      -7.055   4.636 -31.956  1.00  0.00    -0.328 N 
HETATM    3  O   UNL     1      -6.386   5.594 -33.932  1.00  0.00    -0.273 OA
ENDROOT
BRANCH   2   4
HETATM    4  C   UNL     1      -8.032   3.913 -31.020  1.00  0.00     0.119 C 
HETATM    5  C   UNL     1      -9.430   4.595 -30.885  1.00  0.00     0.069 C 
HETATM    6  C   UNL     1      -9.346   5.993 -30.327  1.00  0.00     0.237 C 
HETATM    7  N   UNL     1      -8.846   5.897 -28.911  1.00  0.00    -0.075 N 
HETATM    8  H   UNL     1      -9.533   5.339 -28.379  1.00  0.00     0.279 HD
HETATM    9  C   UNL     1      -8.825   7.253 -28.251  1.00  0.00     0.269 C 
HETATM   10  C   UNL     1      -7.519   5.196 -28.809  1.00  0.00     0.237 C 
HETATM   11  C   UNL     1      -7.541   3.842 -29.530  1.00  0.00     0.069 C 
BRANCH   4  12
HETATM   12  C   UNL     1      -8.302   2.420 -31.414  1.00  0.00     0.246 C 
HETATM   13  N   UNL     1      -7.251   1.671 -31.890  1.00  0.00    -0.354 N 
HETATM   14  H   UNL     1      -6.332   2.095 -31.984  1.00  0.00     0.162 HD
HETATM   15  O   UNL     1      -9.379   1.900 -31.115  1.00  0.00    -0.271 OA
BRANCH  13  16
HETATM   16  C   UNL     1      -7.334   0.203 -31.967  1.00  0.00     0.084 C 
HETATM   17  C   UNL     1      -7.989  -0.325 -33.260  1.00  0.00     0.025 C 
HETATM   18  C   UNL     1      -7.070  -0.326 -34.480  1.00  0.00     0.002 C 
HETATM   19  C   UNL     1      -5.726  -0.983 -34.197  1.00  0.00     0.000 C 
HETATM   20  C   UNL     1      -5.060  -0.363 -32.975  1.00  0.00     0.002 C 
HETATM   21  C   UNL     1      -5.965  -0.456 -31.748  1.00  0.00     0.025 C 
ENDBRANCH  13  16
ENDBRANCH   4  12
ENDBRANCH   2   4
BRANCH   2  22
HETATM   22  C   UNL     1      -5.796   5.219 -31.423  1.00  0.00     0.192 C 
BRANCH  22  23
HETATM   23  C   UNL     1      -4.600   4.374 -31.682  1.00  0.00     0.070 A 
HETATM   24  O   UNL     1      -4.594   3.126 -31.133  1.00  0.00    -0.325 OA
HETATM   25  C   UNL     1      -3.368   2.592 -31.387  1.00  0.00     0.142 A 
HETATM   26  C   UNL     1      -2.603   3.465 -32.122  1.00  0.00     0.027 A 
HETATM   27  C   UNL     1      -3.394   4.620 -32.309  1.00  0.00     0.036 A 
ENDBRANCH  22  23
ENDBRANCH   2  22
BRANCH   1  28
HETATM   28  C   UNL     1      -8.233   4.203 -34.195  1.00  0.00     0.112 C 
BRANCH  28  29
HETATM   29  C   UNL     1      -9.389   5.148 -34.439  1.00  0.00     0.112 C 
BRANCH  29  30
HETATM   30  C   UNL     1     -10.723   4.436 -34.342  1.00  0.00     0.223 C 
HETATM   31  N   UNL     1     -10.660   3.132 -34.787  1.00  0.00    -0.310 N 
HETATM   32  H   UNL     1      -9.811   2.779 -35.208  1.00  0.00     0.170 HD
HETATM   33  O   UNL     1     -11.695   5.029 -33.890  1.00  0.00    -0.273 OA
BRANCH  31  34
HETATM   34  C   UNL     1     -11.725   2.252 -34.766  1.00  0.00     0.160 A 
HETATM   35  N   UNL     1     -12.754   2.241 -35.614  1.00  0.00    -0.110 NA
HETATM   36  O   UNL     1     -13.570   1.199 -35.221  1.00  0.00    -0.216 OA
HETATM   37  C   UNL     1     -13.032   0.593 -34.133  1.00  0.00     0.078 A 
HETATM   38  C   UNL     1     -13.778  -0.549 -33.578  1.00  0.00     0.079 C 
HETATM   39  C   UNL     1     -11.858   1.223 -33.804  1.00  0.00     0.087 A 
ENDBRANCH  31  34
ENDBRANCH  29  30
ENDBRANCH  28  29
ENDBRANCH   1  28
TORSDOF 9
ENDMDL
MODEL 3
REMARK VINA RESULT:      -8.3      3.348      9.315
REMARK  9 active torsions:
REMARK  status: ('A' for Active; 'I' for Inactive)
REMARK    1  A    between atoms: C_5  and  N_6 
REMARK       I    between atoms: N_6  and  C_7 
REMARK    2  A    between atoms: C_7  and  C_8 
REMARK    3  A    between atoms: C_8  and  C_9 
REMARK    4  A    between atoms: C_9  and  C_10 
REMARK       I    between atoms: C_10  and  N_11 
REMARK    5  A    between atoms: N_11  and  C_12 
REMARK    6  A    between atoms: N_11  and  C_29 
REMARK    7  A    between atoms: C_12  and  C_13 
REMARK       I    between atoms: C_13  and  N_14 
REMARK    8  A    between atoms: N_14  and  C_15 
REMARK    9  A    between atoms: C_29  and  C_30 
ROOT
HETATM    1  C   UNL     1      -8.686   1.274 -32.443  1.00  0.00     0.221 C 
HETATM    2  N   UNL     1      -7.341   1.590 -32.215  1.00  0.00    -0.328 N 
HETATM    3  O   UNL     1      -9.420   0.921 -31.509  1.00  0.00    -0.273 OA
ENDROOT
BRANCH   2   4
HETATM    4  C   UNL     1      -6.251   1.886 -33.255  1.00  0.00     0.119 C 
HETATM    5  C   UNL     1      -6.435   1.148 -34.618  1.00  0.00     0.069 C 
HETATM    6  C   UNL     1      -6.416  -0.353 -34.477  1.00  0.00     0.237 C 
HETATM    7  N   UNL     1      -5.040  -0.758 -34.022  1.00  0.00    -0.075 N 
HETATM    8  H   UNL     1      -4.374  -0.458 -34.752  1.00  0.00     0.279 HD
HETATM    9  C   UNL     1      -4.914  -2.259 -33.949  1.00  0.00     0.269 C 
HETATM   10  C   UNL     1      -4.632  -0.090 -32.737  1.00  0.00     0.237 C 
HETATM   11  C   UNL     1      -4.816   1.431 -32.810  1.00  0.00     0.069 C 
BRANCH   4  12
HETATM   12  C   UNL     1      -6.092   3.408 -33.592  1.00  0.00     0.246 C 
HETATM   13  N   UNL     1      -4.916   4.033 -33.245  1.00  0.00    -0.354 N 
HETATM   14  H   UNL     1      -4.185   3.505 -32.776  1.00  0.00     0.162 HD
HETATM   15  O   UNL     1      -6.923   3.959 -34.316  1.00  0.00    -0.271 OA
BRANCH  13  16
HETATM   16  C   UNL     1      -4.555   5.346 -33.807  1.00  0.00     0.084 C 
HETATM   17  C   UNL     1      -3.863   6.292 -32.806  1.00  0.00     0.025 C 
HETATM   18  C   UNL     1      -2.382   5.998 -32.578  1.00  0.00     0.002 C 
HETATM   19  C   UNL     1      -1.607   5.859 -33.881  1.00  0.00     0.000 C 
HETATM   20  C   UNL     1      -2.261   4.838 -34.801  1.00  0.00     0.002 C 
HETATM   21  C   UNL     1      -3.716   5.205 -35.085  1.00  0.00     0.025 C 
ENDBRANCH  13  16
ENDBRANCH   4  12
ENDBRANCH   2   4
BRANCH   2  22
HETATM   22  C   UNL     1      -7.013   1.585 -30.766  1.00  0.00     0.192 C 
BRANCH  22  23
HETATM   23  C   UNL     1      -6.882   2.949 -30.187  1.00  0.00     0.070 A 
HETATM   24  O   UNL     1      -5.620   3.453 -30.073  1.00  0.00    -0.325 OA
HETATM   25  C   UNL     1      -5.730   4.637 -29.409  1.00  0.00     0.142 A 
HETATM   26  C   UNL     1      -7.047   4.915 -29.130  1.00  0.00     0.027 A 
HETATM   27  C   UNL     1      -7.793   3.823 -29.626  1.00  0.00     0.036 A 
ENDBRANCH  22  23
ENDBRANCH   2  22
BRANCH   1  28
HETATM   28  C   UNL     1      -9.371   1.435 -33.778  1.00  0.00     0.112 C 
BRANCH  28  29
HETATM   29  C   UNL     1      -9.964   2.822 -33.891  1.00  0.00     0.112 C 
BRANCH  29  30
HETATM   30  C   UNL     1     -11.456   2.773 -34.149  1.00  0.00     0.223 C 
HETATM   31  N   UNL     1     -12.142   2.094 -33.164  1.00  0.00    -0.310 N 
HETATM   32  H   UNL     1     -11.636   1.623 -32.425  1.00  0.00     0.170 HD
HETATM   33  O   UNL     1     -11.918   3.318 -35.145  1.00  0.00    -0.273 OA
BRANCH  31  34
HETATM   34  C   UNL     1     -13.515   1.942 -33.135  1.00  0.00     0.160 A 
HETATM   35  N   UNL     1     -14.235   1.148 -33.929  1.00  0.00    -0.110 NA
HETATM   36  O   UNL     1     -15.552   1.310 -33.550  1.00  0.00    -0.216 OA
HETATM   37  C   UNL     1     -15.619   2.208 -32.536  1.00  0.00     0.078 A 
HETATM   38  C   UNL     1     -16.961   2.503 -32.003  1.00  0.00     0.079 C 
HETATM   39  C   UNL     1     -14.352   2.639 -32.233  1.00  0.00     0.087 A 
ENDBRANCH  31  34
ENDBRANCH  29  30
ENDBRANCH  28  29
ENDBRANCH   1  28
TORSDOF 9
ENDMDL
MODEL 4
REMARK VINA RESULT:      -8.3      2.320      6.722
REMARK  9 active torsions:
REMARK  status: ('A' for Active; 'I' for Inactive)
REMARK    1  A    between atoms: C_5  and  N_6 
REMARK       I    between atoms: N_6  and  C_7 
REMARK    2  A    between atoms: C_7  and  C_8 
REMARK    3  A    between atoms: C_8  and  C_9 
REMARK    4  A    between atoms: C_9  and  C_10 
REMARK       I    between atoms: C_10  and  N_11 
REMARK    5  A    between atoms: N_11  and  C_12 
REMARK    6  A    between atoms: N_11  and  C_29 
REMARK    7  A    between atoms: C_12  and  C_13 
REMARK       I    between atoms: C_13  and  N_14 
REMARK    8  A    between atoms: N_14  and  C_15 
REMARK    9  A    between atoms: C_29  and  C_30 
ROOT
HETATM    1  C   UNL     1      -3.802   2.920 -31.283  1.00  0.00     0.221 C 
HETATM    2  N   UNL     1      -4.433   4.146 -31.533  1.00  0.00    -0.328 N 
HETATM    3  O   UNL     1      -2.567   2.844 -31.228  1.00  0.00    -0.273 OA
ENDROOT
BRANCH   2   4
HETATM    4  C   UNL     1      -5.922   4.404 -31.795  1.00  0.00     0.119 C 
HETATM    5  C   UNL     1      -6.317   5.912 -31.879  1.00  0.00     0.069 C 
HETATM    6  C   UNL     1      -6.028   6.663 -30.603  1.00  0.00     0.237 C 
HETATM    7  N   UNL     1      -6.923   6.108 -29.527  1.00  0.00    -0.075 N 
HETATM    8  H   UNL     1      -7.898   6.269 -29.825  1.00  0.00     0.279 HD
HETATM    9  C   UNL     1      -6.759   6.875 -28.239  1.00  0.00     0.269 C 
HETATM   10  C   UNL     1      -6.748   4.626 -29.332  1.00  0.00     0.237 C 
HETATM   11  C   UNL     1      -6.864   3.866 -30.660  1.00  0.00     0.069 C 
BRANCH   4  12
HETATM   12  C   UNL     1      -6.463   3.730 -33.103  1.00  0.00     0.246 C 
HETATM   13  N   UNL     1      -7.067   2.498 -33.000  1.00  0.00    -0.354 N 
HETATM   14  H   UNL     1      -7.144   2.050 -32.091  1.00  0.00     0.162 HD
HETATM   15  O   UNL     1      -6.511   4.384 -34.146  1.00  0.00    -0.271 OA
BRANCH  13  16
HETATM   16  C   UNL     1      -7.882   1.954 -34.099  1.00  0.00     0.084 C 
HETATM   17  C   UNL     1      -7.887   0.415 -34.179  1.00  0.00     0.025 C 
HETATM   18  C   UNL     1      -8.813  -0.268 -33.173  1.00  0.00     0.002 C 
HETATM   19  C   UNL     1     -10.216   0.321 -33.179  1.00  0.00     0.000 C 
HETATM   20  C   UNL     1     -10.177   1.832 -32.992  1.00  0.00     0.002 C 
HETATM   21  C   UNL     1      -9.318   2.498 -34.065  1.00  0.00     0.025 C 
ENDBRANCH  13  16
ENDBRANCH   4  12
ENDBRANCH   2   4
BRANCH   2  22
HETATM   22  C   UNL     1      -3.459   5.269 -31.560  1.00  0.00     0.192 C 
BRANCH  22  23
HETATM   23  C   UNL     1      -2.714   5.370 -32.844  1.00  0.00     0.070 A 
HETATM   24  O   UNL     1      -1.574   6.119 -32.839  1.00  0.00    -0.325 OA
HETATM   25  C   UNL     1      -1.139   6.178 -34.127  1.00  0.00     0.142 A 
HETATM   26  C   UNL     1      -1.962   5.447 -34.950  1.00  0.00     0.027 A 
HETATM   27  C   UNL     1      -2.984   4.929 -34.124  1.00  0.00     0.036 A 
ENDBRANCH  22  23
ENDBRANCH   2  22
BRANCH   1  28
HETATM   28  C   UNL     1      -4.543   1.647 -30.957  1.00  0.00     0.112 C 
BRANCH  28  29
HETATM   29  C   UNL     1      -3.680   0.448 -31.284  1.00  0.00     0.112 C 
BRANCH  29  30
HETATM   30  C   UNL     1      -4.493  -0.678 -31.889  1.00  0.00     0.223 C 
HETATM   31  N   UNL     1      -3.768  -1.429 -32.791  1.00  0.00    -0.310 N 
HETATM   32  H   UNL     1      -2.830  -1.149 -33.048  1.00  0.00     0.170 HD
HETATM   33  O   UNL     1      -5.657  -0.839 -31.544  1.00  0.00    -0.273 OA
BRANCH  31  34
HETATM   34  C   UNL     1      -4.259  -2.539 -33.451  1.00  0.00     0.160 A 
HETATM   35  N   UNL     1      -3.734  -3.764 -33.427  1.00  0.00    -0.110 NA
HETATM   36  O   UNL     1      -4.545  -4.551 -34.220  1.00  0.00    -0.216 OA
HETATM   37  C   UNL     1      -5.550  -3.792 -34.725  1.00  0.00     0.078 A 
HETATM   38  C   UNL     1      -6.518  -4.477 -35.598  1.00  0.00     0.079 C 
HETATM   39  C   UNL     1      -5.415  -2.507 -34.265  1.00  0.00     0.087 A 
ENDBRANCH  31  34
ENDBRANCH  29  30
ENDBRANCH  28  29
ENDBRANCH   1  28
TORSDOF 9
ENDMDL
MODEL 5
REMARK VINA RESULT:      -8.2      2.184      4.141
REMARK  9 active torsions:
REMARK  status: ('A' for Active; 'I' for Inactive)
REMARK    1  A    between atoms: C_5  and  N_6 
REMARK       I    between atoms: N_6  and  C_7 
REMARK    2  A    between atoms: C_7  and  C_8 
REMARK    3  A    between atoms: C_8  and  C_9 
REMARK    4  A    between atoms: C_9  and  C_10 
REMARK       I    between atoms: C_10  and  N_11 
REMARK    5  A    between atoms: N_11  and  C_12 
REMARK    6  A    between atoms: N_11  and  C_29 
REMARK    7  A    between atoms: C_12  and  C_13 
REMARK       I    between atoms: C_13  and  N_14 
REMARK    8  A    between atoms: N_14  and  C_15 
REMARK    9  A    between atoms: C_29  and  C_30 
ROOT
HETATM    1  C   UNL     1      -5.896   4.372 -33.272  1.00  0.00     0.221 C 
HETATM    2  N   UNL     1      -6.976   4.387 -32.380  1.00  0.00    -0.328 N 
HETATM    3  O   UNL     1      -5.878   5.124 -34.256  1.00  0.00    -0.273 OA
ENDROOT
BRANCH   2   4
HETATM    4  C   UNL     1      -7.250   3.428 -31.213  1.00  0.00     0.119 C 
HETATM    5  C   UNL     1      -8.279   3.956 -30.165  1.00  0.00     0.069 C 
HETATM    6  C   UNL     1      -7.833   5.233 -29.500  1.00  0.00     0.237 C 
HETATM    7  N   UNL     1      -6.604   4.926 -28.686  1.00  0.00    -0.075 N 
HETATM    8  H   UNL     1      -6.873   4.227 -27.976  1.00  0.00     0.279 HD
HETATM    9  C   UNL     1      -6.151   6.139 -27.912  1.00  0.00     0.269 C 
HETATM   10  C   UNL     1      -5.495   4.332 -29.510  1.00  0.00     0.237 C 
HETATM   11  C   UNL     1      -5.985   3.132 -30.332  1.00  0.00     0.069 C 
BRANCH   4  12
HETATM   12  C   UNL     1      -7.755   2.013 -31.659  1.00  0.00     0.246 C 
HETATM   13  N   UNL     1      -6.863   1.166 -32.275  1.00  0.00    -0.354 N 
HETATM   14  H   UNL     1      -5.907   1.472 -32.435  1.00  0.00     0.162 HD
HETATM   15  O   UNL     1      -8.862   1.620 -31.286  1.00  0.00    -0.271 OA
BRANCH  13  16
HETATM   16  C   UNL     1      -7.152  -0.270 -32.423  1.00  0.00     0.084 C 
HETATM   17  C   UNL     1      -7.999  -0.619 -33.664  1.00  0.00     0.025 C 
HETATM   18  C   UNL     1      -7.216  -0.655 -34.975  1.00  0.00     0.002 C 
HETATM   19  C   UNL     1      -5.952  -1.498 -34.876  1.00  0.00     0.000 C 
HETATM   20  C   UNL     1      -5.089  -1.055 -33.702  1.00  0.00     0.002 C 
HETATM   21  C   UNL     1      -5.870  -1.114 -32.391  1.00  0.00     0.025 C 
ENDBRANCH  13  16
ENDBRANCH   4  12
ENDBRANCH   2   4
BRANCH   2  22
HETATM   22  C   UNL     1      -7.937   5.475 -32.699  1.00  0.00     0.192 C 
BRANCH  22  23
HETATM   23  C   UNL     1      -9.061   5.032 -33.567  1.00  0.00     0.070 A 
HETATM   24  O   UNL     1      -9.115   5.557 -34.824  1.00  0.00    -0.325 OA
HETATM   25  C   UNL     1     -10.277   5.120 -35.382  1.00  0.00     0.142 A 
HETATM   26  C   UNL     1     -10.949   4.293 -34.513  1.00  0.00     0.027 A 
HETATM   27  C   UNL     1     -10.169   4.240 -33.337  1.00  0.00     0.036 A 
ENDBRANCH  22  23
ENDBRANCH   2  22
BRANCH   1  28
HETATM   28  C   UNL     1      -4.648   3.549 -33.064  1.00  0.00     0.112 C 
BRANCH  28  29
HETATM   29  C   UNL     1      -3.425   4.436 -33.141  1.00  0.00     0.112 C 
BRANCH  29  30
HETATM   30  C   UNL     1      -2.497   4.213 -31.964  1.00  0.00     0.223 C 
HETATM   31  N   UNL     1      -1.657   5.285 -31.743  1.00  0.00    -0.310 N 
HETATM   32  H   UNL     1      -1.646   6.064 -32.388  1.00  0.00     0.170 HD
HETATM   33  O   UNL     1      -2.566   3.169 -31.327  1.00  0.00    -0.273 OA
BRANCH  31  34
HETATM   34  C   UNL     1      -0.745   5.356 -30.708  1.00  0.00     0.160 A 
HETATM   35  N   UNL     1       0.268   4.516 -30.491  1.00  0.00    -0.110 NA
HETATM   36  O   UNL     1       0.912   4.967 -29.357  1.00  0.00    -0.216 OA
HETATM   37  C   UNL     1       0.279   6.072 -28.891  1.00  0.00     0.078 A 
HETATM   38  C   UNL     1       0.839   6.690 -27.677  1.00  0.00     0.079 C 
HETATM   39  C   UNL     1      -0.780   6.363 -29.714  1.00  0.00     0.087 A 
ENDBRANCH  31  34
ENDBRANCH  29  30
ENDBRANCH  28  29
ENDBRANCH   1  28
TORSDOF 9
ENDMDL
MODEL 6
REMARK VINA RESULT:      -8.0      2.449      6.839
REMARK  9 active torsions:
REMARK  status: ('A' for Active; 'I' for Inactive)
REMARK    1  A    between atoms: C_5  and  N_6 
REMARK       I    between atoms: N_6  and  C_7 
REMARK    2  A    between atoms: C_7  and  C_8 
REMARK    3  A    between atoms: C_8  and  C_9 
REMARK    4  A    between atoms: C_9  and  C_10 
REMARK       I    between atoms: C_10  and  N_11 
REMARK    5  A    between atoms: N_11  and  C_12 
REMARK    6  A    between atoms: N_11  and  C_29 
REMARK    7  A    between atoms: C_12  and  C_13 
REMARK       I    between atoms: C_13  and  N_14 
REMARK    8  A    between atoms: N_14  and  C_15 
REMARK    9  A    between atoms: C_29  and  C_30 
ROOT
HETATM    1  C   UNL     1      -4.011   2.913 -31.133  1.00  0.00     0.221 C 
HETATM    2  N   UNL     1      -3.843   4.304 -31.151  1.00  0.00    -0.328 N 
HETATM    3  O   UNL     1      -3.050   2.157 -31.329  1.00  0.00    -0.273 OA
ENDROOT
BRANCH   2   4
HETATM    4  C   UNL     1      -4.929   5.387 -31.091  1.00  0.00     0.119 C 
HETATM    5  C   UNL     1      -4.401   6.822 -30.782  1.00  0.00     0.069 C 
HETATM    6  C   UNL     1      -3.710   6.914 -29.444  1.00  0.00     0.237 C 
HETATM    7  N   UNL     1      -4.739   6.662 -28.374  1.00  0.00    -0.075 N 
HETATM    8  H   UNL     1      -5.457   7.399 -28.459  1.00  0.00     0.279 HD
HETATM    9  C   UNL     1      -4.142   6.832 -26.999  1.00  0.00     0.269 C 
HETATM   10  C   UNL     1      -5.431   5.336 -28.534  1.00  0.00     0.237 C 
HETATM   11  C   UNL     1      -5.985   5.157 -29.953  1.00  0.00     0.069 C 
BRANCH   4  12
HETATM   12  C   UNL     1      -5.784   5.501 -32.400  1.00  0.00     0.246 C 
HETATM   13  N   UNL     1      -7.121   5.182 -32.336  1.00  0.00    -0.354 N 
HETATM   14  H   UNL     1      -7.523   4.874 -31.455  1.00  0.00     0.162 HD
HETATM   15  O   UNL     1      -5.300   6.046 -33.394  1.00  0.00    -0.271 OA
BRANCH  13  16
HETATM   16  C   UNL     1      -8.050   5.570 -33.411  1.00  0.00     0.084 C 
HETATM   17  C   UNL     1      -8.748   4.381 -34.101  1.00  0.00     0.025 C 
HETATM   18  C   UNL     1      -9.920   3.793 -33.319  1.00  0.00     0.002 C 
HETATM   19  C   UNL     1     -10.904   4.858 -32.855  1.00  0.00     0.000 C 
HETATM   20  C   UNL     1     -10.194   5.963 -32.084  1.00  0.00     0.002 C 
HETATM   21  C   UNL     1      -9.085   6.594 -32.924  1.00  0.00     0.025 C 
ENDBRANCH  13  16
ENDBRANCH   4  12
ENDBRANCH   2   4
BRANCH   2  22
HETATM   22  C   UNL     1      -2.411   4.682 -31.276  1.00  0.00     0.192 C 
BRANCH  22  23
HETATM   23  C   UNL     1      -2.022   5.062 -32.661  1.00  0.00     0.070 A 
HETATM   24  O   UNL     1      -1.482   6.302 -32.832  1.00  0.00    -0.325 OA
HETATM   25  C   UNL     1      -1.327   6.480 -34.173  1.00  0.00     0.142 A 
HETATM   26  C   UNL     1      -1.726   5.358 -34.859  1.00  0.00     0.027 A 
HETATM   27  C   UNL     1      -2.181   4.442 -33.884  1.00  0.00     0.036 A 
ENDBRANCH  22  23
ENDBRANCH   2  22
BRANCH   1  28
HETATM   28  C   UNL     1      -5.308   2.230 -30.774  1.00  0.00     0.112 C 
BRANCH  28  29
HETATM   29  C   UNL     1      -6.040   1.815 -32.032  1.00  0.00     0.112 C 
BRANCH  29  30
HETATM   30  C   UNL     1      -5.977   0.317 -32.247  1.00  0.00     0.223 C 
HETATM   31  N   UNL     1      -5.674  -0.018 -33.551  1.00  0.00    -0.310 N 
HETATM   32  H   UNL     1      -5.607   0.702 -34.258  1.00  0.00     0.170 HD
HETATM   33  O   UNL     1      -6.173  -0.440 -31.305  1.00  0.00    -0.273 OA
BRANCH  31  34
HETATM   34  C   UNL     1      -5.514  -1.313 -34.004  1.00  0.00     0.160 A 
HETATM   35  N   UNL     1      -4.369  -1.996 -34.048  1.00  0.00    -0.110 NA
HETATM   36  O   UNL     1      -4.676  -3.238 -34.565  1.00  0.00    -0.216 OA
HETATM   37  C   UNL     1      -6.004  -3.294 -34.839  1.00  0.00     0.078 A 
HETATM   38  C   UNL     1      -6.508  -4.558 -35.401  1.00  0.00     0.079 C 
HETATM   39  C   UNL     1      -6.583  -2.097 -34.499  1.00  0.00     0.087 A 
ENDBRANCH  31  34
ENDBRANCH  29  30
ENDBRANCH  28  29
ENDBRANCH   1  28
TORSDOF 9
ENDMDL
MODEL 7
REMARK VINA RESULT:      -7.8      2.601      8.056
REMARK  9 active torsions:
REMARK  status: ('A' for Active; 'I' for Inactive)
REMARK    1  A    between atoms: C_5  and  N_6 
REMARK       I    between atoms: N_6  and  C_7 
REMARK    2  A    between atoms: C_7  and  C_8 
REMARK    3  A    between atoms: C_8  and  C_9 
REMARK    4  A    between atoms: C_9  and  C_10 
REMARK       I    between atoms: C_10  and  N_11 
REMARK    5  A    between atoms: N_11  and  C_12 
REMARK    6  A    between atoms: N_11  and  C_29 
REMARK    7  A    between atoms: C_12  and  C_13 
REMARK       I    between atoms: C_13  and  N_14 
REMARK    8  A    between atoms: N_14  and  C_15 
REMARK    9  A    between atoms: C_29  and  C_30 
ROOT
HETATM    1  C   UNL     1      -5.791   3.747 -30.779  1.00  0.00     0.221 C 
HETATM    2  N   UNL     1      -6.290   5.016 -31.096  1.00  0.00    -0.328 N 
HETATM    3  O   UNL     1      -5.482   3.461 -29.613  1.00  0.00    -0.273 OA
ENDROOT
BRANCH   2   4
HETATM    4  C   UNL     1      -6.570   5.600 -32.487  1.00  0.00     0.119 C 
HETATM    5  C   UNL     1      -7.124   7.059 -32.482  1.00  0.00     0.069 C 
HETATM    6  C   UNL     1      -8.441   7.180 -31.757  1.00  0.00     0.237 C 
HETATM    7  N   UNL     1      -9.469   6.399 -32.530  1.00  0.00    -0.075 N 
HETATM    8  H   UNL     1      -9.536   6.824 -33.469  1.00  0.00     0.279 HD
HETATM    9  C   UNL     1     -10.838   6.551 -31.917  1.00  0.00     0.269 C 
HETATM   10  C   UNL     1      -9.085   4.956 -32.713  1.00  0.00     0.237 C 
HETATM   11  C   UNL     1      -7.669   4.818 -33.289  1.00  0.00     0.069 C 
BRANCH   4  12
HETATM   12  C   UNL     1      -5.322   5.602 -33.437  1.00  0.00     0.246 C 
HETATM   13  N   UNL     1      -4.131   6.085 -32.947  1.00  0.00    -0.354 N 
HETATM   14  H   UNL     1      -4.083   6.434 -31.994  1.00  0.00     0.162 HD
HETATM   15  O   UNL     1      -5.381   5.007 -34.514  1.00  0.00    -0.271 OA
BRANCH  13  16
HETATM   16  C   UNL     1      -2.858   5.823 -33.642  1.00  0.00     0.084 C 
HETATM   17  C   UNL     1      -1.959   7.064 -33.801  1.00  0.00     0.025 C 
HETATM   18  C   UNL     1      -1.178   7.446 -32.544  1.00  0.00     0.002 C 
HETATM   19  C   UNL     1      -0.438   6.263 -31.936  1.00  0.00     0.000 C 
HETATM   20  C   UNL     1      -1.381   5.091 -31.695  1.00  0.00     0.002 C 
HETATM   21  C   UNL     1      -2.080   4.673 -32.987  1.00  0.00     0.025 C 
ENDBRANCH  13  16
ENDBRANCH   4  12
ENDBRANCH   2   4
BRANCH   2  22
HETATM   22  C   UNL     1      -6.517   5.837 -29.878  1.00  0.00     0.192 C 
BRANCH  22  23
HETATM   23  C   UNL     1      -5.278   6.484 -29.365  1.00  0.00     0.070 A 
HETATM   24  O   UNL     1      -4.439   7.030 -30.289  1.00  0.00    -0.325 OA
HETATM   25  C   UNL     1      -3.329   7.441 -29.616  1.00  0.00     0.142 A 
HETATM   26  C   UNL     1      -3.463   7.198 -28.270  1.00  0.00     0.027 A 
HETATM   27  C   UNL     1      -4.719   6.574 -28.106  1.00  0.00     0.036 A 
ENDBRANCH  22  23
ENDBRANCH   2  22
BRANCH   1  28
HETATM   28  C   UNL     1      -5.691   2.613 -31.770  1.00  0.00     0.112 C 
BRANCH  28  29
HETATM   29  C   UNL     1      -6.872   1.681 -31.610  1.00  0.00     0.112 C 
BRANCH  29  30
HETATM   30  C   UNL     1      -6.496   0.245 -31.916  1.00  0.00     0.223 C 
HETATM   31  N   UNL     1      -6.338   0.016 -33.267  1.00  0.00    -0.310 N 
HETATM   32  H   UNL     1      -6.554   0.745 -33.935  1.00  0.00     0.170 HD
HETATM   33  O   UNL     1      -6.356  -0.554 -30.998  1.00  0.00    -0.273 OA
BRANCH  31  34
HETATM   34  C   UNL     1      -5.955  -1.194 -33.811  1.00  0.00     0.160 A 
HETATM   35  N   UNL     1      -4.703  -1.628 -33.962  1.00  0.00    -0.110 NA
HETATM   36  O   UNL     1      -4.791  -2.878 -34.541  1.00  0.00    -0.216 OA
HETATM   37  C   UNL     1      -6.096  -3.187 -34.743  1.00  0.00     0.078 A 
HETATM   38  C   UNL     1      -6.377  -4.496 -35.356  1.00  0.00     0.079 C 
HETATM   39  C   UNL     1      -6.877  -2.152 -34.295  1.00  0.00     0.087 A 
ENDBRANCH  31  34
ENDBRANCH  29  30
ENDBRANCH  28  29
ENDBRANCH   1  28
TORSDOF 9
ENDMDL
MODEL 8
REMARK VINA RESULT:      -7.6      2.112      5.138
REMARK  9 active torsions:
REMARK  status: ('A' for Active; 'I' for Inactive)
REMARK    1  A    between atoms: C_5  and  N_6 
REMARK       I    between atoms: N_6  and  C_7 
REMARK    2  A    between atoms: C_7  and  C_8 
REMARK    3  A    between atoms: C_8  and  C_9 
REMARK    4  A    between atoms: C_9  and  C_10 
REMARK       I    between atoms: C_10  and  N_11 
REMARK    5  A    between atoms: N_11  and  C_12 
REMARK    6  A    between atoms: N_11  and  C_29 
REMARK    7  A    between atoms: C_12  and  C_13 
REMARK       I    between atoms: C_13  and  N_14 
REMARK    8  A    between atoms: N_14  and  C_15 
REMARK    9  A    between atoms: C_29  and  C_30 
ROOT
HETATM    1  C   UNL     1      -6.683   5.088 -33.108  1.00  0.00     0.221 C 
HETATM    2  N   UNL     1      -7.793   4.717 -32.339  1.00  0.00    -0.328 N 
HETATM    3  O   UNL     1      -6.400   6.282 -33.276  1.00  0.00    -0.273 OA
ENDROOT
BRANCH   2   4
HETATM    4  C   UNL     1      -8.389   3.315 -32.155  1.00  0.00     0.119 C 
HETATM    5  C   UNL     1      -8.633   2.531 -33.482  1.00  0.00     0.069 C 
HETATM    6  C   UNL     1      -9.603   3.229 -34.403  1.00  0.00     0.237 C 
HETATM    7  N   UNL     1     -10.949   3.242 -33.731  1.00  0.00    -0.075 N 
HETATM    8  H   UNL     1     -11.232   2.260 -33.590  1.00  0.00     0.279 HD
HETATM    9  C   UNL     1     -11.999   3.842 -34.633  1.00  0.00     0.269 C 
HETATM   10  C   UNL     1     -10.919   3.902 -32.379  1.00  0.00     0.237 C 
HETATM   11  C   UNL     1      -9.812   3.317 -31.492  1.00  0.00     0.069 C 
BRANCH   4  12
HETATM   12  C   UNL     1      -7.532   2.377 -31.236  1.00  0.00     0.246 C 
HETATM   13  N   UNL     1      -6.786   1.386 -31.831  1.00  0.00    -0.354 N 
HETATM   14  H   UNL     1      -6.810   1.275 -32.841  1.00  0.00     0.162 HD
HETATM   15  O   UNL     1      -7.392   2.659 -30.045  1.00  0.00    -0.271 OA
BRANCH  13  16
HETATM   16  C   UNL     1      -5.718   0.688 -31.095  1.00  0.00     0.084 C 
HETATM   17  C   UNL     1      -5.478  -0.763 -31.555  1.00  0.00     0.025 C 
HETATM   18  C   UNL     1      -4.659  -0.893 -32.838  1.00  0.00     0.002 C 
HETATM   19  C   UNL     1      -3.376  -0.074 -32.796  1.00  0.00     0.000 C 
HETATM   20  C   UNL     1      -3.665   1.379 -32.441  1.00  0.00     0.002 C 
HETATM   21  C   UNL     1      -4.405   1.484 -31.110  1.00  0.00     0.025 C 
ENDBRANCH  13  16
ENDBRANCH   4  12
ENDBRANCH   2   4
BRANCH   2  22
HETATM   22  C   UNL     1      -8.425   5.893 -31.685  1.00  0.00     0.192 C 
BRANCH  22  23
HETATM   23  C   UNL     1      -8.033   6.054 -30.258  1.00  0.00     0.070 A 
HETATM   24  O   UNL     1      -6.704   5.964 -29.969  1.00  0.00    -0.325 OA
HETATM   25  C   UNL     1      -6.595   6.010 -28.613  1.00  0.00     0.142 A 
HETATM   26  C   UNL     1      -7.831   6.165 -28.033  1.00  0.00     0.027 A 
HETATM   27  C   UNL     1      -8.763   6.188 -29.094  1.00  0.00     0.036 A 
ENDBRANCH  22  23
ENDBRANCH   2  22
BRANCH   1  28
HETATM   28  C   UNL     1      -5.699   4.102 -33.689  1.00  0.00     0.112 C 
BRANCH  28  29
HETATM   29  C   UNL     1      -4.796   4.798 -34.684  1.00  0.00     0.112 C 
BRANCH  29  30
HETATM   30  C   UNL     1      -3.401   4.999 -34.129  1.00  0.00     0.223 C 
HETATM   31  N   UNL     1      -3.378   5.012 -32.749  1.00  0.00    -0.310 N 
HETATM   32  H   UNL     1      -4.243   4.979 -32.226  1.00  0.00     0.170 HD
HETATM   33  O   UNL     1      -2.454   5.115 -34.896  1.00  0.00    -0.273 OA
BRANCH  31  34
HETATM   34  C   UNL     1      -2.229   5.136 -31.992  1.00  0.00     0.160 A 
HETATM   35  N   UNL     1      -1.595   4.149 -31.357  1.00  0.00    -0.110 NA
HETATM   36  O   UNL     1      -0.505   4.725 -30.735  1.00  0.00    -0.216 OA
HETATM   37  C   UNL     1      -0.494   6.056 -30.992  1.00  0.00     0.078 A 
HETATM   38  C   UNL     1       0.611   6.832 -30.402  1.00  0.00     0.079 C 
HETATM   39  C   UNL     1      -1.566   6.369 -31.788  1.00  0.00     0.087 A 
ENDBRANCH  31  34
ENDBRANCH  29  30
ENDBRANCH  28  29
ENDBRANCH   1  28
TORSDOF 9
ENDMDL
MODEL 9
REMARK VINA RESULT:      -7.6      2.761      7.639
REMARK  9 active torsions:
REMARK  status: ('A' for Active; 'I' for Inactive)
REMARK    1  A    between atoms: C_5  and  N_6 
REMARK       I    between atoms: N_6  and  C_7 
REMARK    2  A    between atoms: C_7  and  C_8 
REMARK    3  A    between atoms: C_8  and  C_9 
REMARK    4  A    between atoms: C_9  and  C_10 
REMARK       I    between atoms: C_10  and  N_11 
REMARK    5  A    between atoms: N_11  and  C_12 
REMARK    6  A    between atoms: N_11  and  C_29 
REMARK    7  A    between atoms: C_12  and  C_13 
REMARK       I    between atoms: C_13  and  N_14 
REMARK    8  A    between atoms: N_14  and  C_15 
REMARK    9  A    between atoms: C_29  and  C_30 
ROOT
HETATM    1  C   UNL     1      -8.104   2.196 -32.497  1.00  0.00     0.221 C 
HETATM    2  N   UNL     1      -7.293   3.161 -31.887  1.00  0.00    -0.328 N 
HETATM    3  O   UNL     1      -8.277   1.089 -31.969  1.00  0.00    -0.273 OA
ENDROOT
BRANCH   2   4
HETATM    4  C   UNL     1      -6.836   4.510 -32.460  1.00  0.00     0.119 C 
HETATM    5  C   UNL     1      -6.497   5.592 -31.387  1.00  0.00     0.069 C 
HETATM    6  C   UNL     1      -7.678   5.939 -30.515  1.00  0.00     0.237 C 
HETATM    7  N   UNL     1      -8.717   6.595 -31.384  1.00  0.00    -0.075 N 
HETATM    8  H   UNL     1      -8.295   7.452 -31.775  1.00  0.00     0.279 HD
HETATM    9  C   UNL     1      -9.894   7.059 -30.563  1.00  0.00     0.269 C 
HETATM   10  C   UNL     1      -9.138   5.730 -32.541  1.00  0.00     0.237 C 
HETATM   11  C   UNL     1      -7.927   5.224 -33.335  1.00  0.00     0.069 C 
BRANCH   4  12
HETATM   12  C   UNL     1      -5.586   4.409 -33.400  1.00  0.00     0.246 C 
HETATM   13  N   UNL     1      -4.408   4.986 -32.984  1.00  0.00    -0.354 N 
HETATM   14  H   UNL     1      -4.373   5.468 -32.089  1.00  0.00     0.162 HD
HETATM   15  O   UNL     1      -5.625   3.666 -34.382  1.00  0.00    -0.271 OA
BRANCH  13  16
HETATM   16  C   UNL     1      -3.128   4.661 -33.633  1.00  0.00     0.084 C 
HETATM   17  C   UNL     1      -2.667   5.698 -34.676  1.00  0.00     0.025 C 
HETATM   18  C   UNL     1      -2.031   6.954 -34.082  1.00  0.00     0.002 C 
HETATM   19  C   UNL     1      -0.948   6.632 -33.063  1.00  0.00     0.000 C 
HETATM   20  C   UNL     1      -1.470   5.687 -31.988  1.00  0.00     0.002 C 
HETATM   21  C   UNL     1      -2.018   4.402 -32.604  1.00  0.00     0.025 C 
ENDBRANCH  13  16
ENDBRANCH   4  12
ENDBRANCH   2   4
BRANCH   2  22
HETATM   22  C   UNL     1      -6.842   2.727 -30.539  1.00  0.00     0.192 C 
BRANCH  22  23
HETATM   23  C   UNL     1      -5.628   1.867 -30.573  1.00  0.00     0.070 A 
HETATM   24  O   UNL     1      -4.479   2.439 -31.032  1.00  0.00    -0.325 OA
HETATM   25  C   UNL     1      -3.547   1.449 -31.097  1.00  0.00     0.142 A 
HETATM   26  C   UNL     1      -4.073   0.260 -30.651  1.00  0.00     0.027 A 
HETATM   27  C   UNL     1      -5.420   0.526 -30.318  1.00  0.00     0.036 A 
ENDBRANCH  22  23
ENDBRANCH   2  22
BRANCH   1  28
HETATM   28  C   UNL     1      -8.905   2.446 -33.752  1.00  0.00     0.112 C 
BRANCH  28  29
HETATM   29  C   UNL     1      -9.204   1.135 -34.444  1.00  0.00     0.112 C 
BRANCH  29  30
HETATM   30  C   UNL     1      -7.936   0.383 -34.791  1.00  0.00     0.223 C 
HETATM   31  N   UNL     1      -7.770  -0.755 -34.028  1.00  0.00    -0.310 N 
HETATM   32  H   UNL     1      -8.411  -0.958 -33.272  1.00  0.00     0.170 HD
HETATM   33  O   UNL     1      -7.203   0.805 -35.677  1.00  0.00    -0.273 OA
BRANCH  31  34
HETATM   34  C   UNL     1      -6.720  -1.641 -34.172  1.00  0.00     0.160 A 
HETATM   35  N   UNL     1      -5.430  -1.373 -33.970  1.00  0.00    -0.110 NA
HETATM   36  O   UNL     1      -4.744  -2.542 -34.228  1.00  0.00    -0.216 OA
HETATM   37  C   UNL     1      -5.624  -3.507 -34.593  1.00  0.00     0.078 A 
HETATM   38  C   UNL     1      -5.060  -4.831 -34.905  1.00  0.00     0.079 C 
HETATM   39  C   UNL     1      -6.894  -2.987 -34.572  1.00  0.00     0.087 A 
ENDBRANCH  31  34
ENDBRANCH  29  30
ENDBRANCH  28  29
ENDBRANCH   1  28
TORSDOF 9
ENDMDL
MODEL 10
REMARK VINA RESULT:      -7.6      2.228      5.194
REMARK  9 active torsions:
REMARK  status: ('A' for Active; 'I' for Inactive)
REMARK    1  A    between atoms: C_5  and  N_6 
REMARK       I    between atoms: N_6  and  C_7 
REMARK    2  A    between atoms: C_7  and  C_8 
REMARK    3  A    between atoms: C_8  and  C_9 
REMARK    4  A    between atoms: C_9  and  C_10 
REMARK       I    between atoms: C_10  and  N_11 
REMARK    5  A    between atoms: N_11  and  C_12 
REMARK    6  A    between atoms: N_11  and  C_29 
REMARK    7  A    between atoms: C_12  and  C_13 
REMARK       I    between atoms: C_13  and  N_14 
REMARK    8  A    between atoms: N_14  and  C_15 
REMARK    9  A    between atoms: C_29  and  C_30 
ROOT
HETATM    1  C   UNL     1      -6.537   4.088 -29.969  1.00  0.00     0.221 C 
HETATM    2  N   UNL     1      -6.761   3.766 -31.313  1.00  0.00    -0.328 N 
HETATM    3  O   UNL     1      -7.169   3.519 -29.068  1.00  0.00    -0.273 OA
ENDROOT
BRANCH   2   4
HETATM    4  C   UNL     1      -6.201   4.468 -32.558  1.00  0.00     0.119 C 
HETATM    5  C   UNL     1      -6.167   6.025 -32.468  1.00  0.00     0.069 C 
HETATM    6  C   UNL     1      -7.537   6.629 -32.286  1.00  0.00     0.237 C 
HETATM    7  N   UNL     1      -8.334   6.350 -33.532  1.00  0.00    -0.075 N 
HETATM    8  H   UNL     1      -7.845   6.803 -34.319  1.00  0.00     0.279 HD
HETATM    9  C   UNL     1      -9.690   7.007 -33.464  1.00  0.00     0.269 C 
HETATM   10  C   UNL     1      -8.430   4.882 -33.844  1.00  0.00     0.237 C 
HETATM   11  C   UNL     1      -7.047   4.217 -33.856  1.00  0.00     0.069 C 
BRANCH   4  12
HETATM   12  C   UNL     1      -4.751   4.013 -32.944  1.00  0.00     0.246 C 
HETATM   13  N   UNL     1      -3.878   4.960 -33.429  1.00  0.00    -0.354 N 
HETATM   14  H   UNL     1      -4.187   5.922 -33.534  1.00  0.00     0.162 HD
HETATM   15  O   UNL     1      -4.367   2.885 -32.633  1.00  0.00    -0.271 OA
BRANCH  13  16
HETATM   16  C   UNL     1      -2.430   4.697 -33.500  1.00  0.00     0.084 C 
HETATM   17  C   UNL     1      -1.670   5.613 -34.480  1.00  0.00     0.025 C 
HETATM   18  C   UNL     1      -1.376   7.011 -33.939  1.00  0.00     0.002 C 
HETATM   19  C   UNL     1      -0.740   6.980 -32.557  1.00  0.00     0.000 C 
HETATM   20  C   UNL     1      -1.574   6.153 -31.588  1.00  0.00     0.002 C 
HETATM   21  C   UNL     1      -1.778   4.732 -32.111  1.00  0.00     0.025 C 
ENDBRANCH  13  16
ENDBRANCH   4  12
ENDBRANCH   2   4
BRANCH   2  22
HETATM   22  C   UNL     1      -7.689   2.614 -31.455  1.00  0.00     0.192 C 
BRANCH  22  23
HETATM   23  C   UNL     1      -6.992   1.321 -31.688  1.00  0.00     0.070 A 
HETATM   24  O   UNL     1      -7.076   0.791 -32.942  1.00  0.00    -0.325 OA
HETATM   25  C   UNL     1      -6.486  -0.434 -32.889  1.00  0.00     0.142 A 
HETATM   26  C   UNL     1      -5.993  -0.680 -31.630  1.00  0.00     0.027 A 
HETATM   27  C   UNL     1      -6.324   0.450 -30.850  1.00  0.00     0.036 A 
ENDBRANCH  22  23
ENDBRANCH   2  22
BRANCH   1  28
HETATM   28  C   UNL     1      -5.464   5.042 -29.503  1.00  0.00     0.112 C 
BRANCH  28  29
HETATM   29  C   UNL     1      -5.816   5.588 -28.136  1.00  0.00     0.112 C 
BRANCH  29  30
HETATM   30  C   UNL     1      -4.744   6.523 -27.615  1.00  0.00     0.223 C 
HETATM   31  N   UNL     1      -3.706   6.688 -28.509  1.00  0.00    -0.310 N 
HETATM   32  H   UNL     1      -3.677   6.144 -29.361  1.00  0.00     0.170 HD
HETATM   33  O   UNL     1      -4.876   7.042 -26.514  1.00  0.00    -0.273 OA
BRANCH  31  34
HETATM   34  C   UNL     1      -2.624   7.521 -28.298  1.00  0.00     0.160 A 
HETATM   35  N   UNL     1      -2.650   8.854 -28.274  1.00  0.00    -0.110 NA
HETATM   36  O   UNL     1      -1.355   9.264 -28.033  1.00  0.00    -0.216 OA
HETATM   37  C   UNL     1      -0.553   8.176 -27.922  1.00  0.00     0.078 A 
HETATM   38  C   UNL     1       0.874   8.432 -27.661  1.00  0.00     0.079 C 
HETATM   39  C   UNL     1      -1.310   7.043 -28.081  1.00  0.00     0.087 A 
ENDBRANCH  31  34
ENDBRANCH  29  30
ENDBRANCH  28  29
ENDBRANCH   1  28
TORSDOF 9
ENDMDL
