MODEL 1
REMARK VINA RESULT:      -7.1      0.000      0.000
REMARK  5 active torsions:
REMARK  status: ('A' for Active; 'I' for Inactive)
REMARK    1  A    between atoms: C_8  and  C_9 
REMARK    2  A    between atoms: C_11  and  O_12 
REMARK    3  A    between atoms: C_14  and  O_15 
REMARK    4  A    between atoms: C_18  and  C_19 
REMARK    5  A    between atoms: C_22  and  O_23 
ROOT
HETATM    1  C   UNL     1      -6.002   0.543 -29.368  1.00  0.00     0.070 C 
HETATM    2  C   UNL     1      -6.271   1.952 -29.738  1.00  0.00     0.033 A 
HETATM    3  N   UNL     1      -7.417   2.591 -29.345  1.00  0.00    -0.282 N 
HETATM    4  H   UNL     1      -8.187   2.217 -28.802  1.00  0.00     0.189 HD
HETATM    5  N   UNL     1      -7.483   3.874 -29.733  1.00  0.00    -0.179 NA
HETATM    6  C   UNL     1      -6.329   4.067 -30.372  1.00  0.00     0.066 A 
HETATM    7  C   UNL     1      -5.555   2.884 -30.468  1.00  0.00     0.001 A 
HETATM    8  C   UNL     1      -4.224   2.849 -31.161  1.00  0.00     0.070 C 
HETATM    9  C   UNL     1      -4.011   4.110 -32.044  1.00  0.00     0.102 C 
HETATM   10  C   UNL     1      -4.424   5.424 -31.311  1.00  0.00     0.071 C 
HETATM   11  C   UNL     1      -4.175   6.669 -32.176  1.00  0.00     0.047 C 
HETATM   12  C   UNL     1      -5.932   5.389 -30.931  1.00  0.00     0.100 C 
ENDROOT
BRANCH   8  13
HETATM   13  C   UNL     1      -4.193   1.557 -31.971  1.00  0.00    -0.046 A 
HETATM   14  C   UNL     1      -5.219   1.305 -32.905  1.00  0.00     0.047 A 
HETATM   15  C   UNL     1      -5.219   0.136 -33.667  1.00  0.00     0.101 A 
HETATM   16  C   UNL     1      -4.212  -0.810 -33.455  1.00  0.00     0.099 A 
HETATM   17  C   UNL     1      -3.191  -0.588 -32.544  1.00  0.00     0.040 A 
HETATM   18  C   UNL     1      -3.173   0.598 -31.811  1.00  0.00     0.011 A 
BRANCH  15  19
HETATM   19  O   UNL     1      -6.146  -0.198 -34.621  1.00  0.00    -0.353 OA
HETATM   20  C   UNL     1      -7.046   0.842 -34.994  1.00  0.00     0.210 C 
ENDBRANCH  15  19
BRANCH  16  21
HETATM   21  O   UNL     1      -4.205  -1.979 -34.165  1.00  0.00    -0.358 OA
HETATM   22  H   UNL     1      -4.692  -1.778 -34.987  1.00  0.00     0.218 HD
ENDBRANCH  16  21
ENDBRANCH   8  13
BRANCH   9  23
HETATM   23  C   UNL     1      -2.547   4.164 -32.461  1.00  0.00     0.131 C 
HETATM   24  C   UNL     1      -2.242   4.319 -33.928  1.00  0.00     0.091 C 
HETATM   25  O   UNL     1      -1.643   4.068 -31.627  1.00  0.00    -0.298 OA
ENDBRANCH   9  23
BRANCH  10  26
HETATM   26  O   UNL     1      -3.662   5.590 -30.105  1.00  0.00    -0.389 OA
HETATM   27  H   UNL     1      -3.932   4.884 -29.478  1.00  0.00     0.210 HD
ENDBRANCH  10  26
TORSDOF 5
ENDMDL
MODEL 2
REMARK VINA RESULT:      -6.9     16.880     18.029
REMARK  5 active torsions:
REMARK  status: ('A' for Active; 'I' for Inactive)
REMARK    1  A    between atoms: C_8  and  C_9 
REMARK    2  A    between atoms: C_11  and  O_12 
REMARK    3  A    between atoms: C_14  and  O_15 
REMARK    4  A    between atoms: C_18  and  C_19 
REMARK    5  A    between atoms: C_22  and  O_23 
ROOT
HETATM    1  C   UNL     1      -6.077 -12.021 -40.312  1.00  0.00     0.070 C 
HETATM    2  C   UNL     1      -5.080 -12.650 -39.415  1.00  0.00     0.033 A 
HETATM    3  N   UNL     1      -3.760 -12.749 -39.766  1.00  0.00    -0.282 N 
HETATM    4  H   UNL     1      -3.317 -12.443 -40.625  1.00  0.00     0.189 HD
HETATM    5  N   UNL     1      -2.988 -13.310 -38.823  1.00  0.00    -0.179 NA
HETATM    6  C   UNL     1      -3.840 -13.554 -37.827  1.00  0.00     0.066 A 
HETATM    7  C   UNL     1      -5.177 -13.226 -38.161  1.00  0.00     0.001 A 
HETATM    8  C   UNL     1      -6.317 -13.431 -37.206  1.00  0.00     0.070 C 
HETATM    9  C   UNL     1      -5.910 -14.360 -36.028  1.00  0.00     0.102 C 
HETATM   10  C   UNL     1      -4.513 -13.993 -35.437  1.00  0.00     0.071 C 
HETATM   11  C   UNL     1      -4.135 -14.891 -34.251  1.00  0.00     0.047 C 
HETATM   12  C   UNL     1      -3.406 -14.128 -36.523  1.00  0.00     0.100 C 
ENDROOT
BRANCH   8  13
HETATM   13  C   UNL     1      -7.471 -13.998 -38.026  1.00  0.00    -0.046 A 
HETATM   14  C   UNL     1      -8.548 -13.155 -38.372  1.00  0.00     0.047 A 
HETATM   15  C   UNL     1      -9.617 -13.640 -39.128  1.00  0.00     0.101 A 
HETATM   16  C   UNL     1      -9.631 -14.988 -39.494  1.00  0.00     0.099 A 
HETATM   17  C   UNL     1      -8.586 -15.838 -39.168  1.00  0.00     0.040 A 
HETATM   18  C   UNL     1      -7.501 -15.342 -38.446  1.00  0.00     0.011 A 
BRANCH  15  19
HETATM   19  O   UNL     1     -10.698 -12.906 -39.545  1.00  0.00    -0.353 OA
HETATM   20  C   UNL     1     -10.397 -11.772 -40.353  1.00  0.00     0.210 C 
ENDBRANCH  15  19
BRANCH  16  21
HETATM   21  O   UNL     1     -10.682 -15.497 -40.208  1.00  0.00    -0.358 OA
HETATM   22  H   UNL     1     -10.272 -16.051 -40.900  1.00  0.00     0.218 HD
ENDBRANCH  16  21
ENDBRANCH   8  13
BRANCH   9  23
HETATM   23  C   UNL     1      -6.987 -14.275 -34.955  1.00  0.00     0.131 C 
HETATM   24  C   UNL     1      -7.483 -15.566 -34.358  1.00  0.00     0.091 C 
HETATM   25  O   UNL     1      -7.447 -13.188 -34.598  1.00  0.00    -0.298 OA
ENDBRANCH   9  23
BRANCH  10  26
HETATM   26  O   UNL     1      -4.507 -12.638 -34.960  1.00  0.00    -0.389 OA
HETATM   27  H   UNL     1      -3.572 -12.366 -34.836  1.00  0.00     0.210 HD
ENDBRANCH  10  26
TORSDOF 5
ENDMDL
MODEL 3
REMARK VINA RESULT:      -6.8      3.083      5.331
REMARK  5 active torsions:
REMARK  status: ('A' for Active; 'I' for Inactive)
REMARK    1  A    between atoms: C_8  and  C_9 
REMARK    2  A    between atoms: C_11  and  O_12 
REMARK    3  A    between atoms: C_14  and  O_15 
REMARK    4  A    between atoms: C_18  and  C_19 
REMARK    5  A    between atoms: C_22  and  O_23 
ROOT
HETATM    1  C   UNL     1      -4.777  -0.517 -33.368  1.00  0.00     0.070 C 
HETATM    2  C   UNL     1      -6.061  -0.002 -33.897  1.00  0.00     0.033 A 
HETATM    3  N   UNL     1      -6.624  -0.511 -35.037  1.00  0.00    -0.282 N 
HETATM    4  H   UNL     1      -6.264  -1.244 -35.639  1.00  0.00     0.189 HD
HETATM    5  N   UNL     1      -7.804   0.042 -35.355  1.00  0.00    -0.179 NA
HETATM    6  C   UNL     1      -8.014   0.916 -34.369  1.00  0.00     0.066 A 
HETATM    7  C   UNL     1      -6.928   0.985 -33.462  1.00  0.00     0.001 A 
HETATM    8  C   UNL     1      -6.926   1.912 -32.281  1.00  0.00     0.070 C 
HETATM    9  C   UNL     1      -8.031   2.996 -32.409  1.00  0.00     0.102 C 
HETATM   10  C   UNL     1      -9.397   2.400 -32.873  1.00  0.00     0.071 C 
HETATM   11  C   UNL     1     -10.493   3.473 -32.960  1.00  0.00     0.047 C 
HETATM   12  C   UNL     1      -9.256   1.732 -34.271  1.00  0.00     0.100 C 
ENDROOT
BRANCH   8  13
HETATM   13  C   UNL     1      -5.525   2.510 -32.205  1.00  0.00    -0.046 A 
HETATM   14  C   UNL     1      -5.145   3.491 -33.145  1.00  0.00     0.047 A 
HETATM   15  C   UNL     1      -3.873   4.064 -33.100  1.00  0.00     0.101 A 
HETATM   16  C   UNL     1      -2.960   3.616 -32.142  1.00  0.00     0.099 A 
HETATM   17  C   UNL     1      -3.308   2.654 -31.207  1.00  0.00     0.040 A 
HETATM   18  C   UNL     1      -4.592   2.110 -31.229  1.00  0.00     0.011 A 
BRANCH  15  19
HETATM   19  O   UNL     1      -3.407   5.043 -33.941  1.00  0.00    -0.353 OA
HETATM   20  C   UNL     1      -3.967   5.046 -35.251  1.00  0.00     0.210 C 
ENDBRANCH  15  19
BRANCH  16  21
HETATM   21  O   UNL     1      -1.697   4.138 -32.096  1.00  0.00    -0.358 OA
HETATM   22  H   UNL     1      -1.204   3.554 -31.488  1.00  0.00     0.218 HD
ENDBRANCH  16  21
ENDBRANCH   8  13
BRANCH   9  23
HETATM   23  C   UNL     1      -8.178   3.694 -31.063  1.00  0.00     0.131 C 
HETATM   24  C   UNL     1      -7.861   5.165 -30.999  1.00  0.00     0.091 C 
HETATM   25  O   UNL     1      -8.530   3.072 -30.058  1.00  0.00    -0.298 OA
ENDBRANCH   9  23
BRANCH  10  26
HETATM   26  O   UNL     1      -9.854   1.404 -31.945  1.00  0.00    -0.389 OA
HETATM   27  H   UNL     1     -10.629   0.954 -32.343  1.00  0.00     0.210 HD
ENDBRANCH  10  26
TORSDOF 5
ENDMDL
MODEL 4
REMARK VINA RESULT:      -6.8      2.884      4.281
REMARK  5 active torsions:
REMARK  status: ('A' for Active; 'I' for Inactive)
REMARK    1  A    between atoms: C_8  and  C_9 
REMARK    2  A    between atoms: C_11  and  O_12 
REMARK    3  A    between atoms: C_14  and  O_15 
REMARK    4  A    between atoms: C_18  and  C_19 
REMARK    5  A    between atoms: C_22  and  O_23 
ROOT
HETATM    1  C   UNL     1      -4.998  -1.180 -33.346  1.00  0.00     0.070 C 
HETATM    2  C   UNL     1      -4.303  -0.142 -32.550  1.00  0.00     0.033 A 
HETATM    3  N   UNL     1      -3.403  -0.471 -31.570  1.00  0.00    -0.282 N 
HETATM    4  H   UNL     1      -3.119  -1.396 -31.267  1.00  0.00     0.189 HD
HETATM    5  N   UNL     1      -2.837   0.589 -30.974  1.00  0.00    -0.179 NA
HETATM    6  C   UNL     1      -3.374   1.630 -31.613  1.00  0.00     0.066 A 
HETATM    7  C   UNL     1      -4.350   1.241 -32.563  1.00  0.00     0.001 A 
HETATM    8  C   UNL     1      -5.106   2.238 -33.392  1.00  0.00     0.070 C 
HETATM    9  C   UNL     1      -4.965   3.676 -32.818  1.00  0.00     0.102 C 
HETATM   10  C   UNL     1      -3.495   4.015 -32.420  1.00  0.00     0.071 C 
HETATM   11  C   UNL     1      -3.359   5.449 -31.888  1.00  0.00     0.047 C 
HETATM   12  C   UNL     1      -2.986   3.038 -31.321  1.00  0.00     0.100 C 
ENDROOT
BRANCH   8  13
HETATM   13  C   UNL     1      -6.554   1.761 -33.427  1.00  0.00    -0.046 A 
HETATM   14  C   UNL     1      -7.368   1.952 -32.291  1.00  0.00     0.047 A 
HETATM   15  C   UNL     1      -8.699   1.533 -32.290  1.00  0.00     0.101 A 
HETATM   16  C   UNL     1      -9.203   0.874 -33.415  1.00  0.00     0.099 A 
HETATM   17  C   UNL     1      -8.425   0.674 -34.545  1.00  0.00     0.040 A 
HETATM   18  C   UNL     1      -7.106   1.128 -34.557  1.00  0.00     0.011 A 
BRANCH  15  19
HETATM   19  O   UNL     1      -9.588   1.693 -31.257  1.00  0.00    -0.353 OA
HETATM   20  C   UNL     1      -9.491   2.925 -30.548  1.00  0.00     0.210 C 
ENDBRANCH  15  19
BRANCH  16  21
HETATM   21  O   UNL     1     -10.495   0.426 -33.430  1.00  0.00    -0.358 OA
HETATM   22  H   UNL     1     -10.945   0.928 -32.723  1.00  0.00     0.218 HD
ENDBRANCH  16  21
ENDBRANCH   8  13
BRANCH   9  23
HETATM   23  C   UNL     1      -5.482   4.661 -33.857  1.00  0.00     0.131 C 
HETATM   24  C   UNL     1      -6.723   5.446 -33.522  1.00  0.00     0.091 C 
HETATM   25  O   UNL     1      -4.912   4.801 -34.942  1.00  0.00    -0.298 OA
ENDBRANCH   9  23
BRANCH  10  26
HETATM   26  O   UNL     1      -2.625   3.901 -33.557  1.00  0.00    -0.389 OA
HETATM   27  H   UNL     1      -3.169   4.014 -34.366  1.00  0.00     0.210 HD
ENDBRANCH  10  26
TORSDOF 5
ENDMDL
MODEL 5
REMARK VINA RESULT:      -6.8      3.133      5.931
REMARK  5 active torsions:
REMARK  status: ('A' for Active; 'I' for Inactive)
REMARK    1  A    between atoms: C_8  and  C_9 
REMARK    2  A    between atoms: C_11  and  O_12 
REMARK    3  A    between atoms: C_14  and  O_15 
REMARK    4  A    between atoms: C_18  and  C_19 
REMARK    5  A    between atoms: C_22  and  O_23 
ROOT
HETATM    1  C   UNL     1      -3.388   0.803 -32.359  1.00  0.00     0.070 C 
HETATM    2  C   UNL     1      -4.679   0.243 -32.823  1.00  0.00     0.033 A 
HETATM    3  N   UNL     1      -4.755  -0.989 -33.416  1.00  0.00    -0.282 N 
HETATM    4  H   UNL     1      -3.998  -1.634 -33.618  1.00  0.00     0.189 HD
HETATM    5  N   UNL     1      -6.002  -1.361 -33.741  1.00  0.00    -0.179 NA
HETATM    6  C   UNL     1      -6.751  -0.341 -33.317  1.00  0.00     0.066 A 
HETATM    7  C   UNL     1      -5.976   0.724 -32.794  1.00  0.00     0.001 A 
HETATM    8  C   UNL     1      -6.596   1.987 -32.273  1.00  0.00     0.070 C 
HETATM    9  C   UNL     1      -8.078   2.120 -32.723  1.00  0.00     0.102 C 
HETATM   10  C   UNL     1      -8.871   0.787 -32.552  1.00  0.00     0.071 C 
HETATM   11  C   UNL     1     -10.343   0.937 -32.964  1.00  0.00     0.047 C 
HETATM   12  C   UNL     1      -8.237  -0.343 -33.414  1.00  0.00     0.100 C 
ENDROOT
BRANCH   8  13
HETATM   13  C   UNL     1      -5.727   3.134 -32.778  1.00  0.00    -0.046 A 
HETATM   14  C   UNL     1      -4.838   3.768 -31.885  1.00  0.00     0.047 A 
HETATM   15  C   UNL     1      -4.023   4.817 -32.315  1.00  0.00     0.101 A 
HETATM   16  C   UNL     1      -4.137   5.266 -33.633  1.00  0.00     0.099 A 
HETATM   17  C   UNL     1      -5.002   4.661 -34.531  1.00  0.00     0.040 A 
HETATM   18  C   UNL     1      -5.787   3.589 -34.110  1.00  0.00     0.011 A 
BRANCH  15  19
HETATM   19  O   UNL     1      -3.105   5.484 -31.545  1.00  0.00    -0.353 OA
HETATM   20  C   UNL     1      -1.866   4.810 -31.342  1.00  0.00     0.210 C 
ENDBRANCH  15  19
BRANCH  16  21
HETATM   21  O   UNL     1      -3.373   6.313 -34.072  1.00  0.00    -0.358 OA
HETATM   22  H   UNL     1      -3.970   7.085 -34.055  1.00  0.00     0.218 HD
ENDBRANCH  16  21
ENDBRANCH   8  13
BRANCH   9  23
HETATM   23  C   UNL     1      -8.726   3.239 -31.919  1.00  0.00     0.131 C 
HETATM   24  C   UNL     1      -9.232   4.441 -32.673  1.00  0.00     0.091 C 
HETATM   25  O   UNL     1      -8.820   3.169 -30.691  1.00  0.00    -0.298 OA
ENDBRANCH   9  23
BRANCH  10  26
HETATM   26  O   UNL     1      -8.857   0.364 -31.180  1.00  0.00    -0.389 OA
HETATM   27  H   UNL     1      -9.751   0.023 -30.960  1.00  0.00     0.210 HD
ENDBRANCH  10  26
TORSDOF 5
ENDMDL
MODEL 6
REMARK VINA RESULT:      -6.7      3.438      5.071
REMARK  5 active torsions:
REMARK  status: ('A' for Active; 'I' for Inactive)
REMARK    1  A    between atoms: C_8  and  C_9 
REMARK    2  A    between atoms: C_11  and  O_12 
REMARK    3  A    between atoms: C_14  and  O_15 
REMARK    4  A    between atoms: C_18  and  C_19 
REMARK    5  A    between atoms: C_22  and  O_23 
ROOT
HETATM    1  C   UNL     1      -6.571  -1.061 -34.978  1.00  0.00     0.070 C 
HETATM    2  C   UNL     1      -5.673  -0.440 -33.977  1.00  0.00     0.033 A 
HETATM    3  N   UNL     1      -4.562  -1.089 -33.507  1.00  0.00    -0.282 N 
HETATM    4  H   UNL     1      -4.232  -2.018 -33.749  1.00  0.00     0.189 HD
HETATM    5  N   UNL     1      -3.839  -0.370 -32.636  1.00  0.00    -0.179 NA
HETATM    6  C   UNL     1      -4.497   0.788 -32.567  1.00  0.00     0.066 A 
HETATM    7  C   UNL     1      -5.691   0.783 -33.330  1.00  0.00     0.001 A 
HETATM    8  C   UNL     1      -6.609   1.969 -33.392  1.00  0.00     0.070 C 
HETATM    9  C   UNL     1      -6.295   2.989 -32.262  1.00  0.00     0.102 C 
HETATM   10  C   UNL     1      -4.765   3.253 -32.109  1.00  0.00     0.071 C 
HETATM   11  C   UNL     1      -4.466   4.290 -31.017  1.00  0.00     0.047 C 
HETATM   12  C   UNL     1      -4.015   1.937 -31.750  1.00  0.00     0.100 C 
ENDROOT
BRANCH   8  13
HETATM   13  C   UNL     1      -8.029   1.419 -33.305  1.00  0.00    -0.046 A 
HETATM   14  C   UNL     1      -8.982   1.819 -34.265  1.00  0.00     0.047 A 
HETATM   15  C   UNL     1     -10.288   1.331 -34.219  1.00  0.00     0.101 A 
HETATM   16  C   UNL     1     -10.656   0.477 -33.176  1.00  0.00     0.099 A 
HETATM   17  C   UNL     1      -9.740   0.068 -32.219  1.00  0.00     0.040 A 
HETATM   18  C   UNL     1      -8.426   0.527 -32.289  1.00  0.00     0.011 A 
BRANCH  15  19
HETATM   19  O   UNL     1     -11.285   1.627 -35.114  1.00  0.00    -0.353 OA
HETATM   20  C   UNL     1     -11.754   2.972 -35.089  1.00  0.00     0.210 C 
ENDBRANCH  15  19
BRANCH  16  21
HETATM   21  O   UNL     1     -11.938   0.008 -33.089  1.00  0.00    -0.358 OA
HETATM   22  H   UNL     1     -11.996  -0.695 -33.763  1.00  0.00     0.218 HD
ENDBRANCH  16  21
ENDBRANCH   8  13
BRANCH   9  23
HETATM   23  C   UNL     1      -7.036   4.285 -32.565  1.00  0.00     0.131 C 
HETATM   24  C   UNL     1      -8.071   4.748 -31.574  1.00  0.00     0.091 C 
HETATM   25  O   UNL     1      -6.807   4.925 -33.595  1.00  0.00    -0.298 OA
ENDBRANCH   9  23
BRANCH  10  26
HETATM   26  O   UNL     1      -4.215   3.760 -33.335  1.00  0.00    -0.389 OA
HETATM   27  H   UNL     1      -4.891   3.650 -34.038  1.00  0.00     0.210 HD
ENDBRANCH  10  26
TORSDOF 5
ENDMDL
MODEL 7
REMARK VINA RESULT:      -6.5      4.532      6.848
REMARK  5 active torsions:
REMARK  status: ('A' for Active; 'I' for Inactive)
REMARK    1  A    between atoms: C_8  and  C_9 
REMARK    2  A    between atoms: C_11  and  O_12 
REMARK    3  A    between atoms: C_14  and  O_15 
REMARK    4  A    between atoms: C_18  and  C_19 
REMARK    5  A    between atoms: C_22  and  O_23 
ROOT
HETATM    1  C   UNL     1       0.653   5.712 -30.814  1.00  0.00     0.070 C 
HETATM    2  C   UNL     1       0.018   6.133 -29.545  1.00  0.00     0.033 A 
HETATM    3  N   UNL     1       0.252   5.470 -28.369  1.00  0.00    -0.282 N 
HETATM    4  H   UNL     1       0.836   4.655 -28.217  1.00  0.00     0.189 HD
HETATM    5  N   UNL     1      -0.372   6.006 -27.309  1.00  0.00    -0.179 NA
HETATM    6  C   UNL     1      -1.005   7.062 -27.821  1.00  0.00     0.066 A 
HETATM    7  C   UNL     1      -0.856   7.158 -29.227  1.00  0.00     0.001 A 
HETATM    8  C   UNL     1      -1.495   8.254 -30.029  1.00  0.00     0.070 C 
HETATM    9  C   UNL     1      -2.594   8.989 -29.211  1.00  0.00     0.102 C 
HETATM   10  C   UNL     1      -2.133   9.316 -27.757  1.00  0.00     0.071 C 
HETATM   11  C   UNL     1      -3.210  10.075 -26.968  1.00  0.00     0.047 C 
HETATM   12  C   UNL     1      -1.792   8.009 -26.983  1.00  0.00     0.100 C 
ENDROOT
BRANCH   8  13
HETATM   13  C   UNL     1      -2.045   7.600 -31.292  1.00  0.00    -0.046 A 
HETATM   14  C   UNL     1      -3.115   6.686 -31.183  1.00  0.00     0.047 A 
HETATM   15  C   UNL     1      -3.647   6.074 -32.319  1.00  0.00     0.101 A 
HETATM   16  C   UNL     1      -3.071   6.340 -33.564  1.00  0.00     0.099 A 
HETATM   17  C   UNL     1      -2.020   7.234 -33.699  1.00  0.00     0.040 A 
HETATM   18  C   UNL     1      -1.515   7.873 -32.568  1.00  0.00     0.011 A 
BRANCH  15  19
HETATM   19  O   UNL     1      -4.700   5.196 -32.335  1.00  0.00    -0.353 OA
HETATM   20  C   UNL     1      -4.462   3.939 -31.708  1.00  0.00     0.210 C 
ENDBRANCH  15  19
BRANCH  16  21
HETATM   21  O   UNL     1      -3.552   5.729 -34.690  1.00  0.00    -0.358 OA
HETATM   22  H   UNL     1      -2.992   4.938 -34.807  1.00  0.00     0.218 HD
ENDBRANCH  16  21
ENDBRANCH   8  13
BRANCH   9  23
HETATM   23  C   UNL     1      -2.974  10.263 -29.954  1.00  0.00     0.131 C 
HETATM   24  C   UNL     1      -4.364  10.350 -30.528  1.00  0.00     0.091 C 
HETATM   25  O   UNL     1      -2.167  11.185 -30.093  1.00  0.00    -0.298 OA
ENDBRANCH   9  23
BRANCH  10  26
HETATM   26  O   UNL     1      -0.959  10.144 -27.773  1.00  0.00    -0.389 OA
HETATM   27  H   UNL     1      -0.519  10.061 -26.900  1.00  0.00     0.210 HD
ENDBRANCH  10  26
TORSDOF 5
ENDMDL
MODEL 8
REMARK VINA RESULT:      -6.4      3.446      5.690
REMARK  5 active torsions:
REMARK  status: ('A' for Active; 'I' for Inactive)
REMARK    1  A    between atoms: C_8  and  C_9 
REMARK    2  A    between atoms: C_11  and  O_12 
REMARK    3  A    between atoms: C_14  and  O_15 
REMARK    4  A    between atoms: C_18  and  C_19 
REMARK    5  A    between atoms: C_22  and  O_23 
ROOT
HETATM    1  C   UNL     1      -7.879  -0.219 -35.608  1.00  0.00     0.070 C 
HETATM    2  C   UNL     1      -6.825  -0.895 -34.817  1.00  0.00     0.033 A 
HETATM    3  N   UNL     1      -6.528  -2.220 -34.999  1.00  0.00    -0.282 N 
HETATM    4  H   UNL     1      -6.963  -2.875 -35.640  1.00  0.00     0.189 HD
HETATM    5  N   UNL     1      -5.524  -2.663 -34.229  1.00  0.00    -0.179 NA
HETATM    6  C   UNL     1      -5.149  -1.578 -33.550  1.00  0.00     0.066 A 
HETATM    7  C   UNL     1      -5.968  -0.455 -33.823  1.00  0.00     0.001 A 
HETATM    8  C   UNL     1      -5.752   0.876 -33.163  1.00  0.00     0.070 C 
HETATM    9  C   UNL     1      -4.820   0.752 -31.926  1.00  0.00     0.102 C 
HETATM   10  C   UNL     1      -3.570  -0.138 -32.213  1.00  0.00     0.071 C 
HETATM   11  C   UNL     1      -2.634  -0.225 -30.998  1.00  0.00     0.047 C 
HETATM   12  C   UNL     1      -4.002  -1.582 -32.600  1.00  0.00     0.100 C 
ENDROOT
BRANCH   8  13
HETATM   13  C   UNL     1      -7.136   1.407 -32.801  1.00  0.00    -0.046 A 
HETATM   14  C   UNL     1      -7.599   2.592 -33.412  1.00  0.00     0.047 A 
HETATM   15  C   UNL     1      -8.862   3.102 -33.108  1.00  0.00     0.101 A 
HETATM   16  C   UNL     1      -9.644   2.451 -32.150  1.00  0.00     0.099 A 
HETATM   17  C   UNL     1      -9.213   1.286 -31.535  1.00  0.00     0.040 A 
HETATM   18  C   UNL     1      -7.966   0.757 -31.868  1.00  0.00     0.011 A 
BRANCH  15  19
HETATM   19  O   UNL     1      -9.425   4.224 -33.660  1.00  0.00    -0.353 OA
HETATM   20  C   UNL     1      -8.550   5.338 -33.817  1.00  0.00     0.210 C 
ENDBRANCH  15  19
BRANCH  16  21
HETATM   21  O   UNL     1     -10.872   2.948 -31.810  1.00  0.00    -0.358 OA
HETATM   22  H   UNL     1     -11.511   2.400 -32.306  1.00  0.00     0.218 HD
ENDBRANCH  16  21
ENDBRANCH   8  13
BRANCH   9  23
HETATM   23  C   UNL     1      -4.397   2.151 -31.500  1.00  0.00     0.131 C 
HETATM   24  C   UNL     1      -4.973   2.697 -30.219  1.00  0.00     0.091 C 
HETATM   25  O   UNL     1      -3.621   2.820 -32.187  1.00  0.00    -0.298 OA
ENDBRANCH   9  23
BRANCH  10  26
HETATM   26  O   UNL     1      -2.802   0.405 -33.299  1.00  0.00    -0.389 OA
HETATM   27  H   UNL     1      -1.908   0.003 -33.267  1.00  0.00     0.210 HD
ENDBRANCH  10  26
TORSDOF 5
ENDMDL
MODEL 9
REMARK VINA RESULT:      -6.4      4.563      5.970
REMARK  5 active torsions:
REMARK  status: ('A' for Active; 'I' for Inactive)
REMARK    1  A    between atoms: C_8  and  C_9 
REMARK    2  A    between atoms: C_11  and  O_12 
REMARK    3  A    between atoms: C_14  and  O_15 
REMARK    4  A    between atoms: C_18  and  C_19 
REMARK    5  A    between atoms: C_22  and  O_23 
ROOT
HETATM    1  C   UNL     1     -11.563  -0.324 -33.102  1.00  0.00     0.070 C 
HETATM    2  C   UNL     1     -11.796   0.870 -33.946  1.00  0.00     0.033 A 
HETATM    3  N   UNL     1     -12.877   0.959 -34.783  1.00  0.00    -0.282 N 
HETATM    4  H   UNL     1     -13.604   0.269 -34.941  1.00  0.00     0.189 HD
HETATM    5  N   UNL     1     -12.958   2.123 -35.446  1.00  0.00    -0.179 NA
HETATM    6  C   UNL     1     -11.907   2.810 -34.997  1.00  0.00     0.066 A 
HETATM    7  C   UNL     1     -11.102   2.057 -34.107  1.00  0.00     0.001 A 
HETATM    8  C   UNL     1      -9.853   2.613 -33.487  1.00  0.00     0.070 C 
HETATM    9  C   UNL     1      -9.382   3.902 -34.217  1.00  0.00     0.102 C 
HETATM   10  C   UNL     1     -10.560   4.884 -34.505  1.00  0.00     0.071 C 
HETATM   11  C   UNL     1     -10.081   6.171 -35.192  1.00  0.00     0.047 C 
HETATM   12  C   UNL     1     -11.625   4.211 -35.419  1.00  0.00     0.100 C 
ENDROOT
BRANCH   8  13
HETATM   13  C   UNL     1      -8.813   1.499 -33.539  1.00  0.00    -0.046 A 
HETATM   14  C   UNL     1      -8.186   1.087 -32.344  1.00  0.00     0.047 A 
HETATM   15  C   UNL     1      -7.234   0.066 -32.354  1.00  0.00     0.101 A 
HETATM   16  C   UNL     1      -6.871  -0.509 -33.575  1.00  0.00     0.099 A 
HETATM   17  C   UNL     1      -7.471  -0.124 -34.763  1.00  0.00     0.040 A 
HETATM   18  C   UNL     1      -8.449   0.870 -34.746  1.00  0.00     0.011 A 
BRANCH  15  19
HETATM   19  O   UNL     1      -6.585  -0.434 -31.254  1.00  0.00    -0.353 OA
HETATM   20  C   UNL     1      -6.184   0.531 -30.286  1.00  0.00     0.210 C 
ENDBRANCH  15  19
BRANCH  16  21
HETATM   21  O   UNL     1      -5.918  -1.490 -33.618  1.00  0.00    -0.358 OA
HETATM   22  H   UNL     1      -5.544  -1.439 -34.518  1.00  0.00     0.218 HD
ENDBRANCH  16  21
ENDBRANCH   8  13
BRANCH   9  23
HETATM   23  C   UNL     1      -8.317   4.576 -33.363  1.00  0.00     0.131 C 
HETATM   24  C   UNL     1      -6.920   4.658 -33.922  1.00  0.00     0.091 C 
HETATM   25  O   UNL     1      -8.585   5.025 -32.246  1.00  0.00    -0.298 OA
ENDBRANCH   9  23
BRANCH  10  26
HETATM   26  O   UNL     1     -11.204   5.273 -33.281  1.00  0.00    -0.389 OA
HETATM   27  H   UNL     1     -11.085   4.546 -32.633  1.00  0.00     0.210 HD
ENDBRANCH  10  26
TORSDOF 5
ENDMDL
MODEL 10
REMARK VINA RESULT:      -6.4      5.691      7.304
REMARK  5 active torsions:
REMARK  status: ('A' for Active; 'I' for Inactive)
REMARK    1  A    between atoms: C_8  and  C_9 
REMARK    2  A    between atoms: C_11  and  O_12 
REMARK    3  A    between atoms: C_14  and  O_15 
REMARK    4  A    between atoms: C_18  and  C_19 
REMARK    5  A    between atoms: C_22  and  O_23 
ROOT
HETATM    1  C   UNL     1      -9.603   0.383 -32.710  1.00  0.00     0.070 C 
HETATM    2  C   UNL     1      -9.303   1.684 -32.069  1.00  0.00     0.033 A 
HETATM    3  N   UNL     1      -8.691   1.758 -30.845  1.00  0.00    -0.282 N 
HETATM    4  H   UNL     1      -8.393   0.994 -30.248  1.00  0.00     0.189 HD
HETATM    5  N   UNL     1      -8.458   3.011 -30.428  1.00  0.00    -0.179 NA
HETATM    6  C   UNL     1      -8.914   3.763 -31.432  1.00  0.00     0.066 A 
HETATM    7  C   UNL     1      -9.517   2.994 -32.458  1.00  0.00     0.001 A 
HETATM    8  C   UNL     1     -10.120   3.621 -33.682  1.00  0.00     0.070 C 
HETATM    9  C   UNL     1     -10.332   5.149 -33.491  1.00  0.00     0.102 C 
HETATM   10  C   UNL     1      -9.094   5.844 -32.843  1.00  0.00     0.071 C 
HETATM   11  C   UNL     1      -9.298   7.358 -32.693  1.00  0.00     0.047 C 
HETATM   12  C   UNL     1      -8.806   5.248 -31.435  1.00  0.00     0.100 C 
ENDROOT
BRANCH   8  13
HETATM   13  C   UNL     1     -11.425   2.878 -33.948  1.00  0.00    -0.046 A 
HETATM   14  C   UNL     1     -12.457   2.935 -32.989  1.00  0.00     0.047 A 
HETATM   15  C   UNL     1     -13.666   2.272 -33.203  1.00  0.00     0.101 A 
HETATM   16  C   UNL     1     -13.823   1.506 -34.361  1.00  0.00     0.099 A 
HETATM   17  C   UNL     1     -12.825   1.433 -35.321  1.00  0.00     0.040 A 
HETATM   18  C   UNL     1     -11.632   2.127 -35.122  1.00  0.00     0.011 A 
BRANCH  15  19
HETATM   19  O   UNL     1     -14.745   2.283 -32.357  1.00  0.00    -0.353 OA
HETATM   20  C   UNL     1     -15.263   3.571 -32.036  1.00  0.00     0.210 C 
ENDBRANCH  15  19
BRANCH  16  21
HETATM   21  O   UNL     1     -14.986   0.821 -34.582  1.00  0.00    -0.358 OA
HETATM   22  H   UNL     1     -15.381   0.701 -33.697  1.00  0.00     0.218 HD
ENDBRANCH  16  21
ENDBRANCH   8  13
BRANCH   9  23
HETATM   23  C   UNL     1     -10.646   5.764 -34.848  1.00  0.00     0.131 C 
HETATM   24  C   UNL     1     -12.030   6.318 -35.063  1.00  0.00     0.091 C 
HETATM   25  O   UNL     1      -9.799   5.794 -35.745  1.00  0.00    -0.298 OA
ENDBRANCH   9  23
BRANCH  10  26
HETATM   26  O   UNL     1      -7.926   5.653 -33.657  1.00  0.00    -0.389 OA
HETATM   27  H   UNL     1      -7.363   6.453 -33.568  1.00  0.00     0.210 HD
ENDBRANCH  10  26
TORSDOF 5
ENDMDL
