MODEL 1
REMARK VINA RESULT:      -9.0      0.000      0.000
REMARK  8 active torsions:
REMARK  status: ('A' for Active; 'I' for Inactive)
REMARK    1  A    between atoms: C_4  and  N_5 
REMARK       I    between atoms: N_5  and  C_6 
REMARK    2  A    between atoms: C_6  and  C_7 
REMARK    3  A    between atoms: C_7  and  N_8 
REMARK       I    between atoms: N_8  and  C_9 
REMARK    4  A    between atoms: C_9  and  C_10 
REMARK    5  A    between atoms: C_10  and  S_11 
REMARK    6  A    between atoms: S_11  and  C_12 
REMARK    7  A    between atoms: C_14  and  C_15 
REMARK    8  A    between atoms: C_27  and  O_28 
ROOT
HETATM    1  N   UNL     1      -6.126   2.711 -31.923  1.00  0.00    -0.352 N 
HETATM    2  C   UNL     1      -7.418   2.891 -31.464  1.00  0.00     0.227 C 
HETATM    3  O   UNL     1      -7.671   2.901 -30.262  1.00  0.00    -0.273 OA
HETATM    4  H   UNL     1      -5.904   2.940 -32.885  1.00  0.00     0.162 HD
ENDROOT
BRANCH   2   5
HETATM    5  C   UNL     1      -8.434   3.049 -32.586  1.00  0.00     0.185 C 
BRANCH   5   6
HETATM    6  S   UNL     1      -9.489   1.583 -32.763  1.00  0.00    -0.081 SA
BRANCH   6   7
HETATM    7  C   UNL     1      -8.429   0.565 -33.652  1.00  0.00     0.185 A 
HETATM    8  N   UNL     1      -7.868  -0.552 -33.273  1.00  0.00    -0.201 NA
HETATM    9  C   UNL     1      -7.145  -0.942 -34.383  1.00  0.00     0.185 A 
HETATM   10  N   UNL     1      -7.255  -0.092 -35.423  1.00  0.00    -0.152 NA
HETATM   11  N   UNL     1      -8.073   0.853 -34.927  1.00  0.00    -0.253 N 
HETATM   12  H   UNL     1      -8.346   1.642 -35.498  1.00  0.00     0.191 HD
BRANCH   9  13
HETATM   13  C   UNL     1      -6.351  -2.165 -34.424  1.00  0.00     0.052 A 
HETATM   14  C   UNL     1      -4.971  -2.155 -34.189  1.00  0.00     0.130 A 
HETATM   15  F   UNL     1      -4.316  -1.015 -33.920  1.00  0.00    -0.205 F 
HETATM   16  C   UNL     1      -4.221  -3.331 -34.229  1.00  0.00     0.043 A 
HETATM   17  C   UNL     1      -4.842  -4.548 -34.506  1.00  0.00     0.003 A 
HETATM   18  C   UNL     1      -6.214  -4.582 -34.744  1.00  0.00     0.001 A 
HETATM   19  C   UNL     1      -6.962  -3.400 -34.703  1.00  0.00     0.018 A 
ENDBRANCH   9  13
ENDBRANCH   6   7
ENDBRANCH   5   6
ENDBRANCH   2   5
BRANCH   1  20
HETATM   20  C   UNL     1      -5.021   2.561 -30.995  1.00  0.00     0.225 C 
BRANCH  20  21
HETATM   21  C   UNL     1      -3.736   3.149 -31.581  1.00  0.00     0.239 C 
HETATM   22  N   UNL     1      -3.773   4.525 -31.665  1.00  0.00    -0.323 N 
HETATM   23  H   UNL     1      -4.664   4.984 -31.453  1.00  0.00     0.169 HD
HETATM   24  O   UNL     1      -2.834   2.412 -31.969  1.00  0.00    -0.271 OA
BRANCH  22  25
HETATM   25  C   UNL     1      -2.757   5.407 -32.096  1.00  0.00     0.069 A 
HETATM   26  C   UNL     1      -1.596   5.662 -31.360  1.00  0.00     0.039 A 
HETATM   27  C   UNL     1      -0.625   6.553 -31.839  1.00  0.00    -0.060 A 
HETATM   28  C   UNL     1       0.598   6.848 -31.021  1.00  0.00     0.048 C 
HETATM   29  C   UNL     1      -0.839   7.207 -33.054  1.00  0.00     0.009 A 
HETATM   30  C   UNL     1      -1.997   6.964 -33.798  1.00  0.00     0.039 A 
HETATM   31  C   UNL     1      -2.959   6.070 -33.325  1.00  0.00     0.095 A 
BRANCH  31  32
HETATM   32  O   UNL     1      -4.136   5.767 -33.969  1.00  0.00    -0.354 OA
HETATM   33  C   UNL     1      -4.041   5.095 -35.218  1.00  0.00     0.210 C 
ENDBRANCH  31  32
ENDBRANCH  22  25
ENDBRANCH  20  21
ENDBRANCH   1  20
TORSDOF 8
ENDMDL
MODEL 2
REMARK VINA RESULT:      -8.7      3.204      9.003
REMARK  8 active torsions:
REMARK  status: ('A' for Active; 'I' for Inactive)
REMARK    1  A    between atoms: C_4  and  N_5 
REMARK       I    between atoms: N_5  and  C_6 
REMARK    2  A    between atoms: C_6  and  C_7 
REMARK    3  A    between atoms: C_7  and  N_8 
REMARK       I    between atoms: N_8  and  C_9 
REMARK    4  A    between atoms: C_9  and  C_10 
REMARK    5  A    between atoms: C_10  and  S_11 
REMARK    6  A    between atoms: S_11  and  C_12 
REMARK    7  A    between atoms: C_14  and  C_15 
REMARK    8  A    between atoms: C_27  and  O_28 
ROOT
HETATM    1  N   UNL     1      -7.064   3.478 -33.838  1.00  0.00    -0.352 N 
HETATM    2  C   UNL     1      -5.769   3.840 -33.517  1.00  0.00     0.227 C 
HETATM    3  O   UNL     1      -5.060   3.117 -32.822  1.00  0.00    -0.273 OA
HETATM    4  H   UNL     1      -7.542   3.958 -34.592  1.00  0.00     0.162 HD
ENDROOT
BRANCH   2   5
HETATM    5  C   UNL     1      -5.364   5.188 -34.095  1.00  0.00     0.185 C 
BRANCH   5   6
HETATM    6  S   UNL     1      -3.861   5.076 -35.105  1.00  0.00    -0.081 SA
BRANCH   6   7
HETATM    7  C   UNL     1      -2.743   5.846 -34.053  1.00  0.00     0.185 A 
HETATM    8  N   UNL     1      -2.377   5.485 -32.852  1.00  0.00    -0.201 NA
HETATM    9  C   UNL     1      -1.455   6.448 -32.493  1.00  0.00     0.185 A 
HETATM   10  N   UNL     1      -1.253   7.381 -33.445  1.00  0.00    -0.152 NA
HETATM   11  N   UNL     1      -2.085   6.972 -34.418  1.00  0.00    -0.253 N 
HETATM   12  H   UNL     1      -2.149   7.490 -35.285  1.00  0.00     0.191 HD
BRANCH   9  13
HETATM   13  C   UNL     1      -0.759   6.444 -31.210  1.00  0.00     0.052 A 
HETATM   14  C   UNL     1      -0.854   7.519 -30.319  1.00  0.00     0.130 A 
HETATM   15  F   UNL     1      -1.586   8.605 -30.608  1.00  0.00    -0.205 F 
HETATM   16  C   UNL     1      -0.186   7.503 -29.093  1.00  0.00     0.043 A 
HETATM   17  C   UNL     1       0.593   6.405 -28.735  1.00  0.00     0.003 A 
HETATM   18  C   UNL     1       0.701   5.324 -29.607  1.00  0.00     0.001 A 
HETATM   19  C   UNL     1       0.031   5.343 -30.834  1.00  0.00     0.018 A 
ENDBRANCH   9  13
ENDBRANCH   6   7
ENDBRANCH   5   6
ENDBRANCH   2   5
BRANCH   1  20
HETATM   20  C   UNL     1      -7.617   2.214 -33.389  1.00  0.00     0.225 C 
BRANCH  20  21
HETATM   21  C   UNL     1      -7.018   1.048 -34.178  1.00  0.00     0.239 C 
HETATM   22  N   UNL     1      -6.444   0.095 -33.361  1.00  0.00    -0.323 N 
HETATM   23  H   UNL     1      -6.369   0.315 -32.364  1.00  0.00     0.169 HD
HETATM   24  O   UNL     1      -7.030   1.055 -35.405  1.00  0.00    -0.271 OA
BRANCH  22  25
HETATM   25  C   UNL     1      -5.852  -1.134 -33.728  1.00  0.00     0.069 A 
HETATM   26  C   UNL     1      -6.548  -2.160 -34.375  1.00  0.00     0.039 A 
HETATM   27  C   UNL     1      -5.905  -3.362 -34.709  1.00  0.00    -0.060 A 
HETATM   28  C   UNL     1      -6.673  -4.470 -35.368  1.00  0.00     0.048 C 
HETATM   29  C   UNL     1      -4.563  -3.536 -34.366  1.00  0.00     0.009 A 
HETATM   30  C   UNL     1      -3.857  -2.519 -33.715  1.00  0.00     0.039 A 
HETATM   31  C   UNL     1      -4.495  -1.320 -33.392  1.00  0.00     0.095 A 
BRANCH  31  32
HETATM   32  O   UNL     1      -3.900  -0.263 -32.745  1.00  0.00    -0.354 OA
HETATM   33  C   UNL     1      -3.309  -0.522 -31.478  1.00  0.00     0.210 C 
ENDBRANCH  31  32
ENDBRANCH  22  25
ENDBRANCH  20  21
ENDBRANCH   1  20
TORSDOF 8
ENDMDL
MODEL 3
REMARK VINA RESULT:      -8.6      2.025      2.537
REMARK  8 active torsions:
REMARK  status: ('A' for Active; 'I' for Inactive)
REMARK    1  A    between atoms: C_4  and  N_5 
REMARK       I    between atoms: N_5  and  C_6 
REMARK    2  A    between atoms: C_6  and  C_7 
REMARK    3  A    between atoms: C_7  and  N_8 
REMARK       I    between atoms: N_8  and  C_9 
REMARK    4  A    between atoms: C_9  and  C_10 
REMARK    5  A    between atoms: C_10  and  S_11 
REMARK    6  A    between atoms: S_11  and  C_12 
REMARK    7  A    between atoms: C_14  and  C_15 
REMARK    8  A    between atoms: C_27  and  O_28 
ROOT
HETATM    1  N   UNL     1      -6.452   5.798 -32.530  1.00  0.00    -0.352 N 
HETATM    2  C   UNL     1      -6.065   5.086 -33.650  1.00  0.00     0.227 C 
HETATM    3  O   UNL     1      -5.143   5.473 -34.363  1.00  0.00    -0.273 OA
HETATM    4  H   UNL     1      -7.040   5.351 -31.835  1.00  0.00     0.162 HD
ENDROOT
BRANCH   2   5
HETATM    5  C   UNL     1      -6.900   3.834 -33.880  1.00  0.00     0.185 C 
BRANCH   5   6
HETATM    6  S   UNL     1      -6.666   2.606 -32.566  1.00  0.00    -0.081 SA
BRANCH   6   7
HETATM    7  C   UNL     1      -6.579   1.176 -33.513  1.00  0.00     0.185 A 
HETATM    8  N   UNL     1      -6.078   0.015 -33.186  1.00  0.00    -0.201 NA
HETATM    9  C   UNL     1      -6.294  -0.757 -34.311  1.00  0.00     0.185 A 
HETATM   10  N   UNL     1      -6.912  -0.094 -35.308  1.00  0.00    -0.152 NA
HETATM   11  N   UNL     1      -7.076   1.128 -34.772  1.00  0.00    -0.253 N 
HETATM   12  H   UNL     1      -7.529   1.861 -35.303  1.00  0.00     0.191 HD
BRANCH   9  13
HETATM   13  C   UNL     1      -5.900  -2.159 -34.400  1.00  0.00     0.052 A 
HETATM   14  C   UNL     1      -4.595  -2.576 -34.114  1.00  0.00     0.130 A 
HETATM   15  F   UNL     1      -3.646  -1.702 -33.748  1.00  0.00    -0.205 F 
HETATM   16  C   UNL     1      -4.229  -3.921 -34.200  1.00  0.00     0.043 A 
HETATM   17  C   UNL     1      -5.169  -4.878 -34.577  1.00  0.00     0.003 A 
HETATM   18  C   UNL     1      -6.474  -4.486 -34.868  1.00  0.00     0.001 A 
HETATM   19  C   UNL     1      -6.836  -3.138 -34.780  1.00  0.00     0.018 A 
ENDBRANCH   9  13
ENDBRANCH   6   7
ENDBRANCH   5   6
ENDBRANCH   2   5
BRANCH   1  20
HETATM   20  C   UNL     1      -5.757   7.012 -32.143  1.00  0.00     0.225 C 
BRANCH  20  21
HETATM   21  C   UNL     1      -4.549   6.688 -31.262  1.00  0.00     0.239 C 
HETATM   22  N   UNL     1      -3.362   6.705 -31.964  1.00  0.00    -0.323 N 
HETATM   23  H   UNL     1      -3.420   6.803 -32.981  1.00  0.00     0.169 HD
HETATM   24  O   UNL     1      -4.701   6.397 -30.079  1.00  0.00    -0.271 OA
BRANCH  22  25
HETATM   25  C   UNL     1      -2.050   6.513 -31.476  1.00  0.00     0.069 A 
HETATM   26  C   UNL     1      -1.513   7.238 -30.408  1.00  0.00     0.039 A 
HETATM   27  C   UNL     1      -0.200   7.005 -29.972  1.00  0.00    -0.060 A 
HETATM   28  C   UNL     1       0.378   7.817 -28.850  1.00  0.00     0.048 C 
HETATM   29  C   UNL     1       0.581   6.054 -30.634  1.00  0.00     0.009 A 
HETATM   30  C   UNL     1       0.057   5.326 -31.706  1.00  0.00     0.039 A 
HETATM   31  C   UNL     1      -1.254   5.552 -32.133  1.00  0.00     0.095 A 
BRANCH  31  32
HETATM   32  O   UNL     1      -1.862   4.901 -33.180  1.00  0.00    -0.354 OA
HETATM   33  C   UNL     1      -1.505   5.305 -34.495  1.00  0.00     0.210 C 
ENDBRANCH  31  32
ENDBRANCH  22  25
ENDBRANCH  20  21
ENDBRANCH   1  20
TORSDOF 8
ENDMDL
MODEL 4
REMARK VINA RESULT:      -8.5      2.547      4.216
REMARK  8 active torsions:
REMARK  status: ('A' for Active; 'I' for Inactive)
REMARK    1  A    between atoms: C_4  and  N_5 
REMARK       I    between atoms: N_5  and  C_6 
REMARK    2  A    between atoms: C_6  and  C_7 
REMARK    3  A    between atoms: C_7  and  N_8 
REMARK       I    between atoms: N_8  and  C_9 
REMARK    4  A    between atoms: C_9  and  C_10 
REMARK    5  A    between atoms: C_10  and  S_11 
REMARK    6  A    between atoms: S_11  and  C_12 
REMARK    7  A    between atoms: C_14  and  C_15 
REMARK    8  A    between atoms: C_27  and  O_28 
ROOT
HETATM    1  N   UNL     1      -3.081   4.662 -33.621  1.00  0.00    -0.352 N 
HETATM    2  C   UNL     1      -4.213   4.844 -34.394  1.00  0.00     0.227 C 
HETATM    3  O   UNL     1      -4.173   5.489 -35.439  1.00  0.00    -0.273 OA
HETATM    4  H   UNL     1      -3.078   3.943 -32.906  1.00  0.00     0.162 HD
ENDROOT
BRANCH   2   5
HETATM    5  C   UNL     1      -5.453   4.189 -33.803  1.00  0.00     0.185 C 
BRANCH   5   6
HETATM    6  S   UNL     1      -5.237   3.776 -32.049  1.00  0.00    -0.081 SA
BRANCH   6   7
HETATM    7  C   UNL     1      -5.482   2.078 -32.116  1.00  0.00     0.185 A 
HETATM    8  N   UNL     1      -5.386   1.284 -33.148  1.00  0.00    -0.201 NA
HETATM    9  C   UNL     1      -5.666   0.038 -32.623  1.00  0.00     0.185 A 
HETATM   10  N   UNL     1      -5.928   0.057 -31.301  1.00  0.00    -0.152 NA
HETATM   11  N   UNL     1      -5.806   1.364 -31.011  1.00  0.00    -0.253 N 
HETATM   12  H   UNL     1      -5.946   1.692 -30.064  1.00  0.00     0.191 HD
BRANCH   9  13
HETATM   13  C   UNL     1      -5.665  -1.181 -33.425  1.00  0.00     0.052 A 
HETATM   14  C   UNL     1      -6.853  -1.753 -33.897  1.00  0.00     0.130 A 
HETATM   15  F   UNL     1      -8.047  -1.205 -33.628  1.00  0.00    -0.205 F 
HETATM   16  C   UNL     1      -6.840  -2.918 -34.666  1.00  0.00     0.043 A 
HETATM   17  C   UNL     1      -5.631  -3.536 -34.978  1.00  0.00     0.003 A 
HETATM   18  C   UNL     1      -4.436  -2.986 -34.518  1.00  0.00     0.001 A 
HETATM   19  C   UNL     1      -4.454  -1.818 -33.748  1.00  0.00     0.018 A 
ENDBRANCH   9  13
ENDBRANCH   6   7
ENDBRANCH   5   6
ENDBRANCH   2   5
BRANCH   1  20
HETATM   20  C   UNL     1      -1.800   5.201 -34.038  1.00  0.00     0.225 C 
BRANCH  20  21
HETATM   21  C   UNL     1      -1.414   6.408 -33.181  1.00  0.00     0.239 C 
HETATM   22  N   UNL     1      -1.548   6.163 -31.830  1.00  0.00    -0.323 N 
HETATM   23  H   UNL     1      -1.990   5.282 -31.554  1.00  0.00     0.169 HD
HETATM   24  O   UNL     1      -1.087   7.468 -33.708  1.00  0.00    -0.271 OA
BRANCH  22  25
HETATM   25  C   UNL     1      -1.231   7.014 -30.747  1.00  0.00     0.069 A 
HETATM   26  C   UNL     1      -2.013   8.112 -30.378  1.00  0.00     0.039 A 
HETATM   27  C   UNL     1      -1.643   8.924 -29.295  1.00  0.00    -0.060 A 
HETATM   28  C   UNL     1      -2.470  10.123 -28.934  1.00  0.00     0.048 C 
HETATM   29  C   UNL     1      -0.466   8.639 -28.599  1.00  0.00     0.009 A 
HETATM   30  C   UNL     1       0.327   7.546 -28.961  1.00  0.00     0.039 A 
HETATM   31  C   UNL     1      -0.048   6.732 -30.033  1.00  0.00     0.095 A 
BRANCH  31  32
HETATM   32  O   UNL     1       0.663   5.643 -30.478  1.00  0.00    -0.354 OA
HETATM   33  C   UNL     1       1.021   4.660 -29.515  1.00  0.00     0.210 C 
ENDBRANCH  31  32
ENDBRANCH  22  25
ENDBRANCH  20  21
ENDBRANCH   1  20
TORSDOF 8
ENDMDL
MODEL 5
REMARK VINA RESULT:      -8.5      2.183      3.524
REMARK  8 active torsions:
REMARK  status: ('A' for Active; 'I' for Inactive)
REMARK    1  A    between atoms: C_4  and  N_5 
REMARK       I    between atoms: N_5  and  C_6 
REMARK    2  A    between atoms: C_6  and  C_7 
REMARK    3  A    between atoms: C_7  and  N_8 
REMARK       I    between atoms: N_8  and  C_9 
REMARK    4  A    between atoms: C_9  and  C_10 
REMARK    5  A    between atoms: C_10  and  S_11 
REMARK    6  A    between atoms: S_11  and  C_12 
REMARK    7  A    between atoms: C_14  and  C_15 
REMARK    8  A    between atoms: C_27  and  O_28 
ROOT
HETATM    1  N   UNL     1      -9.782   3.990 -33.822  1.00  0.00    -0.352 N 
HETATM    2  C   UNL     1     -10.576   3.416 -34.797  1.00  0.00     0.227 C 
HETATM    3  O   UNL     1     -10.920   4.049 -35.792  1.00  0.00    -0.273 OA
HETATM    4  H   UNL     1      -9.320   3.395 -33.144  1.00  0.00     0.162 HD
ENDROOT
BRANCH   2   5
HETATM    5  C   UNL     1     -10.963   1.978 -34.484  1.00  0.00     0.185 C 
BRANCH   5   6
HETATM    6  S   UNL     1     -10.098   1.341 -33.021  1.00  0.00    -0.081 SA
BRANCH   6   7
HETATM    7  C   UNL     1      -8.814   0.496 -33.785  1.00  0.00     0.185 A 
HETATM    8  N   UNL     1      -8.241  -0.618 -33.414  1.00  0.00    -0.201 NA
HETATM    9  C   UNL     1      -7.297  -0.839 -34.399  1.00  0.00     0.185 A 
HETATM   10  N   UNL     1      -7.285   0.112 -35.354  1.00  0.00    -0.152 NA
HETATM   11  N   UNL     1      -8.255   0.943 -34.935  1.00  0.00    -0.253 N 
HETATM   12  H   UNL     1      -8.483   1.772 -35.470  1.00  0.00     0.191 HD
BRANCH   9  13
HETATM   13  C   UNL     1      -6.411  -1.997 -34.405  1.00  0.00     0.052 A 
HETATM   14  C   UNL     1      -5.066  -1.896 -34.031  1.00  0.00     0.130 A 
HETATM   15  F   UNL     1      -4.530  -0.725 -33.655  1.00  0.00    -0.205 F 
HETATM   16  C   UNL     1      -4.226  -3.012 -34.038  1.00  0.00     0.043 A 
HETATM   17  C   UNL     1      -4.722  -4.257 -34.422  1.00  0.00     0.003 A 
HETATM   18  C   UNL     1      -6.057  -4.380 -34.799  1.00  0.00     0.001 A 
HETATM   19  C   UNL     1      -6.895  -3.260 -34.790  1.00  0.00     0.018 A 
ENDBRANCH   9  13
ENDBRANCH   6   7
ENDBRANCH   5   6
ENDBRANCH   2   5
BRANCH   1  20
HETATM   20  C   UNL     1      -9.301   5.352 -33.960  1.00  0.00     0.225 C 
BRANCH  20  21
HETATM   21  C   UNL     1      -7.878   5.484 -33.413  1.00  0.00     0.239 C 
HETATM   22  N   UNL     1      -7.036   4.500 -33.889  1.00  0.00    -0.323 N 
HETATM   23  H   UNL     1      -7.458   3.743 -34.434  1.00  0.00     0.169 HD
HETATM   24  O   UNL     1      -7.602   6.359 -32.598  1.00  0.00    -0.271 OA
BRANCH  22  25
HETATM   25  C   UNL     1      -5.652   4.338 -33.651  1.00  0.00     0.069 A 
HETATM   26  C   UNL     1      -4.685   5.249 -34.085  1.00  0.00     0.039 A 
HETATM   27  C   UNL     1      -3.325   5.030 -33.822  1.00  0.00    -0.060 A 
HETATM   28  C   UNL     1      -2.293   5.996 -34.327  1.00  0.00     0.048 C 
HETATM   29  C   UNL     1      -2.939   3.873 -33.140  1.00  0.00     0.009 A 
HETATM   30  C   UNL     1      -3.896   2.952 -32.705  1.00  0.00     0.039 A 
HETATM   31  C   UNL     1      -5.251   3.176 -32.958  1.00  0.00     0.095 A 
BRANCH  31  32
HETATM   32  O   UNL     1      -6.270   2.332 -32.585  1.00  0.00    -0.354 OA
HETATM   33  C   UNL     1      -6.052   1.508 -31.448  1.00  0.00     0.210 C 
ENDBRANCH  31  32
ENDBRANCH  22  25
ENDBRANCH  20  21
ENDBRANCH   1  20
TORSDOF 8
ENDMDL
MODEL 6
REMARK VINA RESULT:      -8.5      3.071      8.968
REMARK  8 active torsions:
REMARK  status: ('A' for Active; 'I' for Inactive)
REMARK    1  A    between atoms: C_4  and  N_5 
REMARK       I    between atoms: N_5  and  C_6 
REMARK    2  A    between atoms: C_6  and  C_7 
REMARK    3  A    between atoms: C_7  and  N_8 
REMARK       I    between atoms: N_8  and  C_9 
REMARK    4  A    between atoms: C_9  and  C_10 
REMARK    5  A    between atoms: C_10  and  S_11 
REMARK    6  A    between atoms: S_11  and  C_12 
REMARK    7  A    between atoms: C_14  and  C_15 
REMARK    8  A    between atoms: C_27  and  O_28 
ROOT
HETATM    1  N   UNL     1      -3.950   3.061 -32.504  1.00  0.00    -0.352 N 
HETATM    2  C   UNL     1      -5.017   3.933 -32.386  1.00  0.00     0.227 C 
HETATM    3  O   UNL     1      -5.725   3.941 -31.382  1.00  0.00    -0.273 OA
HETATM    4  H   UNL     1      -3.248   3.228 -33.216  1.00  0.00     0.162 HD
ENDROOT
BRANCH   2   5
HETATM    5  C   UNL     1      -5.200   4.821 -33.608  1.00  0.00     0.185 C 
BRANCH   5   6
HETATM    6  S   UNL     1      -3.708   4.884 -34.638  1.00  0.00    -0.081 SA
BRANCH   6   7
HETATM    7  C   UNL     1      -2.776   6.008 -33.734  1.00  0.00     0.185 A 
HETATM    8  N   UNL     1      -2.487   5.984 -32.459  1.00  0.00    -0.201 NA
HETATM    9  C   UNL     1      -1.704   7.109 -32.286  1.00  0.00     0.185 A 
HETATM   10  N   UNL     1      -1.511   7.811 -33.420  1.00  0.00    -0.152 NA
HETATM   11  N   UNL     1      -2.205   7.088 -34.317  1.00  0.00    -0.253 N 
HETATM   12  H   UNL     1      -2.241   7.378 -35.287  1.00  0.00     0.191 HD
BRANCH   9  13
HETATM   13  C   UNL     1      -1.133   7.488 -30.998  1.00  0.00     0.052 A 
HETATM   14  C   UNL     1       0.084   6.962 -30.549  1.00  0.00     0.130 A 
HETATM   15  F   UNL     1       0.778   6.080 -31.284  1.00  0.00    -0.205 F 
HETATM   16  C   UNL     1       0.622   7.334 -29.316  1.00  0.00     0.043 A 
HETATM   17  C   UNL     1      -0.052   8.245 -28.504  1.00  0.00     0.003 A 
HETATM   18  C   UNL     1      -1.265   8.780 -28.931  1.00  0.00     0.001 A 
HETATM   19  C   UNL     1      -1.801   8.405 -30.167  1.00  0.00     0.018 A 
ENDBRANCH   9  13
ENDBRANCH   6   7
ENDBRANCH   5   6
ENDBRANCH   2   5
BRANCH   1  20
HETATM   20  C   UNL     1      -3.612   2.149 -31.427  1.00  0.00     0.225 C 
BRANCH  20  21
HETATM   21  C   UNL     1      -4.294   0.794 -31.629  1.00  0.00     0.239 C 
HETATM   22  N   UNL     1      -4.205   0.345 -32.930  1.00  0.00    -0.323 N 
HETATM   23  H   UNL     1      -3.819   0.992 -33.624  1.00  0.00     0.169 HD
HETATM   24  O   UNL     1      -4.887   0.251 -30.701  1.00  0.00    -0.271 OA
BRANCH  22  25
HETATM   25  C   UNL     1      -4.661  -0.878 -33.471  1.00  0.00     0.069 A 
HETATM   26  C   UNL     1      -3.933  -2.069 -33.402  1.00  0.00     0.039 A 
HETATM   27  C   UNL     1      -4.438  -3.252 -33.962  1.00  0.00    -0.060 A 
HETATM   28  C   UNL     1      -3.628  -4.514 -33.916  1.00  0.00     0.048 C 
HETATM   29  C   UNL     1      -5.671  -3.224 -34.617  1.00  0.00     0.009 A 
HETATM   30  C   UNL     1      -6.408  -2.038 -34.696  1.00  0.00     0.039 A 
HETATM   31  C   UNL     1      -5.909  -0.864 -34.129  1.00  0.00     0.095 A 
BRANCH  31  32
HETATM   32  O   UNL     1      -6.544   0.355 -34.159  1.00  0.00    -0.354 OA
HETATM   33  C   UNL     1      -7.234   0.702 -35.353  1.00  0.00     0.210 C 
ENDBRANCH  31  32
ENDBRANCH  22  25
ENDBRANCH  20  21
ENDBRANCH   1  20
TORSDOF 8
ENDMDL
MODEL 7
REMARK VINA RESULT:      -8.4      2.335      3.259
REMARK  8 active torsions:
REMARK  status: ('A' for Active; 'I' for Inactive)
REMARK    1  A    between atoms: C_4  and  N_5 
REMARK       I    between atoms: N_5  and  C_6 
REMARK    2  A    between atoms: C_6  and  C_7 
REMARK    3  A    between atoms: C_7  and  N_8 
REMARK       I    between atoms: N_8  and  C_9 
REMARK    4  A    between atoms: C_9  and  C_10 
REMARK    5  A    between atoms: C_10  and  S_11 
REMARK    6  A    between atoms: S_11  and  C_12 
REMARK    7  A    between atoms: C_14  and  C_15 
REMARK    8  A    between atoms: C_27  and  O_28 
ROOT
HETATM    1  N   UNL     1      -5.625   4.548 -33.214  1.00  0.00    -0.352 N 
HETATM    2  C   UNL     1      -6.997   4.718 -33.212  1.00  0.00     0.227 C 
HETATM    3  O   UNL     1      -7.578   5.212 -34.174  1.00  0.00    -0.273 OA
HETATM    4  H   UNL     1      -5.199   3.933 -32.529  1.00  0.00     0.162 HD
ENDROOT
BRANCH   2   5
HETATM    5  C   UNL     1      -7.655   4.255 -31.920  1.00  0.00     0.185 C 
BRANCH   5   6
HETATM    6  S   UNL     1      -6.438   3.693 -30.697  1.00  0.00    -0.081 SA
BRANCH   6   7
HETATM    7  C   UNL     1      -6.395   2.018 -31.074  1.00  0.00     0.185 A 
HETATM    8  N   UNL     1      -6.094   1.450 -32.212  1.00  0.00    -0.201 NA
HETATM    9  C   UNL     1      -6.204   0.101 -31.936  1.00  0.00     0.185 A 
HETATM   10  N   UNL     1      -6.562  -0.161 -30.663  1.00  0.00    -0.152 NA
HETATM   11  N   UNL     1      -6.679   1.074 -30.146  1.00  0.00    -0.253 N 
HETATM   12  H   UNL     1      -6.941   1.198 -29.176  1.00  0.00     0.191 HD
BRANCH   9  13
HETATM   13  C   UNL     1      -5.942  -0.937 -32.928  1.00  0.00     0.052 A 
HETATM   14  C   UNL     1      -6.965  -1.469 -33.723  1.00  0.00     0.130 A 
HETATM   15  F   UNL     1      -8.234  -1.050 -33.603  1.00  0.00    -0.205 F 
HETATM   16  C   UNL     1      -6.703  -2.460 -34.671  1.00  0.00     0.043 A 
HETATM   17  C   UNL     1      -5.406  -2.939 -34.842  1.00  0.00     0.003 A 
HETATM   18  C   UNL     1      -4.373  -2.424 -34.061  1.00  0.00     0.001 A 
HETATM   19  C   UNL     1      -4.639  -1.432 -33.112  1.00  0.00     0.018 A 
ENDBRANCH   9  13
ENDBRANCH   6   7
ENDBRANCH   5   6
ENDBRANCH   2   5
BRANCH   1  20
HETATM   20  C   UNL     1      -4.831   4.917 -34.371  1.00  0.00     0.225 C 
BRANCH  20  21
HETATM   21  C   UNL     1      -3.532   5.604 -33.941  1.00  0.00     0.239 C 
HETATM   22  N   UNL     1      -3.272   5.450 -32.595  1.00  0.00    -0.323 N 
HETATM   23  H   UNL     1      -4.003   5.019 -32.022  1.00  0.00     0.169 HD
HETATM   24  O   UNL     1      -2.874   6.254 -34.749  1.00  0.00    -0.271 OA
BRANCH  22  25
HETATM   25  C   UNL     1      -2.148   5.891 -31.862  1.00  0.00     0.069 A 
HETATM   26  C   UNL     1      -0.981   5.136 -31.713  1.00  0.00     0.039 A 
HETATM   27  C   UNL     1       0.101   5.627 -30.967  1.00  0.00    -0.060 A 
HETATM   28  C   UNL     1       1.332   4.790 -30.783  1.00  0.00     0.048 C 
HETATM   29  C   UNL     1      -0.008   6.875 -30.350  1.00  0.00     0.009 A 
HETATM   30  C   UNL     1      -1.170   7.638 -30.487  1.00  0.00     0.039 A 
HETATM   31  C   UNL     1      -2.243   7.153 -31.238  1.00  0.00     0.095 A 
BRANCH  31  32
HETATM   32  O   UNL     1      -3.433   7.815 -31.428  1.00  0.00    -0.354 OA
HETATM   33  C   UNL     1      -3.528   9.142 -30.927  1.00  0.00     0.210 C 
ENDBRANCH  31  32
ENDBRANCH  22  25
ENDBRANCH  20  21
ENDBRANCH   1  20
TORSDOF 8
ENDMDL
MODEL 8
REMARK VINA RESULT:      -8.3      2.456      3.854
REMARK  8 active torsions:
REMARK  status: ('A' for Active; 'I' for Inactive)
REMARK    1  A    between atoms: C_4  and  N_5 
REMARK       I    between atoms: N_5  and  C_6 
REMARK    2  A    between atoms: C_6  and  C_7 
REMARK    3  A    between atoms: C_7  and  N_8 
REMARK       I    between atoms: N_8  and  C_9 
REMARK    4  A    between atoms: C_9  and  C_10 
REMARK    5  A    between atoms: C_10  and  S_11 
REMARK    6  A    between atoms: S_11  and  C_12 
REMARK    7  A    between atoms: C_14  and  C_15 
REMARK    8  A    between atoms: C_27  and  O_28 
ROOT
HETATM    1  N   UNL     1      -2.963   4.510 -33.296  1.00  0.00    -0.352 N 
HETATM    2  C   UNL     1      -3.820   5.123 -34.191  1.00  0.00     0.227 C 
HETATM    3  O   UNL     1      -3.438   6.045 -34.908  1.00  0.00    -0.273 OA
HETATM    4  H   UNL     1      -3.221   3.615 -32.895  1.00  0.00     0.162 HD
ENDROOT
BRANCH   2   5
HETATM    5  C   UNL     1      -5.228   4.549 -34.160  1.00  0.00     0.185 C 
BRANCH   5   6
HETATM    6  S   UNL     1      -5.838   4.325 -32.465  1.00  0.00    -0.081 SA
BRANCH   6   7
HETATM    7  C   UNL     1      -5.834   2.610 -32.377  1.00  0.00     0.185 A 
HETATM    8  N   UNL     1      -5.782   1.747 -33.357  1.00  0.00    -0.201 NA
HETATM    9  C   UNL     1      -5.788   0.526 -32.711  1.00  0.00     0.185 A 
HETATM   10  N   UNL     1      -5.843   0.628 -31.368  1.00  0.00    -0.152 NA
HETATM   11  N   UNL     1      -5.873   1.960 -31.190  1.00  0.00    -0.253 N 
HETATM   12  H   UNL     1      -5.913   2.349 -30.256  1.00  0.00     0.191 HD
BRANCH   9  13
HETATM   13  C   UNL     1      -5.729  -0.748 -33.419  1.00  0.00     0.052 A 
HETATM   14  C   UNL     1      -4.518  -1.416 -33.632  1.00  0.00     0.130 A 
HETATM   15  F   UNL     1      -3.354  -0.910 -33.196  1.00  0.00    -0.205 F 
HETATM   16  C   UNL     1      -4.473  -2.636 -34.309  1.00  0.00     0.043 A 
HETATM   17  C   UNL     1      -5.647  -3.213 -34.789  1.00  0.00     0.003 A 
HETATM   18  C   UNL     1      -6.864  -2.565 -34.589  1.00  0.00     0.001 A 
HETATM   19  C   UNL     1      -6.905  -1.343 -33.911  1.00  0.00     0.018 A 
ENDBRANCH   9  13
ENDBRANCH   6   7
ENDBRANCH   5   6
ENDBRANCH   2   5
BRANCH   1  20
HETATM   20  C   UNL     1      -1.573   4.915 -33.199  1.00  0.00     0.225 C 
BRANCH  20  21
HETATM   21  C   UNL     1      -1.213   5.282 -31.758  1.00  0.00     0.239 C 
HETATM   22  N   UNL     1      -1.371   6.628 -31.499  1.00  0.00    -0.323 N 
HETATM   23  H   UNL     1      -1.583   7.237 -32.294  1.00  0.00     0.169 HD
HETATM   24  O   UNL     1      -0.781   4.429 -30.988  1.00  0.00    -0.271 OA
BRANCH  22  25
HETATM   25  C   UNL     1      -1.193   7.313 -30.276  1.00  0.00     0.069 A 
HETATM   26  C   UNL     1       0.056   7.509 -29.679  1.00  0.00     0.039 A 
HETATM   27  C   UNL     1       0.168   8.195 -28.461  1.00  0.00    -0.060 A 
HETATM   28  C   UNL     1       1.510   8.364 -27.811  1.00  0.00     0.048 C 
HETATM   29  C   UNL     1      -0.989   8.661 -27.831  1.00  0.00     0.009 A 
HETATM   30  C   UNL     1      -2.243   8.467 -28.416  1.00  0.00     0.039 A 
HETATM   31  C   UNL     1      -2.353   7.794 -29.634  1.00  0.00     0.095 A 
BRANCH  31  32
HETATM   32  O   UNL     1      -3.535   7.541 -30.288  1.00  0.00    -0.354 OA
HETATM   33  C   UNL     1      -4.738   7.709 -29.550  1.00  0.00     0.210 C 
ENDBRANCH  31  32
ENDBRANCH  22  25
ENDBRANCH  20  21
ENDBRANCH   1  20
TORSDOF 8
ENDMDL
MODEL 9
REMARK VINA RESULT:      -8.1      3.256      6.961
REMARK  8 active torsions:
REMARK  status: ('A' for Active; 'I' for Inactive)
REMARK    1  A    between atoms: C_4  and  N_5 
REMARK       I    between atoms: N_5  and  C_6 
REMARK    2  A    between atoms: C_6  and  C_7 
REMARK    3  A    between atoms: C_7  and  N_8 
REMARK       I    between atoms: N_8  and  C_9 
REMARK    4  A    between atoms: C_9  and  C_10 
REMARK    5  A    between atoms: C_10  and  S_11 
REMARK    6  A    between atoms: S_11  and  C_12 
REMARK    7  A    between atoms: C_14  and  C_15 
REMARK    8  A    between atoms: C_27  and  O_28 
ROOT
HETATM    1  N   UNL     1      -4.687   2.414 -31.346  1.00  0.00    -0.352 N 
HETATM    2  C   UNL     1      -4.767   3.782 -31.162  1.00  0.00     0.227 C 
HETATM    3  O   UNL     1      -3.771   4.495 -31.250  1.00  0.00    -0.273 OA
HETATM    4  H   UNL     1      -5.536   1.883 -31.504  1.00  0.00     0.162 HD
ENDROOT
BRANCH   2   5
HETATM    5  C   UNL     1      -6.174   4.260 -30.836  1.00  0.00     0.185 C 
BRANCH   5   6
HETATM    6  S   UNL     1      -7.234   2.912 -30.244  1.00  0.00    -0.081 SA
BRANCH   6   7
HETATM    7  C   UNL     1      -8.273   2.739 -31.600  1.00  0.00     0.185 A 
HETATM    8  N   UNL     1      -9.462   2.201 -31.649  1.00  0.00    -0.201 NA
HETATM    9  C   UNL     1      -9.831   2.353 -32.972  1.00  0.00     0.185 A 
HETATM   10  N   UNL     1      -8.896   2.969 -33.723  1.00  0.00    -0.152 NA
HETATM   11  N   UNL     1      -7.922   3.198 -32.825  1.00  0.00    -0.253 N 
HETATM   12  H   UNL     1      -7.069   3.665 -33.107  1.00  0.00     0.191 HD
BRANCH   9  13
HETATM   13  C   UNL     1     -11.114   1.899 -33.496  1.00  0.00     0.052 A 
HETATM   14  C   UNL     1     -11.515   0.561 -33.404  1.00  0.00     0.130 A 
HETATM   15  F   UNL     1     -10.732  -0.366 -32.831  1.00  0.00    -0.205 F 
HETATM   16  C   UNL     1     -12.746   0.138 -33.907  1.00  0.00     0.043 A 
HETATM   17  C   UNL     1     -13.604   1.052 -34.516  1.00  0.00     0.003 A 
HETATM   18  C   UNL     1     -13.225   2.388 -34.619  1.00  0.00     0.001 A 
HETATM   19  C   UNL     1     -11.991   2.808 -34.114  1.00  0.00     0.018 A 
ENDBRANCH   9  13
ENDBRANCH   6   7
ENDBRANCH   5   6
ENDBRANCH   2   5
BRANCH   1  20
HETATM   20  C   UNL     1      -3.426   1.780 -31.683  1.00  0.00     0.225 C 
BRANCH  20  21
HETATM   21  C   UNL     1      -3.617   0.281 -31.918  1.00  0.00     0.239 C 
HETATM   22  N   UNL     1      -4.476   0.015 -32.964  1.00  0.00    -0.323 N 
HETATM   23  H   UNL     1      -4.973   0.809 -33.377  1.00  0.00     0.169 HD
HETATM   24  O   UNL     1      -3.080  -0.539 -31.179  1.00  0.00    -0.271 OA
BRANCH  22  25
HETATM   25  C   UNL     1      -4.842  -1.240 -33.503  1.00  0.00     0.069 A 
HETATM   26  C   UNL     1      -4.011  -2.363 -33.470  1.00  0.00     0.039 A 
HETATM   27  C   UNL     1      -4.429  -3.581 -34.027  1.00  0.00    -0.060 A 
HETATM   28  C   UNL     1      -3.512  -4.768 -34.019  1.00  0.00     0.048 C 
HETATM   29  C   UNL     1      -5.681  -3.656 -34.642  1.00  0.00     0.009 A 
HETATM   30  C   UNL     1      -6.519  -2.538 -34.685  1.00  0.00     0.039 A 
HETATM   31  C   UNL     1      -6.106  -1.329 -34.121  1.00  0.00     0.095 A 
BRANCH  31  32
HETATM   32  O   UNL     1      -6.846  -0.170 -34.119  1.00  0.00    -0.354 OA
HETATM   33  C   UNL     1      -7.136   0.421 -35.378  1.00  0.00     0.210 C 
ENDBRANCH  31  32
ENDBRANCH  22  25
ENDBRANCH  20  21
ENDBRANCH   1  20
TORSDOF 8
ENDMDL
MODEL 10
REMARK VINA RESULT:      -7.9      2.382      3.206
REMARK  8 active torsions:
REMARK  status: ('A' for Active; 'I' for Inactive)
REMARK    1  A    between atoms: C_4  and  N_5 
REMARK       I    between atoms: N_5  and  C_6 
REMARK    2  A    between atoms: C_6  and  C_7 
REMARK    3  A    between atoms: C_7  and  N_8 
REMARK       I    between atoms: N_8  and  C_9 
REMARK    4  A    between atoms: C_9  and  C_10 
REMARK    5  A    between atoms: C_10  and  S_11 
REMARK    6  A    between atoms: S_11  and  C_12 
REMARK    7  A    between atoms: C_14  and  C_15 
REMARK    8  A    between atoms: C_27  and  O_28 
ROOT
HETATM    1  N   UNL     1      -5.344   5.539 -31.677  1.00  0.00    -0.352 N 
HETATM    2  C   UNL     1      -4.972   4.213 -31.795  1.00  0.00     0.227 C 
HETATM    3  O   UNL     1      -4.751   3.522 -30.804  1.00  0.00    -0.273 OA
HETATM    4  H   UNL     1      -5.746   6.016 -32.476  1.00  0.00     0.162 HD
ENDROOT
BRANCH   2   5
HETATM    5  C   UNL     1      -4.860   3.750 -33.241  1.00  0.00     0.185 C 
BRANCH   5   6
HETATM    6  S   UNL     1      -6.427   3.086 -33.870  1.00  0.00    -0.081 SA
BRANCH   6   7
HETATM    7  C   UNL     1      -6.216   1.426 -33.488  1.00  0.00     0.185 A 
HETATM    8  N   UNL     1      -6.140   0.408 -34.305  1.00  0.00    -0.201 NA
HETATM    9  C   UNL     1      -5.952  -0.669 -33.461  1.00  0.00     0.185 A 
HETATM   10  N   UNL     1      -5.912  -0.329 -32.157  1.00  0.00    -0.152 NA
HETATM   11  N   UNL     1      -6.084   1.003 -32.209  1.00  0.00    -0.253 N 
HETATM   12  H   UNL     1      -6.095   1.549 -31.357  1.00  0.00     0.191 HD
BRANCH   9  13
HETATM   13  C   UNL     1      -5.801  -2.038 -33.941  1.00  0.00     0.052 A 
HETATM   14  C   UNL     1      -4.591  -2.731 -33.817  1.00  0.00     0.130 A 
HETATM   15  F   UNL     1      -3.514  -2.164 -33.253  1.00  0.00    -0.205 F 
HETATM   16  C   UNL     1      -4.458  -4.042 -34.278  1.00  0.00     0.043 A 
HETATM   17  C   UNL     1      -5.539  -4.687 -34.876  1.00  0.00     0.003 A 
HETATM   18  C   UNL     1      -6.752  -4.015 -35.011  1.00  0.00     0.001 A 
HETATM   19  C   UNL     1      -6.882  -2.702 -34.547  1.00  0.00     0.018 A 
ENDBRANCH   9  13
ENDBRANCH   6   7
ENDBRANCH   5   6
ENDBRANCH   2   5
BRANCH   1  20
HETATM   20  C   UNL     1      -5.519   6.149 -30.372  1.00  0.00     0.225 C 
BRANCH  20  21
HETATM   21  C   UNL     1      -4.305   7.006 -30.006  1.00  0.00     0.239 C 
HETATM   22  N   UNL     1      -3.165   6.255 -29.814  1.00  0.00    -0.323 N 
HETATM   23  H   UNL     1      -3.269   5.236 -29.811  1.00  0.00     0.169 HD
HETATM   24  O   UNL     1      -4.421   8.220 -29.860  1.00  0.00    -0.271 OA
BRANCH  22  25
HETATM   25  C   UNL     1      -1.856   6.703 -29.526  1.00  0.00     0.069 A 
HETATM   26  C   UNL     1      -1.460   7.162 -28.266  1.00  0.00     0.039 A 
HETATM   27  C   UNL     1      -0.146   7.599 -28.043  1.00  0.00    -0.060 A 
HETATM   28  C   UNL     1       0.256   8.126 -26.697  1.00  0.00     0.048 C 
HETATM   29  C   UNL     1       0.763   7.596 -29.104  1.00  0.00     0.009 A 
HETATM   30  C   UNL     1       0.378   7.144 -30.369  1.00  0.00     0.039 A 
HETATM   31  C   UNL     1      -0.927   6.699 -30.587  1.00  0.00     0.095 A 
BRANCH  31  32
HETATM   32  O   UNL     1      -1.412   6.245 -31.791  1.00  0.00    -0.354 OA
HETATM   33  C   UNL     1      -1.195   7.064 -32.932  1.00  0.00     0.210 C 
ENDBRANCH  31  32
ENDBRANCH  22  25
ENDBRANCH  20  21
ENDBRANCH   1  20
TORSDOF 8
ENDMDL
