MODEL 1
REMARK VINA RESULT:      -7.5      0.000      0.000
REMARK  5 active torsions:
REMARK  status: ('A' for Active; 'I' for Inactive)
REMARK    1  A    between atoms: C_3  and  C_4 
REMARK       I    between atoms: C_4  and  N_5 
REMARK    2  A    between atoms: C_7  and  N_8 
REMARK    3  A    between atoms: N_8  and  C_9 
REMARK    4  A    between atoms: C_9  and  C_10 
REMARK    5  A    between atoms: C_10  and  C_11 
ROOT
HETATM    1  C   UNL     1      -7.277   3.134 -31.421  1.00  0.00     0.049 C 
HETATM    2  C   UNL     1      -5.850   2.749 -31.703  1.00  0.00    -0.041 A 
HETATM    3  C   UNL     1      -5.317   1.513 -31.303  1.00  0.00     0.081 A 
HETATM    4  C   UNL     1      -3.962   1.190 -31.540  1.00  0.00     0.117 A 
HETATM    5  N   UNL     1      -3.201   2.137 -32.120  1.00  0.00    -0.346 N 
HETATM    6  H   UNL     1      -2.213   1.938 -32.234  1.00  0.00     0.167 HD
HETATM    7  C   UNL     1      -3.655   3.337 -32.521  1.00  0.00     0.007 A 
HETATM    8  C   UNL     1      -2.696   4.299 -33.148  1.00  0.00     0.068 C 
HETATM    9  C   UNL     1      -4.995   3.664 -32.320  1.00  0.00     0.032 A 
ENDROOT
BRANCH   4  10
HETATM   10  N   UNL     1      -3.379   0.009 -31.095  1.00  0.00    -0.375 N 
HETATM   11  H   UNL     1      -3.674  -0.242 -30.146  1.00  0.00     0.161 HD
BRANCH  10  12
HETATM   12  C   UNL     1      -3.168  -1.146 -31.961  1.00  0.00     0.126 C 
BRANCH  12  13
HETATM   13  C   UNL     1      -3.648  -0.860 -33.389  1.00  0.00     0.058 C 
BRANCH  13  14
HETATM   14  C   UNL     1      -4.573  -1.954 -33.863  1.00  0.00    -0.057 A 
HETATM   15  C   UNL     1      -4.100  -3.270 -33.993  1.00  0.00     0.010 A 
HETATM   16  C   UNL     1      -4.937  -4.275 -34.481  1.00  0.00     0.043 A 
HETATM   17  C   UNL     1      -6.243  -3.965 -34.841  1.00  0.00     0.116 A 
HETATM   18  F   UNL     1      -7.041  -4.927 -35.320  1.00  0.00    -0.206 F 
HETATM   19  C   UNL     1      -6.730  -2.670 -34.715  1.00  0.00     0.043 A 
HETATM   20  C   UNL     1      -5.898  -1.663 -34.226  1.00  0.00     0.010 A 
ENDBRANCH  13  14
ENDBRANCH  12  13
ENDBRANCH  10  12
ENDBRANCH   4  10
BRANCH   3  21
HETATM   21  C   UNL     1      -6.155   0.563 -30.559  1.00  0.00     0.253 C 
HETATM   22  N   UNL     1      -6.293   0.794 -29.219  1.00  0.00    -0.366 N 
HETATM   23  H   UNL     1      -5.632   1.349 -28.690  1.00  0.00     0.159 HD
HETATM   24  H   UNL     1      -6.760   0.054 -28.700  1.00  0.00     0.159 HD
HETATM   25  O   UNL     1      -6.680  -0.379 -31.128  1.00  0.00    -0.268 OA
ENDBRANCH   3  21
TORSDOF 5
ENDMDL
MODEL 2
REMARK VINA RESULT:      -7.4      2.291      3.081
REMARK  5 active torsions:
REMARK  status: ('A' for Active; 'I' for Inactive)
REMARK    1  A    between atoms: C_3  and  C_4 
REMARK       I    between atoms: C_4  and  N_5 
REMARK    2  A    between atoms: C_7  and  N_8 
REMARK    3  A    between atoms: N_8  and  C_9 
REMARK    4  A    between atoms: C_9  and  C_10 
REMARK    5  A    between atoms: C_10  and  C_11 
ROOT
HETATM    1  C   UNL     1      -7.528   3.200 -29.644  1.00  0.00     0.049 C 
HETATM    2  C   UNL     1      -6.868   2.893 -30.961  1.00  0.00    -0.041 A 
HETATM    3  C   UNL     1      -7.586   2.384 -32.056  1.00  0.00     0.081 A 
HETATM    4  C   UNL     1      -6.937   2.062 -33.269  1.00  0.00     0.117 A 
HETATM    5  N   UNL     1      -5.601   2.222 -33.309  1.00  0.00    -0.346 N 
HETATM    6  H   UNL     1      -5.120   1.932 -34.153  1.00  0.00     0.167 HD
HETATM    7  C   UNL     1      -4.862   2.702 -32.293  1.00  0.00     0.007 A 
HETATM    8  C   UNL     1      -3.382   2.822 -32.471  1.00  0.00     0.068 C 
HETATM    9  C   UNL     1      -5.488   3.050 -31.096  1.00  0.00     0.032 A 
ENDROOT
BRANCH   4  10
HETATM   10  N   UNL     1      -7.599   1.488 -34.348  1.00  0.00    -0.375 N 
HETATM   11  H   UNL     1      -8.067   2.184 -34.938  1.00  0.00     0.161 HD
BRANCH  10  12
HETATM   12  C   UNL     1      -7.060   0.359 -35.099  1.00  0.00     0.126 C 
BRANCH  12  13
HETATM   13  C   UNL     1      -7.556  -0.973 -34.524  1.00  0.00     0.058 C 
BRANCH  13  14
HETATM   14  C   UNL     1      -6.424  -1.969 -34.449  1.00  0.00    -0.057 A 
HETATM   15  C   UNL     1      -6.620  -3.292 -34.875  1.00  0.00     0.010 A 
HETATM   16  C   UNL     1      -5.592  -4.229 -34.758  1.00  0.00     0.043 A 
HETATM   17  C   UNL     1      -4.373  -3.846 -34.214  1.00  0.00     0.116 A 
HETATM   18  F   UNL     1      -3.392  -4.749 -34.091  1.00  0.00    -0.206 F 
HETATM   19  C   UNL     1      -4.159  -2.540 -33.791  1.00  0.00     0.043 A 
HETATM   20  C   UNL     1      -5.182  -1.599 -33.908  1.00  0.00     0.010 A 
ENDBRANCH  13  14
ENDBRANCH  12  13
ENDBRANCH  10  12
ENDBRANCH   4  10
BRANCH   3  21
HETATM   21  C   UNL     1      -9.022   2.107 -31.921  1.00  0.00     0.253 C 
HETATM   22  N   UNL     1      -9.360   0.934 -31.307  1.00  0.00    -0.366 N 
HETATM   23  H   UNL     1      -8.725   0.149 -31.242  1.00  0.00     0.159 HD
HETATM   24  H   UNL     1     -10.349   0.697 -31.347  1.00  0.00     0.159 HD
HETATM   25  O   UNL     1      -9.849   2.894 -32.352  1.00  0.00    -0.268 OA
ENDBRANCH   3  21
TORSDOF 5
ENDMDL
MODEL 3
REMARK VINA RESULT:      -7.3      4.524      6.757
REMARK  5 active torsions:
REMARK  status: ('A' for Active; 'I' for Inactive)
REMARK    1  A    between atoms: C_3  and  C_4 
REMARK       I    between atoms: C_4  and  N_5 
REMARK    2  A    between atoms: C_7  and  N_8 
REMARK    3  A    between atoms: N_8  and  C_9 
REMARK    4  A    between atoms: C_9  and  C_10 
REMARK    5  A    between atoms: C_10  and  C_11 
ROOT
HETATM    1  C   UNL     1      -3.411  -1.421 -32.528  1.00  0.00     0.049 C 
HETATM    2  C   UNL     1      -4.698  -1.702 -33.256  1.00  0.00    -0.041 A 
HETATM    3  C   UNL     1      -5.834  -0.891 -33.105  1.00  0.00     0.081 A 
HETATM    4  C   UNL     1      -7.044  -1.198 -33.765  1.00  0.00     0.117 A 
HETATM    5  N   UNL     1      -7.069  -2.323 -34.503  1.00  0.00    -0.346 N 
HETATM    6  H   UNL     1      -7.952  -2.585 -34.928  1.00  0.00     0.167 HD
HETATM    7  C   UNL     1      -6.015  -3.139 -34.682  1.00  0.00     0.007 A 
HETATM    8  C   UNL     1      -6.184  -4.363 -35.525  1.00  0.00     0.068 C 
HETATM    9  C   UNL     1      -4.804  -2.838 -34.060  1.00  0.00     0.032 A 
ENDROOT
BRANCH   4  10
HETATM   10  N   UNL     1      -8.210  -0.462 -33.584  1.00  0.00    -0.375 N 
HETATM   11  H   UNL     1      -8.368  -0.212 -32.602  1.00  0.00     0.161 HD
BRANCH  10  12
HETATM   12  C   UNL     1      -8.655   0.562 -34.523  1.00  0.00     0.126 C 
BRANCH  12  13
HETATM   13  C   UNL     1      -9.506   1.625 -33.817  1.00  0.00     0.058 C 
BRANCH  13  14
HETATM   14  C   UNL     1     -10.973   1.377 -34.065  1.00  0.00    -0.057 A 
HETATM   15  C   UNL     1     -11.715   2.269 -34.855  1.00  0.00     0.010 A 
HETATM   16  C   UNL     1     -13.084   2.072 -35.044  1.00  0.00     0.043 A 
HETATM   17  C   UNL     1     -13.710   0.988 -34.443  1.00  0.00     0.116 A 
HETATM   18  F   UNL     1     -15.025   0.807 -34.614  1.00  0.00    -0.206 F 
HETATM   19  C   UNL     1     -12.992   0.091 -33.662  1.00  0.00     0.043 A 
HETATM   20  C   UNL     1     -11.623   0.283 -33.472  1.00  0.00     0.010 A 
ENDBRANCH  13  14
ENDBRANCH  12  13
ENDBRANCH  10  12
ENDBRANCH   4  10
BRANCH   3  21
HETATM   21  C   UNL     1      -5.795   0.256 -32.187  1.00  0.00     0.253 C 
HETATM   22  N   UNL     1      -5.272   1.416 -32.686  1.00  0.00    -0.366 N 
HETATM   23  H   UNL     1      -4.652   1.436 -33.485  1.00  0.00     0.159 HD
HETATM   24  H   UNL     1      -5.127   2.153 -31.999  1.00  0.00     0.159 HD
HETATM   25  O   UNL     1      -6.204   0.149 -31.043  1.00  0.00    -0.268 OA
ENDBRANCH   3  21
TORSDOF 5
ENDMDL
MODEL 4
REMARK VINA RESULT:      -7.3      2.029      3.327
REMARK  5 active torsions:
REMARK  status: ('A' for Active; 'I' for Inactive)
REMARK    1  A    between atoms: C_3  and  C_4 
REMARK       I    between atoms: C_4  and  N_5 
REMARK    2  A    between atoms: C_7  and  N_8 
REMARK    3  A    between atoms: N_8  and  C_9 
REMARK    4  A    between atoms: C_9  and  C_10 
REMARK    5  A    between atoms: C_10  and  C_11 
ROOT
HETATM    1  C   UNL     1      -8.524   4.497 -30.375  1.00  0.00     0.049 C 
HETATM    2  C   UNL     1      -8.116   3.123 -30.833  1.00  0.00    -0.041 A 
HETATM    3  C   UNL     1      -6.778   2.697 -30.814  1.00  0.00     0.081 A 
HETATM    4  C   UNL     1      -6.412   1.418 -31.290  1.00  0.00     0.117 A 
HETATM    5  N   UNL     1      -7.394   0.652 -31.802  1.00  0.00    -0.346 N 
HETATM    6  H   UNL     1      -7.130  -0.240 -32.205  1.00  0.00     0.167 HD
HETATM    7  C   UNL     1      -8.690   1.009 -31.849  1.00  0.00     0.007 A 
HETATM    8  C   UNL     1      -9.678   0.062 -32.452  1.00  0.00     0.068 C 
HETATM    9  C   UNL     1      -9.075   2.257 -31.360  1.00  0.00     0.032 A 
ENDROOT
BRANCH   4  10
HETATM   10  N   UNL     1      -5.092   0.987 -31.355  1.00  0.00    -0.375 N 
HETATM   11  H   UNL     1      -4.497   1.432 -30.649  1.00  0.00     0.161 HD
BRANCH  10  12
HETATM   12  C   UNL     1      -4.723  -0.396 -31.637  1.00  0.00     0.126 C 
BRANCH  12  13
HETATM   13  C   UNL     1      -4.220  -0.552 -33.077  1.00  0.00     0.058 C 
BRANCH  13  14
HETATM   14  C   UNL     1      -4.916  -1.705 -33.757  1.00  0.00    -0.057 A 
HETATM   15  C   UNL     1      -6.260  -1.587 -34.144  1.00  0.00     0.010 A 
HETATM   16  C   UNL     1      -6.923  -2.670 -34.726  1.00  0.00     0.043 A 
HETATM   17  C   UNL     1      -6.245  -3.867 -34.916  1.00  0.00     0.116 A 
HETATM   18  F   UNL     1      -6.886  -4.908 -35.462  1.00  0.00    -0.206 F 
HETATM   19  C   UNL     1      -4.914  -4.001 -34.543  1.00  0.00     0.043 A 
HETATM   20  C   UNL     1      -4.246  -2.922 -33.964  1.00  0.00     0.010 A 
ENDBRANCH  13  14
ENDBRANCH  12  13
ENDBRANCH  10  12
ENDBRANCH   4  10
BRANCH   3  21
HETATM   21  C   UNL     1      -5.725   3.617 -30.364  1.00  0.00     0.253 C 
HETATM   22  N   UNL     1      -5.499   3.670 -29.017  1.00  0.00    -0.366 N 
HETATM   23  H   UNL     1      -6.189   3.380 -28.336  1.00  0.00     0.159 HD
HETATM   24  H   UNL     1      -4.866   4.408 -28.716  1.00  0.00     0.159 HD
HETATM   25  O   UNL     1      -5.107   4.293 -31.169  1.00  0.00    -0.268 OA
ENDBRANCH   3  21
TORSDOF 5
ENDMDL
MODEL 5
REMARK VINA RESULT:      -7.3      1.687      3.044
REMARK  5 active torsions:
REMARK  status: ('A' for Active; 'I' for Inactive)
REMARK    1  A    between atoms: C_3  and  C_4 
REMARK       I    between atoms: C_4  and  N_5 
REMARK    2  A    between atoms: C_7  and  N_8 
REMARK    3  A    between atoms: N_8  and  C_9 
REMARK    4  A    between atoms: C_9  and  C_10 
REMARK    5  A    between atoms: C_10  and  C_11 
ROOT
HETATM    1  C   UNL     1      -6.311   4.565 -32.885  1.00  0.00     0.049 C 
HETATM    2  C   UNL     1      -6.425   3.173 -32.326  1.00  0.00    -0.041 A 
HETATM    3  C   UNL     1      -5.318   2.486 -31.801  1.00  0.00     0.081 A 
HETATM    4  C   UNL     1      -5.440   1.163 -31.321  1.00  0.00     0.117 A 
HETATM    5  N   UNL     1      -6.648   0.581 -31.434  1.00  0.00    -0.346 N 
HETATM    6  H   UNL     1      -6.728  -0.390 -31.152  1.00  0.00     0.167 HD
HETATM    7  C   UNL     1      -7.742   1.187 -31.929  1.00  0.00     0.007 A 
HETATM    8  C   UNL     1      -9.022   0.419 -32.002  1.00  0.00     0.068 C 
HETATM    9  C   UNL     1      -7.648   2.502 -32.383  1.00  0.00     0.032 A 
ENDROOT
BRANCH   4  10
HETATM   10  N   UNL     1      -4.355   0.425 -30.863  1.00  0.00    -0.375 N 
HETATM   11  H   UNL     1      -4.314   0.379 -29.840  1.00  0.00     0.161 HD
BRANCH  10  12
HETATM   12  C   UNL     1      -3.893  -0.795 -31.518  1.00  0.00     0.126 C 
BRANCH  12  13
HETATM   13  C   UNL     1      -3.830  -0.616 -33.039  1.00  0.00     0.058 C 
BRANCH  13  14
HETATM   14  C   UNL     1      -4.675  -1.659 -33.729  1.00  0.00    -0.057 A 
HETATM   15  C   UNL     1      -5.991  -1.359 -34.112  1.00  0.00     0.010 A 
HETATM   16  C   UNL     1      -6.794  -2.336 -34.702  1.00  0.00     0.043 A 
HETATM   17  C   UNL     1      -6.283  -3.612 -34.906  1.00  0.00     0.116 A 
HETATM   18  F   UNL     1      -7.057  -4.552 -35.460  1.00  0.00    -0.206 F 
HETATM   19  C   UNL     1      -4.980  -3.927 -34.538  1.00  0.00     0.043 A 
HETATM   20  C   UNL     1      -4.174  -2.952 -33.949  1.00  0.00     0.010 A 
ENDBRANCH  13  14
ENDBRANCH  12  13
ENDBRANCH  10  12
ENDBRANCH   4  10
BRANCH   3  21
HETATM   21  C   UNL     1      -3.992   3.119 -31.817  1.00  0.00     0.253 C 
HETATM   22  N   UNL     1      -3.730   4.007 -30.813  1.00  0.00    -0.366 N 
HETATM   23  H   UNL     1      -4.462   4.469 -30.288  1.00  0.00     0.159 HD
HETATM   24  H   UNL     1      -2.866   4.534 -30.919  1.00  0.00     0.159 HD
HETATM   25  O   UNL     1      -3.190   2.854 -32.697  1.00  0.00    -0.268 OA
ENDBRANCH   3  21
TORSDOF 5
ENDMDL
MODEL 6
REMARK VINA RESULT:      -7.3      3.031      4.355
REMARK  5 active torsions:
REMARK  status: ('A' for Active; 'I' for Inactive)
REMARK    1  A    between atoms: C_3  and  C_4 
REMARK       I    between atoms: C_4  and  N_5 
REMARK    2  A    between atoms: C_7  and  N_8 
REMARK    3  A    between atoms: N_8  and  C_9 
REMARK    4  A    between atoms: C_9  and  C_10 
REMARK    5  A    between atoms: C_10  and  C_11 
ROOT
HETATM    1  C   UNL     1      -9.507   2.972 -30.494  1.00  0.00     0.049 C 
HETATM    2  C   UNL     1      -9.469   2.598 -31.951  1.00  0.00    -0.041 A 
HETATM    3  C   UNL     1      -8.309   2.096 -32.562  1.00  0.00     0.081 A 
HETATM    4  C   UNL     1      -8.284   1.792 -33.942  1.00  0.00     0.117 A 
HETATM    5  N   UNL     1      -9.402   2.050 -34.645  1.00  0.00    -0.346 N 
HETATM    6  H   UNL     1      -9.371   1.896 -35.647  1.00  0.00     0.167 HD
HETATM    7  C   UNL     1     -10.540   2.532 -34.115  1.00  0.00     0.007 A 
HETATM    8  C   UNL     1     -11.708   2.779 -35.015  1.00  0.00     0.068 C 
HETATM    9  C   UNL     1     -10.593   2.814 -32.750  1.00  0.00     0.032 A 
ENDROOT
BRANCH   4  10
HETATM   10  N   UNL     1      -7.136   1.364 -34.598  1.00  0.00    -0.375 N 
HETATM   11  H   UNL     1      -6.280   1.578 -34.076  1.00  0.00     0.161 HD
BRANCH  10  12
HETATM   12  C   UNL     1      -7.066   0.105 -35.333  1.00  0.00     0.126 C 
BRANCH  12  13
HETATM   13  C   UNL     1      -7.531  -1.069 -34.463  1.00  0.00     0.058 C 
BRANCH  13  14
HETATM   14  C   UNL     1      -6.442  -2.107 -34.352  1.00  0.00    -0.057 A 
HETATM   15  C   UNL     1      -5.191  -1.762 -33.817  1.00  0.00     0.010 A 
HETATM   16  C   UNL     1      -4.164  -2.706 -33.761  1.00  0.00     0.043 A 
HETATM   17  C   UNL     1      -4.386  -3.990 -34.241  1.00  0.00     0.116 A 
HETATM   18  F   UNL     1      -3.396  -4.890 -34.199  1.00  0.00    -0.206 F 
HETATM   19  C   UNL     1      -5.619  -4.352 -34.770  1.00  0.00     0.043 A 
HETATM   20  C   UNL     1      -6.649  -3.413 -34.826  1.00  0.00     0.010 A 
ENDBRANCH  13  14
ENDBRANCH  12  13
ENDBRANCH  10  12
ENDBRANCH   4  10
BRANCH   3  21
HETATM   21  C   UNL     1      -7.075   1.952 -31.779  1.00  0.00     0.253 C 
HETATM   22  N   UNL     1      -6.946   0.802 -31.053  1.00  0.00    -0.366 N 
HETATM   23  H   UNL     1      -7.740   0.235 -30.783  1.00  0.00     0.159 HD
HETATM   24  H   UNL     1      -6.154   0.782 -30.414  1.00  0.00     0.159 HD
HETATM   25  O   UNL     1      -6.230   2.832 -31.785  1.00  0.00    -0.268 OA
ENDBRANCH   3  21
TORSDOF 5
ENDMDL
MODEL 7
REMARK VINA RESULT:      -7.3      2.408      3.819
REMARK  5 active torsions:
REMARK  status: ('A' for Active; 'I' for Inactive)
REMARK    1  A    between atoms: C_3  and  C_4 
REMARK       I    between atoms: C_4  and  N_5 
REMARK    2  A    between atoms: C_7  and  N_8 
REMARK    3  A    between atoms: N_8  and  C_9 
REMARK    4  A    between atoms: C_9  and  C_10 
REMARK    5  A    between atoms: C_10  and  C_11 
ROOT
HETATM    1  C   UNL     1      -4.628   5.025 -31.441  1.00  0.00     0.049 C 
HETATM    2  C   UNL     1      -5.255   3.672 -31.640  1.00  0.00    -0.041 A 
HETATM    3  C   UNL     1      -5.934   3.330 -32.821  1.00  0.00     0.081 A 
HETATM    4  C   UNL     1      -6.552   2.068 -32.970  1.00  0.00     0.117 A 
HETATM    5  N   UNL     1      -6.500   1.234 -31.915  1.00  0.00    -0.346 N 
HETATM    6  H   UNL     1      -6.996   0.353 -31.989  1.00  0.00     0.167 HD
HETATM    7  C   UNL     1      -5.867   1.508 -30.760  1.00  0.00     0.007 A 
HETATM    8  C   UNL     1      -5.894   0.490 -29.664  1.00  0.00     0.068 C 
HETATM    9  C   UNL     1      -5.229   2.737 -30.604  1.00  0.00     0.032 A 
ENDROOT
BRANCH   4  10
HETATM   10  N   UNL     1      -7.295   1.720 -34.092  1.00  0.00    -0.375 N 
HETATM   11  H   UNL     1      -7.710   2.534 -34.557  1.00  0.00     0.161 HD
BRANCH  10  12
HETATM   12  C   UNL     1      -6.887   0.669 -35.018  1.00  0.00     0.126 C 
BRANCH  12  13
HETATM   13  C   UNL     1      -7.528  -0.674 -34.646  1.00  0.00     0.058 C 
BRANCH  13  14
HETATM   14  C   UNL     1      -6.467  -1.729 -34.454  1.00  0.00    -0.057 A 
HETATM   15  C   UNL     1      -5.225  -1.387 -33.898  1.00  0.00     0.010 A 
HETATM   16  C   UNL     1      -4.222  -2.349 -33.767  1.00  0.00     0.043 A 
HETATM   17  C   UNL     1      -4.459  -3.649 -34.193  1.00  0.00     0.116 A 
HETATM   18  F   UNL     1      -3.492  -4.568 -34.078  1.00  0.00    -0.206 F 
HETATM   19  C   UNL     1      -5.684  -4.009 -34.741  1.00  0.00     0.043 A 
HETATM   20  C   UNL     1      -6.690  -3.051 -34.873  1.00  0.00     0.010 A 
ENDBRANCH  13  14
ENDBRANCH  12  13
ENDBRANCH  10  12
ENDBRANCH   4  10
BRANCH   3  21
HETATM   21  C   UNL     1      -6.073   4.322 -33.896  1.00  0.00     0.253 C 
HETATM   22  N   UNL     1      -4.953   4.580 -34.634  1.00  0.00    -0.366 N 
HETATM   23  H   UNL     1      -4.019   4.388 -34.294  1.00  0.00     0.159 HD
HETATM   24  H   UNL     1      -5.033   5.364 -35.278  1.00  0.00     0.159 HD
HETATM   25  O   UNL     1      -7.141   4.878 -34.092  1.00  0.00    -0.268 OA
ENDBRANCH   3  21
TORSDOF 5
ENDMDL
MODEL 8
REMARK VINA RESULT:      -7.3      6.653     10.098
REMARK  5 active torsions:
REMARK  status: ('A' for Active; 'I' for Inactive)
REMARK    1  A    between atoms: C_3  and  C_4 
REMARK       I    between atoms: C_4  and  N_5 
REMARK    2  A    between atoms: C_7  and  N_8 
REMARK    3  A    between atoms: N_8  and  C_9 
REMARK    4  A    between atoms: C_9  and  C_10 
REMARK    5  A    between atoms: C_10  and  C_11 
ROOT
HETATM    1  C   UNL     1      -4.080   5.198 -35.067  1.00  0.00     0.049 C 
HETATM    2  C   UNL     1      -3.524   4.826 -33.720  1.00  0.00    -0.041 A 
HETATM    3  C   UNL     1      -2.256   5.253 -33.291  1.00  0.00     0.081 A 
HETATM    4  C   UNL     1      -1.736   4.856 -32.039  1.00  0.00     0.117 A 
HETATM    5  N   UNL     1      -2.488   4.017 -31.303  1.00  0.00    -0.346 N 
HETATM    6  H   UNL     1      -2.094   3.676 -30.434  1.00  0.00     0.167 HD
HETATM    7  C   UNL     1      -3.706   3.573 -31.663  1.00  0.00     0.007 A 
HETATM    8  C   UNL     1      -4.431   2.636 -30.750  1.00  0.00     0.068 C 
HETATM    9  C   UNL     1      -4.248   3.975 -32.883  1.00  0.00     0.032 A 
ENDROOT
BRANCH   4  10
HETATM   10  N   UNL     1      -0.458   5.197 -31.612  1.00  0.00    -0.375 N 
HETATM   11  H   UNL     1       0.043   5.777 -32.292  1.00  0.00     0.161 HD
BRANCH  10  12
HETATM   12  C   UNL     1      -0.149   5.532 -30.225  1.00  0.00     0.126 C 
BRANCH  12  13
HETATM   13  C   UNL     1       0.091   7.037 -30.061  1.00  0.00     0.058 C 
BRANCH  13  14
HETATM   14  C   UNL     1       0.581   7.344 -28.667  1.00  0.00    -0.057 A 
HETATM   15  C   UNL     1       0.179   6.543 -27.587  1.00  0.00     0.010 A 
HETATM   16  C   UNL     1       0.588   6.854 -26.289  1.00  0.00     0.043 A 
HETATM   17  C   UNL     1       1.392   7.965 -26.070  1.00  0.00     0.116 A 
HETATM   18  F   UNL     1       1.773   8.269 -24.824  1.00  0.00    -0.206 F 
HETATM   19  C   UNL     1       1.804   8.767 -27.128  1.00  0.00     0.043 A 
HETATM   20  C   UNL     1       1.400   8.459 -28.427  1.00  0.00     0.010 A 
ENDBRANCH  13  14
ENDBRANCH  12  13
ENDBRANCH  10  12
ENDBRANCH   4  10
BRANCH   3  21
HETATM   21  C   UNL     1      -1.419   6.065 -34.185  1.00  0.00     0.253 C 
HETATM   22  N   UNL     1      -0.770   5.396 -35.184  1.00  0.00    -0.366 N 
HETATM   23  H   UNL     1      -0.584   4.402 -35.144  1.00  0.00     0.159 HD
HETATM   24  H   UNL     1      -0.092   5.950 -35.703  1.00  0.00     0.159 HD
HETATM   25  O   UNL     1      -1.318   7.269 -34.016  1.00  0.00    -0.268 OA
ENDBRANCH   3  21
TORSDOF 5
ENDMDL
MODEL 9
REMARK VINA RESULT:      -7.2      5.869      7.423
REMARK  5 active torsions:
REMARK  status: ('A' for Active; 'I' for Inactive)
REMARK    1  A    between atoms: C_3  and  C_4 
REMARK       I    between atoms: C_4  and  N_5 
REMARK    2  A    between atoms: C_7  and  N_8 
REMARK    3  A    between atoms: N_8  and  C_9 
REMARK    4  A    between atoms: C_9  and  C_10 
REMARK    5  A    between atoms: C_10  and  C_11 
ROOT
HETATM    1  C   UNL     1     -16.165   2.215 -32.170  1.00  0.00     0.049 C 
HETATM    2  C   UNL     1     -14.701   2.532 -32.314  1.00  0.00    -0.041 A 
HETATM    3  C   UNL     1     -13.853   1.780 -33.143  1.00  0.00     0.081 A 
HETATM    4  C   UNL     1     -12.473   2.068 -33.229  1.00  0.00     0.117 A 
HETATM    5  N   UNL     1     -12.005   3.060 -32.449  1.00  0.00    -0.346 N 
HETATM    6  H   UNL     1     -11.006   3.230 -32.456  1.00  0.00     0.167 HD
HETATM    7  C   UNL     1     -12.769   3.811 -31.635  1.00  0.00     0.007 A 
HETATM    8  C   UNL     1     -12.117   4.880 -30.816  1.00  0.00     0.068 C 
HETATM    9  C   UNL     1     -14.138   3.559 -31.556  1.00  0.00     0.032 A 
ENDROOT
BRANCH   4  10
HETATM   10  N   UNL     1     -11.588   1.302 -33.980  1.00  0.00    -0.375 N 
HETATM   11  H   UNL     1     -11.470   1.660 -34.933  1.00  0.00     0.161 HD
BRANCH  10  12
HETATM   12  C   UNL     1     -10.371   0.722 -33.423  1.00  0.00     0.126 C 
BRANCH  12  13
HETATM   13  C   UNL     1      -9.134   1.173 -34.210  1.00  0.00     0.058 C 
BRANCH  13  14
HETATM   14  C   UNL     1      -7.984   0.225 -33.971  1.00  0.00    -0.057 A 
HETATM   15  C   UNL     1      -7.394   0.139 -32.701  1.00  0.00     0.010 A 
HETATM   16  C   UNL     1      -6.296  -0.697 -32.489  1.00  0.00     0.043 A 
HETATM   17  C   UNL     1      -5.788  -1.442 -33.545  1.00  0.00     0.116 A 
HETATM   18  F   UNL     1      -4.727  -2.234 -33.343  1.00  0.00    -0.206 F 
HETATM   19  C   UNL     1      -6.361  -1.374 -34.809  1.00  0.00     0.043 A 
HETATM   20  C   UNL     1      -7.460  -0.541 -35.025  1.00  0.00     0.010 A 
ENDBRANCH  13  14
ENDBRANCH  12  13
ENDBRANCH  10  12
ENDBRANCH   4  10
BRANCH   3  21
HETATM   21  C   UNL     1     -14.387   0.625 -33.878  1.00  0.00     0.253 C 
HETATM   22  N   UNL     1     -14.106  -0.608 -33.359  1.00  0.00    -0.366 N 
HETATM   23  H   UNL     1     -13.331  -0.772 -32.730  1.00  0.00     0.159 HD
HETATM   24  H   UNL     1     -14.365  -1.393 -33.953  1.00  0.00     0.159 HD
HETATM   25  O   UNL     1     -15.034   0.785 -34.899  1.00  0.00    -0.268 OA
ENDBRANCH   3  21
TORSDOF 5
ENDMDL
MODEL 10
REMARK VINA RESULT:      -7.2      3.289      6.404
REMARK  5 active torsions:
REMARK  status: ('A' for Active; 'I' for Inactive)
REMARK    1  A    between atoms: C_3  and  C_4 
REMARK       I    between atoms: C_4  and  N_5 
REMARK    2  A    between atoms: C_7  and  N_8 
REMARK    3  A    between atoms: N_8  and  C_9 
REMARK    4  A    between atoms: C_9  and  C_10 
REMARK    5  A    between atoms: C_10  and  C_11 
ROOT
HETATM    1  C   UNL     1      -6.716  -2.587 -34.509  1.00  0.00     0.049 C 
HETATM    2  C   UNL     1      -5.995  -1.514 -33.739  1.00  0.00    -0.041 A 
HETATM    3  C   UNL     1      -6.534  -0.228 -33.569  1.00  0.00     0.081 A 
HETATM    4  C   UNL     1      -5.821   0.777 -32.879  1.00  0.00     0.117 A 
HETATM    5  N   UNL     1      -4.590   0.459 -32.437  1.00  0.00    -0.346 N 
HETATM    6  H   UNL     1      -4.045   1.194 -31.998  1.00  0.00     0.167 HD
HETATM    7  C   UNL     1      -4.022  -0.753 -32.573  1.00  0.00     0.007 A 
HETATM    8  C   UNL     1      -2.642  -0.967 -32.039  1.00  0.00     0.068 C 
HETATM    9  C   UNL     1      -4.721  -1.766 -33.228  1.00  0.00     0.032 A 
ENDROOT
BRANCH   4  10
HETATM   10  N   UNL     1      -6.287   2.081 -32.753  1.00  0.00    -0.375 N 
HETATM   11  H   UNL     1      -7.286   2.164 -32.967  1.00  0.00     0.161 HD
BRANCH  10  12
HETATM   12  C   UNL     1      -5.843   2.983 -31.695  1.00  0.00     0.126 C 
BRANCH  12  13
HETATM   13  C   UNL     1      -5.775   4.430 -32.196  1.00  0.00     0.058 C 
BRANCH  13  14
HETATM   14  C   UNL     1      -4.534   4.642 -33.028  1.00  0.00    -0.057 A 
HETATM   15  C   UNL     1      -4.640   5.123 -34.342  1.00  0.00     0.010 A 
HETATM   16  C   UNL     1      -3.499   5.271 -35.133  1.00  0.00     0.043 A 
HETATM   17  C   UNL     1      -2.255   4.935 -34.612  1.00  0.00     0.116 A 
HETATM   18  F   UNL     1      -1.164   5.065 -35.376  1.00  0.00    -0.206 F 
HETATM   19  C   UNL     1      -2.130   4.461 -33.312  1.00  0.00     0.043 A 
HETATM   20  C   UNL     1      -3.267   4.314 -32.517  1.00  0.00     0.010 A 
ENDBRANCH  13  14
ENDBRANCH  12  13
ENDBRANCH  10  12
ENDBRANCH   4  10
BRANCH   3  21
HETATM   21  C   UNL     1      -7.827   0.108 -34.180  1.00  0.00     0.253 C 
HETATM   22  N   UNL     1      -7.809   0.408 -35.513  1.00  0.00    -0.366 N 
HETATM   23  H   UNL     1      -6.972   0.712 -35.993  1.00  0.00     0.159 HD
HETATM   24  H   UNL     1      -8.685   0.770 -35.884  1.00  0.00     0.159 HD
HETATM   25  O   UNL     1      -8.845   0.122 -33.509  1.00  0.00    -0.268 OA
ENDBRANCH   3  21
TORSDOF 5
ENDMDL
