MODEL 1
REMARK VINA RESULT:      -8.0      0.000      0.000
REMARK  8 active torsions:
REMARK  status: ('A' for Active; 'I' for Inactive)
REMARK    1  A    between atoms: C_2  and  C_3 
REMARK    2  A    between atoms: C_3  and  O_4 
REMARK    3  A    between atoms: O_4  and  C_5 
REMARK    4  A    between atoms: C_8  and  C_9 
REMARK    5  A    between atoms: C_13  and  C_14 
REMARK       I    between atoms: C_14  and  N_15 
REMARK    6  A    between atoms: N_15  and  N_16 
REMARK    7  A    between atoms: C_17  and  C_18 
REMARK    8  A    between atoms: C_20  and  O_21 
ROOT
HETATM    1  C   UNL     1      -0.141   6.818 -29.101  1.00  0.00     0.089 A 
HETATM    2  N   UNL     1       0.457   5.639 -28.872  1.00  0.00    -0.174 NA
HETATM    3  N   UNL     1      -0.050   4.814 -29.802  1.00  0.00    -0.272 N 
HETATM    4  H   UNL     1       0.275   3.851 -29.838  1.00  0.00     0.189 HD
HETATM    5  C   UNL     1      -0.985   5.391 -30.615  1.00  0.00     0.121 A 
HETATM    6  C   UNL     1      -1.064   6.699 -30.179  1.00  0.00     0.071 A 
ENDROOT
BRANCH   5   7
HETATM    7  C   UNL     1      -1.644   4.654 -31.666  1.00  0.00     0.289 C 
HETATM    8  N   UNL     1      -2.549   3.707 -31.209  1.00  0.00    -0.242 N 
HETATM    9  H   UNL     1      -2.670   3.560 -30.216  1.00  0.00     0.192 HD
HETATM   10  O   UNL     1      -1.400   4.872 -32.849  1.00  0.00    -0.264 OA
BRANCH   8  11
HETATM   11  N   UNL     1      -3.301   2.975 -32.079  1.00  0.00    -0.184 NA
HETATM   12  C   UNL     1      -3.486   1.739 -31.738  1.00  0.00     0.150 C 
BRANCH  12  13
HETATM   13  C   UNL     1      -4.300   0.814 -32.549  1.00  0.00    -0.014 A 
HETATM   14  C   UNL     1      -3.836  -0.474 -32.846  1.00  0.00     0.049 A 
HETATM   15  C   UNL     1      -4.614  -1.325 -33.630  1.00  0.00     0.069 A 
HETATM   16  C   UNL     1      -5.852  -0.880 -34.106  1.00  0.00     0.037 A 
HETATM   17  C   UNL     1      -6.315   0.403 -33.808  1.00  0.00     0.004 A 
HETATM   18  C   UNL     1      -5.537   1.256 -33.027  1.00  0.00     0.013 A 
BRANCH  15  19
HETATM   19  O   UNL     1      -4.286  -2.600 -34.003  1.00  0.00    -0.356 OA
HETATM   20  C   UNL     1      -5.192  -3.264 -34.876  1.00  0.00     0.210 C 
ENDBRANCH  15  19
ENDBRANCH  12  13
ENDBRANCH   8  11
ENDBRANCH   5   7
BRANCH   1  21
HETATM   21  C   UNL     1       0.150   8.015 -28.308  1.00  0.00    -0.005 A 
HETATM   22  C   UNL     1      -0.858   8.947 -28.024  1.00  0.00     0.016 A 
HETATM   23  C   UNL     1      -0.596  10.074 -27.235  1.00  0.00     0.037 A 
HETATM   24  C   UNL     1       0.679  10.284 -26.714  1.00  0.00     0.068 A 
HETATM   25  C   UNL     1       1.695   9.374 -27.014  1.00  0.00     0.037 A 
HETATM   26  C   UNL     1       1.434   8.248 -27.804  1.00  0.00     0.016 A 
BRANCH  24  27
HETATM   27  O   UNL     1       1.054  11.331 -25.917  1.00  0.00    -0.351 OA
BRANCH  27  28
HETATM   28  C   UNL     1       1.926  11.028 -24.828  1.00  0.00     0.175 C 
BRANCH  28  29
HETATM   29  C   UNL     1       1.109  11.053 -23.541  1.00  0.00     0.022 C 
HETATM   30  C   UNL     1       1.431   9.867 -22.648  1.00  0.00     0.007 C 
ENDBRANCH  28  29
ENDBRANCH  27  28
ENDBRANCH  24  27
ENDBRANCH   1  21
TORSDOF 8
ENDMDL
MODEL 2
REMARK VINA RESULT:      -7.7      1.150      1.744
REMARK  8 active torsions:
REMARK  status: ('A' for Active; 'I' for Inactive)
REMARK    1  A    between atoms: C_2  and  C_3 
REMARK    2  A    between atoms: C_3  and  O_4 
REMARK    3  A    between atoms: O_4  and  C_5 
REMARK    4  A    between atoms: C_8  and  C_9 
REMARK    5  A    between atoms: C_13  and  C_14 
REMARK       I    between atoms: C_14  and  N_15 
REMARK    6  A    between atoms: N_15  and  N_16 
REMARK    7  A    between atoms: C_17  and  C_18 
REMARK    8  A    between atoms: C_20  and  O_21 
ROOT
HETATM    1  C   UNL     1      -0.009   6.771 -28.914  1.00  0.00     0.089 A 
HETATM    2  N   UNL     1       0.583   5.575 -28.773  1.00  0.00    -0.174 NA
HETATM    3  N   UNL     1       0.046   4.814 -29.741  1.00  0.00    -0.272 N 
HETATM    4  H   UNL     1       0.360   3.853 -29.845  1.00  0.00     0.189 HD
HETATM    5  C   UNL     1      -0.902   5.449 -30.493  1.00  0.00     0.121 A 
HETATM    6  C   UNL     1      -0.957   6.727 -29.975  1.00  0.00     0.071 A 
ENDROOT
BRANCH   5   7
HETATM    7  C   UNL     1      -1.593   4.785 -31.572  1.00  0.00     0.289 C 
HETATM    8  N   UNL     1      -2.552   3.874 -31.152  1.00  0.00    -0.242 N 
HETATM    9  H   UNL     1      -2.687   3.701 -30.166  1.00  0.00     0.192 HD
HETATM   10  O   UNL     1      -1.329   5.029 -32.746  1.00  0.00    -0.264 OA
BRANCH   8  11
HETATM   11  N   UNL     1      -3.337   3.214 -32.051  1.00  0.00    -0.184 NA
HETATM   12  C   UNL     1      -3.593   1.980 -31.753  1.00  0.00     0.150 C 
BRANCH  12  13
HETATM   13  C   UNL     1      -4.450   1.129 -32.599  1.00  0.00    -0.014 A 
HETATM   14  C   UNL     1      -5.583   1.658 -33.230  1.00  0.00     0.049 A 
HETATM   15  C   UNL     1      -6.389   0.831 -34.011  1.00  0.00     0.069 A 
HETATM   16  C   UNL     1      -6.050  -0.519 -34.156  1.00  0.00     0.037 A 
HETATM   17  C   UNL     1      -4.919  -1.045 -33.529  1.00  0.00     0.004 A 
HETATM   18  C   UNL     1      -4.114  -0.220 -32.746  1.00  0.00     0.013 A 
BRANCH  15  19
HETATM   19  O   UNL     1      -7.523   1.208 -34.676  1.00  0.00    -0.356 OA
HETATM   20  C   UNL     1      -8.759   0.995 -34.005  1.00  0.00     0.210 C 
ENDBRANCH  15  19
ENDBRANCH  12  13
ENDBRANCH   8  11
ENDBRANCH   5   7
BRANCH   1  21
HETATM   21  C   UNL     1       0.314   7.913 -28.056  1.00  0.00    -0.005 A 
HETATM   22  C   UNL     1      -0.551   9.014 -27.975  1.00  0.00     0.016 A 
HETATM   23  C   UNL     1      -0.268  10.092 -27.128  1.00  0.00     0.037 A 
HETATM   24  C   UNL     1       0.884  10.084 -26.343  1.00  0.00     0.068 A 
HETATM   25  C   UNL     1       1.762   9.004 -26.437  1.00  0.00     0.037 A 
HETATM   26  C   UNL     1       1.482   7.926 -27.285  1.00  0.00     0.016 A 
BRANCH  24  27
HETATM   27  O   UNL     1       1.259  11.064 -25.465  1.00  0.00    -0.351 OA
BRANCH  27  28
HETATM   28  C   UNL     1       2.218  10.702 -24.471  1.00  0.00     0.175 C 
BRANCH  28  29
HETATM   29  C   UNL     1       1.670  11.108 -23.108  1.00  0.00     0.022 C 
HETATM   30  C   UNL     1       0.579  10.162 -22.637  1.00  0.00     0.007 C 
ENDBRANCH  28  29
ENDBRANCH  27  28
ENDBRANCH  24  27
ENDBRANCH   1  21
TORSDOF 8
ENDMDL
MODEL 3
REMARK VINA RESULT:      -7.6      1.624     12.131
REMARK  8 active torsions:
REMARK  status: ('A' for Active; 'I' for Inactive)
REMARK    1  A    between atoms: C_2  and  C_3 
REMARK    2  A    between atoms: C_3  and  O_4 
REMARK    3  A    between atoms: O_4  and  C_5 
REMARK    4  A    between atoms: C_8  and  C_9 
REMARK    5  A    between atoms: C_13  and  C_14 
REMARK       I    between atoms: C_14  and  N_15 
REMARK    6  A    between atoms: N_15  and  N_16 
REMARK    7  A    between atoms: C_17  and  C_18 
REMARK    8  A    between atoms: C_20  and  O_21 
ROOT
HETATM    1  C   UNL     1      -4.203   2.800 -32.196  1.00  0.00     0.089 A 
HETATM    2  N   UNL     1      -5.194   3.618 -31.810  1.00  0.00    -0.174 NA
HETATM    3  N   UNL     1      -4.576   4.755 -31.451  1.00  0.00    -0.272 N 
HETATM    4  H   UNL     1      -5.135   5.543 -31.135  1.00  0.00     0.189 HD
HETATM    5  C   UNL     1      -3.213   4.708 -31.550  1.00  0.00     0.121 A 
HETATM    6  C   UNL     1      -2.944   3.444 -32.034  1.00  0.00     0.071 A 
ENDROOT
BRANCH   5   7
HETATM    7  C   UNL     1      -2.382   5.834 -31.197  1.00  0.00     0.289 C 
HETATM    8  N   UNL     1      -2.033   5.879 -29.855  1.00  0.00    -0.242 N 
HETATM    9  H   UNL     1      -2.387   5.181 -29.216  1.00  0.00     0.192 HD
HETATM   10  O   UNL     1      -2.035   6.659 -32.036  1.00  0.00    -0.264 OA
BRANCH   8  11
HETATM   11  N   UNL     1      -1.196   6.844 -29.378  1.00  0.00    -0.184 NA
HETATM   12  C   UNL     1      -1.111   6.906 -28.087  1.00  0.00     0.150 C 
BRANCH  12  13
HETATM   13  C   UNL     1      -0.230   7.871 -27.403  1.00  0.00    -0.014 A 
HETATM   14  C   UNL     1      -0.616   8.460 -26.193  1.00  0.00     0.049 A 
HETATM   15  C   UNL     1       0.225   9.384 -25.574  1.00  0.00     0.069 A 
HETATM   16  C   UNL     1       1.448   9.706 -26.171  1.00  0.00     0.037 A 
HETATM   17  C   UNL     1       1.834   9.117 -27.377  1.00  0.00     0.004 A 
HETATM   18  C   UNL     1       0.994   8.196 -27.998  1.00  0.00     0.013 A 
BRANCH  15  19
HETATM   19  O   UNL     1      -0.025  10.039 -24.399  1.00  0.00    -0.356 OA
HETATM   20  C   UNL     1      -1.268   9.761 -23.765  1.00  0.00     0.210 C 
ENDBRANCH  15  19
ENDBRANCH  12  13
ENDBRANCH   8  11
ENDBRANCH   5   7
BRANCH   1  21
HETATM   21  C   UNL     1      -4.451   1.443 -32.691  1.00  0.00    -0.005 A 
HETATM   22  C   UNL     1      -3.457   0.458 -32.607  1.00  0.00     0.016 A 
HETATM   23  C   UNL     1      -3.700  -0.850 -33.043  1.00  0.00     0.037 A 
HETATM   24  C   UNL     1      -4.945  -1.195 -33.567  1.00  0.00     0.068 A 
HETATM   25  C   UNL     1      -5.931  -0.214 -33.677  1.00  0.00     0.037 A 
HETATM   26  C   UNL     1      -5.689   1.095 -33.243  1.00  0.00     0.016 A 
BRANCH  24  27
HETATM   27  O   UNL     1      -5.310  -2.438 -34.006  1.00  0.00    -0.351 OA
BRANCH  27  28
HETATM   28  C   UNL     1      -6.624  -2.566 -34.548  1.00  0.00     0.175 C 
BRANCH  28  29
HETATM   29  C   UNL     1      -6.873  -4.039 -34.856  1.00  0.00     0.022 C 
HETATM   30  C   UNL     1      -5.588  -4.846 -34.813  1.00  0.00     0.007 C 
ENDBRANCH  28  29
ENDBRANCH  27  28
ENDBRANCH  24  27
ENDBRANCH   1  21
TORSDOF 8
ENDMDL
MODEL 4
REMARK VINA RESULT:      -7.5      9.835     13.661
REMARK  8 active torsions:
REMARK  status: ('A' for Active; 'I' for Inactive)
REMARK    1  A    between atoms: C_2  and  C_3 
REMARK    2  A    between atoms: C_3  and  O_4 
REMARK    3  A    between atoms: O_4  and  C_5 
REMARK    4  A    between atoms: C_8  and  C_9 
REMARK    5  A    between atoms: C_13  and  C_14 
REMARK       I    between atoms: C_14  and  N_15 
REMARK    6  A    between atoms: N_15  and  N_16 
REMARK    7  A    between atoms: C_17  and  C_18 
REMARK    8  A    between atoms: C_20  and  O_21 
ROOT
HETATM    1  C   UNL     1      -8.677   0.431 -33.003  1.00  0.00     0.089 A 
HETATM    2  N   UNL     1      -8.945   0.944 -31.792  1.00  0.00    -0.174 NA
HETATM    3  N   UNL     1     -10.109   1.595 -31.949  1.00  0.00    -0.272 N 
HETATM    4  H   UNL     1     -10.528   2.057 -31.146  1.00  0.00     0.189 HD
HETATM    5  C   UNL     1     -10.603   1.563 -33.223  1.00  0.00     0.121 A 
HETATM    6  C   UNL     1      -9.688   0.809 -33.930  1.00  0.00     0.071 A 
ENDROOT
BRANCH   5   7
HETATM    7  C   UNL     1     -11.839   2.216 -33.580  1.00  0.00     0.289 C 
HETATM    8  N   UNL     1     -12.952   1.722 -32.915  1.00  0.00    -0.242 N 
HETATM    9  H   UNL     1     -12.855   0.946 -32.275  1.00  0.00     0.192 HD
HETATM   10  O   UNL     1     -11.866   3.125 -34.404  1.00  0.00    -0.264 OA
BRANCH   8  11
HETATM   11  N   UNL     1     -14.184   2.280 -33.093  1.00  0.00    -0.184 NA
HETATM   12  C   UNL     1     -14.726   2.763 -32.021  1.00  0.00     0.150 C 
BRANCH  12  13
HETATM   13  C   UNL     1     -16.042   3.428 -32.038  1.00  0.00    -0.014 A 
HETATM   14  C   UNL     1     -16.157   4.794 -31.753  1.00  0.00     0.049 A 
HETATM   15  C   UNL     1     -17.414   5.399 -31.757  1.00  0.00     0.069 A 
HETATM   16  C   UNL     1     -18.544   4.629 -32.051  1.00  0.00     0.037 A 
HETATM   17  C   UNL     1     -18.429   3.267 -32.337  1.00  0.00     0.004 A 
HETATM   18  C   UNL     1     -17.174   2.662 -32.331  1.00  0.00     0.013 A 
BRANCH  15  19
HETATM   19  O   UNL     1     -17.675   6.715 -31.492  1.00  0.00    -0.356 OA
HETATM   20  C   UNL     1     -18.131   7.509 -32.581  1.00  0.00     0.210 C 
ENDBRANCH  15  19
ENDBRANCH  12  13
ENDBRANCH   8  11
ENDBRANCH   5   7
BRANCH   1  21
HETATM   21  C   UNL     1      -7.488  -0.383 -33.266  1.00  0.00    -0.005 A 
HETATM   22  C   UNL     1      -7.468  -1.298 -34.328  1.00  0.00     0.016 A 
HETATM   23  C   UNL     1      -6.322  -2.052 -34.609  1.00  0.00     0.037 A 
HETATM   24  C   UNL     1      -5.174  -1.899 -33.833  1.00  0.00     0.068 A 
HETATM   25  C   UNL     1      -5.194  -1.008 -32.759  1.00  0.00     0.037 A 
HETATM   26  C   UNL     1      -6.340  -0.255 -32.475  1.00  0.00     0.016 A 
BRANCH  24  27
HETATM   27  O   UNL     1      -3.991  -2.559 -34.019  1.00  0.00    -0.351 OA
BRANCH  27  28
HETATM   28  C   UNL     1      -4.073  -3.954 -34.310  1.00  0.00     0.175 C 
BRANCH  28  29
HETATM   29  C   UNL     1      -3.394  -4.719 -33.180  1.00  0.00     0.022 C 
HETATM   30  C   UNL     1      -3.061  -3.812 -32.008  1.00  0.00     0.007 C 
ENDBRANCH  28  29
ENDBRANCH  27  28
ENDBRANCH  24  27
ENDBRANCH   1  21
TORSDOF 8
ENDMDL
MODEL 5
REMARK VINA RESULT:      -7.4      4.340     12.578
REMARK  8 active torsions:
REMARK  status: ('A' for Active; 'I' for Inactive)
REMARK    1  A    between atoms: C_2  and  C_3 
REMARK    2  A    between atoms: C_3  and  O_4 
REMARK    3  A    between atoms: O_4  and  C_5 
REMARK    4  A    between atoms: C_8  and  C_9 
REMARK    5  A    between atoms: C_13  and  C_14 
REMARK       I    between atoms: C_14  and  N_15 
REMARK    6  A    between atoms: N_15  and  N_16 
REMARK    7  A    between atoms: C_17  and  C_18 
REMARK    8  A    between atoms: C_20  and  O_21 
ROOT
HETATM    1  C   UNL     1      -0.182   7.673 -28.611  1.00  0.00     0.089 A 
HETATM    2  N   UNL     1      -0.776   6.906 -27.683  1.00  0.00    -0.174 NA
HETATM    3  N   UNL     1      -0.310   7.368 -26.512  1.00  0.00    -0.272 N 
HETATM    4  H   UNL     1      -0.640   6.945 -25.648  1.00  0.00     0.189 HD
HETATM    5  C   UNL     1       0.595   8.386 -26.630  1.00  0.00     0.121 A 
HETATM    6  C   UNL     1       0.696   8.604 -27.989  1.00  0.00     0.071 A 
ENDROOT
BRANCH   5   7
HETATM    7  C   UNL     1       1.209   9.000 -25.477  1.00  0.00     0.289 C 
HETATM    8  N   UNL     1       2.586   8.849 -25.423  1.00  0.00    -0.242 N 
HETATM    9  H   UNL     1       3.065   8.315 -26.135  1.00  0.00     0.192 HD
HETATM   10  O   UNL     1       0.539   9.594 -24.637  1.00  0.00    -0.264 OA
BRANCH   8  11
HETATM   11  N   UNL     1       3.320   9.430 -24.431  1.00  0.00    -0.184 NA
HETATM   12  C   UNL     1       3.522   8.685 -23.391  1.00  0.00     0.150 C 
BRANCH  12  13
HETATM   13  C   UNL     1       4.319   9.145 -22.238  1.00  0.00    -0.014 A 
HETATM   14  C   UNL     1       4.853   8.226 -21.327  1.00  0.00     0.049 A 
HETATM   15  C   UNL     1       5.589   8.684 -20.234  1.00  0.00     0.069 A 
HETATM   16  C   UNL     1       5.786  10.059 -20.067  1.00  0.00     0.037 A 
HETATM   17  C   UNL     1       5.254  10.975 -20.978  1.00  0.00     0.004 A 
HETATM   18  C   UNL     1       4.517  10.518 -22.069  1.00  0.00     0.013 A 
BRANCH  15  19
HETATM   19  O   UNL     1       6.160   7.906 -19.265  1.00  0.00    -0.356 OA
HETATM   20  C   UNL     1       7.582   7.886 -19.216  1.00  0.00     0.210 C 
ENDBRANCH  15  19
ENDBRANCH  12  13
ENDBRANCH   8  11
ENDBRANCH   5   7
BRANCH   1  21
HETATM   21  C   UNL     1      -0.436   7.511 -30.045  1.00  0.00    -0.005 A 
HETATM   22  C   UNL     1       0.420   6.738 -30.840  1.00  0.00     0.016 A 
HETATM   23  C   UNL     1       0.163   6.548 -32.203  1.00  0.00     0.037 A 
HETATM   24  C   UNL     1      -0.960   7.126 -32.792  1.00  0.00     0.068 A 
HETATM   25  C   UNL     1      -1.804   7.919 -32.013  1.00  0.00     0.037 A 
HETATM   26  C   UNL     1      -1.546   8.112 -30.650  1.00  0.00     0.016 A 
BRANCH  24  27
HETATM   27  O   UNL     1      -1.330   6.999 -34.103  1.00  0.00    -0.351 OA
BRANCH  27  28
HETATM   28  C   UNL     1      -1.307   5.681 -34.651  1.00  0.00     0.175 C 
BRANCH  28  29
HETATM   29  C   UNL     1      -2.558   4.947 -34.183  1.00  0.00     0.022 C 
HETATM   30  C   UNL     1      -3.748   5.237 -35.081  1.00  0.00     0.007 C 
ENDBRANCH  28  29
ENDBRANCH  27  28
ENDBRANCH  24  27
ENDBRANCH   1  21
TORSDOF 8
ENDMDL
MODEL 6
REMARK VINA RESULT:      -7.4      4.676     12.927
REMARK  8 active torsions:
REMARK  status: ('A' for Active; 'I' for Inactive)
REMARK    1  A    between atoms: C_2  and  C_3 
REMARK    2  A    between atoms: C_3  and  O_4 
REMARK    3  A    between atoms: O_4  and  C_5 
REMARK    4  A    between atoms: C_8  and  C_9 
REMARK    5  A    between atoms: C_13  and  C_14 
REMARK       I    between atoms: C_14  and  N_15 
REMARK    6  A    between atoms: N_15  and  N_16 
REMARK    7  A    between atoms: C_17  and  C_18 
REMARK    8  A    between atoms: C_20  and  O_21 
ROOT
HETATM    1  C   UNL     1       0.620   7.717 -27.236  1.00  0.00     0.089 A 
HETATM    2  N   UNL     1      -0.364   8.219 -26.474  1.00  0.00    -0.174 NA
HETATM    3  N   UNL     1       0.269   8.817 -25.452  1.00  0.00    -0.272 N 
HETATM    4  H   UNL     1      -0.281   9.292 -24.741  1.00  0.00     0.189 HD
HETATM    5  C   UNL     1       1.630   8.701 -25.490  1.00  0.00     0.121 A 
HETATM    6  C   UNL     1       1.886   7.988 -26.644  1.00  0.00     0.071 A 
ENDROOT
BRANCH   5   7
HETATM    7  C   UNL     1       2.475   9.273 -24.469  1.00  0.00     0.289 C 
HETATM    8  N   UNL     1       2.961   8.349 -23.555  1.00  0.00    -0.242 N 
HETATM    9  H   UNL     1       2.686   7.379 -23.622  1.00  0.00     0.192 HD
HETATM   10  O   UNL     1       2.719  10.476 -24.442  1.00  0.00    -0.264 OA
BRANCH   8  11
HETATM   11  N   UNL     1       3.827   8.723 -22.570  1.00  0.00    -0.184 NA
HETATM   12  C   UNL     1       4.539   7.762 -22.074  1.00  0.00     0.150 C 
BRANCH  12  13
HETATM   13  C   UNL     1       5.546   7.993 -21.021  1.00  0.00    -0.014 A 
HETATM   14  C   UNL     1       6.581   7.075 -20.807  1.00  0.00     0.049 A 
HETATM   15  C   UNL     1       7.512   7.305 -19.794  1.00  0.00     0.069 A 
HETATM   16  C   UNL     1       7.399   8.457 -19.007  1.00  0.00     0.037 A 
HETATM   17  C   UNL     1       6.367   9.373 -19.223  1.00  0.00     0.004 A 
HETATM   18  C   UNL     1       5.436   9.143 -20.232  1.00  0.00     0.013 A 
BRANCH  15  19
HETATM   19  O   UNL     1       8.565   6.495 -19.470  1.00  0.00    -0.356 OA
HETATM   20  C   UNL     1       8.431   5.115 -19.785  1.00  0.00     0.210 C 
ENDBRANCH  15  19
ENDBRANCH  12  13
ENDBRANCH   8  11
ENDBRANCH   5   7
BRANCH   1  21
HETATM   21  C   UNL     1       0.358   6.993 -28.482  1.00  0.00    -0.005 A 
HETATM   22  C   UNL     1       0.767   5.661 -28.635  1.00  0.00     0.016 A 
HETATM   23  C   UNL     1       0.487   4.951 -29.809  1.00  0.00     0.037 A 
HETATM   24  C   UNL     1      -0.212   5.561 -30.848  1.00  0.00     0.068 A 
HETATM   25  C   UNL     1      -0.601   6.895 -30.714  1.00  0.00     0.037 A 
HETATM   26  C   UNL     1      -0.320   7.608 -29.542  1.00  0.00     0.016 A 
BRANCH  24  27
HETATM   27  O   UNL     1      -0.564   4.970 -32.031  1.00  0.00    -0.351 OA
BRANCH  27  28
HETATM   28  C   UNL     1      -1.913   4.520 -32.147  1.00  0.00     0.175 C 
BRANCH  28  29
HETATM   29  C   UNL     1      -2.332   4.637 -33.608  1.00  0.00     0.022 C 
HETATM   30  C   UNL     1      -1.310   5.408 -34.425  1.00  0.00     0.007 C 
ENDBRANCH  28  29
ENDBRANCH  27  28
ENDBRANCH  24  27
ENDBRANCH   1  21
TORSDOF 8
ENDMDL
MODEL 7
REMARK VINA RESULT:      -7.3      2.184      3.003
REMARK  8 active torsions:
REMARK  status: ('A' for Active; 'I' for Inactive)
REMARK    1  A    between atoms: C_2  and  C_3 
REMARK    2  A    between atoms: C_3  and  O_4 
REMARK    3  A    between atoms: O_4  and  C_5 
REMARK    4  A    between atoms: C_8  and  C_9 
REMARK    5  A    between atoms: C_13  and  C_14 
REMARK       I    between atoms: C_14  and  N_15 
REMARK    6  A    between atoms: N_15  and  N_16 
REMARK    7  A    between atoms: C_17  and  C_18 
REMARK    8  A    between atoms: C_20  and  O_21 
ROOT
HETATM    1  C   UNL     1      -2.639   6.531 -30.922  1.00  0.00     0.089 A 
HETATM    2  N   UNL     1      -3.532   7.338 -31.517  1.00  0.00    -0.174 NA
HETATM    3  N   UNL     1      -4.351   6.506 -32.180  1.00  0.00    -0.272 N 
HETATM    4  H   UNL     1      -5.133   6.894 -32.701  1.00  0.00     0.189 HD
HETATM    5  C   UNL     1      -4.015   5.185 -32.076  1.00  0.00     0.121 A 
HETATM    6  C   UNL     1      -2.902   5.174 -31.260  1.00  0.00     0.071 A 
ENDROOT
BRANCH   5   7
HETATM    7  C   UNL     1      -4.777   4.148 -32.730  1.00  0.00     0.289 C 
HETATM    8  N   UNL     1      -4.532   2.874 -32.240  1.00  0.00    -0.242 N 
HETATM    9  H   UNL     1      -3.844   2.735 -31.513  1.00  0.00     0.192 HD
HETATM   10  O   UNL     1      -5.561   4.408 -33.637  1.00  0.00    -0.264 OA
BRANCH   8  11
HETATM   11  N   UNL     1      -5.224   1.795 -32.708  1.00  0.00    -0.184 NA
HETATM   12  C   UNL     1      -4.489   0.808 -33.111  1.00  0.00     0.150 C 
BRANCH  12  13
HETATM   13  C   UNL     1      -5.073  -0.448 -33.620  1.00  0.00    -0.014 A 
HETATM   14  C   UNL     1      -4.329  -1.634 -33.621  1.00  0.00     0.049 A 
HETATM   15  C   UNL     1      -4.894  -2.805 -34.123  1.00  0.00     0.069 A 
HETATM   16  C   UNL     1      -6.203  -2.778 -34.617  1.00  0.00     0.037 A 
HETATM   17  C   UNL     1      -6.945  -1.596 -34.615  1.00  0.00     0.004 A 
HETATM   18  C   UNL     1      -6.380  -0.424 -34.115  1.00  0.00     0.013 A 
BRANCH  15  19
HETATM   19  O   UNL     1      -4.285  -4.028 -34.192  1.00  0.00    -0.356 OA
HETATM   20  C   UNL     1      -5.097  -5.126 -34.591  1.00  0.00     0.210 C 
ENDBRANCH  15  19
ENDBRANCH  12  13
ENDBRANCH   8  11
ENDBRANCH   5   7
BRANCH   1  21
HETATM   21  C   UNL     1      -1.564   7.044 -30.069  1.00  0.00    -0.005 A 
HETATM   22  C   UNL     1      -0.233   6.660 -30.287  1.00  0.00     0.016 A 
HETATM   23  C   UNL     1       0.804   7.175 -29.501  1.00  0.00     0.037 A 
HETATM   24  C   UNL     1       0.527   8.086 -28.483  1.00  0.00     0.068 A 
HETATM   25  C   UNL     1      -0.798   8.454 -28.243  1.00  0.00     0.037 A 
HETATM   26  C   UNL     1      -1.837   7.938 -29.028  1.00  0.00     0.016 A 
BRANCH  24  27
HETATM   27  O   UNL     1       1.451   8.674 -27.663  1.00  0.00    -0.351 OA
BRANCH  27  28
HETATM   28  C   UNL     1       1.836   7.939 -26.501  1.00  0.00     0.175 C 
BRANCH  28  29
HETATM   29  C   UNL     1       1.689   8.852 -25.288  1.00  0.00     0.022 C 
HETATM   30  C   UNL     1       3.036   9.190 -24.674  1.00  0.00     0.007 C 
ENDBRANCH  28  29
ENDBRANCH  27  28
ENDBRANCH  24  27
ENDBRANCH   1  21
TORSDOF 8
ENDMDL
MODEL 8
REMARK VINA RESULT:      -7.2      9.830     12.166
REMARK  8 active torsions:
REMARK  status: ('A' for Active; 'I' for Inactive)
REMARK    1  A    between atoms: C_2  and  C_3 
REMARK    2  A    between atoms: C_3  and  O_4 
REMARK    3  A    between atoms: O_4  and  C_5 
REMARK    4  A    between atoms: C_8  and  C_9 
REMARK    5  A    between atoms: C_13  and  C_14 
REMARK       I    between atoms: C_14  and  N_15 
REMARK    6  A    between atoms: N_15  and  N_16 
REMARK    7  A    between atoms: C_17  and  C_18 
REMARK    8  A    between atoms: C_20  and  O_21 
ROOT
HETATM    1  C   UNL     1     -11.756   4.813 -34.913  1.00  0.00     0.089 A 
HETATM    2  N   UNL     1     -12.753   4.227 -34.232  1.00  0.00    -0.174 NA
HETATM    3  N   UNL     1     -12.282   3.008 -33.922  1.00  0.00    -0.272 N 
HETATM    4  H   UNL     1     -12.865   2.376 -33.380  1.00  0.00     0.189 HD
HETATM    5  C   UNL     1     -11.028   2.753 -34.401  1.00  0.00     0.121 A 
HETATM    6  C   UNL     1     -10.662   3.914 -35.051  1.00  0.00     0.071 A 
ENDROOT
BRANCH   5   7
HETATM    7  C   UNL     1     -10.365   1.491 -34.174  1.00  0.00     0.289 C 
HETATM    8  N   UNL     1      -9.108   1.401 -34.754  1.00  0.00    -0.242 N 
HETATM    9  H   UNL     1      -8.751   2.166 -35.309  1.00  0.00     0.192 HD
HETATM   10  O   UNL     1     -10.897   0.599 -33.520  1.00  0.00    -0.264 OA
BRANCH   8  11
HETATM   11  N   UNL     1      -8.327   0.297 -34.573  1.00  0.00    -0.184 NA
HETATM   12  C   UNL     1      -7.067   0.541 -34.399  1.00  0.00     0.150 C 
BRANCH  12  13
HETATM   13  C   UNL     1      -6.085  -0.534 -34.160  1.00  0.00    -0.014 A 
HETATM   14  C   UNL     1      -6.234  -1.787 -34.766  1.00  0.00     0.049 A 
HETATM   15  C   UNL     1      -5.304  -2.794 -34.511  1.00  0.00     0.069 A 
HETATM   16  C   UNL     1      -4.229  -2.534 -33.654  1.00  0.00     0.037 A 
HETATM   17  C   UNL     1      -4.080  -1.283 -33.051  1.00  0.00     0.004 A 
HETATM   18  C   UNL     1      -5.010  -0.277 -33.303  1.00  0.00     0.013 A 
BRANCH  15  19
HETATM   19  O   UNL     1      -5.328  -4.061 -35.026  1.00  0.00    -0.356 OA
HETATM   20  C   UNL     1      -6.607  -4.603 -35.332  1.00  0.00     0.210 C 
ENDBRANCH  15  19
ENDBRANCH  12  13
ENDBRANCH   8  11
ENDBRANCH   5   7
BRANCH   1  21
HETATM   21  C   UNL     1     -11.853   6.182 -35.425  1.00  0.00    -0.005 A 
HETATM   22  C   UNL     1     -13.101   6.749 -35.718  1.00  0.00     0.016 A 
HETATM   23  C   UNL     1     -13.204   8.070 -36.172  1.00  0.00     0.037 A 
HETATM   24  C   UNL     1     -12.059   8.846 -36.337  1.00  0.00     0.068 A 
HETATM   25  C   UNL     1     -10.810   8.281 -36.072  1.00  0.00     0.037 A 
HETATM   26  C   UNL     1     -10.706   6.960 -35.620  1.00  0.00     0.016 A 
BRANCH  24  27
HETATM   27  O   UNL     1     -12.030  10.150 -36.752  1.00  0.00    -0.351 OA
BRANCH  27  28
HETATM   28  C   UNL     1     -12.872  10.491 -37.853  1.00  0.00     0.175 C 
BRANCH  28  29
HETATM   29  C   UNL     1     -12.318   9.819 -39.105  1.00  0.00     0.022 C 
HETATM   30  C   UNL     1     -13.400   9.073 -39.867  1.00  0.00     0.007 C 
ENDBRANCH  28  29
ENDBRANCH  27  28
ENDBRANCH  24  27
ENDBRANCH   1  21
TORSDOF 8
ENDMDL
MODEL 9
REMARK VINA RESULT:      -7.0     19.385     22.993
REMARK  8 active torsions:
REMARK  status: ('A' for Active; 'I' for Inactive)
REMARK    1  A    between atoms: C_2  and  C_3 
REMARK    2  A    between atoms: C_3  and  O_4 
REMARK    3  A    between atoms: O_4  and  C_5 
REMARK    4  A    between atoms: C_8  and  C_9 
REMARK    5  A    between atoms: C_13  and  C_14 
REMARK       I    between atoms: C_14  and  N_15 
REMARK    6  A    between atoms: N_15  and  N_16 
REMARK    7  A    between atoms: C_17  and  C_18 
REMARK    8  A    between atoms: C_20  and  O_21 
ROOT
HETATM    1  C   UNL     1      -6.735 -15.010 -34.736  1.00  0.00     0.089 A 
HETATM    2  N   UNL     1      -7.417 -14.655 -33.636  1.00  0.00    -0.174 NA
HETATM    3  N   UNL     1      -6.636 -15.039 -32.613  1.00  0.00    -0.272 N 
HETATM    4  H   UNL     1      -6.942 -14.854 -31.662  1.00  0.00     0.189 HD
HETATM    5  C   UNL     1      -5.482 -15.665 -32.993  1.00  0.00     0.121 A 
HETATM    6  C   UNL     1      -5.521 -15.659 -34.372  1.00  0.00     0.071 A 
ENDROOT
BRANCH   5   7
HETATM    7  C   UNL     1      -4.525 -16.154 -32.029  1.00  0.00     0.289 C 
HETATM    8  N   UNL     1      -4.124 -15.205 -31.100  1.00  0.00    -0.242 N 
HETATM    9  H   UNL     1      -4.472 -14.258 -31.162  1.00  0.00     0.192 HD
HETATM   10  O   UNL     1      -4.124 -17.314 -32.060  1.00  0.00    -0.264 OA
BRANCH   8  11
HETATM   11  N   UNL     1      -3.275 -15.530 -30.084  1.00  0.00    -0.184 NA
HETATM   12  C   UNL     1      -2.043 -15.173 -30.263  1.00  0.00     0.150 C 
BRANCH  12  13
HETATM   13  C   UNL     1      -0.999 -15.420 -29.251  1.00  0.00    -0.014 A 
HETATM   14  C   UNL     1       0.182 -14.668 -29.245  1.00  0.00     0.049 A 
HETATM   15  C   UNL     1       1.164 -14.931 -28.290  1.00  0.00     0.069 A 
HETATM   16  C   UNL     1       0.951 -15.942 -27.347  1.00  0.00     0.037 A 
HETATM   17  C   UNL     1      -0.228 -16.690 -27.353  1.00  0.00     0.004 A 
HETATM   18  C   UNL     1      -1.208 -16.430 -28.308  1.00  0.00     0.013 A 
BRANCH  15  19
HETATM   19  O   UNL     1       2.364 -14.284 -28.170  1.00  0.00    -0.356 OA
HETATM   20  C   UNL     1       2.330 -12.862 -28.210  1.00  0.00     0.210 C 
ENDBRANCH  15  19
ENDBRANCH  12  13
ENDBRANCH   8  11
ENDBRANCH   5   7
BRANCH   1  21
HETATM   21  C   UNL     1      -7.233 -14.748 -36.089  1.00  0.00    -0.005 A 
HETATM   22  C   UNL     1      -7.574 -15.807 -36.942  1.00  0.00     0.016 A 
HETATM   23  C   UNL     1      -8.087 -15.565 -38.222  1.00  0.00     0.037 A 
HETATM   24  C   UNL     1      -8.270 -14.257 -38.668  1.00  0.00     0.068 A 
HETATM   25  C   UNL     1      -7.909 -13.198 -37.834  1.00  0.00     0.037 A 
HETATM   26  C   UNL     1      -7.395 -13.439 -36.554  1.00  0.00     0.016 A 
BRANCH  24  27
HETATM   27  O   UNL     1      -8.780 -13.892 -39.885  1.00  0.00    -0.351 OA
BRANCH  27  28
HETATM   28  C   UNL     1      -8.770 -12.498 -40.191  1.00  0.00     0.175 C 
BRANCH  28  29
HETATM   29  C   UNL     1     -10.212 -12.004 -40.219  1.00  0.00     0.022 C 
HETATM   30  C   UNL     1     -11.189 -13.138 -40.476  1.00  0.00     0.007 C 
ENDBRANCH  28  29
ENDBRANCH  27  28
ENDBRANCH  24  27
ENDBRANCH   1  21
TORSDOF 8
ENDMDL
MODEL 10
REMARK VINA RESULT:      -7.0     19.918     21.294
REMARK  8 active torsions:
REMARK  status: ('A' for Active; 'I' for Inactive)
REMARK    1  A    between atoms: C_2  and  C_3 
REMARK    2  A    between atoms: C_3  and  O_4 
REMARK    3  A    between atoms: O_4  and  C_5 
REMARK    4  A    between atoms: C_8  and  C_9 
REMARK    5  A    between atoms: C_13  and  C_14 
REMARK       I    between atoms: C_14  and  N_15 
REMARK    6  A    between atoms: N_15  and  N_16 
REMARK    7  A    between atoms: C_17  and  C_18 
REMARK    8  A    between atoms: C_20  and  O_21 
ROOT
HETATM    1  C   UNL     1      -4.005 -15.767 -31.058  1.00  0.00     0.089 A 
HETATM    2  N   UNL     1      -5.115 -15.584 -30.325  1.00  0.00    -0.174 NA
HETATM    3  N   UNL     1      -6.068 -15.281 -31.220  1.00  0.00    -0.272 N 
HETATM    4  H   UNL     1      -7.017 -15.116 -30.895  1.00  0.00     0.189 HD
HETATM    5  C   UNL     1      -5.626 -15.222 -32.512  1.00  0.00     0.121 A 
HETATM    6  C   UNL     1      -4.284 -15.535 -32.434  1.00  0.00     0.071 A 
ENDROOT
BRANCH   5   7
HETATM    7  C   UNL     1      -6.509 -14.902 -33.608  1.00  0.00     0.289 C 
HETATM    8  N   UNL     1      -5.905 -14.960 -34.855  1.00  0.00    -0.242 N 
HETATM    9  H   UNL     1      -4.920 -15.176 -34.931  1.00  0.00     0.192 HD
HETATM   10  O   UNL     1      -7.685 -14.607 -33.416  1.00  0.00    -0.264 OA
BRANCH   8  11
HETATM   11  N   UNL     1      -6.623 -14.750 -35.996  1.00  0.00    -0.184 NA
HETATM   12  C   UNL     1      -6.463 -13.583 -36.535  1.00  0.00     0.150 C 
BRANCH  12  13
HETATM   13  C   UNL     1      -7.141 -13.198 -37.788  1.00  0.00    -0.014 A 
HETATM   14  C   UNL     1      -8.510 -13.430 -37.961  1.00  0.00     0.049 A 
HETATM   15  C   UNL     1      -9.127 -13.075 -39.160  1.00  0.00     0.069 A 
HETATM   16  C   UNL     1      -8.365 -12.485 -40.174  1.00  0.00     0.037 A 
HETATM   17  C   UNL     1      -6.999 -12.252 -40.001  1.00  0.00     0.004 A 
HETATM   18  C   UNL     1      -6.382 -12.609 -38.804  1.00  0.00     0.013 A 
BRANCH  15  19
HETATM   19  O   UNL     1     -10.448 -13.248 -39.468  1.00  0.00    -0.356 OA
HETATM   20  C   UNL     1     -10.742 -14.111 -40.560  1.00  0.00     0.210 C 
ENDBRANCH  15  19
ENDBRANCH  12  13
ENDBRANCH   8  11
ENDBRANCH   5   7
BRANCH   1  21
HETATM   21  C   UNL     1      -2.721 -16.137 -30.460  1.00  0.00    -0.005 A 
HETATM   22  C   UNL     1      -1.567 -16.239 -31.251  1.00  0.00     0.016 A 
HETATM   23  C   UNL     1      -0.328 -16.556 -30.681  1.00  0.00     0.037 A 
HETATM   24  C   UNL     1      -0.223 -16.773 -29.308  1.00  0.00     0.068 A 
HETATM   25  C   UNL     1      -1.371 -16.700 -28.518  1.00  0.00     0.037 A 
HETATM   26  C   UNL     1      -2.611 -16.384 -29.087  1.00  0.00     0.016 A 
BRANCH  24  27
HETATM   27  O   UNL     1       0.930 -17.069 -28.632  1.00  0.00    -0.351 OA
BRANCH  27  28
HETATM   28  C   UNL     1       1.417 -16.075 -27.730  1.00  0.00     0.175 C 
BRANCH  28  29
HETATM   29  C   UNL     1       2.247 -15.073 -28.526  1.00  0.00     0.022 C 
HETATM   30  C   UNL     1       1.714 -13.659 -28.376  1.00  0.00     0.007 C 
ENDBRANCH  28  29
ENDBRANCH  27  28
ENDBRANCH  24  27
ENDBRANCH   1  21
TORSDOF 8
ENDMDL
