MODEL 1
REMARK VINA RESULT:      -9.0      0.000      0.000
REMARK  4 active torsions:
REMARK  status: ('A' for Active; 'I' for Inactive)
REMARK    1  A    between atoms: C_9  and  C_10 
REMARK       I    between atoms: C_10  and  N_11 
REMARK    2  A    between atoms: N_11  and  C_12 
REMARK    3  A    between atoms: C_15  and  N_16 
REMARK       I    between atoms: N_16  and  C_17 
REMARK       I    between atoms: C_17  and  N_18 
REMARK    4  A    between atoms: N_18  and  C_19 
ROOT
HETATM    1  C   UNL     1     -10.168   1.301 -33.844  1.00  0.00     0.035 A 
HETATM    2  C   UNL     1     -10.698   2.506 -34.304  1.00  0.00     0.032 A 
HETATM    3  C   UNL     1     -12.083   2.708 -34.341  1.00  0.00     0.032 A 
HETATM    4  C   UNL     1     -12.961   1.711 -33.918  1.00  0.00     0.036 A 
HETATM    5  C   UNL     1     -12.433   0.477 -33.525  1.00  0.00     0.032 A 
HETATM    6  C   UNL     1     -11.047   0.276 -33.481  1.00  0.00     0.032 A 
ENDROOT
BRANCH   1   7
HETATM    7  N   UNL     1      -8.795   1.070 -33.662  1.00  0.00    -0.322 N 
HETATM    8  C   UNL     1      -8.136   0.722 -32.497  1.00  0.00     0.277 C 
HETATM    9  O   UNL     1      -8.608   0.728 -31.365  1.00  0.00    -0.266 OA
HETATM   10  H   UNL     1      -8.200   1.026 -34.486  1.00  0.00     0.169 HD
BRANCH   8  11
HETATM   11  C   UNL     1      -6.753   0.284 -32.762  1.00  0.00     0.157 A 
HETATM   12  C   UNL     1      -6.342  -0.909 -33.425  1.00  0.00     0.029 A 
HETATM   13  C   UNL     1      -6.985  -2.025 -33.996  1.00  0.00     0.023 A 
HETATM   14  C   UNL     1      -4.957  -0.828 -33.491  1.00  0.00     0.063 A 
HETATM   15  C   UNL     1      -6.219  -3.026 -34.616  1.00  0.00    -0.061 A 
HETATM   16  C   UNL     1      -6.888  -4.213 -35.245  1.00  0.00     0.048 C 
HETATM   17  C   UNL     1      -4.825  -2.903 -34.665  1.00  0.00     0.009 A 
HETATM   18  C   UNL     1      -4.164  -1.804 -34.100  1.00  0.00     0.032 A 
HETATM   19  N   UNL     1      -4.634   0.346 -32.869  1.00  0.00    -0.277 N 
HETATM   20  H   UNL     1      -3.707   0.729 -32.731  1.00  0.00     0.189 HD
HETATM   21  N   UNL     1      -5.691   1.052 -32.425  1.00  0.00    -0.168 NA
ENDBRANCH   8  11
ENDBRANCH   1   7
BRANCH   4  22
HETATM   22  N   UNL     1     -14.359   1.879 -33.850  1.00  0.00    -0.309 N 
HETATM   23  C   UNL     1     -15.078   2.341 -32.762  1.00  0.00     0.321 C 
HETATM   24  N   UNL     1     -16.437   2.356 -33.043  1.00  0.00    -0.338 N 
HETATM   25  O   UNL     1     -14.624   2.659 -31.670  1.00  0.00    -0.247 OA
HETATM   26  H   UNL     1     -16.691   2.471 -34.013  1.00  0.00     0.164 HD
HETATM   27  H   UNL     1     -14.903   1.400 -34.551  1.00  0.00     0.170 HD
BRANCH  24  28
HETATM   28  C   UNL     1     -17.413   2.715 -32.058  1.00  0.00     0.086 A 
HETATM   29  C   UNL     1     -17.676   4.154 -31.715  1.00  0.00     0.027 A 
HETATM   30  C   UNL     1     -18.699   3.371 -32.485  1.00  0.00     0.027 A 
ENDBRANCH  24  28
ENDBRANCH   4  22
TORSDOF 4
ENDMDL
MODEL 2
REMARK VINA RESULT:      -8.5      6.493     10.450
REMARK  4 active torsions:
REMARK  status: ('A' for Active; 'I' for Inactive)
REMARK    1  A    between atoms: C_9  and  C_10 
REMARK       I    between atoms: C_10  and  N_11 
REMARK    2  A    between atoms: N_11  and  C_12 
REMARK    3  A    between atoms: C_15  and  N_16 
REMARK       I    between atoms: N_16  and  C_17 
REMARK       I    between atoms: C_17  and  N_18 
REMARK    4  A    between atoms: N_18  and  C_19 
ROOT
HETATM    1  C   UNL     1      -3.692   3.393 -32.487  1.00  0.00     0.035 A 
HETATM    2  C   UNL     1      -2.471   3.861 -32.970  1.00  0.00     0.032 A 
HETATM    3  C   UNL     1      -1.792   4.895 -32.313  1.00  0.00     0.032 A 
HETATM    4  C   UNL     1      -2.323   5.478 -31.164  1.00  0.00     0.036 A 
HETATM    5  C   UNL     1      -3.582   5.059 -30.720  1.00  0.00     0.032 A 
HETATM    6  C   UNL     1      -4.257   4.021 -31.372  1.00  0.00     0.032 A 
ENDROOT
BRANCH   1   7
HETATM    7  N   UNL     1      -4.369   2.283 -33.017  1.00  0.00    -0.322 N 
HETATM    8  C   UNL     1      -4.379   0.985 -32.540  1.00  0.00     0.277 C 
HETATM    9  O   UNL     1      -3.653   0.525 -31.667  1.00  0.00    -0.266 OA
HETATM   10  H   UNL     1      -5.035   2.438 -33.770  1.00  0.00     0.169 HD
BRANCH   8  11
HETATM   11  C   UNL     1      -5.428   0.174 -33.188  1.00  0.00     0.157 A 
HETATM   12  C   UNL     1      -5.327  -1.184 -33.609  1.00  0.00     0.029 A 
HETATM   13  C   UNL     1      -4.323  -2.173 -33.614  1.00  0.00     0.023 A 
HETATM   14  C   UNL     1      -6.590  -1.510 -34.087  1.00  0.00     0.063 A 
HETATM   15  C   UNL     1      -4.616  -3.458 -34.098  1.00  0.00    -0.061 A 
HETATM   16  C   UNL     1      -3.565  -4.528 -34.094  1.00  0.00     0.048 C 
HETATM   17  C   UNL     1      -5.905  -3.746 -34.565  1.00  0.00     0.009 A 
HETATM   18  C   UNL     1      -6.918  -2.778 -34.573  1.00  0.00     0.032 A 
HETATM   19  N   UNL     1      -7.332  -0.370 -33.950  1.00  0.00    -0.277 N 
HETATM   20  H   UNL     1      -8.305  -0.241 -34.200  1.00  0.00     0.189 HD
HETATM   21  N   UNL     1      -6.671   0.666 -33.401  1.00  0.00    -0.168 NA
ENDBRANCH   8  11
ENDBRANCH   1   7
BRANCH   4  22
HETATM   22  N   UNL     1      -1.654   6.462 -30.407  1.00  0.00    -0.309 N 
HETATM   23  C   UNL     1      -0.499   6.285 -29.667  1.00  0.00     0.321 C 
HETATM   24  N   UNL     1      -0.137   7.465 -29.033  1.00  0.00    -0.338 N 
HETATM   25  O   UNL     1       0.122   5.239 -29.525  1.00  0.00    -0.247 OA
HETATM   26  H   UNL     1      -0.425   8.321 -29.484  1.00  0.00     0.164 HD
HETATM   27  H   UNL     1      -2.182   7.293 -30.186  1.00  0.00     0.170 HD
BRANCH  24  28
HETATM   28  C   UNL     1       0.978   7.535 -28.137  1.00  0.00     0.086 A 
HETATM   29  C   UNL     1       1.541   8.860 -27.701  1.00  0.00     0.027 A 
HETATM   30  C   UNL     1       0.773   8.017 -26.726  1.00  0.00     0.027 A 
ENDBRANCH  24  28
ENDBRANCH   4  22
TORSDOF 4
ENDMDL
MODEL 3
REMARK VINA RESULT:      -8.0      6.729      9.015
REMARK  4 active torsions:
REMARK  status: ('A' for Active; 'I' for Inactive)
REMARK    1  A    between atoms: C_9  and  C_10 
REMARK       I    between atoms: C_10  and  N_11 
REMARK    2  A    between atoms: N_11  and  C_12 
REMARK    3  A    between atoms: C_15  and  N_16 
REMARK       I    between atoms: N_16  and  C_17 
REMARK       I    between atoms: C_17  and  N_18 
REMARK    4  A    between atoms: N_18  and  C_19 
ROOT
HETATM    1  C   UNL     1      -3.899   3.545 -31.686  1.00  0.00     0.035 A 
HETATM    2  C   UNL     1      -4.111   2.296 -32.267  1.00  0.00     0.032 A 
HETATM    3  C   UNL     1      -5.300   2.022 -32.954  1.00  0.00     0.032 A 
HETATM    4  C   UNL     1      -6.296   2.990 -33.071  1.00  0.00     0.036 A 
HETATM    5  C   UNL     1      -6.115   4.218 -32.426  1.00  0.00     0.032 A 
HETATM    6  C   UNL     1      -4.923   4.496 -31.746  1.00  0.00     0.032 A 
ENDROOT
BRANCH   1   7
HETATM    7  N   UNL     1      -2.688   3.934 -31.090  1.00  0.00    -0.322 N 
HETATM    8  C   UNL     1      -1.675   4.698 -31.640  1.00  0.00     0.277 C 
HETATM    9  O   UNL     1      -1.569   5.027 -32.816  1.00  0.00    -0.266 OA
HETATM   10  H   UNL     1      -2.559   3.753 -30.098  1.00  0.00     0.169 HD
BRANCH   8  11
HETATM   11  C   UNL     1      -0.706   5.136 -30.618  1.00  0.00     0.157 A 
HETATM   12  C   UNL     1      -0.688   6.385 -29.929  1.00  0.00     0.029 A 
HETATM   13  C   UNL     1      -1.456   7.566 -29.951  1.00  0.00     0.023 A 
HETATM   14  C   UNL     1       0.363   6.285 -29.026  1.00  0.00     0.063 A 
HETATM   15  C   UNL     1      -1.146   8.612 -29.067  1.00  0.00    -0.061 A 
HETATM   16  C   UNL     1      -1.962   9.871 -29.064  1.00  0.00     0.048 C 
HETATM   17  C   UNL     1      -0.081   8.468 -28.168  1.00  0.00     0.009 A 
HETATM   18  C   UNL     1       0.698   7.304 -28.131  1.00  0.00     0.032 A 
HETATM   19  N   UNL     1       0.902   5.047 -29.236  1.00  0.00    -0.277 N 
HETATM   20  H   UNL     1       1.690   4.633 -28.751  1.00  0.00     0.189 HD
HETATM   21  N   UNL     1       0.279   4.317 -30.181  1.00  0.00    -0.168 NA
ENDBRANCH   8  11
ENDBRANCH   1   7
BRANCH   4  22
HETATM   22  N   UNL     1      -7.478   2.809 -33.818  1.00  0.00    -0.309 N 
HETATM   23  C   UNL     1      -8.605   2.115 -33.417  1.00  0.00     0.321 C 
HETATM   24  N   UNL     1      -9.567   2.122 -34.416  1.00  0.00    -0.338 N 
HETATM   25  O   UNL     1      -8.757   1.522 -32.356  1.00  0.00    -0.247 OA
HETATM   26  H   UNL     1      -9.551   2.911 -35.046  1.00  0.00     0.164 HD
HETATM   27  H   UNL     1      -7.412   2.984 -34.809  1.00  0.00     0.170 HD
BRANCH  24  28
HETATM   28  C   UNL     1     -10.801   1.405 -34.290  1.00  0.00     0.086 A 
HETATM   29  C   UNL     1     -12.005   2.039 -33.652  1.00  0.00     0.027 A 
HETATM   30  C   UNL     1     -11.984   1.799 -35.133  1.00  0.00     0.027 A 
ENDBRANCH  24  28
ENDBRANCH   4  22
TORSDOF 4
ENDMDL
MODEL 4
REMARK VINA RESULT:      -7.8      6.355      9.930
REMARK  4 active torsions:
REMARK  status: ('A' for Active; 'I' for Inactive)
REMARK    1  A    between atoms: C_9  and  C_10 
REMARK       I    between atoms: C_10  and  N_11 
REMARK    2  A    between atoms: N_11  and  C_12 
REMARK    3  A    between atoms: C_15  and  N_16 
REMARK       I    between atoms: N_16  and  C_17 
REMARK       I    between atoms: C_17  and  N_18 
REMARK    4  A    between atoms: N_18  and  C_19 
ROOT
HETATM    1  C   UNL     1      -5.077   3.064 -31.042  1.00  0.00     0.035 A 
HETATM    2  C   UNL     1      -5.513   1.960 -30.311  1.00  0.00     0.032 A 
HETATM    3  C   UNL     1      -6.020   0.829 -30.962  1.00  0.00     0.032 A 
HETATM    4  C   UNL     1      -6.098   0.782 -32.353  1.00  0.00     0.036 A 
HETATM    5  C   UNL     1      -5.729   1.917 -33.083  1.00  0.00     0.032 A 
HETATM    6  C   UNL     1      -5.216   3.046 -32.433  1.00  0.00     0.032 A 
ENDROOT
BRANCH   1   7
HETATM    7  N   UNL     1      -4.446   4.181 -30.469  1.00  0.00    -0.322 N 
HETATM    8  C   UNL     1      -4.862   5.500 -30.495  1.00  0.00     0.277 C 
HETATM    9  O   UNL     1      -5.767   5.964 -31.179  1.00  0.00    -0.266 OA
HETATM   10  H   UNL     1      -3.652   4.024 -29.854  1.00  0.00     0.169 HD
BRANCH   8  11
HETATM   11  C   UNL     1      -4.098   6.331 -29.545  1.00  0.00     0.157 A 
HETATM   12  C   UNL     1      -2.719   6.682 -29.626  1.00  0.00     0.029 A 
HETATM   13  C   UNL     1      -1.650   6.400 -30.500  1.00  0.00     0.023 A 
HETATM   14  C   UNL     1      -2.497   7.529 -28.548  1.00  0.00     0.063 A 
HETATM   15  C   UNL     1      -0.392   6.977 -30.266  1.00  0.00    -0.061 A 
HETATM   16  C   UNL     1       0.754   6.703 -31.196  1.00  0.00     0.048 C 
HETATM   17  C   UNL     1      -0.212   7.831 -29.170  1.00  0.00     0.009 A 
HETATM   18  C   UNL     1      -1.259   8.122 -28.286  1.00  0.00     0.032 A 
HETATM   19  N   UNL     1      -3.698   7.612 -27.901  1.00  0.00    -0.277 N 
HETATM   20  H   UNL     1      -3.907   8.146 -27.066  1.00  0.00     0.189 HD
HETATM   21  N   UNL     1      -4.694   6.912 -28.478  1.00  0.00    -0.168 NA
ENDBRANCH   8  11
ENDBRANCH   1   7
BRANCH   4  22
HETATM   22  N   UNL     1      -6.518  -0.355 -33.074  1.00  0.00    -0.309 N 
HETATM   23  C   UNL     1      -5.701  -1.261 -33.725  1.00  0.00     0.321 C 
HETATM   24  N   UNL     1      -6.457  -2.243 -34.350  1.00  0.00    -0.338 N 
HETATM   25  O   UNL     1      -4.480  -1.215 -33.806  1.00  0.00    -0.247 OA
HETATM   26  H   UNL     1      -7.354  -2.447 -33.934  1.00  0.00     0.164 HD
HETATM   27  H   UNL     1      -7.489  -0.380 -33.346  1.00  0.00     0.170 HD
BRANCH  24  28
HETATM   28  C   UNL     1      -5.861  -3.260 -35.164  1.00  0.00     0.086 A 
HETATM   29  C   UNL     1      -5.377  -4.550 -34.563  1.00  0.00     0.027 A 
HETATM   30  C   UNL     1      -6.607  -4.541 -35.423  1.00  0.00     0.027 A 
ENDBRANCH  24  28
ENDBRANCH   4  22
TORSDOF 4
ENDMDL
MODEL 5
REMARK VINA RESULT:      -7.8      6.520      9.404
REMARK  4 active torsions:
REMARK  status: ('A' for Active; 'I' for Inactive)
REMARK    1  A    between atoms: C_9  and  C_10 
REMARK       I    between atoms: C_10  and  N_11 
REMARK    2  A    between atoms: N_11  and  C_12 
REMARK    3  A    between atoms: C_15  and  N_16 
REMARK       I    between atoms: N_16  and  C_17 
REMARK       I    between atoms: C_17  and  N_18 
REMARK    4  A    between atoms: N_18  and  C_19 
ROOT
HETATM    1  C   UNL     1      -4.356   2.982 -32.113  1.00  0.00     0.035 A 
HETATM    2  C   UNL     1      -5.120   3.813 -31.295  1.00  0.00     0.032 A 
HETATM    3  C   UNL     1      -4.584   5.004 -30.789  1.00  0.00     0.032 A 
HETATM    4  C   UNL     1      -3.277   5.383 -31.093  1.00  0.00     0.036 A 
HETATM    5  C   UNL     1      -2.487   4.514 -31.854  1.00  0.00     0.032 A 
HETATM    6  C   UNL     1      -3.025   3.327 -32.365  1.00  0.00     0.032 A 
ENDROOT
BRANCH   1   7
HETATM    7  N   UNL     1      -4.861   1.839 -32.755  1.00  0.00    -0.322 N 
HETATM    8  C   UNL     1      -4.889   0.539 -32.282  1.00  0.00     0.277 C 
HETATM    9  O   UNL     1      -4.315   0.115 -31.286  1.00  0.00    -0.266 OA
HETATM   10  H   UNL     1      -5.382   1.962 -33.619  1.00  0.00     0.169 HD
BRANCH   8  11
HETATM   11  C   UNL     1      -5.753  -0.324 -33.110  1.00  0.00     0.157 A 
HETATM   12  C   UNL     1      -5.456  -1.636 -33.582  1.00  0.00     0.029 A 
HETATM   13  C   UNL     1      -4.363  -2.521 -33.498  1.00  0.00     0.023 A 
HETATM   14  C   UNL     1      -6.604  -2.049 -34.247  1.00  0.00     0.063 A 
HETATM   15  C   UNL     1      -4.455  -3.795 -34.083  1.00  0.00    -0.061 A 
HETATM   16  C   UNL     1      -3.308  -4.758 -33.989  1.00  0.00     0.048 C 
HETATM   17  C   UNL     1      -5.633  -4.174 -34.740  1.00  0.00     0.009 A 
HETATM   18  C   UNL     1      -6.731  -3.308 -34.839  1.00  0.00     0.032 A 
HETATM   19  N   UNL     1      -7.471  -0.997 -34.157  1.00  0.00    -0.277 N 
HETATM   20  H   UNL     1      -8.411  -0.946 -34.533  1.00  0.00     0.189 HD
HETATM   21  N   UNL     1      -7.000   0.060 -33.469  1.00  0.00    -0.168 NA
ENDBRANCH   8  11
ENDBRANCH   1   7
BRANCH   4  22
HETATM   22  N   UNL     1      -2.705   6.606 -30.688  1.00  0.00    -0.309 N 
HETATM   23  C   UNL     1      -2.864   7.220 -29.459  1.00  0.00     0.321 C 
HETATM   24  N   UNL     1      -2.175   8.424 -29.418  1.00  0.00    -0.338 N 
HETATM   25  O   UNL     1      -3.547   6.817 -28.525  1.00  0.00    -0.247 OA
HETATM   26  H   UNL     1      -1.363   8.493 -30.014  1.00  0.00     0.164 HD
HETATM   27  H   UNL     1      -2.355   7.202 -31.423  1.00  0.00     0.170 HD
BRANCH  24  28
HETATM   28  C   UNL     1      -2.240   9.300 -28.288  1.00  0.00     0.086 A 
HETATM   29  C   UNL     1      -0.996   9.700 -27.543  1.00  0.00     0.027 A 
HETATM   30  C   UNL     1      -1.710  10.705 -28.399  1.00  0.00     0.027 A 
ENDBRANCH  24  28
ENDBRANCH   4  22
TORSDOF 4
ENDMDL
MODEL 6
REMARK VINA RESULT:      -7.7      2.994      3.240
REMARK  4 active torsions:
REMARK  status: ('A' for Active; 'I' for Inactive)
REMARK    1  A    between atoms: C_9  and  C_10 
REMARK       I    between atoms: C_10  and  N_11 
REMARK    2  A    between atoms: N_11  and  C_12 
REMARK    3  A    between atoms: C_15  and  N_16 
REMARK       I    between atoms: N_16  and  C_17 
REMARK       I    between atoms: C_17  and  N_18 
REMARK    4  A    between atoms: N_18  and  C_19 
ROOT
HETATM    1  C   UNL     1      -9.396   2.763 -33.276  1.00  0.00     0.035 A 
HETATM    2  C   UNL     1     -10.050   3.563 -32.341  1.00  0.00     0.032 A 
HETATM    3  C   UNL     1     -11.222   4.248 -32.683  1.00  0.00     0.032 A 
HETATM    4  C   UNL     1     -11.758   4.146 -33.966  1.00  0.00     0.036 A 
HETATM    5  C   UNL     1     -11.063   3.403 -34.926  1.00  0.00     0.032 A 
HETATM    6  C   UNL     1      -9.895   2.711 -34.581  1.00  0.00     0.032 A 
ENDROOT
BRANCH   1   7
HETATM    7  N   UNL     1      -8.290   1.952 -32.974  1.00  0.00    -0.322 N 
HETATM    8  C   UNL     1      -8.260   0.579 -32.810  1.00  0.00     0.277 C 
HETATM    9  O   UNL     1      -9.231  -0.164 -32.721  1.00  0.00    -0.266 OA
HETATM   10  H   UNL     1      -7.364   2.374 -32.988  1.00  0.00     0.169 HD
BRANCH   8  11
HETATM   11  C   UNL     1      -6.879   0.062 -32.791  1.00  0.00     0.157 A 
HETATM   12  C   UNL     1      -6.399  -1.131 -33.407  1.00  0.00     0.029 A 
HETATM   13  C   UNL     1      -6.963  -2.182 -34.158  1.00  0.00     0.023 A 
HETATM   14  C   UNL     1      -5.031  -1.138 -33.167  1.00  0.00     0.063 A 
HETATM   15  C   UNL     1      -6.136  -3.208 -34.645  1.00  0.00    -0.061 A 
HETATM   16  C   UNL     1      -6.715  -4.326 -35.461  1.00  0.00     0.048 C 
HETATM   17  C   UNL     1      -4.760  -3.173 -34.385  1.00  0.00     0.009 A 
HETATM   18  C   UNL     1      -4.179  -2.140 -33.637  1.00  0.00     0.032 A 
HETATM   19  N   UNL     1      -4.788  -0.010 -32.433  1.00  0.00    -0.277 N 
HETATM   20  H   UNL     1      -3.894   0.307 -32.079  1.00  0.00     0.189 HD
HETATM   21  N   UNL     1      -5.876   0.747 -32.194  1.00  0.00    -0.168 NA
ENDBRANCH   8  11
ENDBRANCH   1   7
BRANCH   4  22
HETATM   22  N   UNL     1     -12.977   4.740 -34.352  1.00  0.00    -0.309 N 
HETATM   23  C   UNL     1     -13.129   5.873 -35.131  1.00  0.00     0.321 C 
HETATM   24  N   UNL     1     -14.472   6.183 -35.290  1.00  0.00    -0.338 N 
HETATM   25  O   UNL     1     -12.230   6.563 -35.596  1.00  0.00    -0.247 OA
HETATM   26  H   UNL     1     -15.118   5.410 -35.240  1.00  0.00     0.164 HD
HETATM   27  H   UNL     1     -13.794   4.470 -33.825  1.00  0.00     0.170 HD
BRANCH  24  28
HETATM   28  C   UNL     1     -14.904   7.358 -35.987  1.00  0.00     0.086 A 
HETATM   29  C   UNL     1     -15.105   7.347 -37.476  1.00  0.00     0.027 A 
HETATM   30  C   UNL     1     -16.293   7.417 -36.563  1.00  0.00     0.027 A 
ENDBRANCH  24  28
ENDBRANCH   4  22
TORSDOF 4
ENDMDL
MODEL 7
REMARK VINA RESULT:      -7.6     15.648     17.596
REMARK  4 active torsions:
REMARK  status: ('A' for Active; 'I' for Inactive)
REMARK    1  A    between atoms: C_9  and  C_10 
REMARK       I    between atoms: C_10  and  N_11 
REMARK    2  A    between atoms: N_11  and  C_12 
REMARK    3  A    between atoms: C_15  and  N_16 
REMARK       I    between atoms: N_16  and  C_17 
REMARK       I    between atoms: C_17  and  N_18 
REMARK    4  A    between atoms: N_18  and  C_19 
ROOT
HETATM    1  C   UNL     1      -5.793 -13.937 -35.946  1.00  0.00     0.035 A 
HETATM    2  C   UNL     1      -4.754 -14.651 -35.352  1.00  0.00     0.032 A 
HETATM    3  C   UNL     1      -4.830 -15.036 -34.008  1.00  0.00     0.032 A 
HETATM    4  C   UNL     1      -5.945 -14.713 -33.235  1.00  0.00     0.036 A 
HETATM    5  C   UNL     1      -6.955 -13.935 -33.810  1.00  0.00     0.032 A 
HETATM    6  C   UNL     1      -6.883 -13.556 -35.157  1.00  0.00     0.032 A 
ENDROOT
BRANCH   1   7
HETATM    7  N   UNL     1      -5.845 -13.623 -37.314  1.00  0.00    -0.322 N 
HETATM    8  C   UNL     1      -4.978 -12.825 -38.038  1.00  0.00     0.277 C 
HETATM    9  O   UNL     1      -4.105 -12.096 -37.579  1.00  0.00    -0.266 OA
HETATM   10  H   UNL     1      -6.514 -14.119 -37.897  1.00  0.00     0.169 HD
BRANCH   8  11
HETATM   11  C   UNL     1      -5.188 -12.969 -39.491  1.00  0.00     0.157 A 
HETATM   12  C   UNL     1      -4.372 -13.692 -40.409  1.00  0.00     0.029 A 
HETATM   13  C   UNL     1      -3.179 -14.438 -40.336  1.00  0.00     0.023 A 
HETATM   14  C   UNL     1      -5.024 -13.589 -41.632  1.00  0.00     0.063 A 
HETATM   15  C   UNL     1      -2.676 -15.058 -41.491  1.00  0.00    -0.061 A 
HETATM   16  C   UNL     1      -1.417 -15.872 -41.429  1.00  0.00     0.048 C 
HETATM   17  C   UNL     1      -3.368 -14.934 -42.703  1.00  0.00     0.009 A 
HETATM   18  C   UNL     1      -4.554 -14.194 -42.800  1.00  0.00     0.032 A 
HETATM   19  N   UNL     1      -6.130 -12.824 -41.387  1.00  0.00    -0.277 N 
HETATM   20  H   UNL     1      -6.838 -12.543 -42.054  1.00  0.00     0.189 HD
HETATM   21  N   UNL     1      -6.272 -12.439 -40.104  1.00  0.00    -0.168 NA
ENDBRANCH   8  11
ENDBRANCH   1   7
BRANCH   4  22
HETATM   22  N   UNL     1      -6.123 -15.141 -31.904  1.00  0.00    -0.309 N 
HETATM   23  C   UNL     1      -6.528 -16.398 -31.493  1.00  0.00     0.321 C 
HETATM   24  N   UNL     1      -6.617 -16.457 -30.109  1.00  0.00    -0.338 N 
HETATM   25  O   UNL     1      -6.822 -17.342 -32.216  1.00  0.00    -0.247 OA
HETATM   26  H   UNL     1      -6.013 -15.833 -29.596  1.00  0.00     0.164 HD
HETATM   27  H   UNL     1      -6.201 -14.416 -31.207  1.00  0.00     0.170 HD
BRANCH  24  28
HETATM   28  C   UNL     1      -7.094 -17.622 -29.427  1.00  0.00     0.086 A 
HETATM   29  C   UNL     1      -6.615 -17.961 -28.043  1.00  0.00     0.027 A 
HETATM   30  C   UNL     1      -8.018 -17.472 -28.248  1.00  0.00     0.027 A 
ENDBRANCH  24  28
ENDBRANCH   4  22
TORSDOF 4
ENDMDL
MODEL 8
REMARK VINA RESULT:      -7.4      5.148      6.725
REMARK  4 active torsions:
REMARK  status: ('A' for Active; 'I' for Inactive)
REMARK    1  A    between atoms: C_9  and  C_10 
REMARK       I    between atoms: C_10  and  N_11 
REMARK    2  A    between atoms: N_11  and  C_12 
REMARK    3  A    between atoms: C_15  and  N_16 
REMARK       I    between atoms: N_16  and  C_17 
REMARK       I    between atoms: C_17  and  N_18 
REMARK    4  A    between atoms: N_18  and  C_19 
ROOT
HETATM    1  C   UNL     1      -6.214   2.885 -33.157  1.00  0.00     0.035 A 
HETATM    2  C   UNL     1      -6.723   1.930 -34.036  1.00  0.00     0.032 A 
HETATM    3  C   UNL     1      -8.039   1.469 -33.906  1.00  0.00     0.032 A 
HETATM    4  C   UNL     1      -8.867   1.955 -32.895  1.00  0.00     0.036 A 
HETATM    5  C   UNL     1      -8.336   2.859 -31.969  1.00  0.00     0.032 A 
HETATM    6  C   UNL     1      -7.022   3.325 -32.104  1.00  0.00     0.032 A 
ENDROOT
BRANCH   1   7
HETATM    7  N   UNL     1      -4.952   3.483 -33.297  1.00  0.00    -0.322 N 
HETATM    8  C   UNL     1      -4.651   4.724 -33.830  1.00  0.00     0.277 C 
HETATM    9  O   UNL     1      -5.419   5.457 -34.444  1.00  0.00    -0.266 OA
HETATM   10  H   UNL     1      -4.153   3.032 -32.859  1.00  0.00     0.169 HD
BRANCH   8  11
HETATM   11  C   UNL     1      -3.260   5.119 -33.541  1.00  0.00     0.157 A 
HETATM   12  C   UNL     1      -2.771   5.738 -32.353  1.00  0.00     0.029 A 
HETATM   13  C   UNL     1      -3.331   6.194 -31.143  1.00  0.00     0.023 A 
HETATM   14  C   UNL     1      -1.398   5.838 -32.536  1.00  0.00     0.063 A 
HETATM   15  C   UNL     1      -2.497   6.737 -30.154  1.00  0.00    -0.061 A 
HETATM   16  C   UNL     1      -3.072   7.213 -28.852  1.00  0.00     0.048 C 
HETATM   17  C   UNL     1      -1.115   6.815 -30.376  1.00  0.00     0.009 A 
HETATM   18  C   UNL     1      -0.537   6.371 -31.572  1.00  0.00     0.032 A 
HETATM   19  N   UNL     1      -1.160   5.318 -33.777  1.00  0.00    -0.277 N 
HETATM   20  H   UNL     1      -0.264   5.231 -34.242  1.00  0.00     0.189 HD
HETATM   21  N   UNL     1      -2.257   4.863 -34.413  1.00  0.00    -0.168 NA
ENDBRANCH   8  11
ENDBRANCH   1   7
BRANCH   4  22
HETATM   22  N   UNL     1     -10.224   1.598 -32.759  1.00  0.00    -0.309 N 
HETATM   23  C   UNL     1     -11.291   2.145 -33.450  1.00  0.00     0.321 C 
HETATM   24  N   UNL     1     -12.486   1.569 -33.045  1.00  0.00    -0.338 N 
HETATM   25  O   UNL     1     -11.238   3.048 -34.277  1.00  0.00    -0.247 OA
HETATM   26  H   UNL     1     -12.429   0.623 -32.696  1.00  0.00     0.164 HD
HETATM   27  H   UNL     1     -10.471   1.083 -31.928  1.00  0.00     0.170 HD
BRANCH  24  28
HETATM   28  C   UNL     1     -13.753   2.012 -33.544  1.00  0.00     0.086 A 
HETATM   29  C   UNL     1     -14.817   1.029 -33.943  1.00  0.00     0.027 A 
HETATM   30  C   UNL     1     -14.988   1.851 -32.699  1.00  0.00     0.027 A 
ENDBRANCH  24  28
ENDBRANCH   4  22
TORSDOF 4
ENDMDL
MODEL 9
REMARK VINA RESULT:      -7.4      1.779      2.061
REMARK  4 active torsions:
REMARK  status: ('A' for Active; 'I' for Inactive)
REMARK    1  A    between atoms: C_9  and  C_10 
REMARK       I    between atoms: C_10  and  N_11 
REMARK    2  A    between atoms: N_11  and  C_12 
REMARK    3  A    between atoms: C_15  and  N_16 
REMARK       I    between atoms: N_16  and  C_17 
REMARK       I    between atoms: C_17  and  N_18 
REMARK    4  A    between atoms: N_18  and  C_19 
ROOT
HETATM    1  C   UNL     1      -9.293   2.526 -32.110  1.00  0.00     0.035 A 
HETATM    2  C   UNL     1      -9.789   3.079 -30.931  1.00  0.00     0.032 A 
HETATM    3  C   UNL     1     -10.977   3.821 -30.936  1.00  0.00     0.032 A 
HETATM    4  C   UNL     1     -11.687   4.022 -32.119  1.00  0.00     0.036 A 
HETATM    5  C   UNL     1     -11.152   3.529 -33.313  1.00  0.00     0.032 A 
HETATM    6  C   UNL     1      -9.968   2.781 -33.308  1.00  0.00     0.032 A 
ENDROOT
BRANCH   1   7
HETATM    7  N   UNL     1      -8.180   1.671 -32.165  1.00  0.00    -0.322 N 
HETATM    8  C   UNL     1      -8.112   0.394 -32.691  1.00  0.00     0.277 C 
HETATM    9  O   UNL     1      -9.060  -0.298 -33.046  1.00  0.00    -0.266 OA
HETATM   10  H   UNL     1      -7.271   2.045 -31.904  1.00  0.00     0.169 HD
BRANCH   8  11
HETATM   11  C   UNL     1      -6.717  -0.067 -32.828  1.00  0.00     0.157 A 
HETATM   12  C   UNL     1      -6.263  -1.250 -33.481  1.00  0.00     0.029 A 
HETATM   13  C   UNL     1      -6.866  -2.336 -34.147  1.00  0.00     0.023 A 
HETATM   14  C   UNL     1      -4.877  -1.197 -33.404  1.00  0.00     0.063 A 
HETATM   15  C   UNL     1      -6.059  -3.335 -34.715  1.00  0.00    -0.061 A 
HETATM   16  C   UNL     1      -6.682  -4.490 -35.443  1.00  0.00     0.048 C 
HETATM   17  C   UNL     1      -4.665  -3.240 -34.619  1.00  0.00     0.009 A 
HETATM   18  C   UNL     1      -4.044  -2.172 -33.959  1.00  0.00     0.032 A 
HETATM   19  N   UNL     1      -4.598  -0.047 -32.718  1.00  0.00    -0.277 N 
HETATM   20  H   UNL     1      -3.683   0.312 -32.475  1.00  0.00     0.189 HD
HETATM   21  N   UNL     1      -5.681   0.669 -32.362  1.00  0.00    -0.168 NA
ENDBRANCH   8  11
ENDBRANCH   1   7
BRANCH   4  22
HETATM   22  N   UNL     1     -12.930   4.685 -32.180  1.00  0.00    -0.309 N 
HETATM   23  C   UNL     1     -14.169   4.134 -31.909  1.00  0.00     0.321 C 
HETATM   24  N   UNL     1     -15.174   5.072 -32.093  1.00  0.00    -0.338 N 
HETATM   25  O   UNL     1     -14.397   2.972 -31.595  1.00  0.00    -0.247 OA
HETATM   26  H   UNL     1     -14.914   6.038 -31.957  1.00  0.00     0.164 HD
HETATM   27  H   UNL     1     -12.950   5.553 -32.693  1.00  0.00     0.170 HD
BRANCH  24  28
HETATM   28  C   UNL     1     -16.561   4.738 -31.959  1.00  0.00     0.086 A 
HETATM   29  C   UNL     1     -17.433   5.437 -30.954  1.00  0.00     0.027 A 
HETATM   30  C   UNL     1     -17.612   5.712 -32.418  1.00  0.00     0.027 A 
ENDBRANCH  24  28
ENDBRANCH   4  22
TORSDOF 4
ENDMDL
MODEL 10
REMARK VINA RESULT:      -7.2      5.094     10.044
REMARK  4 active torsions:
REMARK  status: ('A' for Active; 'I' for Inactive)
REMARK    1  A    between atoms: C_9  and  C_10 
REMARK       I    between atoms: C_10  and  N_11 
REMARK    2  A    between atoms: N_11  and  C_12 
REMARK    3  A    between atoms: C_15  and  N_16 
REMARK       I    between atoms: N_16  and  C_17 
REMARK       I    between atoms: C_17  and  N_18 
REMARK    4  A    between atoms: N_18  and  C_19 
ROOT
HETATM    1  C   UNL     1      -7.830   5.111 -33.408  1.00  0.00     0.035 A 
HETATM    2  C   UNL     1      -7.482   6.233 -32.659  1.00  0.00     0.032 A 
HETATM    3  C   UNL     1      -6.139   6.585 -32.483  1.00  0.00     0.032 A 
HETATM    4  C   UNL     1      -5.121   5.821 -33.053  1.00  0.00     0.036 A 
HETATM    5  C   UNL     1      -5.466   4.655 -33.744  1.00  0.00     0.032 A 
HETATM    6  C   UNL     1      -6.810   4.307 -33.926  1.00  0.00     0.032 A 
ENDROOT
BRANCH   1   7
HETATM    7  N   UNL     1      -9.153   4.765 -33.730  1.00  0.00    -0.322 N 
HETATM    8  C   UNL     1      -9.881   5.129 -34.848  1.00  0.00     0.277 C 
HETATM    9  O   UNL     1      -9.563   5.972 -35.680  1.00  0.00    -0.266 OA
HETATM   10  H   UNL     1      -9.623   4.069 -33.156  1.00  0.00     0.169 HD
BRANCH   8  11
HETATM   11  C   UNL     1     -11.121   4.340 -34.973  1.00  0.00     0.157 A 
HETATM   12  C   UNL     1     -11.341   3.008 -34.514  1.00  0.00     0.029 A 
HETATM   13  C   UNL     1     -10.574   2.016 -33.872  1.00  0.00     0.023 A 
HETATM   14  C   UNL     1     -12.675   2.743 -34.799  1.00  0.00     0.063 A 
HETATM   15  C   UNL     1     -11.168   0.790 -33.534  1.00  0.00    -0.061 A 
HETATM   16  C   UNL     1     -10.371  -0.272 -32.833  1.00  0.00     0.048 C 
HETATM   17  C   UNL     1     -12.518   0.566 -33.833  1.00  0.00     0.009 A 
HETATM   18  C   UNL     1     -13.299   1.536 -34.475  1.00  0.00     0.032 A 
HETATM   19  N   UNL     1     -13.145   3.874 -35.405  1.00  0.00    -0.277 N 
HETATM   20  H   UNL     1     -14.084   4.037 -35.750  1.00  0.00     0.189 HD
HETATM   21  N   UNL     1     -12.242   4.866 -35.519  1.00  0.00    -0.168 NA
ENDBRANCH   8  11
ENDBRANCH   1   7
BRANCH   4  22
HETATM   22  N   UNL     1      -3.756   6.165 -32.987  1.00  0.00    -0.309 N 
HETATM   23  C   UNL     1      -2.816   5.637 -32.120  1.00  0.00     0.321 C 
HETATM   24  N   UNL     1      -1.576   6.226 -32.321  1.00  0.00    -0.338 N 
HETATM   25  O   UNL     1      -3.018   4.800 -31.248  1.00  0.00    -0.247 OA
HETATM   26  H   UNL     1      -1.393   6.575 -33.250  1.00  0.00     0.164 HD
HETATM   27  H   UNL     1      -3.489   7.031 -33.431  1.00  0.00     0.170 HD
BRANCH  24  28
HETATM   28  C   UNL     1      -0.445   5.919 -31.498  1.00  0.00     0.086 A 
HETATM   29  C   UNL     1       0.701   6.881 -31.364  1.00  0.00     0.027 A 
HETATM   30  C   UNL     1      -0.233   6.667 -30.209  1.00  0.00     0.027 A 
ENDBRANCH  24  28
ENDBRANCH   4  22
TORSDOF 4
ENDMDL
