MODEL 1
REMARK VINA RESULT:      -8.2      0.000      0.000
REMARK  9 active torsions:
REMARK  status: ('A' for Active; 'I' for Inactive)
REMARK    1  A    between atoms: C_2  and  N_3 
REMARK    2  A    between atoms: N_3  and  C_5 
REMARK    3  A    between atoms: N_3  and  C_29 
REMARK    4  A    between atoms: C_5  and  C_6 
REMARK    5  A    between atoms: C_6  and  O_7 
REMARK    6  A    between atoms: O_7  and  C_8 
REMARK    7  A    between atoms: C_9  and  C_10 
REMARK    8  A    between atoms: C_10  and  N_11 
REMARK       I    between atoms: N_11  and  C_12 
REMARK    9  A    between atoms: C_12  and  C_13 
ROOT
HETATM    1  N   UNL     1      -3.805   2.359 -32.654  1.00  0.00    -0.352 N 
HETATM    2  C   UNL     1      -3.995   1.013 -32.380  1.00  0.00     0.254 C 
HETATM    3  O   UNL     1      -3.426   0.408 -31.481  1.00  0.00    -0.268 OA
HETATM    4  H   UNL     1      -4.598   2.812 -33.088  1.00  0.00     0.163 HD
ENDROOT
BRANCH   1   5
HETATM    5  C   UNL     1      -3.031   3.203 -31.762  1.00  0.00     0.164 C 
BRANCH   5   6
HETATM    6  C   UNL     1      -2.430   4.430 -32.402  1.00  0.00    -0.007 A 
HETATM    7  C   UNL     1      -1.276   5.070 -31.914  1.00  0.00     0.076 A 
HETATM    8  C   UNL     1      -0.765   6.182 -32.602  1.00  0.00     0.037 A 
HETATM    9  C   UNL     1      -1.397   6.669 -33.749  1.00  0.00     0.003 A 
HETATM   10  C   UNL     1      -2.548   6.056 -34.221  1.00  0.00     0.001 A 
HETATM   11  C   UNL     1      -3.057   4.945 -33.554  1.00  0.00     0.011 A 
BRANCH   7  12
HETATM   12  O   UNL     1      -0.698   4.538 -30.783  1.00  0.00    -0.349 OA
BRANCH  12  13
HETATM   13  C   UNL     1       0.586   5.062 -30.430  1.00  0.00     0.203 C 
BRANCH  13  14
HETATM   14  C   UNL     1       0.636   5.375 -28.930  1.00  0.00     0.261 C 
BRANCH  14  15
HETATM   15  N   UNL     1       0.375   6.841 -28.572  1.00  0.00    -0.070 N 
HETATM   16  H   UNL     1       0.770   7.379 -29.356  1.00  0.00     0.279 HD
BRANCH  15  17
HETATM   17  C   UNL     1       1.093   7.345 -27.330  1.00  0.00     0.230 C 
HETATM   18  C   UNL     1       1.662   8.737 -27.533  1.00  0.00     0.034 C 
ENDBRANCH  15  17
BRANCH  15  19
HETATM   19  C   UNL     1      -1.092   7.238 -28.515  1.00  0.00     0.230 C 
HETATM   20  C   UNL     1      -1.454   8.208 -29.625  1.00  0.00     0.034 C 
ENDBRANCH  15  19
ENDBRANCH  14  15
ENDBRANCH  13  14
ENDBRANCH  12  13
ENDBRANCH   7  12
ENDBRANCH   5   6
ENDBRANCH   1   5
BRANCH   2  21
HETATM   21  C   UNL     1      -5.016   0.316 -33.202  1.00  0.00     0.064 A 
HETATM   22  C   UNL     1      -4.929  -1.014 -33.566  1.00  0.00     0.077 A 
HETATM   23  C   UNL     1      -5.867  -1.611 -34.414  1.00  0.00     0.065 A 
HETATM   24  N   UNL     1      -4.003  -2.000 -33.207  1.00  0.00    -0.330 N 
HETATM   25  N   UNL     1      -5.498  -2.945 -34.600  1.00  0.00    -0.331 N 
HETATM   26  C   UNL     1      -6.949  -0.925 -34.909  1.00  0.00     0.074 A 
HETATM   27  C   UNL     1      -4.353  -3.196 -33.838  1.00  0.00     0.176 A 
HETATM   28  H   UNL     1      -5.995  -3.629 -35.155  1.00  0.00     0.168 HD
HETATM   29  S   UNL     1      -3.549  -4.625 -33.677  1.00  0.00    -0.041 SA
HETATM   30  C   UNL     1      -7.070   0.407 -34.513  1.00  0.00     0.119 A 
HETATM   31  F   UNL     1      -8.116   1.120 -34.950  1.00  0.00    -0.206 F 
HETATM   32  C   UNL     1      -6.127   1.028 -33.675  1.00  0.00     0.061 A 
HETATM   33  H   UNL     1      -3.278  -1.892 -32.515  1.00  0.00     0.168 HD
ENDBRANCH   2  21
TORSDOF 9
ENDMDL
MODEL 2
REMARK VINA RESULT:      -8.1      3.876      8.941
REMARK  9 active torsions:
REMARK  status: ('A' for Active; 'I' for Inactive)
REMARK    1  A    between atoms: C_2  and  N_3 
REMARK    2  A    between atoms: N_3  and  C_5 
REMARK    3  A    between atoms: N_3  and  C_29 
REMARK    4  A    between atoms: C_5  and  C_6 
REMARK    5  A    between atoms: C_6  and  O_7 
REMARK    6  A    between atoms: O_7  and  C_8 
REMARK    7  A    between atoms: C_9  and  C_10 
REMARK    8  A    between atoms: C_10  and  N_11 
REMARK       I    between atoms: N_11  and  C_12 
REMARK    9  A    between atoms: C_12  and  C_13 
ROOT
HETATM    1  N   UNL     1      -3.859   2.386 -32.572  1.00  0.00    -0.352 N 
HETATM    2  C   UNL     1      -3.888   3.617 -31.934  1.00  0.00     0.254 C 
HETATM    3  O   UNL     1      -4.675   3.912 -31.045  1.00  0.00    -0.268 OA
HETATM    4  H   UNL     1      -2.953   2.127 -32.937  1.00  0.00     0.163 HD
ENDROOT
BRANCH   1   5
HETATM    5  C   UNL     1      -4.666   1.277 -32.095  1.00  0.00     0.164 C 
BRANCH   5   6
HETATM    6  C   UNL     1      -5.536   0.622 -33.141  1.00  0.00    -0.007 A 
HETATM    7  C   UNL     1      -6.335   1.345 -34.045  1.00  0.00     0.076 A 
HETATM    8  C   UNL     1      -7.077   0.649 -35.012  1.00  0.00     0.037 A 
HETATM    9  C   UNL     1      -7.048  -0.746 -35.073  1.00  0.00     0.003 A 
HETATM   10  C   UNL     1      -6.280  -1.465 -34.168  1.00  0.00     0.001 A 
HETATM   11  C   UNL     1      -5.530  -0.785 -33.213  1.00  0.00     0.011 A 
BRANCH   7  12
HETATM   12  O   UNL     1      -6.316   2.718 -33.936  1.00  0.00    -0.349 OA
BRANCH  12  13
HETATM   13  C   UNL     1      -7.575   3.342 -33.666  1.00  0.00     0.203 C 
BRANCH  13  14
HETATM   14  C   UNL     1      -7.991   3.088 -32.212  1.00  0.00     0.261 C 
BRANCH  14  15
HETATM   15  N   UNL     1      -9.269   2.259 -32.047  1.00  0.00    -0.070 N 
HETATM   16  H   UNL     1      -9.724   2.640 -31.206  1.00  0.00     0.279 HD
BRANCH  15  17
HETATM   17  C   UNL     1      -9.053   0.782 -31.760  1.00  0.00     0.230 C 
HETATM   18  C   UNL     1      -9.865  -0.099 -32.692  1.00  0.00     0.034 C 
ENDBRANCH  15  17
BRANCH  15  19
HETATM   19  C   UNL     1     -10.291   2.423 -33.161  1.00  0.00     0.230 C 
HETATM   20  C   UNL     1     -11.363   3.433 -32.796  1.00  0.00     0.034 C 
ENDBRANCH  15  19
ENDBRANCH  14  15
ENDBRANCH  13  14
ENDBRANCH  12  13
ENDBRANCH   7  12
ENDBRANCH   5   6
ENDBRANCH   1   5
BRANCH   2  21
HETATM   21  C   UNL     1      -2.834   4.584 -32.331  1.00  0.00     0.064 A 
HETATM   22  C   UNL     1      -2.356   5.580 -31.502  1.00  0.00     0.077 A 
HETATM   23  C   UNL     1      -1.424   6.525 -31.944  1.00  0.00     0.065 A 
HETATM   24  N   UNL     1      -2.627   5.857 -30.158  1.00  0.00    -0.330 N 
HETATM   25  N   UNL     1      -1.155   7.397 -30.887  1.00  0.00    -0.331 N 
HETATM   26  C   UNL     1      -0.903   6.503 -33.215  1.00  0.00     0.074 A 
HETATM   27  C   UNL     1      -1.883   6.975 -29.771  1.00  0.00     0.176 A 
HETATM   28  H   UNL     1      -0.509   8.175 -30.906  1.00  0.00     0.168 HD
HETATM   29  S   UNL     1      -1.881   7.636 -28.262  1.00  0.00    -0.041 SA
HETATM   30  C   UNL     1      -1.347   5.475 -34.046  1.00  0.00     0.119 A 
HETATM   31  F   UNL     1      -0.859   5.393 -35.291  1.00  0.00    -0.206 F 
HETATM   32  C   UNL     1      -2.295   4.526 -33.625  1.00  0.00     0.061 A 
HETATM   33  H   UNL     1      -3.175   5.276 -29.544  1.00  0.00     0.168 HD
ENDBRANCH   2  21
TORSDOF 9
ENDMDL
MODEL 3
REMARK VINA RESULT:      -8.0      2.656      3.370
REMARK  9 active torsions:
REMARK  status: ('A' for Active; 'I' for Inactive)
REMARK    1  A    between atoms: C_2  and  N_3 
REMARK    2  A    between atoms: N_3  and  C_5 
REMARK    3  A    between atoms: N_3  and  C_29 
REMARK    4  A    between atoms: C_5  and  C_6 
REMARK    5  A    between atoms: C_6  and  O_7 
REMARK    6  A    between atoms: O_7  and  C_8 
REMARK    7  A    between atoms: C_9  and  C_10 
REMARK    8  A    between atoms: C_10  and  N_11 
REMARK       I    between atoms: N_11  and  C_12 
REMARK    9  A    between atoms: C_12  and  C_13 
ROOT
HETATM    1  N   UNL     1      -3.825   2.067 -32.295  1.00  0.00    -0.352 N 
HETATM    2  C   UNL     1      -5.194   1.914 -32.136  1.00  0.00     0.254 C 
HETATM    3  O   UNL     1      -5.859   2.511 -31.301  1.00  0.00    -0.268 OA
HETATM    4  H   UNL     1      -3.491   1.882 -33.232  1.00  0.00     0.163 HD
ENDROOT
BRANCH   1   5
HETATM    5  C   UNL     1      -3.098   3.101 -31.580  1.00  0.00     0.164 C 
BRANCH   5   6
HETATM    6  C   UNL     1      -2.510   4.187 -32.448  1.00  0.00    -0.007 A 
HETATM    7  C   UNL     1      -1.361   4.919 -32.096  1.00  0.00     0.076 A 
HETATM    8  C   UNL     1      -0.861   5.881 -32.988  1.00  0.00     0.037 A 
HETATM    9  C   UNL     1      -1.501   6.134 -34.204  1.00  0.00     0.003 A 
HETATM   10  C   UNL     1      -2.648   5.431 -34.545  1.00  0.00     0.001 A 
HETATM   11  C   UNL     1      -3.145   4.466 -33.674  1.00  0.00     0.011 A 
BRANCH   7  12
HETATM   12  O   UNL     1      -0.775   4.619 -30.887  1.00  0.00    -0.349 OA
BRANCH  12  13
HETATM   13  C   UNL     1       0.512   5.199 -30.654  1.00  0.00     0.203 C 
BRANCH  13  14
HETATM   14  C   UNL     1       0.390   6.389 -29.693  1.00  0.00     0.261 C 
BRANCH  14  15
HETATM   15  N   UNL     1      -0.744   6.273 -28.670  1.00  0.00    -0.070 N 
HETATM   16  H   UNL     1      -1.072   5.300 -28.748  1.00  0.00     0.279 HD
BRANCH  15  17
HETATM   17  C   UNL     1      -1.962   7.138 -28.948  1.00  0.00     0.230 C 
HETATM   18  C   UNL     1      -1.651   8.255 -29.928  1.00  0.00     0.034 C 
ENDBRANCH  15  17
BRANCH  15  19
HETATM   19  C   UNL     1      -0.319   6.433 -27.218  1.00  0.00     0.230 C 
HETATM   20  C   UNL     1       1.025   7.128 -27.100  1.00  0.00     0.034 C 
ENDBRANCH  15  19
ENDBRANCH  14  15
ENDBRANCH  13  14
ENDBRANCH  12  13
ENDBRANCH   7  12
ENDBRANCH   5   6
ENDBRANCH   1   5
BRANCH   2  21
HETATM   21  C   UNL     1      -5.869   1.018 -33.108  1.00  0.00     0.064 A 
HETATM   22  C   UNL     1      -7.115   1.271 -33.646  1.00  0.00     0.077 A 
HETATM   23  C   UNL     1      -7.754   0.359 -34.492  1.00  0.00     0.065 A 
HETATM   24  N   UNL     1      -7.954   2.384 -33.522  1.00  0.00    -0.330 N 
HETATM   25  N   UNL     1      -8.992   0.894 -34.854  1.00  0.00    -0.331 N 
HETATM   26  C   UNL     1      -7.172  -0.828 -34.865  1.00  0.00     0.074 A 
HETATM   27  C   UNL     1      -9.112   2.159 -34.270  1.00  0.00     0.176 A 
HETATM   28  H   UNL     1      -9.671   0.465 -35.469  1.00  0.00     0.168 HD
HETATM   29  S   UNL     1     -10.363   3.221 -34.425  1.00  0.00    -0.041 SA
HETATM   30  C   UNL     1      -5.895  -1.074 -34.361  1.00  0.00     0.119 A 
HETATM   31  F   UNL     1      -5.270  -2.207 -34.706  1.00  0.00    -0.206 F 
HETATM   32  C   UNL     1      -5.244  -0.176 -33.497  1.00  0.00     0.061 A 
HETATM   33  H   UNL     1      -7.709   3.249 -33.066  1.00  0.00     0.168 HD
ENDBRANCH   2  21
TORSDOF 9
ENDMDL
MODEL 4
REMARK VINA RESULT:      -8.0      5.123      7.989
REMARK  9 active torsions:
REMARK  status: ('A' for Active; 'I' for Inactive)
REMARK    1  A    between atoms: C_2  and  N_3 
REMARK    2  A    between atoms: N_3  and  C_5 
REMARK    3  A    between atoms: N_3  and  C_29 
REMARK    4  A    between atoms: C_5  and  C_6 
REMARK    5  A    between atoms: C_6  and  O_7 
REMARK    6  A    between atoms: O_7  and  C_8 
REMARK    7  A    between atoms: C_9  and  C_10 
REMARK    8  A    between atoms: C_10  and  N_11 
REMARK       I    between atoms: N_11  and  C_12 
REMARK    9  A    between atoms: C_12  and  C_13 
ROOT
HETATM    1  N   UNL     1      -7.629  -0.199 -33.983  1.00  0.00    -0.352 N 
HETATM    2  C   UNL     1      -8.096   1.039 -33.568  1.00  0.00     0.254 C 
HETATM    3  O   UNL     1      -7.377   1.948 -33.176  1.00  0.00    -0.268 OA
HETATM    4  H   UNL     1      -8.223  -0.665 -34.655  1.00  0.00     0.163 HD
ENDROOT
BRANCH   1   5
HETATM    5  C   UNL     1      -6.208  -0.446 -34.149  1.00  0.00     0.164 C 
BRANCH   5   6
HETATM    6  C   UNL     1      -5.822  -1.898 -34.286  1.00  0.00    -0.007 A 
HETATM    7  C   UNL     1      -4.568  -2.405 -33.897  1.00  0.00     0.076 A 
HETATM    8  C   UNL     1      -4.315  -3.780 -34.023  1.00  0.00     0.037 A 
HETATM    9  C   UNL     1      -5.281  -4.643 -34.546  1.00  0.00     0.003 A 
HETATM   10  C   UNL     1      -6.510  -4.145 -34.953  1.00  0.00     0.001 A 
HETATM   11  C   UNL     1      -6.777  -2.785 -34.822  1.00  0.00     0.011 A 
BRANCH   7  12
HETATM   12  O   UNL     1      -3.662  -1.503 -33.385  1.00  0.00    -0.349 OA
BRANCH  12  13
HETATM   13  C   UNL     1      -3.374  -1.630 -31.989  1.00  0.00     0.203 C 
BRANCH  13  14
HETATM   14  C   UNL     1      -3.103  -0.251 -31.376  1.00  0.00     0.261 C 
BRANCH  14  15
HETATM   15  N   UNL     1      -4.288   0.718 -31.428  1.00  0.00    -0.070 N 
HETATM   16  H   UNL     1      -4.863   0.391 -32.217  1.00  0.00     0.279 HD
BRANCH  15  17
HETATM   17  C   UNL     1      -3.936   2.161 -31.752  1.00  0.00     0.230 C 
HETATM   18  C   UNL     1      -4.665   3.137 -30.847  1.00  0.00     0.034 C 
ENDBRANCH  15  17
BRANCH  15  19
HETATM   19  C   UNL     1      -5.211   0.672 -30.220  1.00  0.00     0.230 C 
HETATM   20  C   UNL     1      -6.456  -0.150 -30.495  1.00  0.00     0.034 C 
ENDBRANCH  15  19
ENDBRANCH  14  15
ENDBRANCH  13  14
ENDBRANCH  12  13
ENDBRANCH   7  12
ENDBRANCH   5   6
ENDBRANCH   1   5
BRANCH   2  21
HETATM   21  C   UNL     1      -9.558   1.262 -33.694  1.00  0.00     0.064 A 
HETATM   22  C   UNL     1     -10.122   2.475 -34.040  1.00  0.00     0.077 A 
HETATM   23  C   UNL     1     -11.507   2.666 -34.064  1.00  0.00     0.065 A 
HETATM   24  N   UNL     1      -9.527   3.678 -34.435  1.00  0.00    -0.330 N 
HETATM   25  N   UNL     1     -11.756   3.989 -34.435  1.00  0.00    -0.331 N 
HETATM   26  C   UNL     1     -12.392   1.656 -33.777  1.00  0.00     0.074 A 
HETATM   27  C   UNL     1     -10.531   4.615 -34.685  1.00  0.00     0.176 A 
HETATM   28  H   UNL     1     -12.667   4.415 -34.549  1.00  0.00     0.168 HD
HETATM   29  S   UNL     1     -10.281   6.162 -35.196  1.00  0.00    -0.041 SA
HETATM   30  C   UNL     1     -11.834   0.416 -33.468  1.00  0.00     0.119 A 
HETATM   31  F   UNL     1     -12.650  -0.611 -33.198  1.00  0.00    -0.206 F 
HETATM   32  C   UNL     1     -10.444   0.209 -33.423  1.00  0.00     0.061 A 
HETATM   33  H   UNL     1      -8.544   3.808 -34.620  1.00  0.00     0.168 HD
ENDBRANCH   2  21
TORSDOF 9
ENDMDL
MODEL 5
REMARK VINA RESULT:      -8.0      3.764      8.541
REMARK  9 active torsions:
REMARK  status: ('A' for Active; 'I' for Inactive)
REMARK    1  A    between atoms: C_2  and  N_3 
REMARK    2  A    between atoms: N_3  and  C_5 
REMARK    3  A    between atoms: N_3  and  C_29 
REMARK    4  A    between atoms: C_5  and  C_6 
REMARK    5  A    between atoms: C_6  and  O_7 
REMARK    6  A    between atoms: O_7  and  C_8 
REMARK    7  A    between atoms: C_9  and  C_10 
REMARK    8  A    between atoms: C_10  and  N_11 
REMARK       I    between atoms: N_11  and  C_12 
REMARK    9  A    between atoms: C_12  and  C_13 
ROOT
HETATM    1  N   UNL     1      -4.331  -0.191 -32.663  1.00  0.00    -0.352 N 
HETATM    2  C   UNL     1      -3.689   0.482 -31.634  1.00  0.00     0.254 C 
HETATM    3  O   UNL     1      -2.598   0.166 -31.181  1.00  0.00    -0.268 OA
HETATM    4  H   UNL     1      -4.959   0.382 -33.209  1.00  0.00     0.163 HD
ENDROOT
BRANCH   1   5
HETATM    5  C   UNL     1      -3.655  -1.239 -33.407  1.00  0.00     0.164 C 
BRANCH   5   6
HETATM    6  C   UNL     1      -4.544  -2.361 -33.885  1.00  0.00    -0.007 A 
HETATM    7  C   UNL     1      -5.827  -2.155 -34.423  1.00  0.00     0.076 A 
HETATM    8  C   UNL     1      -6.564  -3.259 -34.881  1.00  0.00     0.037 A 
HETATM    9  C   UNL     1      -6.048  -4.554 -34.791  1.00  0.00     0.003 A 
HETATM   10  C   UNL     1      -4.793  -4.765 -34.239  1.00  0.00     0.001 A 
HETATM   11  C   UNL     1      -4.048  -3.676 -33.793  1.00  0.00     0.011 A 
BRANCH   7  12
HETATM   12  O   UNL     1      -6.275  -0.855 -34.489  1.00  0.00    -0.349 OA
BRANCH  12  13
HETATM   13  C   UNL     1      -7.462  -0.640 -35.258  1.00  0.00     0.203 C 
BRANCH  13  14
HETATM   14  C   UNL     1      -8.071   0.727 -34.922  1.00  0.00     0.261 C 
BRANCH  14  15
HETATM   15  N   UNL     1      -7.560   1.354 -33.621  1.00  0.00    -0.070 N 
HETATM   16  H   UNL     1      -6.902   0.663 -33.235  1.00  0.00     0.279 HD
BRANCH  15  17
HETATM   17  C   UNL     1      -8.610   1.564 -32.543  1.00  0.00     0.230 C 
HETATM   18  C   UNL     1      -9.809   0.654 -32.737  1.00  0.00     0.034 C 
ENDBRANCH  15  17
BRANCH  15  19
HETATM   19  C   UNL     1      -6.742   2.624 -33.797  1.00  0.00     0.230 C 
HETATM   20  C   UNL     1      -7.496   3.849 -33.313  1.00  0.00     0.034 C 
ENDBRANCH  15  19
ENDBRANCH  14  15
ENDBRANCH  13  14
ENDBRANCH  12  13
ENDBRANCH   7  12
ENDBRANCH   5   6
ENDBRANCH   1   5
BRANCH   2  21
HETATM   21  C   UNL     1      -4.368   1.702 -31.129  1.00  0.00     0.064 A 
HETATM   22  C   UNL     1      -3.823   2.970 -31.205  1.00  0.00     0.077 A 
HETATM   23  C   UNL     1      -4.456   4.081 -30.640  1.00  0.00     0.065 A 
HETATM   24  N   UNL     1      -2.649   3.423 -31.815  1.00  0.00    -0.330 N 
HETATM   25  N   UNL     1      -3.656   5.202 -30.872  1.00  0.00    -0.331 N 
HETATM   26  C   UNL     1      -5.671   3.990 -30.005  1.00  0.00     0.074 A 
HETATM   27  C   UNL     1      -2.543   4.801 -31.618  1.00  0.00     0.176 A 
HETATM   28  H   UNL     1      -3.862   6.151 -30.590  1.00  0.00     0.168 HD
HETATM   29  S   UNL     1      -1.323   5.751 -32.188  1.00  0.00    -0.041 SA
HETATM   30  C   UNL     1      -6.250   2.722 -29.960  1.00  0.00     0.119 A 
HETATM   31  F   UNL     1      -7.443   2.576 -29.369  1.00  0.00    -0.206 F 
HETATM   32  C   UNL     1      -5.620   1.590 -30.508  1.00  0.00     0.061 A 
HETATM   33  H   UNL     1      -2.045   2.866 -32.400  1.00  0.00     0.168 HD
ENDBRANCH   2  21
TORSDOF 9
ENDMDL
MODEL 6
REMARK VINA RESULT:      -8.0      3.759      8.033
REMARK  9 active torsions:
REMARK  status: ('A' for Active; 'I' for Inactive)
REMARK    1  A    between atoms: C_2  and  N_3 
REMARK    2  A    between atoms: N_3  and  C_5 
REMARK    3  A    between atoms: N_3  and  C_29 
REMARK    4  A    between atoms: C_5  and  C_6 
REMARK    5  A    between atoms: C_6  and  O_7 
REMARK    6  A    between atoms: O_7  and  C_8 
REMARK    7  A    between atoms: C_9  and  C_10 
REMARK    8  A    between atoms: C_10  and  N_11 
REMARK       I    between atoms: N_11  and  C_12 
REMARK    9  A    between atoms: C_12  and  C_13 
ROOT
HETATM    1  N   UNL     1      -3.365   1.989 -32.368  1.00  0.00    -0.352 N 
HETATM    2  C   UNL     1      -3.570   3.231 -31.787  1.00  0.00     0.254 C 
HETATM    3  O   UNL     1      -4.372   3.446 -30.888  1.00  0.00    -0.268 OA
HETATM    4  H   UNL     1      -2.439   1.855 -32.749  1.00  0.00     0.163 HD
ENDROOT
BRANCH   1   5
HETATM    5  C   UNL     1      -3.979   0.794 -31.817  1.00  0.00     0.164 C 
BRANCH   5   6
HETATM    6  C   UNL     1      -4.756  -0.041 -32.805  1.00  0.00    -0.007 A 
HETATM    7  C   UNL     1      -5.952   0.389 -33.409  1.00  0.00     0.076 A 
HETATM    8  C   UNL     1      -6.581  -0.440 -34.351  1.00  0.00     0.037 A 
HETATM    9  C   UNL     1      -6.049  -1.690 -34.677  1.00  0.00     0.003 A 
HETATM   10  C   UNL     1      -4.883  -2.129 -34.066  1.00  0.00     0.001 A 
HETATM   11  C   UNL     1      -4.242  -1.309 -33.140  1.00  0.00     0.011 A 
BRANCH   7  12
HETATM   12  O   UNL     1      -6.421   1.632 -33.049  1.00  0.00    -0.349 OA
BRANCH  12  13
HETATM   13  C   UNL     1      -6.506   2.599 -34.100  1.00  0.00     0.203 C 
BRANCH  13  14
HETATM   14  C   UNL     1      -7.350   3.798 -33.651  1.00  0.00     0.261 C 
BRANCH  14  15
HETATM   15  N   UNL     1      -6.725   4.639 -32.533  1.00  0.00    -0.070 N 
HETATM   16  H   UNL     1      -5.980   4.046 -32.141  1.00  0.00     0.279 HD
BRANCH  15  17
HETATM   17  C   UNL     1      -7.646   4.960 -31.368  1.00  0.00     0.230 C 
HETATM   18  C   UNL     1      -7.846   3.761 -30.459  1.00  0.00     0.034 C 
ENDBRANCH  15  17
BRANCH  15  19
HETATM   19  C   UNL     1      -6.021   5.905 -32.997  1.00  0.00     0.230 C 
HETATM   20  C   UNL     1      -5.700   6.827 -31.835  1.00  0.00     0.034 C 
ENDBRANCH  15  19
ENDBRANCH  14  15
ENDBRANCH  13  14
ENDBRANCH  12  13
ENDBRANCH   7  12
ENDBRANCH   5   6
ENDBRANCH   1   5
BRANCH   2  21
HETATM   21  C   UNL     1      -2.689   4.328 -32.261  1.00  0.00     0.064 A 
HETATM   22  C   UNL     1      -2.341   5.420 -31.489  1.00  0.00     0.077 A 
HETATM   23  C   UNL     1      -1.579   6.474 -32.001  1.00  0.00     0.065 A 
HETATM   24  N   UNL     1      -2.609   5.711 -30.147  1.00  0.00    -0.330 N 
HETATM   25  N   UNL     1      -1.411   7.421 -30.989  1.00  0.00    -0.331 N 
HETATM   26  C   UNL     1      -1.101   6.476 -33.289  1.00  0.00     0.074 A 
HETATM   27  C   UNL     1      -2.032   6.943 -29.830  1.00  0.00     0.176 A 
HETATM   28  H   UNL     1      -0.893   8.287 -31.062  1.00  0.00     0.168 HD
HETATM   29  S   UNL     1      -2.081   7.662 -28.349  1.00  0.00    -0.041 SA
HETATM   30  C   UNL     1      -1.410   5.358 -34.064  1.00  0.00     0.119 A 
HETATM   31  F   UNL     1      -0.955   5.297 -35.321  1.00  0.00    -0.206 F 
HETATM   32  C   UNL     1      -2.189   4.297 -33.571  1.00  0.00     0.061 A 
HETATM   33  H   UNL     1      -3.042   5.080 -29.490  1.00  0.00     0.168 HD
ENDBRANCH   2  21
TORSDOF 9
ENDMDL
MODEL 7
REMARK VINA RESULT:      -7.9      3.981      9.483
REMARK  9 active torsions:
REMARK  status: ('A' for Active; 'I' for Inactive)
REMARK    1  A    between atoms: C_2  and  N_3 
REMARK    2  A    between atoms: N_3  and  C_5 
REMARK    3  A    between atoms: N_3  and  C_29 
REMARK    4  A    between atoms: C_5  and  C_6 
REMARK    5  A    between atoms: C_6  and  O_7 
REMARK    6  A    between atoms: O_7  and  C_8 
REMARK    7  A    between atoms: C_9  and  C_10 
REMARK    8  A    between atoms: C_10  and  N_11 
REMARK       I    between atoms: N_11  and  C_12 
REMARK    9  A    between atoms: C_12  and  C_13 
ROOT
HETATM    1  N   UNL     1      -5.146   2.271 -32.042  1.00  0.00    -0.352 N 
HETATM    2  C   UNL     1      -3.799   2.549 -31.867  1.00  0.00     0.254 C 
HETATM    3  O   UNL     1      -3.029   1.844 -31.230  1.00  0.00    -0.268 OA
HETATM    4  H   UNL     1      -5.544   2.650 -32.890  1.00  0.00     0.163 HD
ENDROOT
BRANCH   1   5
HETATM    5  C   UNL     1      -5.710   1.003 -31.616  1.00  0.00     0.164 C 
BRANCH   5   6
HETATM    6  C   UNL     1      -5.907  -0.012 -32.715  1.00  0.00    -0.007 A 
HETATM    7  C   UNL     1      -7.019  -0.011 -33.578  1.00  0.00     0.076 A 
HETATM    8  C   UNL     1      -7.094  -0.970 -34.600  1.00  0.00     0.037 A 
HETATM    9  C   UNL     1      -6.095  -1.934 -34.756  1.00  0.00     0.003 A 
HETATM   10  C   UNL     1      -5.009  -1.954 -33.893  1.00  0.00     0.001 A 
HETATM   11  C   UNL     1      -4.917  -1.000 -32.883  1.00  0.00     0.011 A 
BRANCH   7  12
HETATM   12  O   UNL     1      -7.966   0.967 -33.375  1.00  0.00    -0.349 OA
BRANCH  12  13
HETATM   13  C   UNL     1      -9.190   0.814 -34.099  1.00  0.00     0.203 C 
BRANCH  13  14
HETATM   14  C   UNL     1     -10.372   0.717 -33.127  1.00  0.00     0.261 C 
BRANCH  14  15
HETATM   15  N   UNL     1     -11.479   1.750 -33.359  1.00  0.00    -0.070 N 
HETATM   16  H   UNL     1     -11.508   2.307 -32.494  1.00  0.00     0.279 HD
BRANCH  15  17
HETATM   17  C   UNL     1     -12.878   1.178 -33.522  1.00  0.00     0.230 C 
HETATM   18  C   UNL     1     -12.862  -0.336 -33.618  1.00  0.00     0.034 C 
ENDBRANCH  15  17
BRANCH  15  19
HETATM   19  C   UNL     1     -11.201   2.753 -34.468  1.00  0.00     0.230 C 
HETATM   20  C   UNL     1     -12.432   3.006 -35.318  1.00  0.00     0.034 C 
ENDBRANCH  15  19
ENDBRANCH  14  15
ENDBRANCH  13  14
ENDBRANCH  12  13
ENDBRANCH   7  12
ENDBRANCH   5   6
ENDBRANCH   1   5
BRANCH   2  21
HETATM   21  C   UNL     1      -3.282   3.746 -32.576  1.00  0.00     0.064 A 
HETATM   22  C   UNL     1      -2.355   4.617 -32.035  1.00  0.00     0.077 A 
HETATM   23  C   UNL     1      -1.958   5.781 -32.701  1.00  0.00     0.065 A 
HETATM   24  N   UNL     1      -1.640   4.557 -30.835  1.00  0.00    -0.330 N 
HETATM   25  N   UNL     1      -1.032   6.447 -31.896  1.00  0.00    -0.331 N 
HETATM   26  C   UNL     1      -2.437   6.114 -33.945  1.00  0.00     0.074 A 
HETATM   27  C   UNL     1      -0.816   5.682 -30.746  1.00  0.00     0.176 A 
HETATM   28  H   UNL     1      -0.560   7.313 -32.122  1.00  0.00     0.168 HD
HETATM   29  S   UNL     1       0.217   6.006 -29.505  1.00  0.00    -0.041 SA
HETATM   30  C   UNL     1      -3.341   5.220 -34.518  1.00  0.00     0.119 A 
HETATM   31  F   UNL     1      -3.826   5.484 -35.738  1.00  0.00    -0.206 F 
HETATM   32  C   UNL     1      -3.764   4.054 -33.857  1.00  0.00     0.061 A 
HETATM   33  H   UNL     1      -1.633   3.774 -30.200  1.00  0.00     0.168 HD
ENDBRANCH   2  21
TORSDOF 9
ENDMDL
MODEL 8
REMARK VINA RESULT:      -7.9      3.300      9.024
REMARK  9 active torsions:
REMARK  status: ('A' for Active; 'I' for Inactive)
REMARK    1  A    between atoms: C_2  and  N_3 
REMARK    2  A    between atoms: N_3  and  C_5 
REMARK    3  A    between atoms: N_3  and  C_29 
REMARK    4  A    between atoms: C_5  and  C_6 
REMARK    5  A    between atoms: C_6  and  O_7 
REMARK    6  A    between atoms: O_7  and  C_8 
REMARK    7  A    between atoms: C_9  and  C_10 
REMARK    8  A    between atoms: C_10  and  N_11 
REMARK       I    between atoms: N_11  and  C_12 
REMARK    9  A    between atoms: C_12  and  C_13 
ROOT
HETATM    1  N   UNL     1      -5.187   2.938 -31.375  1.00  0.00    -0.352 N 
HETATM    2  C   UNL     1      -3.809   2.992 -31.518  1.00  0.00     0.254 C 
HETATM    3  O   UNL     1      -3.036   2.167 -31.051  1.00  0.00    -0.268 OA
HETATM    4  H   UNL     1      -5.702   3.383 -32.123  1.00  0.00     0.163 HD
ENDROOT
BRANCH   1   5
HETATM    5  C   UNL     1      -5.834   1.775 -30.795  1.00  0.00     0.164 C 
BRANCH   5   6
HETATM    6  C   UNL     1      -6.861   1.106 -31.676  1.00  0.00    -0.007 A 
HETATM    7  C   UNL     1      -6.526   0.327 -32.798  1.00  0.00     0.076 A 
HETATM    8  C   UNL     1      -7.550  -0.292 -33.533  1.00  0.00     0.037 A 
HETATM    9  C   UNL     1      -8.890  -0.127 -33.177  1.00  0.00     0.003 A 
HETATM   10  C   UNL     1      -9.227   0.660 -32.085  1.00  0.00     0.001 A 
HETATM   11  C   UNL     1      -8.220   1.269 -31.341  1.00  0.00     0.011 A 
BRANCH   7  12
HETATM   12  O   UNL     1      -5.187   0.199 -33.093  1.00  0.00    -0.349 OA
BRANCH  12  13
HETATM   13  C   UNL     1      -4.557  -1.001 -32.635  1.00  0.00     0.203 C 
BRANCH  13  14
HETATM   14  C   UNL     1      -4.064  -1.829 -33.829  1.00  0.00     0.261 C 
BRANCH  14  15
HETATM   15  N   UNL     1      -4.791  -3.163 -34.027  1.00  0.00    -0.070 N 
HETATM   16  H   UNL     1      -5.511  -3.183 -33.292  1.00  0.00     0.279 HD
BRANCH  15  17
HETATM   17  C   UNL     1      -3.944  -4.405 -33.801  1.00  0.00     0.230 C 
HETATM   18  C   UNL     1      -3.109  -4.298 -32.539  1.00  0.00     0.034 C 
ENDBRANCH  15  17
BRANCH  15  19
HETATM   19  C   UNL     1      -5.555  -3.291 -35.335  1.00  0.00     0.230 C 
HETATM   20  C   UNL     1      -6.669  -4.316 -35.237  1.00  0.00     0.034 C 
ENDBRANCH  15  19
ENDBRANCH  14  15
ENDBRANCH  13  14
ENDBRANCH  12  13
ENDBRANCH   7  12
ENDBRANCH   5   6
ENDBRANCH   1   5
BRANCH   2  21
HETATM   21  C   UNL     1      -3.283   4.095 -32.362  1.00  0.00     0.064 A 
HETATM   22  C   UNL     1      -2.338   5.006 -31.930  1.00  0.00     0.077 A 
HETATM   23  C   UNL     1      -1.932   6.082 -32.726  1.00  0.00     0.065 A 
HETATM   24  N   UNL     1      -1.609   5.069 -30.738  1.00  0.00    -0.330 N 
HETATM   25  N   UNL     1      -0.987   6.819 -32.010  1.00  0.00    -0.331 N 
HETATM   26  C   UNL     1      -2.420   6.282 -33.994  1.00  0.00     0.074 A 
HETATM   27  C   UNL     1      -0.769   6.184 -30.783  1.00  0.00     0.176 A 
HETATM   28  H   UNL     1      -0.505   7.648 -32.335  1.00  0.00     0.168 HD
HETATM   29  S   UNL     1       0.284   6.628 -29.596  1.00  0.00    -0.041 SA
HETATM   30  C   UNL     1      -3.343   5.344 -34.455  1.00  0.00     0.119 A 
HETATM   31  F   UNL     1      -3.839   5.479 -35.692  1.00  0.00    -0.206 F 
HETATM   32  C   UNL     1      -3.775   4.265 -33.664  1.00  0.00     0.061 A 
HETATM   33  H   UNL     1      -1.606   4.361 -30.020  1.00  0.00     0.168 HD
ENDBRANCH   2  21
TORSDOF 9
ENDMDL
MODEL 9
REMARK VINA RESULT:      -7.7      2.581      3.731
REMARK  9 active torsions:
REMARK  status: ('A' for Active; 'I' for Inactive)
REMARK    1  A    between atoms: C_2  and  N_3 
REMARK    2  A    between atoms: N_3  and  C_5 
REMARK    3  A    between atoms: N_3  and  C_29 
REMARK    4  A    between atoms: C_5  and  C_6 
REMARK    5  A    between atoms: C_6  and  O_7 
REMARK    6  A    between atoms: O_7  and  C_8 
REMARK    7  A    between atoms: C_9  and  C_10 
REMARK    8  A    between atoms: C_10  and  N_11 
REMARK       I    between atoms: N_11  and  C_12 
REMARK    9  A    between atoms: C_12  and  C_13 
ROOT
HETATM    1  N   UNL     1      -3.817   2.517 -32.726  1.00  0.00    -0.352 N 
HETATM    2  C   UNL     1      -4.129   1.213 -32.376  1.00  0.00     0.254 C 
HETATM    3  O   UNL     1      -3.651   0.626 -31.415  1.00  0.00    -0.268 OA
HETATM    4  H   UNL     1      -4.551   3.002 -33.225  1.00  0.00     0.163 HD
ENDROOT
BRANCH   1   5
HETATM    5  C   UNL     1      -3.014   3.355 -31.854  1.00  0.00     0.164 C 
BRANCH   5   6
HETATM    6  C   UNL     1      -2.465   4.607 -32.495  1.00  0.00    -0.007 A 
HETATM    7  C   UNL     1      -2.396   5.847 -31.834  1.00  0.00     0.076 A 
HETATM    8  C   UNL     1      -1.829   6.946 -32.497  1.00  0.00     0.037 A 
HETATM    9  C   UNL     1      -1.353   6.829 -33.806  1.00  0.00     0.003 A 
HETATM   10  C   UNL     1      -1.440   5.614 -34.470  1.00  0.00     0.001 A 
HETATM   11  C   UNL     1      -1.990   4.513 -33.818  1.00  0.00     0.011 A 
BRANCH   7  12
HETATM   12  O   UNL     1      -2.877   5.895 -30.545  1.00  0.00    -0.349 OA
BRANCH  12  13
HETATM   13  C   UNL     1      -4.062   6.671 -30.347  1.00  0.00     0.203 C 
BRANCH  13  14
HETATM   14  C   UNL     1      -5.249   5.753 -30.026  1.00  0.00     0.261 C 
BRANCH  14  15
HETATM   15  N   UNL     1      -6.263   5.596 -31.162  1.00  0.00    -0.070 N 
HETATM   16  H   UNL     1      -7.077   6.153 -30.869  1.00  0.00     0.279 HD
BRANCH  15  17
HETATM   17  C   UNL     1      -6.789   4.185 -31.374  1.00  0.00     0.230 C 
HETATM   18  C   UNL     1      -6.426   3.268 -30.221  1.00  0.00     0.034 C 
ENDBRANCH  15  17
BRANCH  15  19
HETATM   19  C   UNL     1      -5.834   6.190 -32.495  1.00  0.00     0.230 C 
HETATM   20  C   UNL     1      -6.035   5.212 -33.637  1.00  0.00     0.034 C 
ENDBRANCH  15  19
ENDBRANCH  14  15
ENDBRANCH  13  14
ENDBRANCH  12  13
ENDBRANCH   7  12
ENDBRANCH   5   6
ENDBRANCH   1   5
BRANCH   2  21
HETATM   21  C   UNL     1      -5.168   0.545 -33.199  1.00  0.00     0.064 A 
HETATM   22  C   UNL     1      -5.093  -0.772 -33.610  1.00  0.00     0.077 A 
HETATM   23  C   UNL     1      -6.050  -1.338 -34.457  1.00  0.00     0.065 A 
HETATM   24  N   UNL     1      -4.163  -1.771 -33.303  1.00  0.00    -0.330 N 
HETATM   25  N   UNL     1      -5.688  -2.665 -34.696  1.00  0.00    -0.331 N 
HETATM   26  C   UNL     1      -7.140  -0.634 -34.907  1.00  0.00     0.074 A 
HETATM   27  C   UNL     1      -4.529  -2.944 -33.966  1.00  0.00     0.176 A 
HETATM   28  H   UNL     1      -6.199  -3.330 -35.263  1.00  0.00     0.168 HD
HETATM   29  S   UNL     1      -3.725  -4.379 -33.870  1.00  0.00    -0.041 SA
HETATM   30  C   UNL     1      -7.249   0.685 -34.464  1.00  0.00     0.119 A 
HETATM   31  F   UNL     1      -8.302   1.414 -34.856  1.00  0.00    -0.206 F 
HETATM   32  C   UNL     1      -6.288   1.275 -33.625  1.00  0.00     0.061 A 
HETATM   33  H   UNL     1      -3.423  -1.688 -32.623  1.00  0.00     0.168 HD
ENDBRANCH   2  21
TORSDOF 9
ENDMDL
MODEL 10
REMARK VINA RESULT:      -7.7      4.939      7.642
REMARK  9 active torsions:
REMARK  status: ('A' for Active; 'I' for Inactive)
REMARK    1  A    between atoms: C_2  and  N_3 
REMARK    2  A    between atoms: N_3  and  C_5 
REMARK    3  A    between atoms: N_3  and  C_29 
REMARK    4  A    between atoms: C_5  and  C_6 
REMARK    5  A    between atoms: C_6  and  O_7 
REMARK    6  A    between atoms: O_7  and  C_8 
REMARK    7  A    between atoms: C_9  and  C_10 
REMARK    8  A    between atoms: C_10  and  N_11 
REMARK       I    between atoms: N_11  and  C_12 
REMARK    9  A    between atoms: C_12  and  C_13 
ROOT
HETATM    1  N   UNL     1      -8.825   0.552 -32.338  1.00  0.00    -0.352 N 
HETATM    2  C   UNL     1      -9.367   1.687 -32.922  1.00  0.00     0.254 C 
HETATM    3  O   UNL     1      -8.753   2.731 -33.095  1.00  0.00    -0.268 OA
HETATM    4  H   UNL     1      -9.251  -0.315 -32.638  1.00  0.00     0.163 HD
ENDROOT
BRANCH   1   5
HETATM    5  C   UNL     1      -7.406   0.466 -32.044  1.00  0.00     0.164 C 
BRANCH   5   6
HETATM    6  C   UNL     1      -6.637  -0.529 -32.879  1.00  0.00    -0.007 A 
HETATM    7  C   UNL     1      -5.263  -0.780 -32.710  1.00  0.00     0.076 A 
HETATM    8  C   UNL     1      -4.642  -1.757 -33.506  1.00  0.00     0.037 A 
HETATM    9  C   UNL     1      -5.364  -2.462 -34.471  1.00  0.00     0.003 A 
HETATM   10  C   UNL     1      -6.714  -2.201 -34.657  1.00  0.00     0.001 A 
HETATM   11  C   UNL     1      -7.344  -1.244 -33.866  1.00  0.00     0.011 A 
BRANCH   7  12
HETATM   12  O   UNL     1      -4.610  -0.055 -31.739  1.00  0.00    -0.349 OA
BRANCH  12  13
HETATM   13  C   UNL     1      -3.503   0.734 -32.185  1.00  0.00     0.203 C 
BRANCH  13  14
HETATM   14  C   UNL     1      -3.385   2.008 -31.339  1.00  0.00     0.261 C 
BRANCH  14  15
HETATM   15  N   UNL     1      -4.008   3.256 -31.971  1.00  0.00    -0.070 N 
HETATM   16  H   UNL     1      -4.228   2.981 -32.938  1.00  0.00     0.279 HD
BRANCH  15  17
HETATM   17  C   UNL     1      -3.083   4.456 -32.089  1.00  0.00     0.230 C 
HETATM   18  C   UNL     1      -2.228   4.390 -33.341  1.00  0.00     0.034 C 
ENDBRANCH  15  17
BRANCH  15  19
HETATM   19  C   UNL     1      -5.337   3.687 -31.369  1.00  0.00     0.230 C 
HETATM   20  C   UNL     1      -5.584   3.028 -30.025  1.00  0.00     0.034 C 
ENDBRANCH  15  19
ENDBRANCH  14  15
ENDBRANCH  13  14
ENDBRANCH  12  13
ENDBRANCH   7  12
ENDBRANCH   5   6
ENDBRANCH   1   5
BRANCH   2  21
HETATM   21  C   UNL     1     -10.759   1.563 -33.423  1.00  0.00     0.064 A 
HETATM   22  C   UNL     1     -11.475   2.613 -33.965  1.00  0.00     0.077 A 
HETATM   23  C   UNL     1     -12.813   2.475 -34.347  1.00  0.00     0.065 A 
HETATM   24  N   UNL     1     -11.088   3.924 -34.262  1.00  0.00    -0.330 N 
HETATM   25  N   UNL     1     -13.253   3.706 -34.840  1.00  0.00    -0.331 N 
HETATM   26  C   UNL     1     -13.489   1.285 -34.237  1.00  0.00     0.074 A 
HETATM   27  C   UNL     1     -12.180   4.602 -34.808  1.00  0.00     0.176 A 
HETATM   28  H   UNL     1     -14.175   3.908 -35.202  1.00  0.00     0.168 HD
HETATM   29  S   UNL     1     -12.165   6.167 -35.322  1.00  0.00    -0.041 SA
HETATM   30  C   UNL     1     -12.763   0.207 -33.730  1.00  0.00     0.119 A 
HETATM   31  F   UNL     1     -13.365  -0.984 -33.619  1.00  0.00    -0.206 F 
HETATM   32  C   UNL     1     -11.421   0.330 -33.327  1.00  0.00     0.061 A 
HETATM   33  H   UNL     1     -10.147   4.280 -34.202  1.00  0.00     0.168 HD
ENDBRANCH   2  21
TORSDOF 9
ENDMDL
