MODEL 1
REMARK VINA RESULT:      -6.8      0.000      0.000
REMARK  8 active torsions:
REMARK  status: ('A' for Active; 'I' for Inactive)
REMARK    1  A    between atoms: C_4  and  C_5 
REMARK    2  A    between atoms: C_5  and  N_6 
REMARK    3  A    between atoms: N_6  and  C_9 
REMARK    4  A    between atoms: C_9  and  C_10 
REMARK    5  A    between atoms: C_10  and  C_11 
REMARK    6  A    between atoms: C_11  and  C_12 
REMARK    7  A    between atoms: C_17  and  O_18 
REMARK    8  A    between atoms: C_21  and  O_22 
ROOT
HETATM    1  C   UNL     1      -7.567   0.985 -34.194  1.00  0.00     0.010 C 
HETATM    2  N   UNL     1      -7.846  -0.249 -34.732  1.00  0.00    -0.359 N 
HETATM    3  H   UNL     1      -8.716  -0.525 -35.169  1.00  0.00     0.166 HD
HETATM    4  C   UNL     1      -6.784  -1.102 -34.533  1.00  0.00     0.048 A 
HETATM    5  C   UNL     1      -5.751  -0.358 -33.968  1.00  0.00     0.026 A 
HETATM    6  C   UNL     1      -4.524  -0.992 -33.680  1.00  0.00     0.083 A 
HETATM    7  C   UNL     1      -4.398  -2.370 -33.926  1.00  0.00     0.074 A 
HETATM    8  C   UNL     1      -5.451  -3.098 -34.485  1.00  0.00     0.073 A 
HETATM    9  C   UNL     1      -6.657  -2.466 -34.813  1.00  0.00     0.067 A 
HETATM   10  C   UNL     1      -6.245   0.967 -33.801  1.00  0.00     0.041 C 
ENDROOT
BRANCH   1  11
HETATM   11  C   UNL     1      -8.591   2.062 -34.084  1.00  0.00     0.059 C 
BRANCH  11  12
HETATM   12  C   UNL     1      -9.741   1.640 -33.158  1.00  0.00     0.033 C 
BRANCH  12  13
HETATM   13  C   UNL     1     -10.017   2.668 -32.061  1.00  0.00     0.233 C 
BRANCH  13  14
HETATM   14  N   UNL     1      -9.345   2.226 -30.802  1.00  0.00    -0.067 N 
HETATM   15  H   UNL     1      -8.819   1.358 -30.968  1.00  0.00     0.277 HD
HETATM   16  H   UNL     1     -10.061   1.984 -30.105  1.00  0.00     0.277 HD
BRANCH  14  17
HETATM   17  C   UNL     1      -8.406   3.213 -30.161  1.00  0.00     0.223 C 
HETATM   18  C   UNL     1      -8.687   4.623 -30.681  1.00  0.00     0.046 C 
BRANCH  17  19
HETATM   19  C   UNL     1      -6.981   2.822 -30.404  1.00  0.00     0.032 A 
HETATM   20  S   UNL     1      -5.860   3.866 -31.188  1.00  0.00    -0.076 SA
HETATM   21  C   UNL     1      -4.633   2.675 -31.018  1.00  0.00     0.071 A 
HETATM   22  C   UNL     1      -3.255   2.934 -31.518  1.00  0.00     0.078 C 
HETATM   23  N   UNL     1      -5.015   1.565 -30.425  1.00  0.00    -0.257 NA
HETATM   24  C   UNL     1      -6.340   1.648 -30.060  1.00  0.00     0.134 A 
ENDBRANCH  17  19
ENDBRANCH  14  17
ENDBRANCH  13  14
ENDBRANCH  12  13
ENDBRANCH  11  12
ENDBRANCH   1  11
BRANCH   6  25
HETATM   25  O   UNL     1      -3.534  -0.238 -33.098  1.00  0.00    -0.355 OA
HETATM   26  C   UNL     1      -2.882  -0.870 -31.999  1.00  0.00     0.210 C 
ENDBRANCH   6  25
BRANCH   8  27
HETATM   27  O   UNL     1      -5.441  -4.441 -34.756  1.00  0.00    -0.356 OA
HETATM   28  C   UNL     1      -4.444  -5.227 -34.114  1.00  0.00     0.210 C 
ENDBRANCH   8  27
TORSDOF 8
ENDMDL
MODEL 2
REMARK VINA RESULT:      -6.7      1.176      2.307
REMARK  8 active torsions:
REMARK  status: ('A' for Active; 'I' for Inactive)
REMARK    1  A    between atoms: C_4  and  C_5 
REMARK    2  A    between atoms: C_5  and  N_6 
REMARK    3  A    between atoms: N_6  and  C_9 
REMARK    4  A    between atoms: C_9  and  C_10 
REMARK    5  A    between atoms: C_10  and  C_11 
REMARK    6  A    between atoms: C_11  and  C_12 
REMARK    7  A    between atoms: C_17  and  O_18 
REMARK    8  A    between atoms: C_21  and  O_22 
ROOT
HETATM    1  C   UNL     1      -7.720   0.219 -34.117  1.00  0.00     0.010 C 
HETATM    2  N   UNL     1      -6.887   0.243 -33.023  1.00  0.00    -0.359 N 
HETATM    3  H   UNL     1      -6.924   0.909 -32.262  1.00  0.00     0.166 HD
HETATM    4  C   UNL     1      -5.931  -0.740 -33.136  1.00  0.00     0.048 A 
HETATM    5  C   UNL     1      -6.238  -1.493 -34.266  1.00  0.00     0.026 A 
HETATM    6  C   UNL     1      -5.420  -2.592 -34.604  1.00  0.00     0.083 A 
HETATM    7  C   UNL     1      -4.289  -2.864 -33.816  1.00  0.00     0.074 A 
HETATM    8  C   UNL     1      -3.995  -2.089 -32.691  1.00  0.00     0.073 A 
HETATM    9  C   UNL     1      -4.827  -1.023 -32.326  1.00  0.00     0.067 A 
HETATM   10  C   UNL     1      -7.395  -0.903 -34.850  1.00  0.00     0.041 C 
ENDROOT
BRANCH   1  11
HETATM   11  C   UNL     1      -8.735   1.279 -34.375  1.00  0.00     0.059 C 
BRANCH  11  12
HETATM   12  C   UNL     1      -9.964   1.099 -33.472  1.00  0.00     0.033 C 
BRANCH  12  13
HETATM   13  C   UNL     1     -10.169   2.277 -32.521  1.00  0.00     0.233 C 
BRANCH  13  14
HETATM   14  N   UNL     1      -9.490   1.978 -31.224  1.00  0.00    -0.067 N 
HETATM   15  H   UNL     1      -8.872   1.162 -31.329  1.00  0.00     0.277 HD
HETATM   16  H   UNL     1     -10.195   1.700 -30.530  1.00  0.00     0.277 HD
BRANCH  14  17
HETATM   17  C   UNL     1      -8.676   3.092 -30.622  1.00  0.00     0.223 C 
HETATM   18  C   UNL     1      -8.983   4.412 -31.328  1.00  0.00     0.046 C 
BRANCH  17  19
HETATM   19  C   UNL     1      -7.213   2.773 -30.685  1.00  0.00     0.032 A 
HETATM   20  S   UNL     1      -6.142   3.577 -31.767  1.00  0.00    -0.076 SA
HETATM   21  C   UNL     1      -4.834   2.638 -31.166  1.00  0.00     0.071 A 
HETATM   22  C   UNL     1      -3.458   2.832 -31.701  1.00  0.00     0.078 C 
HETATM   23  N   UNL     1      -5.155   1.775 -30.228  1.00  0.00    -0.257 NA
HETATM   24  C   UNL     1      -6.499   1.857 -29.939  1.00  0.00     0.134 A 
ENDBRANCH  17  19
ENDBRANCH  14  17
ENDBRANCH  13  14
ENDBRANCH  12  13
ENDBRANCH  11  12
ENDBRANCH   1  11
BRANCH   6  25
HETATM   25  O   UNL     1      -5.733  -3.299 -35.740  1.00  0.00    -0.355 OA
HETATM   26  C   UNL     1      -6.467  -4.499 -35.503  1.00  0.00     0.210 C 
ENDBRANCH   6  25
BRANCH   8  27
HETATM   27  O   UNL     1      -2.918  -2.257 -31.862  1.00  0.00    -0.356 OA
HETATM   28  C   UNL     1      -2.558  -3.591 -31.523  1.00  0.00     0.210 C 
ENDBRANCH   8  27
TORSDOF 8
ENDMDL
MODEL 3
REMARK VINA RESULT:      -6.7      3.668      5.565
REMARK  8 active torsions:
REMARK  status: ('A' for Active; 'I' for Inactive)
REMARK    1  A    between atoms: C_4  and  C_5 
REMARK    2  A    between atoms: C_5  and  N_6 
REMARK    3  A    between atoms: N_6  and  C_9 
REMARK    4  A    between atoms: C_9  and  C_10 
REMARK    5  A    between atoms: C_10  and  C_11 
REMARK    6  A    between atoms: C_11  and  C_12 
REMARK    7  A    between atoms: C_17  and  O_18 
REMARK    8  A    between atoms: C_21  and  O_22 
ROOT
HETATM    1  C   UNL     1      -4.160   1.390 -32.232  1.00  0.00     0.010 C 
HETATM    2  N   UNL     1      -3.808   0.069 -32.382  1.00  0.00    -0.359 N 
HETATM    3  H   UNL     1      -3.007  -0.385 -31.961  1.00  0.00     0.166 HD
HETATM    4  C   UNL     1      -4.670  -0.553 -33.257  1.00  0.00     0.048 A 
HETATM    5  C   UNL     1      -5.674   0.359 -33.573  1.00  0.00     0.026 A 
HETATM    6  C   UNL     1      -6.711  -0.035 -34.444  1.00  0.00     0.083 A 
HETATM    7  C   UNL     1      -6.673  -1.322 -35.007  1.00  0.00     0.074 A 
HETATM    8  C   UNL     1      -5.651  -2.217 -34.681  1.00  0.00     0.073 A 
HETATM    9  C   UNL     1      -4.641  -1.847 -33.785  1.00  0.00     0.067 A 
HETATM   10  C   UNL     1      -5.363   1.566 -32.884  1.00  0.00     0.041 C 
ENDROOT
BRANCH   1  11
HETATM   11  C   UNL     1      -3.309   2.368 -31.498  1.00  0.00     0.059 C 
BRANCH  11  12
HETATM   12  C   UNL     1      -3.549   3.798 -32.003  1.00  0.00     0.033 C 
BRANCH  12  13
HETATM   13  C   UNL     1      -2.586   4.194 -33.122  1.00  0.00     0.233 C 
BRANCH  13  14
HETATM   14  N   UNL     1      -1.353   4.782 -32.516  1.00  0.00    -0.067 N 
HETATM   15  H   UNL     1      -0.649   4.954 -33.246  1.00  0.00     0.277 HD
HETATM   16  H   UNL     1      -0.928   4.095 -31.881  1.00  0.00     0.277 HD
BRANCH  14  17
HETATM   17  C   UNL     1      -1.532   6.062 -31.743  1.00  0.00     0.223 C 
HETATM   18  C   UNL     1      -1.216   7.264 -32.633  1.00  0.00     0.046 C 
BRANCH  17  19
HETATM   19  C   UNL     1      -0.678   6.061 -30.513  1.00  0.00     0.032 A 
HETATM   20  S   UNL     1      -0.598   7.410 -29.447  1.00  0.00    -0.076 SA
HETATM   21  C   UNL     1       0.508   6.553 -28.448  1.00  0.00     0.071 A 
HETATM   22  C   UNL     1       1.046   7.178 -27.209  1.00  0.00     0.078 C 
HETATM   23  N   UNL     1       0.814   5.346 -28.868  1.00  0.00    -0.257 NA
HETATM   24  C   UNL     1       0.133   5.053 -30.028  1.00  0.00     0.134 A 
ENDBRANCH  17  19
ENDBRANCH  14  17
ENDBRANCH  13  14
ENDBRANCH  12  13
ENDBRANCH  11  12
ENDBRANCH   1  11
BRANCH   6  25
HETATM   25  O   UNL     1      -7.672   0.896 -34.758  1.00  0.00    -0.355 OA
HETATM   26  C   UNL     1      -8.887   0.760 -34.023  1.00  0.00     0.210 C 
ENDBRANCH   6  25
BRANCH   8  27
HETATM   27  O   UNL     1      -5.511  -3.487 -35.178  1.00  0.00    -0.356 OA
HETATM   28  C   UNL     1      -6.608  -4.377 -35.009  1.00  0.00     0.210 C 
ENDBRANCH   8  27
TORSDOF 8
ENDMDL
MODEL 4
REMARK VINA RESULT:      -6.6      2.639      3.215
REMARK  8 active torsions:
REMARK  status: ('A' for Active; 'I' for Inactive)
REMARK    1  A    between atoms: C_4  and  C_5 
REMARK    2  A    between atoms: C_5  and  N_6 
REMARK    3  A    between atoms: N_6  and  C_9 
REMARK    4  A    between atoms: C_9  and  C_10 
REMARK    5  A    between atoms: C_10  and  C_11 
REMARK    6  A    between atoms: C_11  and  C_12 
REMARK    7  A    between atoms: C_17  and  O_18 
REMARK    8  A    between atoms: C_21  and  O_22 
ROOT
HETATM    1  C   UNL     1      -7.323   0.861 -32.134  1.00  0.00     0.010 C 
HETATM    2  N   UNL     1      -7.850  -0.130 -32.930  1.00  0.00    -0.359 N 
HETATM    3  H   UNL     1      -8.833  -0.291 -33.106  1.00  0.00     0.166 HD
HETATM    4  C   UNL     1      -6.843  -0.934 -33.411  1.00  0.00     0.048 A 
HETATM    5  C   UNL     1      -5.632  -0.368 -33.019  1.00  0.00     0.026 A 
HETATM    6  C   UNL     1      -4.425  -0.988 -33.405  1.00  0.00     0.083 A 
HETATM    7  C   UNL     1      -4.482  -2.189 -34.133  1.00  0.00     0.074 A 
HETATM    8  C   UNL     1      -5.708  -2.743 -34.508  1.00  0.00     0.073 A 
HETATM    9  C   UNL     1      -6.909  -2.110 -34.165  1.00  0.00     0.067 A 
HETATM   10  C   UNL     1      -5.951   0.788 -32.252  1.00  0.00     0.041 C 
ENDROOT
BRANCH   1  11
HETATM   11  C   UNL     1      -8.175   1.772 -31.320  1.00  0.00     0.059 C 
BRANCH  11  12
HETATM   12  C   UNL     1      -7.325   2.599 -30.344  1.00  0.00     0.033 C 
BRANCH  12  13
HETATM   13  C   UNL     1      -7.234   4.070 -30.748  1.00  0.00     0.233 C 
BRANCH  13  14
HETATM   14  N   UNL     1      -6.001   4.272 -31.568  1.00  0.00    -0.067 N 
HETATM   15  H   UNL     1      -5.562   3.365 -31.775  1.00  0.00     0.277 HD
HETATM   16  H   UNL     1      -5.309   4.792 -31.014  1.00  0.00     0.277 HD
BRANCH  14  17
HETATM   17  C   UNL     1      -6.178   5.002 -32.873  1.00  0.00     0.223 C 
HETATM   18  C   UNL     1      -6.894   4.109 -33.885  1.00  0.00     0.046 C 
BRANCH  17  19
HETATM   19  C   UNL     1      -4.856   5.466 -33.403  1.00  0.00     0.032 A 
HETATM   20  S   UNL     1      -3.774   6.423 -32.466  1.00  0.00    -0.076 SA
HETATM   21  C   UNL     1      -2.662   6.445 -33.777  1.00  0.00     0.071 A 
HETATM   22  C   UNL     1      -1.362   7.159 -33.651  1.00  0.00     0.078 C 
HETATM   23  N   UNL     1      -3.055   5.794 -34.849  1.00  0.00    -0.257 NA
HETATM   24  C   UNL     1      -4.290   5.223 -34.639  1.00  0.00     0.134 A 
ENDBRANCH  17  19
ENDBRANCH  14  17
ENDBRANCH  13  14
ENDBRANCH  12  13
ENDBRANCH  11  12
ENDBRANCH   1  11
BRANCH   6  25
HETATM   25  O   UNL     1      -3.249  -0.421 -32.980  1.00  0.00    -0.355 OA
HETATM   26  C   UNL     1      -2.692  -1.024 -31.813  1.00  0.00     0.210 C 
ENDBRANCH   6  25
BRANCH   8  27
HETATM   27  O   UNL     1      -5.879  -3.910 -35.206  1.00  0.00    -0.356 OA
HETATM   28  C   UNL     1      -5.180  -5.057 -34.738  1.00  0.00     0.210 C 
ENDBRANCH   8  27
TORSDOF 8
ENDMDL
MODEL 5
REMARK VINA RESULT:      -6.5      2.405      2.862
REMARK  8 active torsions:
REMARK  status: ('A' for Active; 'I' for Inactive)
REMARK    1  A    between atoms: C_4  and  C_5 
REMARK    2  A    between atoms: C_5  and  N_6 
REMARK    3  A    between atoms: N_6  and  C_9 
REMARK    4  A    between atoms: C_9  and  C_10 
REMARK    5  A    between atoms: C_10  and  C_11 
REMARK    6  A    between atoms: C_11  and  C_12 
REMARK    7  A    between atoms: C_17  and  O_18 
REMARK    8  A    between atoms: C_21  and  O_22 
ROOT
HETATM    1  C   UNL     1      -7.714   1.304 -34.047  1.00  0.00     0.010 C 
HETATM    2  N   UNL     1      -7.903   0.103 -34.691  1.00  0.00    -0.359 N 
HETATM    3  H   UNL     1      -8.728  -0.171 -35.209  1.00  0.00     0.166 HD
HETATM    4  C   UNL     1      -6.823  -0.723 -34.476  1.00  0.00     0.048 A 
HETATM    5  C   UNL     1      -5.865   0.014 -33.785  1.00  0.00     0.026 A 
HETATM    6  C   UNL     1      -4.636  -0.594 -33.454  1.00  0.00     0.083 A 
HETATM    7  C   UNL     1      -4.436  -1.945 -33.787  1.00  0.00     0.074 A 
HETATM    8  C   UNL     1      -5.415  -2.667 -34.473  1.00  0.00     0.073 A 
HETATM    9  C   UNL     1      -6.620  -2.057 -34.842  1.00  0.00     0.067 A 
HETATM   10  C   UNL     1      -6.423   1.304 -33.561  1.00  0.00     0.041 C 
ENDROOT
BRANCH   1  11
HETATM   11  C   UNL     1      -8.787   2.331 -33.937  1.00  0.00     0.059 C 
BRANCH  11  12
HETATM   12  C   UNL     1      -8.192   3.740 -33.800  1.00  0.00     0.033 C 
BRANCH  12  13
HETATM   13  C   UNL     1      -8.120   4.207 -32.347  1.00  0.00     0.233 C 
BRANCH  13  14
HETATM   14  N   UNL     1      -6.897   5.046 -32.167  1.00  0.00    -0.067 N 
HETATM   15  H   UNL     1      -7.016   5.676 -31.362  1.00  0.00     0.277 HD
HETATM   16  H   UNL     1      -6.786   5.661 -32.983  1.00  0.00     0.277 HD
BRANCH  14  17
HETATM   17  C   UNL     1      -5.599   4.306 -31.979  1.00  0.00     0.223 C 
HETATM   18  C   UNL     1      -5.039   4.569 -30.581  1.00  0.00     0.046 C 
BRANCH  17  19
HETATM   19  C   UNL     1      -4.612   4.692 -33.037  1.00  0.00     0.032 A 
HETATM   20  S   UNL     1      -2.911   4.599 -32.787  1.00  0.00    -0.076 SA
HETATM   21  C   UNL     1      -2.647   5.179 -34.384  1.00  0.00     0.071 A 
HETATM   22  C   UNL     1      -1.262   5.354 -34.903  1.00  0.00     0.078 C 
HETATM   23  N   UNL     1      -3.739   5.436 -35.069  1.00  0.00    -0.257 NA
HETATM   24  C   UNL     1      -4.856   5.147 -34.318  1.00  0.00     0.134 A 
ENDBRANCH  17  19
ENDBRANCH  14  17
ENDBRANCH  13  14
ENDBRANCH  12  13
ENDBRANCH  11  12
ENDBRANCH   1  11
BRANCH   6  25
HETATM   25  O   UNL     1      -3.722   0.150 -32.748  1.00  0.00    -0.355 OA
HETATM   26  C   UNL     1      -3.047  -0.569 -31.717  1.00  0.00     0.210 C 
ENDBRANCH   6  25
BRANCH   8  27
HETATM   27  O   UNL     1      -5.330  -3.986 -34.837  1.00  0.00    -0.356 OA
HETATM   28  C   UNL     1      -6.506  -4.595 -35.357  1.00  0.00     0.210 C 
ENDBRANCH   8  27
TORSDOF 8
ENDMDL
MODEL 6
REMARK VINA RESULT:      -6.5      3.645      5.614
REMARK  8 active torsions:
REMARK  status: ('A' for Active; 'I' for Inactive)
REMARK    1  A    between atoms: C_4  and  C_5 
REMARK    2  A    between atoms: C_5  and  N_6 
REMARK    3  A    between atoms: N_6  and  C_9 
REMARK    4  A    between atoms: C_9  and  C_10 
REMARK    5  A    between atoms: C_10  and  C_11 
REMARK    6  A    between atoms: C_11  and  C_12 
REMARK    7  A    between atoms: C_17  and  O_18 
REMARK    8  A    between atoms: C_21  and  O_22 
ROOT
HETATM    1  C   UNL     1      -5.146   1.507 -31.570  1.00  0.00     0.010 C 
HETATM    2  N   UNL     1      -4.481   0.362 -31.940  1.00  0.00    -0.359 N 
HETATM    3  H   UNL     1      -3.547   0.098 -31.655  1.00  0.00     0.166 HD
HETATM    4  C   UNL     1      -5.245  -0.362 -32.827  1.00  0.00     0.048 A 
HETATM    5  C   UNL     1      -6.482   0.271 -32.926  1.00  0.00     0.026 A 
HETATM    6  C   UNL     1      -7.474  -0.285 -33.761  1.00  0.00     0.083 A 
HETATM    7  C   UNL     1      -7.166  -1.435 -34.509  1.00  0.00     0.074 A 
HETATM    8  C   UNL     1      -5.916  -2.047 -34.400  1.00  0.00     0.073 A 
HETATM    9  C   UNL     1      -4.941  -1.525 -33.540  1.00  0.00     0.067 A 
HETATM   10  C   UNL     1      -6.420   1.424 -32.093  1.00  0.00     0.041 C 
ENDROOT
BRANCH   1  11
HETATM   11  C   UNL     1      -4.501   2.586 -30.769  1.00  0.00     0.059 C 
BRANCH  11  12
HETATM   12  C   UNL     1      -4.180   3.807 -31.643  1.00  0.00     0.033 C 
BRANCH  12  13
HETATM   13  C   UNL     1      -2.738   3.801 -32.150  1.00  0.00     0.233 C 
BRANCH  13  14
HETATM   14  N   UNL     1      -1.845   4.339 -31.080  1.00  0.00    -0.067 N 
HETATM   15  H   UNL     1      -1.387   3.565 -30.580  1.00  0.00     0.277 HD
HETATM   16  H   UNL     1      -2.416   4.821 -30.374  1.00  0.00     0.277 HD
BRANCH  14  17
HETATM   17  C   UNL     1      -0.770   5.295 -31.523  1.00  0.00     0.223 C 
HETATM   18  C   UNL     1       0.446   5.186 -30.603  1.00  0.00     0.046 C 
BRANCH  17  19
HETATM   19  C   UNL     1      -1.293   6.698 -31.563  1.00  0.00     0.032 A 
HETATM   20  S   UNL     1      -1.896   7.496 -30.162  1.00  0.00    -0.076 SA
HETATM   21  C   UNL     1      -2.221   8.897 -31.102  1.00  0.00     0.071 A 
HETATM   22  C   UNL     1      -2.804  10.112 -30.468  1.00  0.00     0.078 C 
HETATM   23  N   UNL     1      -1.914   8.794 -32.376  1.00  0.00    -0.257 NA
HETATM   24  C   UNL     1      -1.371   7.557 -32.641  1.00  0.00     0.134 A 
ENDBRANCH  17  19
ENDBRANCH  14  17
ENDBRANCH  13  14
ENDBRANCH  12  13
ENDBRANCH  11  12
ENDBRANCH   1  11
BRANCH   6  25
HETATM   25  O   UNL     1      -8.673   0.377 -33.859  1.00  0.00    -0.355 OA
HETATM   26  C   UNL     1      -9.655  -0.038 -32.911  1.00  0.00     0.210 C 
ENDBRANCH   6  25
BRANCH   8  27
HETATM   27  O   UNL     1      -5.507  -3.160 -35.087  1.00  0.00    -0.356 OA
HETATM   28  C   UNL     1      -6.415  -4.252 -35.157  1.00  0.00     0.210 C 
ENDBRANCH   8  27
TORSDOF 8
ENDMDL
MODEL 7
REMARK VINA RESULT:      -6.4      3.145      5.226
REMARK  8 active torsions:
REMARK  status: ('A' for Active; 'I' for Inactive)
REMARK    1  A    between atoms: C_4  and  C_5 
REMARK    2  A    between atoms: C_5  and  N_6 
REMARK    3  A    between atoms: N_6  and  C_9 
REMARK    4  A    between atoms: C_9  and  C_10 
REMARK    5  A    between atoms: C_10  and  C_11 
REMARK    6  A    between atoms: C_11  and  C_12 
REMARK    7  A    between atoms: C_17  and  O_18 
REMARK    8  A    between atoms: C_21  and  O_22 
ROOT
HETATM    1  C   UNL     1      -7.428   1.249 -33.790  1.00  0.00     0.010 C 
HETATM    2  N   UNL     1      -7.702   0.053 -34.413  1.00  0.00    -0.359 N 
HETATM    3  H   UNL     1      -8.573  -0.198 -34.861  1.00  0.00     0.166 HD
HETATM    4  C   UNL     1      -6.631  -0.802 -34.283  1.00  0.00     0.048 A 
HETATM    5  C   UNL     1      -5.600  -0.092 -33.674  1.00  0.00     0.026 A 
HETATM    6  C   UNL     1      -4.366  -0.734 -33.441  1.00  0.00     0.083 A 
HETATM    7  C   UNL     1      -4.231  -2.090 -33.785  1.00  0.00     0.074 A 
HETATM    8  C   UNL     1      -5.282  -2.785 -34.387  1.00  0.00     0.073 A 
HETATM    9  C   UNL     1      -6.496  -2.142 -34.660  1.00  0.00     0.067 A 
HETATM   10  C   UNL     1      -6.103   1.214 -33.409  1.00  0.00     0.041 C 
ENDROOT
BRANCH   1  11
HETATM   11  C   UNL     1      -8.460   2.306 -33.597  1.00  0.00     0.059 C 
BRANCH  11  12
HETATM   12  C   UNL     1      -9.618   1.797 -32.727  1.00  0.00     0.033 C 
BRANCH  12  13
HETATM   13  C   UNL     1     -10.768   1.228 -33.557  1.00  0.00     0.233 C 
BRANCH  13  14
HETATM   14  N   UNL     1     -10.738   1.847 -34.917  1.00  0.00    -0.067 N 
HETATM   15  H   UNL     1     -10.582   1.123 -35.631  1.00  0.00     0.277 HD
HETATM   16  H   UNL     1      -9.928   2.476 -34.983  1.00  0.00     0.277 HD
BRANCH  14  17
HETATM   17  C   UNL     1     -11.956   2.633 -35.322  1.00  0.00     0.223 C 
HETATM   18  C   UNL     1     -11.676   4.132 -35.219  1.00  0.00     0.046 C 
BRANCH  17  19
HETATM   19  C   UNL     1     -13.138   2.245 -34.487  1.00  0.00     0.032 A 
HETATM   20  S   UNL     1     -13.691   3.208 -33.172  1.00  0.00    -0.076 SA
HETATM   21  C   UNL     1     -14.948   2.074 -32.873  1.00  0.00     0.071 A 
HETATM   22  C   UNL     1     -15.919   2.299 -31.768  1.00  0.00     0.078 C 
HETATM   23  N   UNL     1     -14.966   1.039 -33.683  1.00  0.00    -0.257 NA
HETATM   24  C   UNL     1     -13.954   1.138 -34.611  1.00  0.00     0.134 A 
ENDBRANCH  17  19
ENDBRANCH  14  17
ENDBRANCH  13  14
ENDBRANCH  12  13
ENDBRANCH  11  12
ENDBRANCH   1  11
BRANCH   6  25
HETATM   25  O   UNL     1      -3.378  -0.015 -32.814  1.00  0.00    -0.355 OA
HETATM   26  C   UNL     1      -3.147  -0.390 -31.457  1.00  0.00     0.210 C 
ENDBRANCH   6  25
BRANCH   8  27
HETATM   27  O   UNL     1      -5.264  -4.106 -34.752  1.00  0.00    -0.356 OA
HETATM   28  C   UNL     1      -6.427  -4.622 -35.387  1.00  0.00     0.210 C 
ENDBRANCH   8  27
TORSDOF 8
ENDMDL
MODEL 8
REMARK VINA RESULT:      -6.3      3.000      4.913
REMARK  8 active torsions:
REMARK  status: ('A' for Active; 'I' for Inactive)
REMARK    1  A    between atoms: C_4  and  C_5 
REMARK    2  A    between atoms: C_5  and  N_6 
REMARK    3  A    between atoms: N_6  and  C_9 
REMARK    4  A    between atoms: C_9  and  C_10 
REMARK    5  A    between atoms: C_10  and  C_11 
REMARK    6  A    between atoms: C_11  and  C_12 
REMARK    7  A    between atoms: C_17  and  O_18 
REMARK    8  A    between atoms: C_21  and  O_22 
ROOT
HETATM    1  C   UNL     1      -7.552   0.817 -32.048  1.00  0.00     0.010 C 
HETATM    2  N   UNL     1      -7.782   0.188 -33.249  1.00  0.00    -0.359 N 
HETATM    3  H   UNL     1      -8.583   0.330 -33.852  1.00  0.00     0.166 HD
HETATM    4  C   UNL     1      -6.791  -0.734 -33.496  1.00  0.00     0.048 A 
HETATM    5  C   UNL     1      -5.835  -0.600 -32.492  1.00  0.00     0.026 A 
HETATM    6  C   UNL     1      -4.688  -1.419 -32.519  1.00  0.00     0.083 A 
HETATM    7  C   UNL     1      -4.567  -2.385 -33.534  1.00  0.00     0.074 A 
HETATM    8  C   UNL     1      -5.543  -2.508 -34.526  1.00  0.00     0.073 A 
HETATM    9  C   UNL     1      -6.664  -1.668 -34.529  1.00  0.00     0.067 A 
HETATM   10  C   UNL     1      -6.308   0.414 -31.611  1.00  0.00     0.041 C 
ENDROOT
BRANCH   1  11
HETATM   11  C   UNL     1      -8.548   1.729 -31.418  1.00  0.00     0.059 C 
BRANCH  11  12
HETATM   12  C   UNL     1      -8.312   3.185 -31.846  1.00  0.00     0.033 C 
BRANCH  12  13
HETATM   13  C   UNL     1      -9.497   3.769 -32.613  1.00  0.00     0.233 C 
BRANCH  13  14
HETATM   14  N   UNL     1      -9.541   3.159 -33.977  1.00  0.00    -0.067 N 
HETATM   15  H   UNL     1      -9.596   2.134 -33.903  1.00  0.00     0.277 HD
HETATM   16  H   UNL     1      -8.655   3.352 -34.461  1.00  0.00     0.277 HD
BRANCH  14  17
HETATM   17  C   UNL     1     -10.658   3.612 -34.878  1.00  0.00     0.223 C 
HETATM   18  C   UNL     1     -10.923   5.104 -34.681  1.00  0.00     0.046 C 
BRANCH  17  19
HETATM   19  C   UNL     1     -11.897   2.806 -34.633  1.00  0.00     0.032 A 
HETATM   20  S   UNL     1     -13.017   3.198 -33.386  1.00  0.00    -0.076 SA
HETATM   21  C   UNL     1     -13.991   1.858 -33.844  1.00  0.00     0.071 A 
HETATM   22  C   UNL     1     -15.261   1.567 -33.122  1.00  0.00     0.078 C 
HETATM   23  N   UNL     1     -13.526   1.152 -34.850  1.00  0.00    -0.257 NA
HETATM   24  C   UNL     1     -12.349   1.693 -35.313  1.00  0.00     0.134 A 
ENDBRANCH  17  19
ENDBRANCH  14  17
ENDBRANCH  13  14
ENDBRANCH  12  13
ENDBRANCH  11  12
ENDBRANCH   1  11
BRANCH   6  25
HETATM   25  O   UNL     1      -3.777  -1.282 -31.500  1.00  0.00    -0.355 OA
HETATM   26  C   UNL     1      -2.517  -0.749 -31.904  1.00  0.00     0.210 C 
ENDBRANCH   6  25
BRANCH   8  27
HETATM   27  O   UNL     1      -5.532  -3.417 -35.551  1.00  0.00    -0.356 OA
HETATM   28  C   UNL     1      -6.304  -4.600 -35.381  1.00  0.00     0.210 C 
ENDBRANCH   8  27
TORSDOF 8
ENDMDL
MODEL 9
REMARK VINA RESULT:      -6.2      2.620      4.100
REMARK  8 active torsions:
REMARK  status: ('A' for Active; 'I' for Inactive)
REMARK    1  A    between atoms: C_4  and  C_5 
REMARK    2  A    between atoms: C_5  and  N_6 
REMARK    3  A    between atoms: N_6  and  C_9 
REMARK    4  A    between atoms: C_9  and  C_10 
REMARK    5  A    between atoms: C_10  and  C_11 
REMARK    6  A    between atoms: C_11  and  C_12 
REMARK    7  A    between atoms: C_17  and  O_18 
REMARK    8  A    between atoms: C_21  and  O_22 
ROOT
HETATM    1  C   UNL     1      -5.661   0.879 -30.859  1.00  0.00     0.010 C 
HETATM    2  N   UNL     1      -4.645  -0.036 -31.009  1.00  0.00    -0.359 N 
HETATM    3  H   UNL     1      -3.808  -0.093 -30.444  1.00  0.00     0.166 HD
HETATM    4  C   UNL     1      -4.892  -0.841 -32.098  1.00  0.00     0.048 A 
HETATM    5  C   UNL     1      -6.158  -0.517 -32.579  1.00  0.00     0.026 A 
HETATM    6  C   UNL     1      -6.672  -1.217 -33.690  1.00  0.00     0.083 A 
HETATM    7  C   UNL     1      -5.868  -2.189 -34.311  1.00  0.00     0.074 A 
HETATM    8  C   UNL     1      -4.597  -2.491 -33.816  1.00  0.00     0.073 A 
HETATM    9  C   UNL     1      -4.098  -1.829 -32.687  1.00  0.00     0.067 A 
HETATM   10  C   UNL     1      -6.649   0.539 -31.760  1.00  0.00     0.041 C 
ENDROOT
BRANCH   1  11
HETATM   11  C   UNL     1      -5.588   2.005 -29.886  1.00  0.00     0.059 C 
BRANCH  11  12
HETATM   12  C   UNL     1      -6.848   2.880 -29.958  1.00  0.00     0.033 C 
BRANCH  12  13
HETATM   13  C   UNL     1      -6.608   4.190 -30.708  1.00  0.00     0.233 C 
BRANCH  13  14
HETATM   14  N   UNL     1      -5.154   4.528 -30.642  1.00  0.00    -0.067 N 
HETATM   15  H   UNL     1      -4.610   3.697 -30.374  1.00  0.00     0.277 HD
HETATM   16  H   UNL     1      -5.001   5.211 -29.888  1.00  0.00     0.277 HD
BRANCH  14  17
HETATM   17  C   UNL     1      -4.540   5.091 -31.895  1.00  0.00     0.223 C 
HETATM   18  C   UNL     1      -4.883   4.208 -33.094  1.00  0.00     0.046 C 
BRANCH  17  19
HETATM   19  C   UNL     1      -3.057   5.238 -31.738  1.00  0.00     0.032 A 
HETATM   20  S   UNL     1      -2.309   6.761 -31.449  1.00  0.00    -0.076 SA
HETATM   21  C   UNL     1      -0.770   5.995 -31.415  1.00  0.00     0.071 A 
HETATM   22  C   UNL     1       0.464   6.793 -31.174  1.00  0.00     0.078 C 
HETATM   23  N   UNL     1      -0.792   4.696 -31.611  1.00  0.00    -0.257 NA
HETATM   24  C   UNL     1      -2.086   4.257 -31.778  1.00  0.00     0.134 A 
ENDBRANCH  17  19
ENDBRANCH  14  17
ENDBRANCH  13  14
ENDBRANCH  12  13
ENDBRANCH  11  12
ENDBRANCH   1  11
BRANCH   6  25
HETATM   25  O   UNL     1      -7.912  -0.856 -34.158  1.00  0.00    -0.355 OA
HETATM   26  C   UNL     1      -7.887   0.104 -35.213  1.00  0.00     0.210 C 
ENDBRANCH   6  25
BRANCH   8  27
HETATM   27  O   UNL     1      -3.728  -3.408 -34.348  1.00  0.00    -0.356 OA
HETATM   28  C   UNL     1      -3.822  -4.746 -33.873  1.00  0.00     0.210 C 
ENDBRANCH   8  27
TORSDOF 8
ENDMDL
MODEL 10
REMARK VINA RESULT:      -6.2      3.541      6.570
REMARK  8 active torsions:
REMARK  status: ('A' for Active; 'I' for Inactive)
REMARK    1  A    between atoms: C_4  and  C_5 
REMARK    2  A    between atoms: C_5  and  N_6 
REMARK    3  A    between atoms: N_6  and  C_9 
REMARK    4  A    between atoms: C_9  and  C_10 
REMARK    5  A    between atoms: C_10  and  C_11 
REMARK    6  A    between atoms: C_11  and  C_12 
REMARK    7  A    between atoms: C_17  and  O_18 
REMARK    8  A    between atoms: C_21  and  O_22 
ROOT
HETATM    1  C   UNL     1      -8.662   1.140 -32.101  1.00  0.00     0.010 C 
HETATM    2  N   UNL     1      -9.868   0.495 -32.243  1.00  0.00    -0.359 N 
HETATM    3  H   UNL     1     -10.144  -0.360 -31.778  1.00  0.00     0.166 HD
HETATM    4  C   UNL     1     -10.644   1.146 -33.175  1.00  0.00     0.048 A 
HETATM    5  C   UNL     1      -9.970   2.307 -33.544  1.00  0.00     0.026 A 
HETATM    6  C   UNL     1     -10.562   3.179 -34.480  1.00  0.00     0.083 A 
HETATM    7  C   UNL     1     -11.796   2.824 -35.053  1.00  0.00     0.074 A 
HETATM    8  C   UNL     1     -12.450   1.649 -34.675  1.00  0.00     0.073 A 
HETATM    9  C   UNL     1     -11.887   0.800 -33.713  1.00  0.00     0.067 A 
HETATM   10  C   UNL     1      -8.741   2.312 -32.825  1.00  0.00     0.041 C 
ENDROOT
BRANCH   1  11
HETATM   11  C   UNL     1      -7.537   0.571 -31.306  1.00  0.00     0.059 C 
BRANCH  11  12
HETATM   12  C   UNL     1      -6.977   1.606 -30.321  1.00  0.00     0.033 C 
BRANCH  12  13
HETATM   13  C   UNL     1      -5.454   1.717 -30.390  1.00  0.00     0.233 C 
BRANCH  13  14
HETATM   14  N   UNL     1      -4.869   0.342 -30.412  1.00  0.00    -0.067 N 
HETATM   15  H   UNL     1      -5.591  -0.345 -30.667  1.00  0.00     0.277 HD
HETATM   16  H   UNL     1      -4.571   0.087 -29.462  1.00  0.00     0.277 HD
BRANCH  14  17
HETATM   17  C   UNL     1      -3.693   0.130 -31.328  1.00  0.00     0.223 C 
HETATM   18  C   UNL     1      -3.396   1.408 -32.111  1.00  0.00     0.046 C 
BRANCH  17  19
HETATM   19  C   UNL     1      -3.941  -1.024 -32.250  1.00  0.00     0.032 A 
HETATM   20  S   UNL     1      -5.012  -0.914 -33.593  1.00  0.00    -0.076 SA
HETATM   21  C   UNL     1      -4.669  -2.549 -33.998  1.00  0.00     0.071 A 
HETATM   22  C   UNL     1      -5.309  -3.183 -35.184  1.00  0.00     0.078 C 
HETATM   23  N   UNL     1      -3.823  -3.153 -33.195  1.00  0.00    -0.257 NA
HETATM   24  C   UNL     1      -3.393  -2.291 -32.212  1.00  0.00     0.134 A 
ENDBRANCH  17  19
ENDBRANCH  14  17
ENDBRANCH  13  14
ENDBRANCH  12  13
ENDBRANCH  11  12
ENDBRANCH   1  11
BRANCH   6  25
HETATM   25  O   UNL     1      -9.860   4.302 -34.844  1.00  0.00    -0.355 OA
HETATM   26  C   UNL     1     -10.142   5.455 -34.053  1.00  0.00     0.210 C 
ENDBRANCH   6  25
BRANCH   8  27
HETATM   27  O   UNL     1     -13.645   1.202 -35.174  1.00  0.00    -0.356 OA
HETATM   28  C   UNL     1     -14.668   0.891 -34.235  1.00  0.00     0.210 C 
ENDBRANCH   8  27
TORSDOF 8
ENDMDL
