MODEL 1
REMARK VINA RESULT:      -8.8      0.000      0.000
REMARK  4 active torsions:
REMARK  status: ('A' for Active; 'I' for Inactive)
REMARK    1  A    between atoms: C_7  and  C_8 
REMARK    2  A    between atoms: C_11  and  O_12 
REMARK    3  A    between atoms: C_17  and  C_18 
REMARK    4  A    between atoms: C_25  and  C_26 
REMARK       I    between atoms: C_26  and  N_27 
ROOT
HETATM    1  C   UNL     1      -7.662   5.908 -30.233  1.00  0.00     0.070 C 
HETATM    2  C   UNL     1      -6.672   4.906 -30.777  1.00  0.00     0.037 A 
HETATM    3  N   UNL     1      -7.223   3.761 -31.342  1.00  0.00    -0.192 N 
HETATM    4  C   UNL     1      -6.486   2.755 -31.847  1.00  0.00     0.726 A 
HETATM    5  N   UNL     1      -5.124   2.850 -31.830  1.00  0.00    -0.083 N 
HETATM    6  N   UNL     1      -4.546   1.722 -32.284  1.00  0.00    -0.135 NA
HETATM    7  C   UNL     1      -5.621   1.007 -32.665  1.00  0.00     0.199 A 
HETATM    8  N   UNL     1      -6.834   1.613 -32.380  1.00  0.00    -0.041 NA
HETATM    9  C   UNL     1      -4.385   3.994 -31.287  1.00  0.00     0.202 A 
HETATM   10  C   UNL     1      -5.324   5.052 -30.721  1.00  0.00     0.062 A 
HETATM   11  H   UNL     1      -8.236   3.686 -31.367  1.00  0.00     0.184 HD
ENDROOT
BRANCH   7  12
HETATM   12  C   UNL     1      -5.539  -0.294 -33.324  1.00  0.00     0.014 A 
HETATM   13  C   UNL     1      -6.639  -0.824 -34.010  1.00  0.00     0.018 A 
HETATM   14  C   UNL     1      -6.557  -2.081 -34.618  1.00  0.00     0.037 A 
HETATM   15  C   UNL     1      -5.379  -2.828 -34.555  1.00  0.00     0.068 A 
HETATM   16  C   UNL     1      -4.279  -2.306 -33.877  1.00  0.00     0.037 A 
HETATM   17  C   UNL     1      -4.360  -1.048 -33.265  1.00  0.00     0.018 A 
BRANCH  15  18
HETATM   18  O   UNL     1      -5.437  -4.039 -35.187  1.00  0.00    -0.356 OA
HETATM   19  C   UNL     1      -6.729  -4.599 -35.385  1.00  0.00     0.210 C 
ENDBRANCH  15  18
ENDBRANCH   7  12
BRANCH   9  20
HETATM   20  C   UNL     1      -3.409   4.524 -32.337  1.00  0.00    -0.028 A 
HETATM   21  C   UNL     1      -3.837   4.886 -33.627  1.00  0.00     0.012 A 
HETATM   22  C   UNL     1      -2.920   5.353 -34.572  1.00  0.00     0.043 A 
HETATM   23  C   UNL     1      -1.575   5.448 -34.236  1.00  0.00     0.116 A 
HETATM   24  F   UNL     1      -0.697   5.892 -35.145  1.00  0.00    -0.206 F 
HETATM   25  C   UNL     1      -1.126   5.083 -32.974  1.00  0.00     0.043 A 
HETATM   26  C   UNL     1      -2.039   4.620 -32.026  1.00  0.00     0.012 A 
ENDBRANCH   9  20
BRANCH  10  27
HETATM   27  C   UNL     1      -4.717   6.292 -30.190  1.00  0.00     0.249 C 
HETATM   28  N   UNL     1      -4.233   6.218 -28.923  1.00  0.00    -0.366 N 
HETATM   29  H   UNL     1      -4.344   5.429 -28.304  1.00  0.00     0.159 HD
HETATM   30  H   UNL     1      -3.831   7.065 -28.541  1.00  0.00     0.159 HD
HETATM   31  O   UNL     1      -4.647   7.326 -30.840  1.00  0.00    -0.268 OA
ENDBRANCH  10  27
TORSDOF 4
ENDMDL
MODEL 2
REMARK VINA RESULT:      -8.4      1.666      2.322
REMARK  4 active torsions:
REMARK  status: ('A' for Active; 'I' for Inactive)
REMARK    1  A    between atoms: C_7  and  C_8 
REMARK    2  A    between atoms: C_11  and  O_12 
REMARK    3  A    between atoms: C_17  and  C_18 
REMARK    4  A    between atoms: C_25  and  C_26 
REMARK       I    between atoms: C_26  and  N_27 
ROOT
HETATM    1  C   UNL     1      -9.540   5.433 -32.736  1.00  0.00     0.070 C 
HETATM    2  C   UNL     1      -8.368   4.481 -32.746  1.00  0.00     0.037 A 
HETATM    3  N   UNL     1      -8.630   3.209 -33.242  1.00  0.00    -0.192 N 
HETATM    4  C   UNL     1      -7.709   2.230 -33.297  1.00  0.00     0.726 A 
HETATM    5  N   UNL     1      -6.440   2.481 -32.862  1.00  0.00    -0.083 N 
HETATM    6  N   UNL     1      -5.677   1.371 -32.898  1.00  0.00    -0.135 NA
HETATM    7  C   UNL     1      -6.520   0.489 -33.468  1.00  0.00     0.199 A 
HETATM    8  N   UNL     1      -7.791   0.989 -33.700  1.00  0.00    -0.041 NA
HETATM    9  C   UNL     1      -5.993   3.771 -32.326  1.00  0.00     0.202 A 
HETATM   10  C   UNL     1      -7.128   4.787 -32.289  1.00  0.00     0.062 A 
HETATM   11  H   UNL     1      -9.571   3.016 -33.577  1.00  0.00     0.184 HD
ENDROOT
BRANCH   7  12
HETATM   12  C   UNL     1      -6.146  -0.878 -33.822  1.00  0.00     0.014 A 
HETATM   13  C   UNL     1      -4.833  -1.333 -33.650  1.00  0.00     0.018 A 
HETATM   14  C   UNL     1      -4.481  -2.637 -34.013  1.00  0.00     0.037 A 
HETATM   15  C   UNL     1      -5.430  -3.508 -34.551  1.00  0.00     0.068 A 
HETATM   16  C   UNL     1      -6.740  -3.064 -34.722  1.00  0.00     0.037 A 
HETATM   17  C   UNL     1      -7.094  -1.757 -34.361  1.00  0.00     0.018 A 
BRANCH  15  18
HETATM   18  O   UNL     1      -4.951  -4.749 -34.866  1.00  0.00    -0.356 OA
HETATM   19  C   UNL     1      -3.982  -5.307 -33.986  1.00  0.00     0.210 C 
ENDBRANCH  15  18
ENDBRANCH   7  12
BRANCH   9  20
HETATM   20  C   UNL     1      -4.755   4.246 -33.085  1.00  0.00    -0.028 A 
HETATM   21  C   UNL     1      -3.486   4.287 -32.477  1.00  0.00     0.012 A 
HETATM   22  C   UNL     1      -2.374   4.740 -33.190  1.00  0.00     0.043 A 
HETATM   23  C   UNL     1      -2.526   5.164 -34.504  1.00  0.00     0.116 A 
HETATM   24  F   UNL     1      -1.459   5.602 -35.185  1.00  0.00    -0.206 F 
HETATM   25  C   UNL     1      -3.770   5.147 -35.121  1.00  0.00     0.043 A 
HETATM   26  C   UNL     1      -4.883   4.691 -34.414  1.00  0.00     0.012 A 
ENDBRANCH   9  20
BRANCH  10  27
HETATM   27  C   UNL     1      -6.807   6.153 -31.822  1.00  0.00     0.249 C 
HETATM   28  N   UNL     1      -6.815   7.121 -32.776  1.00  0.00    -0.366 N 
HETATM   29  H   UNL     1      -6.926   6.960 -33.765  1.00  0.00     0.159 HD
HETATM   30  H   UNL     1      -6.579   8.058 -32.472  1.00  0.00     0.159 HD
HETATM   31  O   UNL     1      -6.549   6.411 -30.655  1.00  0.00    -0.268 OA
ENDBRANCH  10  27
TORSDOF 4
ENDMDL
MODEL 3
REMARK VINA RESULT:      -8.3      3.336      4.640
REMARK  4 active torsions:
REMARK  status: ('A' for Active; 'I' for Inactive)
REMARK    1  A    between atoms: C_7  and  C_8 
REMARK    2  A    between atoms: C_11  and  O_12 
REMARK    3  A    between atoms: C_17  and  C_18 
REMARK    4  A    between atoms: C_25  and  C_26 
REMARK       I    between atoms: C_26  and  N_27 
ROOT
HETATM    1  C   UNL     1     -12.181   3.523 -33.749  1.00  0.00     0.070 C 
HETATM    2  C   UNL     1     -10.944   2.859 -33.195  1.00  0.00     0.037 A 
HETATM    3  N   UNL     1     -10.374   1.879 -34.000  1.00  0.00    -0.192 N 
HETATM    4  C   UNL     1      -9.287   1.169 -33.647  1.00  0.00     0.726 A 
HETATM    5  N   UNL     1      -8.686   1.418 -32.447  1.00  0.00    -0.083 N 
HETATM    6  N   UNL     1      -7.677   0.558 -32.213  1.00  0.00    -0.135 NA
HETATM    7  C   UNL     1      -7.645  -0.135 -33.367  1.00  0.00     0.199 A 
HETATM    8  N   UNL     1      -8.649   0.206 -34.259  1.00  0.00    -0.041 NA
HETATM    9  C   UNL     1      -9.147   2.428 -31.489  1.00  0.00     0.202 A 
HETATM   10  C   UNL     1     -10.397   3.144 -31.986  1.00  0.00     0.062 A 
HETATM   11  H   UNL     1     -10.810   1.693 -34.899  1.00  0.00     0.184 HD
ENDROOT
BRANCH   7  12
HETATM   12  C   UNL     1      -6.648  -1.158 -33.673  1.00  0.00     0.014 A 
HETATM   13  C   UNL     1      -5.348  -1.072 -33.160  1.00  0.00     0.018 A 
HETATM   14  C   UNL     1      -4.395  -2.046 -33.477  1.00  0.00     0.037 A 
HETATM   15  C   UNL     1      -4.722  -3.119 -34.309  1.00  0.00     0.068 A 
HETATM   16  C   UNL     1      -6.015  -3.213 -34.820  1.00  0.00     0.037 A 
HETATM   17  C   UNL     1      -6.971  -2.238 -34.505  1.00  0.00     0.018 A 
BRANCH  15  18
HETATM   18  O   UNL     1      -3.696  -3.993 -34.540  1.00  0.00    -0.356 OA
HETATM   19  C   UNL     1      -3.362  -4.886 -33.485  1.00  0.00     0.210 C 
ENDBRANCH  15  18
ENDBRANCH   7  12
BRANCH   9  20
HETATM   20  C   UNL     1      -7.994   3.363 -31.127  1.00  0.00    -0.028 A 
HETATM   21  C   UNL     1      -7.322   4.119 -32.105  1.00  0.00     0.012 A 
HETATM   22  C   UNL     1      -6.261   4.955 -31.747  1.00  0.00     0.043 A 
HETATM   23  C   UNL     1      -5.861   5.028 -30.419  1.00  0.00     0.116 A 
HETATM   24  F   UNL     1      -4.841   5.827 -30.080  1.00  0.00    -0.206 F 
HETATM   25  C   UNL     1      -6.499   4.280 -29.438  1.00  0.00     0.043 A 
HETATM   26  C   UNL     1      -7.562   3.448 -29.789  1.00  0.00     0.012 A 
ENDBRANCH   9  20
BRANCH  10  27
HETATM   27  C   UNL     1     -10.942   4.231 -31.144  1.00  0.00     0.249 C 
HETATM   28  N   UNL     1     -11.726   3.839 -30.106  1.00  0.00    -0.366 N 
HETATM   29  H   UNL     1     -12.031   2.893 -29.934  1.00  0.00     0.159 HD
HETATM   30  H   UNL     1     -12.119   4.575 -29.532  1.00  0.00     0.159 HD
HETATM   31  O   UNL     1     -10.710   5.413 -31.357  1.00  0.00    -0.268 OA
ENDBRANCH  10  27
TORSDOF 4
ENDMDL
MODEL 4
REMARK VINA RESULT:      -8.3      4.465      6.271
REMARK  4 active torsions:
REMARK  status: ('A' for Active; 'I' for Inactive)
REMARK    1  A    between atoms: C_7  and  C_8 
REMARK    2  A    between atoms: C_11  and  O_12 
REMARK    3  A    between atoms: C_17  and  C_18 
REMARK    4  A    between atoms: C_25  and  C_26 
REMARK       I    between atoms: C_26  and  N_27 
ROOT
HETATM    1  C   UNL     1      -8.116   5.737 -31.314  1.00  0.00     0.070 C 
HETATM    2  C   UNL     1      -8.205   4.547 -32.238  1.00  0.00     0.037 A 
HETATM    3  N   UNL     1      -7.350   3.490 -31.944  1.00  0.00    -0.192 N 
HETATM    4  C   UNL     1      -7.279   2.366 -32.680  1.00  0.00     0.726 A 
HETATM    5  N   UNL     1      -8.090   2.227 -33.769  1.00  0.00    -0.083 N 
HETATM    6  N   UNL     1      -7.823   1.092 -34.442  1.00  0.00    -0.135 NA
HETATM    7  C   UNL     1      -6.897   0.524 -33.646  1.00  0.00     0.199 A 
HETATM    8  N   UNL     1      -6.524   1.305 -32.564  1.00  0.00    -0.041 NA
HETATM    9  C   UNL     1      -9.059   3.237 -34.208  1.00  0.00     0.202 A 
HETATM   10  C   UNL     1      -9.027   4.471 -33.315  1.00  0.00     0.062 A 
HETATM   11  H   UNL     1      -6.749   3.581 -31.129  1.00  0.00     0.184 HD
ENDROOT
BRANCH   7  12
HETATM   12  C   UNL     1      -6.325  -0.799 -33.883  1.00  0.00     0.014 A 
HETATM   13  C   UNL     1      -5.001  -1.086 -33.528  1.00  0.00     0.018 A 
HETATM   14  C   UNL     1      -4.457  -2.349 -33.779  1.00  0.00     0.037 A 
HETATM   15  C   UNL     1      -5.222  -3.347 -34.386  1.00  0.00     0.068 A 
HETATM   16  C   UNL     1      -6.542  -3.072 -34.739  1.00  0.00     0.037 A 
HETATM   17  C   UNL     1      -7.089  -1.805 -34.490  1.00  0.00     0.018 A 
BRANCH  15  18
HETATM   18  O   UNL     1      -4.566  -4.532 -34.577  1.00  0.00    -0.356 OA
HETATM   19  C   UNL     1      -3.423  -4.771 -33.766  1.00  0.00     0.210 C 
ENDBRANCH  15  18
ENDBRANCH   7  12
BRANCH   9  20
HETATM   20  C   UNL     1     -10.442   2.602 -34.347  1.00  0.00    -0.028 A 
HETATM   21  C   UNL     1     -10.874   1.579 -33.483  1.00  0.00     0.012 A 
HETATM   22  C   UNL     1     -12.138   1.006 -33.642  1.00  0.00     0.043 A 
HETATM   23  C   UNL     1     -12.966   1.442 -34.668  1.00  0.00     0.116 A 
HETATM   24  F   UNL     1     -14.176   0.888 -34.821  1.00  0.00    -0.206 F 
HETATM   25  C   UNL     1     -12.556   2.440 -35.542  1.00  0.00     0.043 A 
HETATM   26  C   UNL     1     -11.297   3.019 -35.385  1.00  0.00     0.012 A 
ENDBRANCH   9  20
BRANCH  10  27
HETATM   27  C   UNL     1      -9.995   5.552 -33.607  1.00  0.00     0.249 C 
HETATM   28  N   UNL     1      -9.627   6.429 -34.577  1.00  0.00    -0.366 N 
HETATM   29  H   UNL     1      -8.725   6.451 -35.029  1.00  0.00     0.159 HD
HETATM   30  H   UNL     1     -10.273   7.183 -34.774  1.00  0.00     0.159 HD
HETATM   31  O   UNL     1     -11.063   5.660 -33.021  1.00  0.00    -0.268 OA
ENDBRANCH  10  27
TORSDOF 4
ENDMDL
MODEL 5
REMARK VINA RESULT:      -7.7      4.094      5.469
REMARK  4 active torsions:
REMARK  status: ('A' for Active; 'I' for Inactive)
REMARK    1  A    between atoms: C_7  and  C_8 
REMARK    2  A    between atoms: C_11  and  O_12 
REMARK    3  A    between atoms: C_17  and  C_18 
REMARK    4  A    between atoms: C_25  and  C_26 
REMARK       I    between atoms: C_26  and  N_27 
ROOT
HETATM    1  C   UNL     1      -7.725   5.376 -29.585  1.00  0.00     0.070 C 
HETATM    2  C   UNL     1      -7.764   4.479 -30.799  1.00  0.00     0.037 A 
HETATM    3  N   UNL     1      -7.120   3.254 -30.663  1.00  0.00    -0.192 N 
HETATM    4  C   UNL     1      -7.034   2.348 -31.654  1.00  0.00     0.726 A 
HETATM    5  N   UNL     1      -7.618   2.617 -32.859  1.00  0.00    -0.083 N 
HETATM    6  N   UNL     1      -7.355   1.651 -33.760  1.00  0.00    -0.135 NA
HETATM    7  C   UNL     1      -6.686   0.759 -33.006  1.00  0.00     0.199 A 
HETATM    8  N   UNL     1      -6.451   1.179 -31.706  1.00  0.00    -0.041 NA
HETATM    9  C   UNL     1      -8.349   3.851 -33.163  1.00  0.00     0.202 A 
HETATM   10  C   UNL     1      -8.353   4.807 -31.976  1.00  0.00     0.062 A 
HETATM   11  H   UNL     1      -6.691   3.042 -29.767  1.00  0.00     0.184 HD
ENDROOT
BRANCH   7  12
HETATM   12  C   UNL     1      -6.240  -0.544 -33.494  1.00  0.00     0.014 A 
HETATM   13  C   UNL     1      -4.882  -0.888 -33.488  1.00  0.00     0.018 A 
HETATM   14  C   UNL     1      -4.463  -2.129 -33.978  1.00  0.00     0.037 A 
HETATM   15  C   UNL     1      -5.389  -3.047 -34.480  1.00  0.00     0.068 A 
HETATM   16  C   UNL     1      -6.742  -2.713 -34.485  1.00  0.00     0.037 A 
HETATM   17  C   UNL     1      -7.164  -1.469 -33.996  1.00  0.00     0.018 A 
BRANCH  15  18
HETATM   18  O   UNL     1      -4.845  -4.218 -34.930  1.00  0.00    -0.356 OA
HETATM   19  C   UNL     1      -4.138  -5.005 -33.980  1.00  0.00     0.210 C 
ENDBRANCH  15  18
ENDBRANCH   7  12
BRANCH   9  20
HETATM   20  C   UNL     1      -9.740   3.511 -33.695  1.00  0.00    -0.028 A 
HETATM   21  C   UNL     1     -10.188   3.979 -34.944  1.00  0.00     0.012 A 
HETATM   22  C   UNL     1     -11.470   3.664 -35.399  1.00  0.00     0.043 A 
HETATM   23  C   UNL     1     -12.312   2.895 -34.606  1.00  0.00     0.116 A 
HETATM   24  F   UNL     1     -13.543   2.599 -35.043  1.00  0.00    -0.206 F 
HETATM   25  C   UNL     1     -11.898   2.434 -33.363  1.00  0.00     0.043 A 
HETATM   26  C   UNL     1     -10.616   2.742 -32.906  1.00  0.00     0.012 A 
ENDBRANCH   9  20
BRANCH  10  27
HETATM   27  C   UNL     1      -9.105   6.073 -32.122  1.00  0.00     0.249 C 
HETATM   28  N   UNL     1      -8.487   7.050 -32.835  1.00  0.00    -0.366 N 
HETATM   29  H   UNL     1      -7.539   7.007 -33.178  1.00  0.00     0.159 HD
HETATM   30  H   UNL     1      -8.984   7.928 -32.926  1.00  0.00     0.159 HD
HETATM   31  O   UNL     1     -10.215   6.243 -31.636  1.00  0.00    -0.268 OA
ENDBRANCH  10  27
TORSDOF 4
ENDMDL
MODEL 6
REMARK VINA RESULT:      -7.7      4.561      7.006
REMARK  4 active torsions:
REMARK  status: ('A' for Active; 'I' for Inactive)
REMARK    1  A    between atoms: C_7  and  C_8 
REMARK    2  A    between atoms: C_11  and  O_12 
REMARK    3  A    between atoms: C_17  and  C_18 
REMARK    4  A    between atoms: C_25  and  C_26 
REMARK       I    between atoms: C_26  and  N_27 
ROOT
HETATM    1  C   UNL     1      -3.372   3.233 -32.683  1.00  0.00     0.070 C 
HETATM    2  C   UNL     1      -4.606   2.364 -32.649  1.00  0.00     0.037 A 
HETATM    3  N   UNL     1      -5.808   3.015 -32.905  1.00  0.00    -0.192 N 
HETATM    4  C   UNL     1      -7.003   2.398 -32.887  1.00  0.00     0.726 A 
HETATM    5  N   UNL     1      -7.063   1.061 -32.621  1.00  0.00    -0.083 N 
HETATM    6  N   UNL     1      -8.336   0.628 -32.547  1.00  0.00    -0.135 NA
HETATM    7  C   UNL     1      -9.014   1.741 -32.885  1.00  0.00     0.199 A 
HETATM    8  N   UNL     1      -8.214   2.857 -33.073  1.00  0.00    -0.041 NA
HETATM    9  C   UNL     1      -5.890   0.223 -32.346  1.00  0.00     0.202 A 
HETATM   10  C   UNL     1      -4.602   1.037 -32.367  1.00  0.00     0.062 A 
HETATM   11  H   UNL     1      -5.772   4.009 -33.113  1.00  0.00     0.184 HD
ENDROOT
BRANCH   7  12
HETATM   12  C   UNL     1     -10.465   1.790 -33.046  1.00  0.00     0.014 A 
HETATM   13  C   UNL     1     -11.176   0.676 -33.508  1.00  0.00     0.018 A 
HETATM   14  C   UNL     1     -12.563   0.741 -33.679  1.00  0.00     0.037 A 
HETATM   15  C   UNL     1     -13.263   1.914 -33.392  1.00  0.00     0.068 A 
HETATM   16  C   UNL     1     -12.563   3.027 -32.928  1.00  0.00     0.037 A 
HETATM   17  C   UNL     1     -11.173   2.965 -32.757  1.00  0.00     0.018 A 
BRANCH  15  18
HETATM   18  O   UNL     1     -14.611   1.842 -33.609  1.00  0.00    -0.356 OA
HETATM   19  C   UNL     1     -15.091   0.692 -34.293  1.00  0.00     0.210 C 
ENDBRANCH  15  18
ENDBRANCH   7  12
BRANCH   9  20
HETATM   20  C   UNL     1      -5.883  -0.981 -33.286  1.00  0.00    -0.028 A 
HETATM   21  C   UNL     1      -5.006  -2.064 -33.092  1.00  0.00     0.012 A 
HETATM   22  C   UNL     1      -5.011  -3.146 -33.976  1.00  0.00     0.043 A 
HETATM   23  C   UNL     1      -5.880  -3.144 -35.060  1.00  0.00     0.116 A 
HETATM   24  F   UNL     1      -5.880  -4.180 -35.908  1.00  0.00    -0.206 F 
HETATM   25  C   UNL     1      -6.745  -2.080 -35.280  1.00  0.00     0.043 A 
HETATM   26  C   UNL     1      -6.747  -1.000 -34.398  1.00  0.00     0.012 A 
ENDBRANCH   9  20
BRANCH  10  27
HETATM   27  C   UNL     1      -3.331   0.309 -32.161  1.00  0.00     0.249 C 
HETATM   28  N   UNL     1      -3.030  -0.004 -30.874  1.00  0.00    -0.366 N 
HETATM   29  H   UNL     1      -3.550   0.302 -30.066  1.00  0.00     0.159 HD
HETATM   30  H   UNL     1      -2.154  -0.487 -30.719  1.00  0.00     0.159 HD
HETATM   31  O   UNL     1      -2.587   0.001 -33.083  1.00  0.00    -0.268 OA
ENDBRANCH  10  27
TORSDOF 4
ENDMDL
MODEL 7
REMARK VINA RESULT:      -7.4      4.336      5.746
REMARK  4 active torsions:
REMARK  status: ('A' for Active; 'I' for Inactive)
REMARK    1  A    between atoms: C_7  and  C_8 
REMARK    2  A    between atoms: C_11  and  O_12 
REMARK    3  A    between atoms: C_17  and  C_18 
REMARK    4  A    between atoms: C_25  and  C_26 
REMARK       I    between atoms: C_26  and  N_27 
ROOT
HETATM    1  C   UNL     1      -3.368   0.635 -31.862  1.00  0.00     0.070 C 
HETATM    2  C   UNL     1      -4.543   1.462 -32.324  1.00  0.00     0.037 A 
HETATM    3  N   UNL     1      -5.737   0.770 -32.496  1.00  0.00    -0.192 N 
HETATM    4  C   UNL     1      -6.872   1.347 -32.930  1.00  0.00     0.726 A 
HETATM    5  N   UNL     1      -6.881   2.683 -33.206  1.00  0.00    -0.083 N 
HETATM    6  N   UNL     1      -8.064   3.074 -33.717  1.00  0.00    -0.135 NA
HETATM    7  C   UNL     1      -8.779   1.937 -33.630  1.00  0.00     0.199 A 
HETATM    8  N   UNL     1      -8.056   0.847 -33.171  1.00  0.00    -0.041 NA
HETATM    9  C   UNL     1      -5.714   3.561 -33.062  1.00  0.00     0.202 A 
HETATM   10  C   UNL     1      -4.486   2.791 -32.593  1.00  0.00     0.062 A 
HETATM   11  H   UNL     1      -5.742  -0.224 -32.284  1.00  0.00     0.184 HD
ENDROOT
BRANCH   7  12
HETATM   12  C   UNL     1     -10.194   1.839 -33.980  1.00  0.00     0.014 A 
HETATM   13  C   UNL     1     -10.987   0.795 -33.487  1.00  0.00     0.018 A 
HETATM   14  C   UNL     1     -12.335   0.698 -33.846  1.00  0.00     0.037 A 
HETATM   15  C   UNL     1     -12.914   1.638 -34.701  1.00  0.00     0.068 A 
HETATM   16  C   UNL     1     -12.133   2.682 -35.193  1.00  0.00     0.037 A 
HETATM   17  C   UNL     1     -10.781   2.780 -34.836  1.00  0.00     0.018 A 
BRANCH  15  18
HETATM   18  O   UNL     1     -14.237   1.422 -34.974  1.00  0.00    -0.356 OA
HETATM   19  C   UNL     1     -14.984   0.701 -34.002  1.00  0.00     0.210 C 
ENDBRANCH  15  18
ENDBRANCH   7  12
BRANCH   9  20
HETATM   20  C   UNL     1      -6.073   4.759 -32.184  1.00  0.00    -0.028 A 
HETATM   21  C   UNL     1      -6.512   4.596 -30.856  1.00  0.00     0.012 A 
HETATM   22  C   UNL     1      -6.848   5.708 -30.081  1.00  0.00     0.043 A 
HETATM   23  C   UNL     1      -6.760   6.981 -30.629  1.00  0.00     0.116 A 
HETATM   24  F   UNL     1      -7.086   8.045 -29.885  1.00  0.00    -0.206 F 
HETATM   25  C   UNL     1      -6.343   7.166 -31.941  1.00  0.00     0.043 A 
HETATM   26  C   UNL     1      -6.003   6.059 -32.719  1.00  0.00     0.012 A 
ENDBRANCH   9  20
BRANCH  10  27
HETATM   27  C   UNL     1      -3.247   3.563 -32.350  1.00  0.00     0.249 C 
HETATM   28  N   UNL     1      -2.961   3.827 -31.049  1.00  0.00    -0.366 N 
HETATM   29  H   UNL     1      -3.567   3.624 -30.268  1.00  0.00     0.159 HD
HETATM   30  H   UNL     1      -2.125   4.369 -30.870  1.00  0.00     0.159 HD
HETATM   31  O   UNL     1      -2.517   3.945 -33.254  1.00  0.00    -0.268 OA
ENDBRANCH  10  27
TORSDOF 4
ENDMDL
MODEL 8
REMARK VINA RESULT:      -7.4     16.611     18.157
REMARK  4 active torsions:
REMARK  status: ('A' for Active; 'I' for Inactive)
REMARK    1  A    between atoms: C_7  and  C_8 
REMARK    2  A    between atoms: C_11  and  O_12 
REMARK    3  A    between atoms: C_17  and  C_18 
REMARK    4  A    between atoms: C_25  and  C_26 
REMARK       I    between atoms: C_26  and  N_27 
ROOT
HETATM    1  C   UNL     1      -8.152 -14.867 -40.729  1.00  0.00     0.070 C 
HETATM    2  C   UNL     1      -7.339 -14.467 -39.522  1.00  0.00     0.037 A 
HETATM    3  N   UNL     1      -7.624 -15.155 -38.348  1.00  0.00    -0.192 N 
HETATM    4  C   UNL     1      -7.014 -14.906 -37.175  1.00  0.00     0.726 A 
HETATM    5  N   UNL     1      -6.050 -13.942 -37.114  1.00  0.00    -0.083 N 
HETATM    6  N   UNL     1      -5.615 -13.757 -35.853  1.00  0.00    -0.135 NA
HETATM    7  C   UNL     1      -6.286 -14.723 -35.197  1.00  0.00     0.199 A 
HETATM    8  N   UNL     1      -7.178 -15.429 -35.988  1.00  0.00    -0.041 NA
HETATM    9  C   UNL     1      -5.617 -13.136 -38.261  1.00  0.00     0.202 A 
HETATM   10  C   UNL     1      -6.397 -13.489 -39.521  1.00  0.00     0.062 A 
HETATM   11  H   UNL     1      -8.334 -15.881 -38.386  1.00  0.00     0.184 HD
ENDROOT
BRANCH   7  12
HETATM   12  C   UNL     1      -6.104 -15.018 -33.779  1.00  0.00     0.014 A 
HETATM   13  C   UNL     1      -5.430 -14.124 -32.938  1.00  0.00     0.018 A 
HETATM   14  C   UNL     1      -5.241 -14.427 -31.586  1.00  0.00     0.037 A 
HETATM   15  C   UNL     1      -5.721 -15.623 -31.049  1.00  0.00     0.068 A 
HETATM   16  C   UNL     1      -6.397 -16.517 -31.879  1.00  0.00     0.037 A 
HETATM   17  C   UNL     1      -6.585 -16.216 -33.235  1.00  0.00     0.018 A 
BRANCH  15  18
HETATM   18  O   UNL     1      -5.464 -15.795 -29.717  1.00  0.00    -0.356 OA
HETATM   19  C   UNL     1      -5.979 -16.974 -29.111  1.00  0.00     0.210 C 
ENDBRANCH  15  18
ENDBRANCH   7  12
BRANCH   9  20
HETATM   20  C   UNL     1      -4.101 -13.231 -38.418  1.00  0.00    -0.028 A 
HETATM   21  C   UNL     1      -3.463 -14.453 -38.703  1.00  0.00     0.012 A 
HETATM   22  C   UNL     1      -2.073 -14.514 -38.827  1.00  0.00     0.043 A 
HETATM   23  C   UNL     1      -1.317 -13.362 -38.654  1.00  0.00     0.116 A 
HETATM   24  F   UNL     1       0.016 -13.424 -38.769  1.00  0.00    -0.206 F 
HETATM   25  C   UNL     1      -1.921 -12.148 -38.358  1.00  0.00     0.043 A 
HETATM   26  C   UNL     1      -3.309 -12.081 -38.238  1.00  0.00     0.012 A 
ENDBRANCH   9  20
BRANCH  10  27
HETATM   27  C   UNL     1      -6.026 -12.793 -40.773  1.00  0.00     0.249 C 
HETATM   28  N   UNL     1      -6.737 -11.670 -41.058  1.00  0.00    -0.366 N 
HETATM   29  H   UNL     1      -7.540 -11.344 -40.541  1.00  0.00     0.159 HD
HETATM   30  H   UNL     1      -6.504 -11.194 -41.921  1.00  0.00     0.159 HD
HETATM   31  O   UNL     1      -5.138 -13.190 -41.514  1.00  0.00    -0.268 OA
ENDBRANCH  10  27
TORSDOF 4
ENDMDL
MODEL 9
REMARK VINA RESULT:      -7.4      2.731      4.354
REMARK  4 active torsions:
REMARK  status: ('A' for Active; 'I' for Inactive)
REMARK    1  A    between atoms: C_7  and  C_8 
REMARK    2  A    between atoms: C_11  and  O_12 
REMARK    3  A    between atoms: C_17  and  C_18 
REMARK    4  A    between atoms: C_25  and  C_26 
REMARK       I    between atoms: C_26  and  N_27 
ROOT
HETATM    1  C   UNL     1      -0.620   6.533 -30.437  1.00  0.00     0.070 C 
HETATM    2  C   UNL     1      -1.917   5.901 -30.883  1.00  0.00     0.037 A 
HETATM    3  N   UNL     1      -1.852   4.548 -31.195  1.00  0.00    -0.192 N 
HETATM    4  C   UNL     1      -2.906   3.837 -31.635  1.00  0.00     0.726 A 
HETATM    5  N   UNL     1      -4.116   4.452 -31.775  1.00  0.00    -0.083 N 
HETATM    6  N   UNL     1      -5.031   3.624 -32.314  1.00  0.00    -0.135 NA
HETATM    7  C   UNL     1      -4.337   2.472 -32.384  1.00  0.00     0.199 A 
HETATM    8  N   UNL     1      -3.012   2.585 -31.996  1.00  0.00    -0.041 NA
HETATM    9  C   UNL     1      -4.361   5.867 -31.475  1.00  0.00     0.202 A 
HETATM   10  C   UNL     1      -3.090   6.570 -31.014  1.00  0.00     0.062 A 
HETATM   11  H   UNL     1      -0.957   4.079 -31.084  1.00  0.00     0.184 HD
ENDROOT
BRANCH   7  12
HETATM   12  C   UNL     1      -4.912   1.204 -32.826  1.00  0.00     0.014 A 
HETATM   13  C   UNL     1      -6.173   1.158 -33.435  1.00  0.00     0.018 A 
HETATM   14  C   UNL     1      -6.723  -0.064 -33.834  1.00  0.00     0.037 A 
HETATM   15  C   UNL     1      -6.027  -1.259 -33.635  1.00  0.00     0.068 A 
HETATM   16  C   UNL     1      -4.770  -1.221 -33.034  1.00  0.00     0.037 A 
HETATM   17  C   UNL     1      -4.218   0.003 -32.631  1.00  0.00     0.018 A 
BRANCH  15  18
HETATM   18  O   UNL     1      -6.682  -2.379 -34.068  1.00  0.00    -0.356 OA
HETATM   19  C   UNL     1      -5.961  -3.252 -34.928  1.00  0.00     0.210 C 
ENDBRANCH  15  18
ENDBRANCH   7  12
BRANCH   9  20
HETATM   20  C   UNL     1      -5.533   5.994 -30.503  1.00  0.00    -0.028 A 
HETATM   21  C   UNL     1      -6.683   6.738 -30.827  1.00  0.00     0.012 A 
HETATM   22  C   UNL     1      -7.733   6.850 -29.913  1.00  0.00     0.043 A 
HETATM   23  C   UNL     1      -7.634   6.233 -28.672  1.00  0.00     0.116 A 
HETATM   24  F   UNL     1      -8.641   6.345 -27.796  1.00  0.00    -0.206 F 
HETATM   25  C   UNL     1      -6.503   5.505 -28.324  1.00  0.00     0.043 A 
HETATM   26  C   UNL     1      -5.453   5.387 -29.235  1.00  0.00     0.012 A 
ENDBRANCH   9  20
BRANCH  10  27
HETATM   27  C   UNL     1      -3.201   7.992 -30.621  1.00  0.00     0.249 C 
HETATM   28  N   UNL     1      -3.258   8.234 -29.285  1.00  0.00    -0.366 N 
HETATM   29  H   UNL     1      -3.327   7.527 -28.569  1.00  0.00     0.159 HD
HETATM   30  H   UNL     1      -3.352   9.202 -29.004  1.00  0.00     0.159 HD
HETATM   31  O   UNL     1      -3.239   8.903 -31.436  1.00  0.00    -0.268 OA
ENDBRANCH  10  27
TORSDOF 4
ENDMDL
MODEL 10
REMARK VINA RESULT:      -7.4      4.908      6.699
REMARK  4 active torsions:
REMARK  status: ('A' for Active; 'I' for Inactive)
REMARK    1  A    between atoms: C_7  and  C_8 
REMARK    2  A    between atoms: C_11  and  O_12 
REMARK    3  A    between atoms: C_17  and  C_18 
REMARK    4  A    between atoms: C_25  and  C_26 
REMARK       I    between atoms: C_26  and  N_27 
ROOT
HETATM    1  C   UNL     1      -5.012   5.564 -32.870  1.00  0.00     0.070 C 
HETATM    2  C   UNL     1      -5.997   4.428 -32.738  1.00  0.00     0.037 A 
HETATM    3  N   UNL     1      -7.313   4.730 -33.071  1.00  0.00    -0.192 N 
HETATM    4  C   UNL     1      -8.322   3.845 -32.983  1.00  0.00     0.726 A 
HETATM    5  N   UNL     1      -8.062   2.573 -32.563  1.00  0.00    -0.083 N 
HETATM    6  N   UNL     1      -9.193   1.851 -32.443  1.00  0.00    -0.135 NA
HETATM    7  C   UNL     1     -10.111   2.719 -32.909  1.00  0.00     0.199 A 
HETATM    8  N   UNL     1      -9.601   3.968 -33.225  1.00  0.00    -0.041 NA
HETATM    9  C   UNL     1      -6.730   2.085 -32.189  1.00  0.00     0.202 A 
HETATM   10  C   UNL     1      -5.679   3.183 -32.303  1.00  0.00     0.062 A 
HETATM   11  H   UNL     1      -7.515   5.673 -33.394  1.00  0.00     0.184 HD
ENDROOT
BRANCH   7  12
HETATM   12  C   UNL     1     -11.525   2.391 -33.078  1.00  0.00     0.014 A 
HETATM   13  C   UNL     1     -12.523   3.304 -32.717  1.00  0.00     0.018 A 
HETATM   14  C   UNL     1     -13.874   2.972 -32.863  1.00  0.00     0.037 A 
HETATM   15  C   UNL     1     -14.251   1.727 -33.370  1.00  0.00     0.068 A 
HETATM   16  C   UNL     1     -13.263   0.814 -33.735  1.00  0.00     0.037 A 
HETATM   17  C   UNL     1     -11.909   1.144 -33.588  1.00  0.00     0.018 A 
BRANCH  15  18
HETATM   18  O   UNL     1     -15.602   1.531 -33.455  1.00  0.00    -0.356 OA
HETATM   19  C   UNL     1     -16.410   2.199 -32.494  1.00  0.00     0.210 C 
ENDBRANCH  15  18
ENDBRANCH   7  12
BRANCH   9  20
HETATM   20  C   UNL     1      -6.400   0.821 -32.982  1.00  0.00    -0.028 A 
HETATM   21  C   UNL     1      -6.844   0.643 -34.306  1.00  0.00     0.012 A 
HETATM   22  C   UNL     1      -6.541  -0.530 -35.001  1.00  0.00     0.043 A 
HETATM   23  C   UNL     1      -5.807  -1.530 -34.376  1.00  0.00     0.116 A 
HETATM   24  F   UNL     1      -5.521  -2.655 -35.044  1.00  0.00    -0.206 F 
HETATM   25  C   UNL     1      -5.370  -1.383 -33.066  1.00  0.00     0.043 A 
HETATM   26  C   UNL     1      -5.667  -0.212 -32.368  1.00  0.00     0.012 A 
ENDBRANCH   9  20
BRANCH  10  27
HETATM   27  C   UNL     1      -4.275   2.817 -32.010  1.00  0.00     0.249 C 
HETATM   28  N   UNL     1      -3.421   2.858 -33.066  1.00  0.00    -0.366 N 
HETATM   29  H   UNL     1      -3.690   3.021 -34.025  1.00  0.00     0.159 HD
HETATM   30  H   UNL     1      -2.461   2.593 -32.882  1.00  0.00     0.159 HD
HETATM   31  O   UNL     1      -3.893   2.497 -30.893  1.00  0.00    -0.268 OA
ENDBRANCH  10  27
TORSDOF 4
ENDMDL
