MODEL 1
REMARK VINA RESULT:      -9.1      0.000      0.000
REMARK  7 active torsions:
REMARK  status: ('A' for Active; 'I' for Inactive)
REMARK    1  A    between atoms: C_2  and  C_3 
REMARK    2  A    between atoms: C_3  and  O_4 
REMARK    3  A    between atoms: O_4  and  C_5 
REMARK    4  A    between atoms: C_8  and  C_9 
REMARK    5  A    between atoms: C_15  and  C_16 
REMARK    6  A    between atoms: C_19  and  N_20 
REMARK       I    between atoms: N_20  and  C_21 
REMARK    7  A    between atoms: C_29  and  N_30 
ROOT
HETATM    1  C   UNL     1      -8.458   2.644 -31.424  1.00  0.00     0.072 A 
HETATM    2  N   UNL     1      -8.466   2.745 -30.048  1.00  0.00    -0.274 N 
HETATM    3  H   UNL     1      -9.229   2.522 -29.418  1.00  0.00     0.189 HD
HETATM    4  N   UNL     1      -7.323   3.240 -29.522  1.00  0.00    -0.148 NA
HETATM    5  C   UNL     1      -6.583   3.450 -30.603  1.00  0.00     0.199 A 
HETATM    6  C   UNL     1      -7.196   3.068 -31.798  1.00  0.00     0.039 A 
HETATM    7  C   UNL     1      -6.480   3.202 -33.093  1.00  0.00     0.105 C 
HETATM    8  C   UNL     1      -5.223   4.037 -32.913  1.00  0.00     0.067 C 
HETATM    9  C   UNL     1      -4.627   4.608 -34.191  1.00  0.00     0.020 C 
HETATM   10  N   UNL     1      -4.134   5.082 -35.250  1.00  0.00    -0.096 N 
HETATM   11  C   UNL     1      -4.731   4.396 -31.700  1.00  0.00     0.139 C 
HETATM   12  O   UNL     1      -5.361   4.010 -30.505  1.00  0.00    -0.277 OA
ENDROOT
BRANCH   7  13
HETATM   13  C   UNL     1      -6.199   1.777 -33.549  1.00  0.00    -0.044 A 
HETATM   14  C   UNL     1      -6.923   1.233 -34.621  1.00  0.00     0.010 A 
HETATM   15  C   UNL     1      -6.712  -0.087 -35.042  1.00  0.00     0.030 A 
HETATM   16  C   UNL     1      -5.772  -0.895 -34.404  1.00  0.00     0.034 A 
HETATM   17  C   UNL     1      -5.036  -0.357 -33.343  1.00  0.00     0.030 A 
HETATM   18  C   UNL     1      -5.244   0.959 -32.920  1.00  0.00     0.010 A 
BRANCH  16  19
HETATM   19  N   UNL     1      -5.515  -2.237 -34.750  1.00  0.00    -0.328 N 
HETATM   20  C   UNL     1      -6.356  -3.324 -34.594  1.00  0.00     0.218 C 
HETATM   21  C   UNL     1      -5.712  -4.605 -35.059  1.00  0.00     0.117 C 
HETATM   22  O   UNL     1      -7.501  -3.318 -34.157  1.00  0.00    -0.274 OA
HETATM   23  H   UNL     1      -4.609  -2.422 -35.158  1.00  0.00     0.169 HD
ENDBRANCH  16  19
ENDBRANCH   7  13
BRANCH  11  24
HETATM   24  N   UNL     1      -3.611   5.170 -31.496  1.00  0.00    -0.282 NA
HETATM   25  H   UNL     1      -2.742   4.805 -31.875  1.00  0.00     0.126 HD
HETATM   26  H   UNL     1      -3.532   5.482 -30.530  1.00  0.00     0.126 HD
ENDBRANCH  11  24
BRANCH   1  27
HETATM   27  C   UNL     1      -9.596   2.188 -32.207  1.00  0.00    -0.007 A 
HETATM   28  C   UNL     1     -10.543   3.111 -32.671  1.00  0.00     0.016 A 
HETATM   29  C   UNL     1     -11.618   2.698 -33.466  1.00  0.00     0.037 A 
HETATM   30  C   UNL     1     -11.760   1.354 -33.805  1.00  0.00     0.068 A 
HETATM   31  C   UNL     1     -10.836   0.427 -33.319  1.00  0.00     0.037 A 
HETATM   32  C   UNL     1      -9.756   0.837 -32.530  1.00  0.00     0.016 A 
BRANCH  30  33
HETATM   33  O   UNL     1     -12.756   0.829 -34.581  1.00  0.00    -0.351 OA
BRANCH  33  34
HETATM   34  C   UNL     1     -13.806   0.147 -33.892  1.00  0.00     0.175 C 
BRANCH  34  35
HETATM   35  C   UNL     1     -15.053   1.024 -33.947  1.00  0.00     0.022 C 
HETATM   36  C   UNL     1     -15.280   1.761 -32.639  1.00  0.00     0.007 C 
ENDBRANCH  34  35
ENDBRANCH  33  34
ENDBRANCH  30  33
ENDBRANCH   1  27
TORSDOF 7
ENDMDL
MODEL 2
REMARK VINA RESULT:      -8.0      2.978      6.313
REMARK  7 active torsions:
REMARK  status: ('A' for Active; 'I' for Inactive)
REMARK    1  A    between atoms: C_2  and  C_3 
REMARK    2  A    between atoms: C_3  and  O_4 
REMARK    3  A    between atoms: O_4  and  C_5 
REMARK    4  A    between atoms: C_8  and  C_9 
REMARK    5  A    between atoms: C_15  and  C_16 
REMARK    6  A    between atoms: C_19  and  N_20 
REMARK       I    between atoms: N_20  and  C_21 
REMARK    7  A    between atoms: C_29  and  N_30 
ROOT
HETATM    1  C   UNL     1      -8.614   1.796 -32.101  1.00  0.00     0.072 A 
HETATM    2  N   UNL     1      -9.139   1.567 -30.846  1.00  0.00    -0.274 N 
HETATM    3  H   UNL     1      -9.055   0.724 -30.287  1.00  0.00     0.189 HD
HETATM    4  N   UNL     1      -9.874   2.591 -30.358  1.00  0.00    -0.148 NA
HETATM    5  C   UNL     1      -9.803   3.482 -31.338  1.00  0.00     0.199 A 
HETATM    6  C   UNL     1      -9.012   3.083 -32.418  1.00  0.00     0.039 A 
HETATM    7  C   UNL     1      -8.800   3.987 -33.576  1.00  0.00     0.105 C 
HETATM    8  C   UNL     1      -9.759   5.164 -33.507  1.00  0.00     0.067 C 
HETATM    9  C   UNL     1      -9.954   5.928 -34.807  1.00  0.00     0.020 C 
HETATM   10  N   UNL     1     -10.116   6.562 -35.885  1.00  0.00    -0.096 N 
HETATM   11  C   UNL     1     -10.522   5.443 -32.419  1.00  0.00     0.139 C 
HETATM   12  O   UNL     1     -10.473   4.649 -31.261  1.00  0.00    -0.277 OA
ENDROOT
BRANCH   7  13
HETATM   13  C   UNL     1      -7.335   4.397 -33.506  1.00  0.00    -0.044 A 
HETATM   14  C   UNL     1      -6.372   3.668 -34.221  1.00  0.00     0.010 A 
HETATM   15  C   UNL     1      -5.013   3.998 -34.150  1.00  0.00     0.030 A 
HETATM   16  C   UNL     1      -4.581   5.066 -33.363  1.00  0.00     0.034 A 
HETATM   17  C   UNL     1      -5.535   5.806 -32.657  1.00  0.00     0.030 A 
HETATM   18  C   UNL     1      -6.892   5.479 -32.727  1.00  0.00     0.010 A 
BRANCH  16  19
HETATM   19  N   UNL     1      -3.232   5.449 -33.219  1.00  0.00    -0.328 N 
HETATM   20  C   UNL     1      -2.234   4.780 -32.534  1.00  0.00     0.218 C 
HETATM   21  C   UNL     1      -0.923   5.523 -32.584  1.00  0.00     0.117 C 
HETATM   22  O   UNL     1      -2.327   3.705 -31.953  1.00  0.00    -0.274 OA
HETATM   23  H   UNL     1      -2.970   6.316 -33.668  1.00  0.00     0.169 HD
ENDBRANCH  16  19
ENDBRANCH   7  13
BRANCH  11  24
HETATM   24  N   UNL     1     -11.419   6.482 -32.326  1.00  0.00    -0.282 NA
HETATM   25  H   UNL     1     -11.357   7.051 -31.486  1.00  0.00     0.126 HD
HETATM   26  H   UNL     1     -12.369   6.190 -32.547  1.00  0.00     0.126 HD
ENDBRANCH  11  24
BRANCH   1  27
HETATM   27  C   UNL     1      -7.835   0.816 -32.843  1.00  0.00    -0.007 A 
HETATM   28  C   UNL     1      -6.697   0.240 -32.263  1.00  0.00     0.016 A 
HETATM   29  C   UNL     1      -5.964  -0.739 -32.941  1.00  0.00     0.037 A 
HETATM   30  C   UNL     1      -6.358  -1.152 -34.212  1.00  0.00     0.068 A 
HETATM   31  C   UNL     1      -7.474  -0.558 -34.806  1.00  0.00     0.037 A 
HETATM   32  C   UNL     1      -8.213   0.416 -34.128  1.00  0.00     0.016 A 
BRANCH  30  33
HETATM   33  O   UNL     1      -5.735  -2.104 -34.970  1.00  0.00    -0.351 OA
BRANCH  33  34
HETATM   34  C   UNL     1      -4.828  -2.970 -34.283  1.00  0.00     0.175 C 
BRANCH  34  35
HETATM   35  C   UNL     1      -5.223  -4.410 -34.596  1.00  0.00     0.022 C 
HETATM   36  C   UNL     1      -6.542  -4.481 -35.346  1.00  0.00     0.007 C 
ENDBRANCH  34  35
ENDBRANCH  33  34
ENDBRANCH  30  33
ENDBRANCH   1  27
TORSDOF 7
ENDMDL
MODEL 3
REMARK VINA RESULT:      -7.9      2.962      7.376
REMARK  7 active torsions:
REMARK  status: ('A' for Active; 'I' for Inactive)
REMARK    1  A    between atoms: C_2  and  C_3 
REMARK    2  A    between atoms: C_3  and  O_4 
REMARK    3  A    between atoms: O_4  and  C_5 
REMARK    4  A    between atoms: C_8  and  C_9 
REMARK    5  A    between atoms: C_15  and  C_16 
REMARK    6  A    between atoms: C_19  and  N_20 
REMARK       I    between atoms: N_20  and  C_21 
REMARK    7  A    between atoms: C_29  and  N_30 
ROOT
HETATM    1  C   UNL     1     -10.243   0.991 -33.676  1.00  0.00     0.072 A 
HETATM    2  N   UNL     1     -11.346   0.209 -33.402  1.00  0.00    -0.274 N 
HETATM    3  H   UNL     1     -11.367  -0.792 -33.236  1.00  0.00     0.189 HD
HETATM    4  N   UNL     1     -12.517   0.885 -33.403  1.00  0.00    -0.148 NA
HETATM    5  C   UNL     1     -12.130   2.122 -33.684  1.00  0.00     0.199 A 
HETATM    6  C   UNL     1     -10.747   2.271 -33.821  1.00  0.00     0.039 A 
HETATM    7  C   UNL     1     -10.153   3.603 -34.096  1.00  0.00     0.105 C 
HETATM    8  C   UNL     1     -11.241   4.596 -34.473  1.00  0.00     0.067 C 
HETATM    9  C   UNL     1     -10.763   5.855 -35.179  1.00  0.00     0.020 C 
HETATM   10  N   UNL     1     -10.367   6.898 -35.766  1.00  0.00    -0.096 N 
HETATM   11  C   UNL     1     -12.567   4.336 -34.342  1.00  0.00     0.139 C 
HETATM   12  O   UNL     1     -13.033   3.110 -33.838  1.00  0.00    -0.277 OA
ENDROOT
BRANCH   7  13
HETATM   13  C   UNL     1      -9.403   3.982 -32.826  1.00  0.00    -0.044 A 
HETATM   14  C   UNL     1     -10.113   4.461 -31.715  1.00  0.00     0.010 A 
HETATM   15  C   UNL     1      -9.450   4.851 -30.544  1.00  0.00     0.030 A 
HETATM   16  C   UNL     1      -8.061   4.770 -30.453  1.00  0.00     0.034 A 
HETATM   17  C   UNL     1      -7.345   4.282 -31.552  1.00  0.00     0.030 A 
HETATM   18  C   UNL     1      -8.005   3.892 -32.721  1.00  0.00     0.010 A 
BRANCH  16  19
HETATM   19  N   UNL     1      -7.316   5.162 -29.323  1.00  0.00    -0.328 N 
HETATM   20  C   UNL     1      -6.633   6.350 -29.134  1.00  0.00     0.218 C 
HETATM   21  C   UNL     1      -5.931   6.388 -27.800  1.00  0.00     0.117 C 
HETATM   22  O   UNL     1      -6.577   7.303 -29.902  1.00  0.00    -0.274 OA
HETATM   23  H   UNL     1      -7.278   4.493 -28.566  1.00  0.00     0.169 HD
ENDBRANCH  16  19
ENDBRANCH   7  13
BRANCH  11  24
HETATM   24  N   UNL     1     -13.581   5.197 -34.694  1.00  0.00    -0.282 NA
HETATM   25  H   UNL     1     -14.276   4.829 -35.338  1.00  0.00     0.126 HD
HETATM   26  H   UNL     1     -13.230   6.116 -34.960  1.00  0.00     0.126 HD
ENDBRANCH  11  24
BRANCH   1  27
HETATM   27  C   UNL     1      -8.888   0.469 -33.779  1.00  0.00    -0.007 A 
HETATM   28  C   UNL     1      -8.273   0.357 -35.033  1.00  0.00     0.016 A 
HETATM   29  C   UNL     1      -6.955  -0.097 -35.147  1.00  0.00     0.037 A 
HETATM   30  C   UNL     1      -6.235  -0.448 -34.006  1.00  0.00     0.068 A 
HETATM   31  C   UNL     1      -6.855  -0.366 -32.758  1.00  0.00     0.037 A 
HETATM   32  C   UNL     1      -8.170   0.094 -32.639  1.00  0.00     0.016 A 
BRANCH  30  33
HETATM   33  O   UNL     1      -4.942  -0.892 -33.986  1.00  0.00    -0.351 OA
BRANCH  33  34
HETATM   34  C   UNL     1      -4.752  -2.280 -33.700  1.00  0.00     0.175 C 
BRANCH  34  35
HETATM   35  C   UNL     1      -5.015  -3.065 -34.981  1.00  0.00     0.022 C 
HETATM   36  C   UNL     1      -6.271  -3.912 -34.873  1.00  0.00     0.007 C 
ENDBRANCH  34  35
ENDBRANCH  33  34
ENDBRANCH  30  33
ENDBRANCH   1  27
TORSDOF 7
ENDMDL
MODEL 4
REMARK VINA RESULT:      -7.7      2.600      6.563
REMARK  7 active torsions:
REMARK  status: ('A' for Active; 'I' for Inactive)
REMARK    1  A    between atoms: C_2  and  C_3 
REMARK    2  A    between atoms: C_3  and  O_4 
REMARK    3  A    between atoms: O_4  and  C_5 
REMARK    4  A    between atoms: C_8  and  C_9 
REMARK    5  A    between atoms: C_15  and  C_16 
REMARK    6  A    between atoms: C_19  and  N_20 
REMARK       I    between atoms: N_20  and  C_21 
REMARK    7  A    between atoms: C_29  and  N_30 
ROOT
HETATM    1  C   UNL     1      -5.410   3.875 -33.092  1.00  0.00     0.072 A 
HETATM    2  N   UNL     1      -5.004   4.645 -34.163  1.00  0.00    -0.274 N 
HETATM    3  H   UNL     1      -4.838   4.338 -35.116  1.00  0.00     0.189 HD
HETATM    4  N   UNL     1      -4.774   5.942 -33.857  1.00  0.00    -0.148 NA
HETATM    5  C   UNL     1      -5.046   5.978 -32.560  1.00  0.00     0.199 A 
HETATM    6  C   UNL     1      -5.483   4.761 -32.033  1.00  0.00     0.039 A 
HETATM    7  C   UNL     1      -5.866   4.649 -30.602  1.00  0.00     0.105 C 
HETATM    8  C   UNL     1      -5.434   5.893 -29.844  1.00  0.00     0.067 C 
HETATM    9  C   UNL     1      -5.372   5.751 -28.331  1.00  0.00     0.020 C 
HETATM   10  N   UNL     1      -5.321   5.632 -27.077  1.00  0.00    -0.096 N 
HETATM   11  C   UNL     1      -4.978   7.018 -30.452  1.00  0.00     0.139 C 
HETATM   12  O   UNL     1      -4.876   7.111 -31.850  1.00  0.00    -0.277 OA
ENDROOT
BRANCH   7  13
HETATM   13  C   UNL     1      -7.374   4.436 -30.603  1.00  0.00    -0.044 A 
HETATM   14  C   UNL     1      -7.894   3.138 -30.485  1.00  0.00     0.010 A 
HETATM   15  C   UNL     1      -9.275   2.905 -30.517  1.00  0.00     0.030 A 
HETATM   16  C   UNL     1     -10.171   3.963 -30.666  1.00  0.00     0.034 A 
HETATM   17  C   UNL     1      -9.663   5.262 -30.773  1.00  0.00     0.030 A 
HETATM   18  C   UNL     1      -8.285   5.498 -30.740  1.00  0.00     0.010 A 
BRANCH  16  19
HETATM   19  N   UNL     1     -11.571   3.813 -30.731  1.00  0.00    -0.328 N 
HETATM   20  C   UNL     1     -12.367   3.806 -31.862  1.00  0.00     0.218 C 
HETATM   21  C   UNL     1     -13.828   3.649 -31.521  1.00  0.00     0.117 C 
HETATM   22  O   UNL     1     -11.999   3.893 -33.028  1.00  0.00    -0.274 OA
HETATM   23  H   UNL     1     -12.044   3.700 -29.845  1.00  0.00     0.169 HD
ENDBRANCH  16  19
ENDBRANCH   7  13
BRANCH  11  24
HETATM   24  N   UNL     1      -4.555   8.155 -29.801  1.00  0.00    -0.282 NA
HETATM   25  H   UNL     1      -5.264   8.862 -29.630  1.00  0.00     0.126 HD
HETATM   26  H   UNL     1      -3.698   8.531 -30.204  1.00  0.00     0.126 HD
ENDBRANCH  11  24
BRANCH   1  27
HETATM   27  C   UNL     1      -5.663   2.445 -33.175  1.00  0.00    -0.007 A 
HETATM   28  C   UNL     1      -4.930   1.555 -32.378  1.00  0.00     0.016 A 
HETATM   29  C   UNL     1      -5.192   0.182 -32.409  1.00  0.00     0.037 A 
HETATM   30  C   UNL     1      -6.191  -0.321 -33.241  1.00  0.00     0.068 A 
HETATM   31  C   UNL     1      -6.902   0.559 -34.059  1.00  0.00     0.037 A 
HETATM   32  C   UNL     1      -6.648   1.934 -34.026  1.00  0.00     0.016 A 
BRANCH  30  33
HETATM   33  O   UNL     1      -6.549  -1.636 -33.352  1.00  0.00    -0.351 OA
BRANCH  33  34
HETATM   34  C   UNL     1      -6.787  -2.120 -34.676  1.00  0.00     0.175 C 
BRANCH  34  35
HETATM   35  C   UNL     1      -5.800  -3.251 -34.949  1.00  0.00     0.022 C 
HETATM   36  C   UNL     1      -6.510  -4.541 -35.317  1.00  0.00     0.007 C 
ENDBRANCH  34  35
ENDBRANCH  33  34
ENDBRANCH  30  33
ENDBRANCH   1  27
TORSDOF 7
ENDMDL
MODEL 5
REMARK VINA RESULT:      -7.1      3.340      8.594
REMARK  7 active torsions:
REMARK  status: ('A' for Active; 'I' for Inactive)
REMARK    1  A    between atoms: C_2  and  C_3 
REMARK    2  A    between atoms: C_3  and  O_4 
REMARK    3  A    between atoms: O_4  and  C_5 
REMARK    4  A    between atoms: C_8  and  C_9 
REMARK    5  A    between atoms: C_15  and  C_16 
REMARK    6  A    between atoms: C_19  and  N_20 
REMARK       I    between atoms: N_20  and  C_21 
REMARK    7  A    between atoms: C_29  and  N_30 
ROOT
HETATM    1  C   UNL     1      -6.489   2.137 -32.577  1.00  0.00     0.072 A 
HETATM    2  N   UNL     1      -6.012   0.988 -31.981  1.00  0.00    -0.274 N 
HETATM    3  H   UNL     1      -5.052   0.775 -31.733  1.00  0.00     0.189 HD
HETATM    4  N   UNL     1      -6.957   0.049 -31.754  1.00  0.00    -0.148 NA
HETATM    5  C   UNL     1      -8.053   0.631 -32.222  1.00  0.00     0.199 A 
HETATM    6  C   UNL     1      -7.851   1.928 -32.701  1.00  0.00     0.039 A 
HETATM    7  C   UNL     1      -8.988   2.729 -33.221  1.00  0.00     0.105 C 
HETATM    8  C   UNL     1     -10.212   1.846 -33.404  1.00  0.00     0.067 C 
HETATM    9  C   UNL     1     -11.298   2.410 -34.306  1.00  0.00     0.020 C 
HETATM   10  N   UNL     1     -12.198   2.878 -35.056  1.00  0.00    -0.096 N 
HETATM   11  C   UNL     1     -10.293   0.575 -32.935  1.00  0.00     0.139 C 
HETATM   12  O   UNL     1      -9.232  -0.022 -32.234  1.00  0.00    -0.277 OA
ENDROOT
BRANCH   7  13
HETATM   13  C   UNL     1      -9.194   3.845 -32.206  1.00  0.00    -0.044 A 
HETATM   14  C   UNL     1      -8.684   5.126 -32.465  1.00  0.00     0.010 A 
HETATM   15  C   UNL     1      -8.827   6.165 -31.536  1.00  0.00     0.030 A 
HETATM   16  C   UNL     1      -9.484   5.950 -30.325  1.00  0.00     0.034 A 
HETATM   17  C   UNL     1     -10.007   4.679 -30.063  1.00  0.00     0.030 A 
HETATM   18  C   UNL     1      -9.867   3.641 -30.988  1.00  0.00     0.010 A 
BRANCH  16  19
HETATM   19  N   UNL     1      -9.651   6.933 -29.328  1.00  0.00    -0.328 N 
HETATM   20  C   UNL     1      -8.899   7.105 -28.181  1.00  0.00     0.218 C 
HETATM   21  C   UNL     1      -9.404   8.254 -27.345  1.00  0.00     0.117 C 
HETATM   22  O   UNL     1      -7.919   6.455 -27.832  1.00  0.00    -0.274 OA
HETATM   23  H   UNL     1     -10.411   7.583 -29.473  1.00  0.00     0.169 HD
ENDBRANCH  16  19
ENDBRANCH   7  13
BRANCH  11  24
HETATM   24  N   UNL     1     -11.372  -0.264 -33.101  1.00  0.00    -0.282 NA
HETATM   25  H   UNL     1     -12.245   0.181 -33.370  1.00  0.00     0.126 HD
HETATM   26  H   UNL     1     -11.472  -0.917 -32.326  1.00  0.00     0.126 HD
ENDBRANCH  11  24
BRANCH   1  27
HETATM   27  C   UNL     1      -5.645   3.259 -32.962  1.00  0.00    -0.007 A 
HETATM   28  C   UNL     1      -4.703   3.769 -32.060  1.00  0.00     0.016 A 
HETATM   29  C   UNL     1      -3.851   4.815 -32.428  1.00  0.00     0.037 A 
HETATM   30  C   UNL     1      -3.932   5.366 -33.705  1.00  0.00     0.068 A 
HETATM   31  C   UNL     1      -4.891   4.881 -34.597  1.00  0.00     0.037 A 
HETATM   32  C   UNL     1      -5.740   3.831 -34.234  1.00  0.00     0.016 A 
BRANCH  30  33
HETATM   33  O   UNL     1      -3.151   6.379 -34.187  1.00  0.00    -0.351 OA
BRANCH  33  34
HETATM   34  C   UNL     1      -1.742   6.249 -33.979  1.00  0.00     0.175 C 
BRANCH  34  35
HETATM   35  C   UNL     1      -1.278   7.436 -33.139  1.00  0.00     0.022 C 
HETATM   36  C   UNL     1      -0.642   6.987 -31.835  1.00  0.00     0.007 C 
ENDBRANCH  34  35
ENDBRANCH  33  34
ENDBRANCH  30  33
ENDBRANCH   1  27
TORSDOF 7
ENDMDL
MODEL 6
REMARK VINA RESULT:      -7.1      3.706      8.974
REMARK  7 active torsions:
REMARK  status: ('A' for Active; 'I' for Inactive)
REMARK    1  A    between atoms: C_2  and  C_3 
REMARK    2  A    between atoms: C_3  and  O_4 
REMARK    3  A    between atoms: O_4  and  C_5 
REMARK    4  A    between atoms: C_8  and  C_9 
REMARK    5  A    between atoms: C_15  and  C_16 
REMARK    6  A    between atoms: C_19  and  N_20 
REMARK       I    between atoms: N_20  and  C_21 
REMARK    7  A    between atoms: C_29  and  N_30 
ROOT
HETATM    1  C   UNL     1      -5.493   2.298 -31.334  1.00  0.00     0.072 A 
HETATM    2  N   UNL     1      -5.292   1.158 -30.583  1.00  0.00    -0.274 N 
HETATM    3  H   UNL     1      -4.435   0.863 -30.127  1.00  0.00     0.189 HD
HETATM    4  N   UNL     1      -6.373   0.349 -30.504  1.00  0.00    -0.148 NA
HETATM    5  C   UNL     1      -7.271   1.007 -31.225  1.00  0.00     0.199 A 
HETATM    6  C   UNL     1      -6.817   2.229 -31.728  1.00  0.00     0.039 A 
HETATM    7  C   UNL     1      -7.718   3.103 -32.522  1.00  0.00     0.105 C 
HETATM    8  C   UNL     1      -8.980   2.346 -32.905  1.00  0.00     0.067 C 
HETATM    9  C   UNL     1      -9.783   2.947 -34.047  1.00  0.00     0.020 C 
HETATM   10  N   UNL     1     -10.449   3.446 -34.995  1.00  0.00    -0.096 N 
HETATM   11  C   UNL     1      -9.310   1.135 -32.389  1.00  0.00     0.139 C 
HETATM   12  O   UNL     1      -8.494   0.487 -31.446  1.00  0.00    -0.277 OA
ENDROOT
BRANCH   7  13
HETATM   13  C   UNL     1      -7.985   4.315 -31.641  1.00  0.00    -0.044 A 
HETATM   14  C   UNL     1      -7.551   5.585 -32.053  1.00  0.00     0.010 A 
HETATM   15  C   UNL     1      -7.750   6.715 -31.249  1.00  0.00     0.030 A 
HETATM   16  C   UNL     1      -8.389   6.605 -30.014  1.00  0.00     0.034 A 
HETATM   17  C   UNL     1      -8.835   5.346 -29.600  1.00  0.00     0.030 A 
HETATM   18  C   UNL     1      -8.639   4.216 -30.400  1.00  0.00     0.010 A 
BRANCH  16  19
HETATM   19  N   UNL     1      -8.608   7.686 -29.136  1.00  0.00    -0.328 N 
HETATM   20  C   UNL     1      -7.881   8.016 -28.007  1.00  0.00     0.218 C 
HETATM   21  C   UNL     1      -8.443   9.230 -27.311  1.00  0.00     0.117 C 
HETATM   22  O   UNL     1      -6.883   7.449 -27.576  1.00  0.00    -0.274 OA
HETATM   23  H   UNL     1      -9.390   8.285 -29.361  1.00  0.00     0.169 HD
ENDBRANCH  16  19
ENDBRANCH   7  13
BRANCH  11  24
HETATM   24  N   UNL     1     -10.429   0.408 -32.727  1.00  0.00    -0.282 NA
HETATM   25  H   UNL     1     -10.285  -0.351 -33.388  1.00  0.00     0.126 HD
HETATM   26  H   UNL     1     -11.218   1.007 -32.964  1.00  0.00     0.126 HD
ENDBRANCH  11  24
BRANCH   1  27
HETATM   27  C   UNL     1      -4.457   3.285 -31.598  1.00  0.00    -0.007 A 
HETATM   28  C   UNL     1      -3.521   3.062 -32.617  1.00  0.00     0.016 A 
HETATM   29  C   UNL     1      -2.547   4.020 -32.917  1.00  0.00     0.037 A 
HETATM   30  C   UNL     1      -2.496   5.214 -32.200  1.00  0.00     0.068 A 
HETATM   31  C   UNL     1      -3.408   5.426 -31.164  1.00  0.00     0.037 A 
HETATM   32  C   UNL     1      -4.387   4.473 -30.865  1.00  0.00     0.016 A 
BRANCH  30  33
HETATM   33  O   UNL     1      -1.603   6.229 -32.405  1.00  0.00    -0.351 OA
BRANCH  33  34
HETATM   34  C   UNL     1      -1.130   6.905 -31.237  1.00  0.00     0.175 C 
BRANCH  34  35
HETATM   35  C   UNL     1       0.374   6.668 -31.133  1.00  0.00     0.022 C 
HETATM   36  C   UNL     1       0.688   5.289 -30.579  1.00  0.00     0.007 C 
ENDBRANCH  34  35
ENDBRANCH  33  34
ENDBRANCH  30  33
ENDBRANCH   1  27
TORSDOF 7
ENDMDL
MODEL 7
REMARK VINA RESULT:      -7.0      3.066      6.895
REMARK  7 active torsions:
REMARK  status: ('A' for Active; 'I' for Inactive)
REMARK    1  A    between atoms: C_2  and  C_3 
REMARK    2  A    between atoms: C_3  and  O_4 
REMARK    3  A    between atoms: O_4  and  C_5 
REMARK    4  A    between atoms: C_8  and  C_9 
REMARK    5  A    between atoms: C_15  and  C_16 
REMARK    6  A    between atoms: C_19  and  N_20 
REMARK       I    between atoms: N_20  and  C_21 
REMARK    7  A    between atoms: C_29  and  N_30 
ROOT
HETATM    1  C   UNL     1      -4.318   4.361 -32.783  1.00  0.00     0.072 A 
HETATM    2  N   UNL     1      -3.947   4.987 -33.955  1.00  0.00    -0.274 N 
HETATM    3  H   UNL     1      -3.845   4.566 -34.873  1.00  0.00     0.189 HD
HETATM    4  N   UNL     1      -3.656   6.299 -33.814  1.00  0.00    -0.148 NA
HETATM    5  C   UNL     1      -3.854   6.495 -32.517  1.00  0.00     0.199 A 
HETATM    6  C   UNL     1      -4.302   5.364 -31.830  1.00  0.00     0.039 A 
HETATM    7  C   UNL     1      -4.608   5.431 -30.379  1.00  0.00     0.105 C 
HETATM    8  C   UNL     1      -4.092   6.735 -29.793  1.00  0.00     0.067 C 
HETATM    9  C   UNL     1      -3.951   6.764 -28.279  1.00  0.00     0.020 C 
HETATM   10  N   UNL     1      -3.834   6.787 -27.024  1.00  0.00    -0.096 N 
HETATM   11  C   UNL     1      -3.633   7.764 -30.550  1.00  0.00     0.139 C 
HETATM   12  O   UNL     1      -3.606   7.693 -31.953  1.00  0.00    -0.277 OA
ENDROOT
BRANCH   7  13
HETATM   13  C   UNL     1      -6.120   5.280 -30.277  1.00  0.00    -0.044 A 
HETATM   14  C   UNL     1      -6.671   4.068 -29.834  1.00  0.00     0.010 A 
HETATM   15  C   UNL     1      -8.058   3.886 -29.762  1.00  0.00     0.030 A 
HETATM   16  C   UNL     1      -8.930   4.910 -30.130  1.00  0.00     0.034 A 
HETATM   17  C   UNL     1      -8.390   6.126 -30.562  1.00  0.00     0.030 A 
HETATM   18  C   UNL     1      -7.006   6.311 -30.634  1.00  0.00     0.010 A 
BRANCH  16  19
HETATM   19  N   UNL     1     -10.335   4.801 -30.109  1.00  0.00    -0.328 N 
HETATM   20  C   UNL     1     -11.140   4.111 -30.997  1.00  0.00     0.218 C 
HETATM   21  C   UNL     1     -12.603   4.254 -30.658  1.00  0.00     0.117 C 
HETATM   22  O   UNL     1     -10.779   3.431 -31.951  1.00  0.00    -0.274 OA
HETATM   23  H   UNL     1     -10.804   5.288 -29.358  1.00  0.00     0.169 HD
ENDBRANCH  16  19
ENDBRANCH   7  13
BRANCH  11  24
HETATM   24  N   UNL     1      -3.135   8.949 -30.058  1.00  0.00    -0.282 NA
HETATM   25  H   UNL     1      -2.832   9.628 -30.751  1.00  0.00     0.126 HD
HETATM   26  H   UNL     1      -2.456   8.801 -29.314  1.00  0.00     0.126 HD
ENDBRANCH  11  24
BRANCH   1  27
HETATM   27  C   UNL     1      -4.624   2.942 -32.686  1.00  0.00    -0.007 A 
HETATM   28  C   UNL     1      -5.906   2.477 -33.009  1.00  0.00     0.016 A 
HETATM   29  C   UNL     1      -6.205   1.111 -32.968  1.00  0.00     0.037 A 
HETATM   30  C   UNL     1      -5.224   0.192 -32.600  1.00  0.00     0.068 A 
HETATM   31  C   UNL     1      -3.955   0.654 -32.248  1.00  0.00     0.037 A 
HETATM   32  C   UNL     1      -3.651   2.018 -32.294  1.00  0.00     0.016 A 
BRANCH  30  33
HETATM   33  O   UNL     1      -5.388  -1.164 -32.534  1.00  0.00    -0.351 OA
BRANCH  33  34
HETATM   34  C   UNL     1      -5.262  -1.881 -33.764  1.00  0.00     0.175 C 
BRANCH  34  35
HETATM   35  C   UNL     1      -6.665  -2.162 -34.292  1.00  0.00     0.022 C 
HETATM   36  C   UNL     1      -6.788  -3.574 -34.838  1.00  0.00     0.007 C 
ENDBRANCH  34  35
ENDBRANCH  33  34
ENDBRANCH  30  33
ENDBRANCH   1  27
TORSDOF 7
ENDMDL
MODEL 8
REMARK VINA RESULT:      -7.0      3.607      6.914
REMARK  7 active torsions:
REMARK  status: ('A' for Active; 'I' for Inactive)
REMARK    1  A    between atoms: C_2  and  C_3 
REMARK    2  A    between atoms: C_3  and  O_4 
REMARK    3  A    between atoms: O_4  and  C_5 
REMARK    4  A    between atoms: C_8  and  C_9 
REMARK    5  A    between atoms: C_15  and  C_16 
REMARK    6  A    between atoms: C_19  and  N_20 
REMARK       I    between atoms: N_20  and  C_21 
REMARK    7  A    between atoms: C_29  and  N_30 
ROOT
HETATM    1  C   UNL     1      -3.426   3.727 -32.359  1.00  0.00     0.072 A 
HETATM    2  N   UNL     1      -2.364   4.089 -33.163  1.00  0.00    -0.274 N 
HETATM    3  H   UNL     1      -1.940   3.544 -33.907  1.00  0.00     0.189 HD
HETATM    4  N   UNL     1      -1.831   5.295 -32.866  1.00  0.00    -0.148 NA
HETATM    5  C   UNL     1      -2.584   5.695 -31.850  1.00  0.00     0.199 A 
HETATM    6  C   UNL     1      -3.608   4.806 -31.513  1.00  0.00     0.039 A 
HETATM    7  C   UNL     1      -4.563   5.128 -30.423  1.00  0.00     0.105 C 
HETATM    8  C   UNL     1      -4.068   6.326 -29.629  1.00  0.00     0.067 C 
HETATM    9  C   UNL     1      -4.697   6.509 -28.257  1.00  0.00     0.020 C 
HETATM   10  N   UNL     1      -5.219   6.659 -27.118  1.00  0.00    -0.096 N 
HETATM   11  C   UNL     1      -3.029   7.106 -30.023  1.00  0.00     0.139 C 
HETATM   12  O   UNL     1      -2.328   6.855 -31.215  1.00  0.00    -0.277 OA
ENDROOT
BRANCH   7  13
HETATM   13  C   UNL     1      -5.898   5.371 -31.114  1.00  0.00    -0.044 A 
HETATM   14  C   UNL     1      -6.034   6.443 -32.010  1.00  0.00     0.010 A 
HETATM   15  C   UNL     1      -7.258   6.714 -32.635  1.00  0.00     0.030 A 
HETATM   16  C   UNL     1      -8.377   5.921 -32.380  1.00  0.00     0.034 A 
HETATM   17  C   UNL     1      -8.248   4.844 -31.497  1.00  0.00     0.030 A 
HETATM   18  C   UNL     1      -7.028   4.570 -30.873  1.00  0.00     0.010 A 
BRANCH  16  19
HETATM   19  N   UNL     1      -9.649   6.139 -32.948  1.00  0.00    -0.328 N 
HETATM   20  C   UNL     1     -10.041   5.901 -34.253  1.00  0.00     0.218 C 
HETATM   21  C   UNL     1     -11.480   6.289 -34.487  1.00  0.00     0.117 C 
HETATM   22  O   UNL     1      -9.364   5.420 -35.155  1.00  0.00    -0.274 OA
HETATM   23  H   UNL     1     -10.351   6.515 -32.326  1.00  0.00     0.169 HD
ENDBRANCH  16  19
ENDBRANCH   7  13
BRANCH  11  24
HETATM   24  N   UNL     1      -2.536   8.182 -29.321  1.00  0.00    -0.282 NA
HETATM   25  H   UNL     1      -1.855   8.759 -29.809  1.00  0.00     0.126 HD
HETATM   26  H   UNL     1      -2.248   7.927 -28.378  1.00  0.00     0.126 HD
ENDBRANCH  11  24
BRANCH   1  27
HETATM   27  C   UNL     1      -4.119   2.452 -32.462  1.00  0.00    -0.007 A 
HETATM   28  C   UNL     1      -5.356   2.377 -33.115  1.00  0.00     0.016 A 
HETATM   29  C   UNL     1      -6.015   1.152 -33.266  1.00  0.00     0.037 A 
HETATM   30  C   UNL     1      -5.444  -0.015 -32.761  1.00  0.00     0.068 A 
HETATM   31  C   UNL     1      -4.226   0.060 -32.083  1.00  0.00     0.037 A 
HETATM   32  C   UNL     1      -3.562   1.282 -31.937  1.00  0.00     0.016 A 
BRANCH  30  33
HETATM   33  O   UNL     1      -5.981  -1.269 -32.854  1.00  0.00    -0.351 OA
BRANCH  33  34
HETATM   34  C   UNL     1      -6.643  -1.588 -34.081  1.00  0.00     0.175 C 
BRANCH  34  35
HETATM   35  C   UNL     1      -5.870  -2.718 -34.754  1.00  0.00     0.022 C 
HETATM   36  C   UNL     1      -6.740  -3.943 -34.970  1.00  0.00     0.007 C 
ENDBRANCH  34  35
ENDBRANCH  33  34
ENDBRANCH  30  33
ENDBRANCH   1  27
TORSDOF 7
ENDMDL
MODEL 9
REMARK VINA RESULT:      -6.9      3.222      6.563
REMARK  7 active torsions:
REMARK  status: ('A' for Active; 'I' for Inactive)
REMARK    1  A    between atoms: C_2  and  C_3 
REMARK    2  A    between atoms: C_3  and  O_4 
REMARK    3  A    between atoms: O_4  and  C_5 
REMARK    4  A    between atoms: C_8  and  C_9 
REMARK    5  A    between atoms: C_15  and  C_16 
REMARK    6  A    between atoms: C_19  and  N_20 
REMARK       I    between atoms: N_20  and  C_21 
REMARK    7  A    between atoms: C_29  and  N_30 
ROOT
HETATM    1  C   UNL     1      -9.092   2.437 -31.811  1.00  0.00     0.072 A 
HETATM    2  N   UNL     1      -9.671   2.346 -30.562  1.00  0.00    -0.274 N 
HETATM    3  H   UNL     1      -9.638   1.559 -29.922  1.00  0.00     0.189 HD
HETATM    4  N   UNL     1     -10.389   3.435 -30.204  1.00  0.00    -0.148 NA
HETATM    5  C   UNL     1     -10.250   4.225 -31.261  1.00  0.00     0.199 A 
HETATM    6  C   UNL     1      -9.433   3.698 -32.264  1.00  0.00     0.039 A 
HETATM    7  C   UNL     1      -9.146   4.479 -33.494  1.00  0.00     0.105 C 
HETATM    8  C   UNL     1     -10.066   5.686 -33.577  1.00  0.00     0.067 C 
HETATM    9  C   UNL     1     -10.185   6.327 -34.951  1.00  0.00     0.020 C 
HETATM   10  N   UNL     1     -10.284   6.858 -36.090  1.00  0.00    -0.096 N 
HETATM   11  C   UNL     1     -10.859   6.092 -32.553  1.00  0.00     0.139 C 
HETATM   12  O   UNL     1     -10.882   5.413 -31.323  1.00  0.00    -0.277 OA
ENDROOT
BRANCH   7  13
HETATM   13  C   UNL     1      -7.671   4.848 -33.404  1.00  0.00    -0.044 A 
HETATM   14  C   UNL     1      -7.284   6.000 -32.702  1.00  0.00     0.010 A 
HETATM   15  C   UNL     1      -5.939   6.386 -32.629  1.00  0.00     0.030 A 
HETATM   16  C   UNL     1      -4.948   5.631 -33.256  1.00  0.00     0.034 A 
HETATM   17  C   UNL     1      -5.323   4.475 -33.948  1.00  0.00     0.030 A 
HETATM   18  C   UNL     1      -6.665   4.086 -34.021  1.00  0.00     0.010 A 
BRANCH  16  19
HETATM   19  N   UNL     1      -3.578   5.962 -33.251  1.00  0.00    -0.328 N 
HETATM   20  C   UNL     1      -2.664   5.786 -34.274  1.00  0.00     0.218 C 
HETATM   21  C   UNL     1      -1.282   6.239 -33.878  1.00  0.00     0.117 C 
HETATM   22  O   UNL     1      -2.884   5.342 -35.396  1.00  0.00    -0.274 OA
HETATM   23  H   UNL     1      -3.226   6.372 -32.396  1.00  0.00     0.169 HD
ENDBRANCH  16  19
ENDBRANCH   7  13
BRANCH  11  24
HETATM   24  N   UNL     1     -11.722   7.163 -32.596  1.00  0.00    -0.282 NA
HETATM   25  H   UNL     1     -11.354   8.047 -32.256  1.00  0.00     0.126 HD
HETATM   26  H   UNL     1     -12.639   6.933 -32.215  1.00  0.00     0.126 HD
ENDBRANCH  11  24
BRANCH   1  27
HETATM   27  C   UNL     1      -8.320   1.366 -32.423  1.00  0.00    -0.007 A 
HETATM   28  C   UNL     1      -8.481   1.075 -33.784  1.00  0.00     0.016 A 
HETATM   29  C   UNL     1      -7.714   0.081 -34.401  1.00  0.00     0.037 A 
HETATM   30  C   UNL     1      -6.775  -0.637 -33.661  1.00  0.00     0.068 A 
HETATM   31  C   UNL     1      -6.633  -0.370 -32.298  1.00  0.00     0.037 A 
HETATM   32  C   UNL     1      -7.394   0.627 -31.680  1.00  0.00     0.016 A 
BRANCH  30  33
HETATM   33  O   UNL     1      -5.960  -1.619 -34.149  1.00  0.00    -0.351 OA
BRANCH  33  34
HETATM   34  C   UNL     1      -4.809  -1.939 -33.364  1.00  0.00     0.175 C 
BRANCH  34  35
HETATM   35  C   UNL     1      -3.804  -0.801 -33.515  1.00  0.00     0.022 C 
HETATM   36  C   UNL     1      -2.974  -0.612 -32.257  1.00  0.00     0.007 C 
ENDBRANCH  34  35
ENDBRANCH  33  34
ENDBRANCH  30  33
ENDBRANCH   1  27
TORSDOF 7
ENDMDL
MODEL 10
REMARK VINA RESULT:      -6.9      2.496      6.754
REMARK  7 active torsions:
REMARK  status: ('A' for Active; 'I' for Inactive)
REMARK    1  A    between atoms: C_2  and  C_3 
REMARK    2  A    between atoms: C_3  and  O_4 
REMARK    3  A    between atoms: O_4  and  C_5 
REMARK    4  A    between atoms: C_8  and  C_9 
REMARK    5  A    between atoms: C_15  and  C_16 
REMARK    6  A    between atoms: C_19  and  N_20 
REMARK       I    between atoms: N_20  and  C_21 
REMARK    7  A    between atoms: C_29  and  N_30 
ROOT
HETATM    1  C   UNL     1      -4.034   3.307 -32.436  1.00  0.00     0.072 A 
HETATM    2  N   UNL     1      -3.033   3.933 -33.150  1.00  0.00    -0.274 N 
HETATM    3  H   UNL     1      -2.247   3.498 -33.621  1.00  0.00     0.189 HD
HETATM    4  N   UNL     1      -3.124   5.282 -33.165  1.00  0.00    -0.148 NA
HETATM    5  C   UNL     1      -4.215   5.499 -32.441  1.00  0.00     0.199 A 
HETATM    6  C   UNL     1      -4.849   4.335 -31.999  1.00  0.00     0.039 A 
HETATM    7  C   UNL     1      -6.105   4.410 -31.211  1.00  0.00     0.105 C 
HETATM    8  C   UNL     1      -6.358   5.840 -30.761  1.00  0.00     0.067 C 
HETATM    9  C   UNL     1      -7.347   6.002 -29.618  1.00  0.00     0.020 C 
HETATM   10  N   UNL     1      -8.167   6.136 -28.669  1.00  0.00    -0.096 N 
HETATM   11  C   UNL     1      -5.652   6.904 -31.221  1.00  0.00     0.139 C 
HETATM   12  O   UNL     1      -4.621   6.754 -32.164  1.00  0.00    -0.277 OA
ENDROOT
BRANCH   7  13
HETATM   13  C   UNL     1      -7.191   3.864 -32.128  1.00  0.00    -0.044 A 
HETATM   14  C   UNL     1      -7.653   4.642 -33.201  1.00  0.00     0.010 A 
HETATM   15  C   UNL     1      -8.675   4.182 -34.041  1.00  0.00     0.030 A 
HETATM   16  C   UNL     1      -9.260   2.934 -33.832  1.00  0.00     0.034 A 
HETATM   17  C   UNL     1      -8.798   2.147 -32.772  1.00  0.00     0.030 A 
HETATM   18  C   UNL     1      -7.778   2.602 -31.932  1.00  0.00     0.010 A 
BRANCH  16  19
HETATM   19  N   UNL     1     -10.307   2.408 -34.616  1.00  0.00    -0.328 N 
HETATM   20  C   UNL     1     -11.662   2.438 -34.342  1.00  0.00     0.218 C 
HETATM   21  C   UNL     1     -12.468   1.744 -35.411  1.00  0.00     0.117 C 
HETATM   22  O   UNL     1     -12.213   2.963 -33.380  1.00  0.00    -0.274 OA
HETATM   23  H   UNL     1     -10.030   1.955 -35.476  1.00  0.00     0.169 HD
ENDBRANCH  16  19
ENDBRANCH   7  13
BRANCH  11  24
HETATM   24  N   UNL     1      -5.834   8.209 -30.821  1.00  0.00    -0.282 NA
HETATM   25  H   UNL     1      -6.474   8.353 -30.046  1.00  0.00     0.126 HD
HETATM   26  H   UNL     1      -6.007   8.831 -31.609  1.00  0.00     0.126 HD
ENDBRANCH  11  24
BRANCH   1  27
HETATM   27  C   UNL     1      -4.107   1.867 -32.241  1.00  0.00    -0.007 A 
HETATM   28  C   UNL     1      -4.932   1.088 -33.064  1.00  0.00     0.016 A 
HETATM   29  C   UNL     1      -4.979  -0.303 -32.922  1.00  0.00     0.037 A 
HETATM   30  C   UNL     1      -4.202  -0.933 -31.952  1.00  0.00     0.068 A 
HETATM   31  C   UNL     1      -3.403  -0.158 -31.109  1.00  0.00     0.037 A 
HETATM   32  C   UNL     1      -3.348   1.232 -31.253  1.00  0.00     0.016 A 
BRANCH  30  33
HETATM   33  O   UNL     1      -4.152  -2.280 -31.723  1.00  0.00    -0.351 OA
BRANCH  33  34
HETATM   34  C   UNL     1      -2.929  -2.937 -32.065  1.00  0.00     0.175 C 
BRANCH  34  35
HETATM   35  C   UNL     1      -3.276  -4.301 -32.655  1.00  0.00     0.022 C 
HETATM   36  C   UNL     1      -3.873  -4.176 -34.046  1.00  0.00     0.007 C 
ENDBRANCH  34  35
ENDBRANCH  33  34
ENDBRANCH  30  33
ENDBRANCH   1  27
TORSDOF 7
ENDMDL
