MODEL 1
REMARK VINA RESULT:      -8.4      0.000      0.000
REMARK  8 active torsions:
REMARK  status: ('A' for Active; 'I' for Inactive)
REMARK    1  A    between atoms: C_7  and  S_8 
REMARK    2  A    between atoms: S_8  and  C_9 
REMARK    3  A    between atoms: C_9  and  C_10 
REMARK    4  A    between atoms: C_10  and  N_11 
REMARK       I    between atoms: N_11  and  C_12 
REMARK       I    between atoms: C_12  and  N_13 
REMARK    5  A    between atoms: N_13  and  C_14 
REMARK    6  A    between atoms: C_14  and  C_15 
REMARK    7  A    between atoms: C_17  and  O_18 
REMARK    8  A    between atoms: C_20  and  O_21 
ROOT
HETATM    1  N   UNL     1      -8.658   1.407 -31.149  1.00  0.00    -0.342 N 
HETATM    2  C   UNL     1      -8.234   2.678 -30.931  1.00  0.00     0.316 C 
HETATM    3  N   UNL     1      -6.906   2.907 -31.063  1.00  0.00    -0.339 N 
HETATM    4  O   UNL     1      -9.056   3.543 -30.649  1.00  0.00    -0.248 OA
HETATM    5  H   UNL     1      -9.672   1.368 -31.164  1.00  0.00     0.164 HD
HETATM    6  H   UNL     1      -6.271   2.133 -31.153  1.00  0.00     0.164 HD
ENDROOT
BRANCH   1   7
HETATM    7  C   UNL     1      -7.905   0.276 -31.674  1.00  0.00     0.139 C 
BRANCH   7   8
HETATM    8  C   UNL     1      -8.256  -0.006 -33.121  1.00  0.00     0.165 C 
BRANCH   8   9
HETATM    9  S   UNL     1      -6.915   0.490 -34.171  1.00  0.00     0.179 S 
HETATM   10  O   UNL     1      -6.390   1.760 -33.714  1.00  0.00    -0.222 OA
HETATM   11  O   UNL     1      -7.293   0.273 -35.553  1.00  0.00    -0.222 OA
BRANCH   9  12
HETATM   12  C   UNL     1      -5.685  -0.682 -33.825  1.00  0.00     0.093 A 
HETATM   13  C   UNL     1      -4.460  -0.444 -33.220  1.00  0.00     0.028 A 
HETATM   14  C   UNL     1      -3.851   0.793 -32.663  1.00  0.00     0.070 C 
HETATM   15  N   UNL     1      -3.795  -1.645 -33.176  1.00  0.00    -0.358 N 
HETATM   16  H   UNL     1      -2.880  -1.790 -32.772  1.00  0.00     0.166 HD
HETATM   17  C   UNL     1      -4.538  -2.635 -33.776  1.00  0.00     0.044 A 
HETATM   18  C   UNL     1      -5.742  -2.061 -34.192  1.00  0.00     0.014 A 
HETATM   19  C   UNL     1      -4.230  -3.987 -33.973  1.00  0.00     0.030 A 
HETATM   20  C   UNL     1      -6.684  -2.894 -34.837  1.00  0.00     0.015 A 
HETATM   21  C   UNL     1      -6.391  -4.248 -35.042  1.00  0.00     0.001 A 
HETATM   22  C   UNL     1      -5.180  -4.784 -34.617  1.00  0.00     0.002 A 
ENDBRANCH   9  12
ENDBRANCH   8   9
ENDBRANCH   7   8
ENDBRANCH   1   7
BRANCH   3  23
HETATM   23  C   UNL     1      -6.323   4.205 -30.812  1.00  0.00     0.163 C 
BRANCH  23  24
HETATM   24  C   UNL     1      -5.060   4.371 -31.614  1.00  0.00    -0.038 A 
HETATM   25  C   UNL     1      -3.815   4.169 -30.998  1.00  0.00     0.048 A 
HETATM   26  C   UNL     1      -2.622   4.341 -31.710  1.00  0.00     0.102 A 
HETATM   27  C   UNL     1      -2.673   4.728 -33.064  1.00  0.00     0.101 A 
HETATM   28  C   UNL     1      -3.914   4.934 -33.676  1.00  0.00     0.040 A 
HETATM   29  C   UNL     1      -5.099   4.760 -32.956  1.00  0.00     0.012 A 
BRANCH  26  30
HETATM   30  O   UNL     1      -1.370   4.161 -31.178  1.00  0.00    -0.353 OA
HETATM   31  C   UNL     1      -0.776   5.263 -30.507  1.00  0.00     0.210 C 
ENDBRANCH  26  30
BRANCH  27  32
HETATM   32  O   UNL     1      -1.462   4.876 -33.694  1.00  0.00    -0.353 OA
HETATM   33  C   UNL     1      -1.472   5.264 -35.060  1.00  0.00     0.210 C 
ENDBRANCH  27  32
ENDBRANCH  23  24
ENDBRANCH   3  23
TORSDOF 8
ENDMDL
MODEL 2
REMARK VINA RESULT:      -8.2      4.264      7.908
REMARK  8 active torsions:
REMARK  status: ('A' for Active; 'I' for Inactive)
REMARK    1  A    between atoms: C_7  and  S_8 
REMARK    2  A    between atoms: S_8  and  C_9 
REMARK    3  A    between atoms: C_9  and  C_10 
REMARK    4  A    between atoms: C_10  and  N_11 
REMARK       I    between atoms: N_11  and  C_12 
REMARK       I    between atoms: C_12  and  N_13 
REMARK    5  A    between atoms: N_13  and  C_14 
REMARK    6  A    between atoms: C_14  and  C_15 
REMARK    7  A    between atoms: C_17  and  O_18 
REMARK    8  A    between atoms: C_20  and  O_21 
ROOT
HETATM    1  N   UNL     1      -9.718   1.582 -31.237  1.00  0.00    -0.342 N 
HETATM    2  C   UNL     1      -9.379   0.831 -32.316  1.00  0.00     0.316 C 
HETATM    3  N   UNL     1      -8.497   1.380 -33.186  1.00  0.00    -0.339 N 
HETATM    4  O   UNL     1      -9.860  -0.290 -32.441  1.00  0.00    -0.248 OA
HETATM    5  H   UNL     1     -10.267   1.036 -30.582  1.00  0.00     0.164 HD
HETATM    6  H   UNL     1      -8.253   2.351 -33.104  1.00  0.00     0.164 HD
ENDROOT
BRANCH   1   7
HETATM    7  C   UNL     1      -9.138   2.840 -30.788  1.00  0.00     0.139 C 
BRANCH   7   8
HETATM    8  C   UNL     1     -10.205   3.875 -30.495  1.00  0.00     0.165 C 
BRANCH   8   9
HETATM    9  S   UNL     1     -10.877   4.492 -32.017  1.00  0.00     0.179 S 
HETATM   10  O   UNL     1     -10.157   3.910 -33.131  1.00  0.00    -0.222 OA
HETATM   11  O   UNL     1     -11.076   5.922 -31.899  1.00  0.00    -0.222 OA
BRANCH   9  12
HETATM   12  C   UNL     1     -12.462   3.793 -32.063  1.00  0.00     0.093 A 
HETATM   13  C   UNL     1     -13.516   4.069 -31.204  1.00  0.00     0.028 A 
HETATM   14  C   UNL     1     -13.648   5.020 -30.068  1.00  0.00     0.070 C 
HETATM   15  N   UNL     1     -14.564   3.268 -31.585  1.00  0.00    -0.358 N 
HETATM   16  H   UNL     1     -15.479   3.261 -31.155  1.00  0.00     0.166 HD
HETATM   17  C   UNL     1     -14.200   2.454 -32.633  1.00  0.00     0.044 A 
HETATM   18  C   UNL     1     -12.879   2.765 -32.964  1.00  0.00     0.014 A 
HETATM   19  C   UNL     1     -14.944   1.477 -33.305  1.00  0.00     0.030 A 
HETATM   20  C   UNL     1     -12.279   2.055 -34.029  1.00  0.00     0.015 A 
HETATM   21  C   UNL     1     -13.010   1.074 -34.711  1.00  0.00     0.001 A 
HETATM   22  C   UNL     1     -14.323   0.790 -34.352  1.00  0.00     0.002 A 
ENDBRANCH   9  12
ENDBRANCH   8   9
ENDBRANCH   7   8
ENDBRANCH   1   7
BRANCH   3  23
HETATM   23  C   UNL     1      -8.091   0.703 -34.396  1.00  0.00     0.163 C 
BRANCH  23  24
HETATM   24  C   UNL     1      -6.925  -0.207 -34.115  1.00  0.00    -0.038 A 
HETATM   25  C   UNL     1      -6.794  -1.408 -34.832  1.00  0.00     0.048 A 
HETATM   26  C   UNL     1      -5.737  -2.288 -34.575  1.00  0.00     0.102 A 
HETATM   27  C   UNL     1      -4.794  -1.966 -33.580  1.00  0.00     0.101 A 
HETATM   28  C   UNL     1      -4.927  -0.772 -32.862  1.00  0.00     0.040 A 
HETATM   29  C   UNL     1      -5.988   0.099 -33.126  1.00  0.00     0.012 A 
BRANCH  26  30
HETATM   30  O   UNL     1      -5.541  -3.476 -35.234  1.00  0.00    -0.353 OA
HETATM   31  C   UNL     1      -6.502  -4.503 -35.036  1.00  0.00     0.210 C 
ENDBRANCH  26  30
BRANCH  27  32
HETATM   32  O   UNL     1      -3.785  -2.879 -33.386  1.00  0.00    -0.353 OA
HETATM   33  C   UNL     1      -3.186  -2.937 -32.101  1.00  0.00     0.210 C 
ENDBRANCH  27  32
ENDBRANCH  23  24
ENDBRANCH   3  23
TORSDOF 8
ENDMDL
MODEL 3
REMARK VINA RESULT:      -8.1      2.551      6.470
REMARK  8 active torsions:
REMARK  status: ('A' for Active; 'I' for Inactive)
REMARK    1  A    between atoms: C_7  and  S_8 
REMARK    2  A    between atoms: S_8  and  C_9 
REMARK    3  A    between atoms: C_9  and  C_10 
REMARK    4  A    between atoms: C_10  and  N_11 
REMARK       I    between atoms: N_11  and  C_12 
REMARK       I    between atoms: C_12  and  N_13 
REMARK    5  A    between atoms: N_13  and  C_14 
REMARK    6  A    between atoms: C_14  and  C_15 
REMARK    7  A    between atoms: C_17  and  O_18 
REMARK    8  A    between atoms: C_20  and  O_21 
ROOT
HETATM    1  N   UNL     1      -4.478   4.154 -33.329  1.00  0.00    -0.342 N 
HETATM    2  C   UNL     1      -4.255   2.992 -32.662  1.00  0.00     0.316 C 
HETATM    3  N   UNL     1      -5.341   2.228 -32.392  1.00  0.00    -0.339 N 
HETATM    4  O   UNL     1      -3.107   2.687 -32.359  1.00  0.00    -0.248 OA
HETATM    5  H   UNL     1      -3.600   4.580 -33.604  1.00  0.00     0.164 HD
HETATM    6  H   UNL     1      -6.263   2.600 -32.537  1.00  0.00     0.164 HD
ENDROOT
BRANCH   1   7
HETATM    7  C   UNL     1      -5.710   4.622 -33.949  1.00  0.00     0.139 C 
BRANCH   7   8
HETATM    8  C   UNL     1      -6.398   5.672 -33.100  1.00  0.00     0.165 C 
BRANCH   8   9
HETATM    9  S   UNL     1      -8.156   5.436 -33.163  1.00  0.00     0.179 S 
HETATM   10  O   UNL     1      -8.544   5.065 -34.509  1.00  0.00    -0.222 OA
HETATM   11  O   UNL     1      -8.803   6.520 -32.453  1.00  0.00    -0.222 OA
BRANCH   9  12
HETATM   12  C   UNL     1      -8.401   4.019 -32.194  1.00  0.00     0.093 A 
HETATM   13  C   UNL     1      -8.137   3.886 -30.838  1.00  0.00     0.028 A 
HETATM   14  C   UNL     1      -7.638   4.853 -29.824  1.00  0.00     0.070 C 
HETATM   15  N   UNL     1      -8.446   2.593 -30.495  1.00  0.00    -0.358 N 
HETATM   16  H   UNL     1      -8.375   2.204 -29.565  1.00  0.00     0.166 HD
HETATM   17  C   UNL     1      -8.856   1.881 -31.599  1.00  0.00     0.044 A 
HETATM   18  C   UNL     1      -8.845   2.755 -32.688  1.00  0.00     0.014 A 
HETATM   19  C   UNL     1      -9.236   0.537 -31.704  1.00  0.00     0.030 A 
HETATM   20  C   UNL     1      -9.239   2.248 -33.947  1.00  0.00     0.015 A 
HETATM   21  C   UNL     1      -9.620   0.906 -34.069  1.00  0.00     0.001 A 
HETATM   22  C   UNL     1      -9.617   0.065 -32.962  1.00  0.00     0.002 A 
ENDBRANCH   9  12
ENDBRANCH   8   9
ENDBRANCH   7   8
ENDBRANCH   1   7
BRANCH   3  23
HETATM   23  C   UNL     1      -5.244   0.994 -31.647  1.00  0.00     0.163 C 
BRANCH  23  24
HETATM   24  C   UNL     1      -5.290  -0.183 -32.586  1.00  0.00    -0.038 A 
HETATM   25  C   UNL     1      -4.405  -1.256 -32.398  1.00  0.00     0.048 A 
HETATM   26  C   UNL     1      -4.404  -2.351 -33.269  1.00  0.00     0.102 A 
HETATM   27  C   UNL     1      -5.303  -2.374 -34.353  1.00  0.00     0.101 A 
HETATM   28  C   UNL     1      -6.182  -1.302 -34.544  1.00  0.00     0.040 A 
HETATM   29  C   UNL     1      -6.173  -0.212 -33.669  1.00  0.00     0.012 A 
BRANCH  26  30
HETATM   30  O   UNL     1      -3.572  -3.436 -33.149  1.00  0.00    -0.353 OA
HETATM   31  C   UNL     1      -2.982  -3.675 -31.879  1.00  0.00     0.210 C 
ENDBRANCH  26  30
BRANCH  27  32
HETATM   32  O   UNL     1      -5.243  -3.482 -35.163  1.00  0.00    -0.353 OA
HETATM   33  C   UNL     1      -6.387  -4.321 -35.219  1.00  0.00     0.210 C 
ENDBRANCH  27  32
ENDBRANCH  23  24
ENDBRANCH   3  23
TORSDOF 8
ENDMDL
MODEL 4
REMARK VINA RESULT:      -8.0      2.244      6.762
REMARK  8 active torsions:
REMARK  status: ('A' for Active; 'I' for Inactive)
REMARK    1  A    between atoms: C_7  and  S_8 
REMARK    2  A    between atoms: S_8  and  C_9 
REMARK    3  A    between atoms: C_9  and  C_10 
REMARK    4  A    between atoms: C_10  and  N_11 
REMARK       I    between atoms: N_11  and  C_12 
REMARK       I    between atoms: C_12  and  N_13 
REMARK    5  A    between atoms: N_13  and  C_14 
REMARK    6  A    between atoms: C_14  and  C_15 
REMARK    7  A    between atoms: C_17  and  O_18 
REMARK    8  A    between atoms: C_20  and  O_21 
ROOT
HETATM    1  N   UNL     1      -8.413   4.328 -32.212  1.00  0.00    -0.342 N 
HETATM    2  C   UNL     1      -8.565   3.061 -31.748  1.00  0.00     0.316 C 
HETATM    3  N   UNL     1      -8.390   2.060 -32.643  1.00  0.00    -0.339 N 
HETATM    4  O   UNL     1      -8.829   2.885 -30.563  1.00  0.00    -0.248 OA
HETATM    5  H   UNL     1      -8.425   4.992 -31.445  1.00  0.00     0.164 HD
HETATM    6  H   UNL     1      -8.318   2.272 -33.623  1.00  0.00     0.164 HD
ENDROOT
BRANCH   1   7
HETATM    7  C   UNL     1      -7.920   4.765 -33.511  1.00  0.00     0.139 C 
BRANCH   7   8
HETATM    8  C   UNL     1      -6.577   5.459 -33.394  1.00  0.00     0.165 C 
BRANCH   8   9
HETATM    9  S   UNL     1      -5.291   4.374 -33.956  1.00  0.00     0.179 S 
HETATM   10  O   UNL     1      -4.719   4.899 -35.179  1.00  0.00    -0.222 OA
HETATM   11  O   UNL     1      -5.751   3.004 -33.854  1.00  0.00    -0.222 OA
BRANCH   9  12
HETATM   12  C   UNL     1      -4.063   4.554 -32.746  1.00  0.00     0.093 A 
HETATM   13  C   UNL     1      -4.021   3.930 -31.507  1.00  0.00     0.028 A 
HETATM   14  C   UNL     1      -4.922   2.936 -30.865  1.00  0.00     0.070 C 
HETATM   15  N   UNL     1      -2.896   4.387 -30.866  1.00  0.00    -0.358 N 
HETATM   16  H   UNL     1      -2.588   4.094 -29.949  1.00  0.00     0.166 HD
HETATM   17  C   UNL     1      -2.240   5.319 -31.637  1.00  0.00     0.044 A 
HETATM   18  C   UNL     1      -2.948   5.443 -32.835  1.00  0.00     0.014 A 
HETATM   19  C   UNL     1      -1.078   6.049 -31.360  1.00  0.00     0.030 A 
HETATM   20  C   UNL     1      -2.457   6.348 -33.803  1.00  0.00     0.015 A 
HETATM   21  C   UNL     1      -1.297   7.087 -33.540  1.00  0.00     0.001 A 
HETATM   22  C   UNL     1      -0.619   6.938 -32.335  1.00  0.00     0.002 A 
ENDBRANCH   9  12
ENDBRANCH   8   9
ENDBRANCH   7   8
ENDBRANCH   1   7
BRANCH   3  23
HETATM   23  C   UNL     1      -8.570   0.671 -32.286  1.00  0.00     0.163 C 
BRANCH  23  24
HETATM   24  C   UNL     1      -7.426  -0.153 -32.816  1.00  0.00    -0.038 A 
HETATM   25  C   UNL     1      -6.286  -0.350 -32.021  1.00  0.00     0.048 A 
HETATM   26  C   UNL     1      -5.196  -1.088 -32.495  1.00  0.00     0.102 A 
HETATM   27  C   UNL     1      -5.243  -1.637 -33.792  1.00  0.00     0.101 A 
HETATM   28  C   UNL     1      -6.377  -1.436 -34.586  1.00  0.00     0.040 A 
HETATM   29  C   UNL     1      -7.460  -0.696 -34.103  1.00  0.00     0.012 A 
BRANCH  26  30
HETATM   30  O   UNL     1      -4.050  -1.325 -31.778  1.00  0.00    -0.353 OA
HETATM   31  C   UNL     1      -3.132  -0.251 -31.632  1.00  0.00     0.210 C 
ENDBRANCH  26  30
BRANCH  27  32
HETATM   32  O   UNL     1      -4.135  -2.348 -34.186  1.00  0.00    -0.353 OA
HETATM   33  C   UNL     1      -4.247  -3.763 -34.246  1.00  0.00     0.210 C 
ENDBRANCH  27  32
ENDBRANCH  23  24
ENDBRANCH   3  23
TORSDOF 8
ENDMDL
MODEL 5
REMARK VINA RESULT:      -8.0     15.547     17.454
REMARK  8 active torsions:
REMARK  status: ('A' for Active; 'I' for Inactive)
REMARK    1  A    between atoms: C_7  and  S_8 
REMARK    2  A    between atoms: S_8  and  C_9 
REMARK    3  A    between atoms: C_9  and  C_10 
REMARK    4  A    between atoms: C_10  and  N_11 
REMARK       I    between atoms: N_11  and  C_12 
REMARK       I    between atoms: C_12  and  N_13 
REMARK    5  A    between atoms: N_13  and  C_14 
REMARK    6  A    between atoms: C_14  and  C_15 
REMARK    7  A    between atoms: C_17  and  O_18 
REMARK    8  A    between atoms: C_20  and  O_21 
ROOT
HETATM    1  N   UNL     1      -3.814 -14.060 -35.250  1.00  0.00    -0.342 N 
HETATM    2  C   UNL     1      -5.120 -13.706 -35.141  1.00  0.00     0.316 C 
HETATM    3  N   UNL     1      -5.894 -13.893 -36.236  1.00  0.00    -0.339 N 
HETATM    4  O   UNL     1      -5.532 -13.261 -34.075  1.00  0.00    -0.248 OA
HETATM    5  H   UNL     1      -3.356 -14.013 -34.346  1.00  0.00     0.164 HD
HETATM    6  H   UNL     1      -5.468 -14.124 -37.116  1.00  0.00     0.164 HD
ENDROOT
BRANCH   1   7
HETATM    7  C   UNL     1      -3.155 -14.775 -36.334  1.00  0.00     0.139 C 
BRANCH   7   8
HETATM    8  C   UNL     1      -1.951 -14.015 -36.855  1.00  0.00     0.165 C 
BRANCH   8   9
HETATM    9  S   UNL     1      -2.487 -12.694 -37.912  1.00  0.00     0.179 S 
HETATM   10  O   UNL     1      -1.331 -11.971 -38.401  1.00  0.00    -0.222 OA
HETATM   11  O   UNL     1      -3.605 -12.016 -37.289  1.00  0.00    -0.222 OA
BRANCH   9  12
HETATM   12  C   UNL     1      -3.140 -13.526 -39.286  1.00  0.00     0.093 A 
HETATM   13  C   UNL     1      -2.539 -14.556 -39.995  1.00  0.00     0.028 A 
HETATM   14  C   UNL     1      -1.250 -15.273 -39.803  1.00  0.00     0.070 C 
HETATM   15  N   UNL     1      -3.392 -14.889 -41.018  1.00  0.00    -0.358 N 
HETATM   16  H   UNL     1      -3.232 -15.623 -41.694  1.00  0.00     0.166 HD
HETATM   17  C   UNL     1      -4.500 -14.073 -41.014  1.00  0.00     0.044 A 
HETATM   18  C   UNL     1      -4.375 -13.204 -39.927  1.00  0.00     0.014 A 
HETATM   19  C   UNL     1      -5.594 -14.049 -41.887  1.00  0.00     0.030 A 
HETATM   20  C   UNL     1      -5.408 -12.265 -39.709  1.00  0.00     0.015 A 
HETATM   21  C   UNL     1      -6.509 -12.227 -40.574  1.00  0.00     0.001 A 
HETATM   22  C   UNL     1      -6.598 -13.107 -41.647  1.00  0.00     0.002 A 
ENDBRANCH   9  12
ENDBRANCH   8   9
ENDBRANCH   7   8
ENDBRANCH   1   7
BRANCH   3  23
HETATM   23  C   UNL     1      -7.288 -13.514 -36.264  1.00  0.00     0.163 C 
BRANCH  23  24
HETATM   24  C   UNL     1      -7.933 -13.999 -37.535  1.00  0.00    -0.038 A 
HETATM   25  C   UNL     1      -8.995 -13.272 -38.096  1.00  0.00     0.048 A 
HETATM   26  C   UNL     1      -9.633 -13.711 -39.261  1.00  0.00     0.102 A 
HETATM   27  C   UNL     1      -9.205 -14.903 -39.877  1.00  0.00     0.101 A 
HETATM   28  C   UNL     1      -8.151 -15.631 -39.316  1.00  0.00     0.040 A 
HETATM   29  C   UNL     1      -7.521 -15.184 -38.150  1.00  0.00     0.012 A 
BRANCH  26  30
HETATM   30  O   UNL     1     -10.674 -13.054 -39.868  1.00  0.00    -0.353 OA
HETATM   31  C   UNL     1     -10.426 -11.749 -40.370  1.00  0.00     0.210 C 
ENDBRANCH  26  30
BRANCH  27  32
HETATM   32  O   UNL     1      -9.880 -15.269 -41.017  1.00  0.00    -0.353 OA
HETATM   33  C   UNL     1     -10.657 -16.456 -40.972  1.00  0.00     0.210 C 
ENDBRANCH  27  32
ENDBRANCH  23  24
ENDBRANCH   3  23
TORSDOF 8
ENDMDL
MODEL 6
REMARK VINA RESULT:      -8.0      3.017      8.632
REMARK  8 active torsions:
REMARK  status: ('A' for Active; 'I' for Inactive)
REMARK    1  A    between atoms: C_7  and  S_8 
REMARK    2  A    between atoms: S_8  and  C_9 
REMARK    3  A    between atoms: C_9  and  C_10 
REMARK    4  A    between atoms: C_10  and  N_11 
REMARK       I    between atoms: N_11  and  C_12 
REMARK       I    between atoms: C_12  and  N_13 
REMARK    5  A    between atoms: N_13  and  C_14 
REMARK    6  A    between atoms: C_14  and  C_15 
REMARK    7  A    between atoms: C_17  and  O_18 
REMARK    8  A    between atoms: C_20  and  O_21 
ROOT
HETATM    1  N   UNL     1      -4.175   5.072 -34.568  1.00  0.00    -0.342 N 
HETATM    2  C   UNL     1      -5.242   4.410 -34.050  1.00  0.00     0.316 C 
HETATM    3  N   UNL     1      -4.975   3.285 -33.345  1.00  0.00    -0.339 N 
HETATM    4  O   UNL     1      -6.368   4.861 -34.224  1.00  0.00    -0.248 OA
HETATM    5  H   UNL     1      -4.464   5.965 -34.954  1.00  0.00     0.164 HD
HETATM    6  H   UNL     1      -4.050   2.892 -33.360  1.00  0.00     0.164 HD
ENDROOT
BRANCH   1   7
HETATM    7  C   UNL     1      -2.758   4.835 -34.332  1.00  0.00     0.139 C 
BRANCH   7   8
HETATM    8  C   UNL     1      -2.180   5.836 -33.352  1.00  0.00     0.165 C 
BRANCH   8   9
HETATM    9  S   UNL     1      -1.619   4.993 -31.894  1.00  0.00     0.179 S 
HETATM   10  O   UNL     1      -0.172   4.941 -31.896  1.00  0.00    -0.222 OA
HETATM   11  O   UNL     1      -2.427   3.807 -31.695  1.00  0.00    -0.222 OA
BRANCH   9  12
HETATM   12  C   UNL     1      -2.051   6.082 -30.616  1.00  0.00     0.093 A 
HETATM   13  C   UNL     1      -3.334   6.442 -30.231  1.00  0.00     0.028 A 
HETATM   14  C   UNL     1      -4.673   6.014 -30.715  1.00  0.00     0.070 C 
HETATM   15  N   UNL     1      -3.205   7.348 -29.206  1.00  0.00    -0.358 N 
HETATM   16  H   UNL     1      -3.973   7.775 -28.706  1.00  0.00     0.166 HD
HETATM   17  C   UNL     1      -1.879   7.613 -28.954  1.00  0.00     0.044 A 
HETATM   18  C   UNL     1      -1.122   6.824 -29.823  1.00  0.00     0.014 A 
HETATM   19  C   UNL     1      -1.305   8.485 -28.021  1.00  0.00     0.030 A 
HETATM   20  C   UNL     1       0.286   6.919 -29.747  1.00  0.00     0.015 A 
HETATM   21  C   UNL     1       0.875   7.788 -28.821  1.00  0.00     0.001 A 
HETATM   22  C   UNL     1       0.089   8.560 -27.972  1.00  0.00     0.002 A 
ENDBRANCH   9  12
ENDBRANCH   8   9
ENDBRANCH   7   8
ENDBRANCH   1   7
BRANCH   3  23
HETATM   23  C   UNL     1      -6.024   2.466 -32.782  1.00  0.00     0.163 C 
BRANCH  23  24
HETATM   24  C   UNL     1      -5.984   1.086 -33.385  1.00  0.00    -0.038 A 
HETATM   25  C   UNL     1      -4.966   0.195 -33.010  1.00  0.00     0.048 A 
HETATM   26  C   UNL     1      -4.886  -1.084 -33.572  1.00  0.00     0.102 A 
HETATM   27  C   UNL     1      -5.839  -1.481 -34.531  1.00  0.00     0.101 A 
HETATM   28  C   UNL     1      -6.850  -0.590 -34.908  1.00  0.00     0.040 A 
HETATM   29  C   UNL     1      -6.920   0.685 -34.342  1.00  0.00     0.012 A 
BRANCH  26  30
HETATM   30  O   UNL     1      -3.923  -2.010 -33.256  1.00  0.00    -0.353 OA
HETATM   31  C   UNL     1      -3.302  -1.904 -31.983  1.00  0.00     0.210 C 
ENDBRANCH  26  30
BRANCH  27  32
HETATM   32  O   UNL     1      -5.694  -2.750 -35.036  1.00  0.00    -0.353 OA
HETATM   33  C   UNL     1      -6.761  -3.666 -34.834  1.00  0.00     0.210 C 
ENDBRANCH  27  32
ENDBRANCH  23  24
ENDBRANCH   3  23
TORSDOF 8
ENDMDL
MODEL 7
REMARK VINA RESULT:      -8.0      2.304      3.971
REMARK  8 active torsions:
REMARK  status: ('A' for Active; 'I' for Inactive)
REMARK    1  A    between atoms: C_7  and  S_8 
REMARK    2  A    between atoms: S_8  and  C_9 
REMARK    3  A    between atoms: C_9  and  C_10 
REMARK    4  A    between atoms: C_10  and  N_11 
REMARK       I    between atoms: N_11  and  C_12 
REMARK       I    between atoms: C_12  and  N_13 
REMARK    5  A    between atoms: N_13  and  C_14 
REMARK    6  A    between atoms: C_14  and  C_15 
REMARK    7  A    between atoms: C_17  and  O_18 
REMARK    8  A    between atoms: C_20  and  O_21 
ROOT
HETATM    1  N   UNL     1      -5.397   4.729 -34.246  1.00  0.00    -0.342 N 
HETATM    2  C   UNL     1      -4.078   5.013 -34.395  1.00  0.00     0.316 C 
HETATM    3  N   UNL     1      -3.249   4.590 -33.411  1.00  0.00    -0.339 N 
HETATM    4  O   UNL     1      -3.704   5.609 -35.399  1.00  0.00    -0.248 OA
HETATM    5  H   UNL     1      -5.909   4.960 -35.091  1.00  0.00     0.164 HD
HETATM    6  H   UNL     1      -3.633   4.237 -32.552  1.00  0.00     0.164 HD
ENDROOT
BRANCH   1   7
HETATM    7  C   UNL     1      -6.035   3.880 -33.250  1.00  0.00     0.139 C 
BRANCH   7   8
HETATM    8  C   UNL     1      -6.607   2.622 -33.872  1.00  0.00     0.165 C 
BRANCH   8   9
HETATM    9  S   UNL     1      -6.876   1.399 -32.614  1.00  0.00     0.179 S 
HETATM   10  O   UNL     1      -8.134   0.725 -32.860  1.00  0.00    -0.222 OA
HETATM   11  O   UNL     1      -6.555   1.972 -31.323  1.00  0.00    -0.222 OA
BRANCH   9  12
HETATM   12  C   UNL     1      -5.642   0.224 -32.933  1.00  0.00     0.093 A 
HETATM   13  C   UNL     1      -4.285   0.353 -32.670  1.00  0.00     0.028 A 
HETATM   14  C   UNL     1      -3.497   1.441 -32.032  1.00  0.00     0.070 C 
HETATM   15  N   UNL     1      -3.680  -0.797 -33.113  1.00  0.00    -0.358 N 
HETATM   16  H   UNL     1      -2.693  -1.002 -33.038  1.00  0.00     0.166 HD
HETATM   17  C   UNL     1      -4.600  -1.640 -33.692  1.00  0.00     0.044 A 
HETATM   18  C   UNL     1      -5.851  -1.028 -33.589  1.00  0.00     0.014 A 
HETATM   19  C   UNL     1      -4.412  -2.892 -34.290  1.00  0.00     0.030 A 
HETATM   20  C   UNL     1      -6.969  -1.714 -34.115  1.00  0.00     0.015 A 
HETATM   21  C   UNL     1      -6.797  -2.966 -34.717  1.00  0.00     0.001 A 
HETATM   22  C   UNL     1      -5.536  -3.544 -34.803  1.00  0.00     0.002 A 
ENDBRANCH   9  12
ENDBRANCH   8   9
ENDBRANCH   7   8
ENDBRANCH   1   7
BRANCH   3  23
HETATM   23  C   UNL     1      -1.832   4.869 -33.428  1.00  0.00     0.163 C 
BRANCH  23  24
HETATM   24  C   UNL     1      -1.396   5.425 -32.098  1.00  0.00    -0.038 A 
HETATM   25  C   UNL     1      -2.339   6.046 -31.264  1.00  0.00     0.048 A 
HETATM   26  C   UNL     1      -1.961   6.596 -30.034  1.00  0.00     0.102 A 
HETATM   27  C   UNL     1      -0.612   6.530 -29.631  1.00  0.00     0.101 A 
HETATM   28  C   UNL     1       0.328   5.915 -30.465  1.00  0.00     0.040 A 
HETATM   29  C   UNL     1      -0.060   5.370 -31.692  1.00  0.00     0.012 A 
BRANCH  26  30
HETATM   30  O   UNL     1      -2.823   7.217 -29.165  1.00  0.00    -0.353 OA
HETATM   31  C   UNL     1      -3.399   8.448 -29.577  1.00  0.00     0.210 C 
ENDBRANCH  26  30
BRANCH  27  32
HETATM   32  O   UNL     1      -0.319   7.091 -28.412  1.00  0.00    -0.353 OA
HETATM   33  C   UNL     1       0.876   7.851 -28.306  1.00  0.00     0.210 C 
ENDBRANCH  27  32
ENDBRANCH  23  24
ENDBRANCH   3  23
TORSDOF 8
ENDMDL
MODEL 8
REMARK VINA RESULT:      -7.9      1.847      2.358
REMARK  8 active torsions:
REMARK  status: ('A' for Active; 'I' for Inactive)
REMARK    1  A    between atoms: C_7  and  S_8 
REMARK    2  A    between atoms: S_8  and  C_9 
REMARK    3  A    between atoms: C_9  and  C_10 
REMARK    4  A    between atoms: C_10  and  N_11 
REMARK       I    between atoms: N_11  and  C_12 
REMARK       I    between atoms: C_12  and  N_13 
REMARK    5  A    between atoms: N_13  and  C_14 
REMARK    6  A    between atoms: C_14  and  C_15 
REMARK    7  A    between atoms: C_17  and  O_18 
REMARK    8  A    between atoms: C_20  and  O_21 
ROOT
HETATM    1  N   UNL     1      -6.544   1.621 -29.958  1.00  0.00    -0.342 N 
HETATM    2  C   UNL     1      -6.719   2.931 -30.269  1.00  0.00     0.316 C 
HETATM    3  N   UNL     1      -6.842   3.234 -31.584  1.00  0.00    -0.339 N 
HETATM    4  O   UNL     1      -6.775   3.758 -29.365  1.00  0.00    -0.248 OA
HETATM    5  H   UNL     1      -6.602   1.482 -28.955  1.00  0.00     0.164 HD
HETATM    6  H   UNL     1      -6.644   2.535 -32.278  1.00  0.00     0.164 HD
ENDROOT
BRANCH   1   7
HETATM    7  C   UNL     1      -6.637   0.461 -30.834  1.00  0.00     0.139 C 
BRANCH   7   8
HETATM    8  C   UNL     1      -5.275  -0.151 -31.096  1.00  0.00     0.165 C 
BRANCH   8   9
HETATM    9  S   UNL     1      -4.753   0.232 -32.748  1.00  0.00     0.179 S 
HETATM   10  O   UNL     1      -3.315   0.091 -32.843  1.00  0.00    -0.222 OA
HETATM   11  O   UNL     1      -5.434   1.430 -33.192  1.00  0.00    -0.222 OA
BRANCH   9  12
HETATM   12  C   UNL     1      -5.418  -1.067 -33.685  1.00  0.00     0.093 A 
HETATM   13  C   UNL     1      -6.562  -1.024 -34.468  1.00  0.00     0.028 A 
HETATM   14  C   UNL     1      -7.509   0.079 -34.783  1.00  0.00     0.070 C 
HETATM   15  N   UNL     1      -6.731  -2.279 -34.999  1.00  0.00    -0.358 N 
HETATM   16  H   UNL     1      -7.473  -2.550 -35.630  1.00  0.00     0.166 HD
HETATM   17  C   UNL     1      -5.756  -3.136 -34.544  1.00  0.00     0.044 A 
HETATM   18  C   UNL     1      -4.905  -2.401 -33.716  1.00  0.00     0.014 A 
HETATM   19  C   UNL     1      -5.570  -4.498 -34.810  1.00  0.00     0.030 A 
HETATM   20  C   UNL     1      -3.810  -3.072 -33.128  1.00  0.00     0.015 A 
HETATM   21  C   UNL     1      -3.610  -4.435 -33.384  1.00  0.00     0.001 A 
HETATM   22  C   UNL     1      -4.480  -5.135 -34.212  1.00  0.00     0.002 A 
ENDBRANCH   9  12
ENDBRANCH   8   9
ENDBRANCH   7   8
ENDBRANCH   1   7
BRANCH   3  23
HETATM   23  C   UNL     1      -6.985   4.595 -32.047  1.00  0.00     0.163 C 
BRANCH  23  24
HETATM   24  C   UNL     1      -5.719   5.049 -32.722  1.00  0.00    -0.038 A 
HETATM   25  C   UNL     1      -4.798   5.836 -32.013  1.00  0.00     0.048 A 
HETATM   26  C   UNL     1      -3.625   6.296 -32.620  1.00  0.00     0.102 A 
HETATM   27  C   UNL     1      -3.367   5.969 -33.966  1.00  0.00     0.101 A 
HETATM   28  C   UNL     1      -4.287   5.189 -34.675  1.00  0.00     0.040 A 
HETATM   29  C   UNL     1      -5.456   4.735 -34.058  1.00  0.00     0.012 A 
BRANCH  26  30
HETATM   30  O   UNL     1      -2.678   7.067 -31.992  1.00  0.00    -0.353 OA
HETATM   31  C   UNL     1      -2.330   6.724 -30.658  1.00  0.00     0.210 C 
ENDBRANCH  26  30
BRANCH  27  32
HETATM   32  O   UNL     1      -2.195   6.457 -34.491  1.00  0.00    -0.353 OA
HETATM   33  C   UNL     1      -1.181   5.521 -34.824  1.00  0.00     0.210 C 
ENDBRANCH  27  32
ENDBRANCH  23  24
ENDBRANCH   3  23
TORSDOF 8
ENDMDL
MODEL 9
REMARK VINA RESULT:      -7.8      3.850      7.205
REMARK  8 active torsions:
REMARK  status: ('A' for Active; 'I' for Inactive)
REMARK    1  A    between atoms: C_7  and  S_8 
REMARK    2  A    between atoms: S_8  and  C_9 
REMARK    3  A    between atoms: C_9  and  C_10 
REMARK    4  A    between atoms: C_10  and  N_11 
REMARK       I    between atoms: N_11  and  C_12 
REMARK       I    between atoms: C_12  and  N_13 
REMARK    5  A    between atoms: N_13  and  C_14 
REMARK    6  A    between atoms: C_14  and  C_15 
REMARK    7  A    between atoms: C_17  and  O_18 
REMARK    8  A    between atoms: C_20  and  O_21 
ROOT
HETATM    1  N   UNL     1      -8.814   0.605 -31.433  1.00  0.00    -0.342 N 
HETATM    2  C   UNL     1      -9.754   0.447 -32.399  1.00  0.00     0.316 C 
HETATM    3  N   UNL     1     -10.040   1.536 -33.153  1.00  0.00    -0.339 N 
HETATM    4  O   UNL     1     -10.274  -0.652 -32.555  1.00  0.00    -0.248 OA
HETATM    5  H   UNL     1      -8.572  -0.290 -31.022  1.00  0.00     0.164 HD
HETATM    6  H   UNL     1      -9.688   2.437 -32.884  1.00  0.00     0.164 HD
ENDROOT
BRANCH   1   7
HETATM    7  C   UNL     1      -7.939   1.746 -31.195  1.00  0.00     0.139 C 
BRANCH   7   8
HETATM    8  C   UNL     1      -6.487   1.325 -31.101  1.00  0.00     0.165 C 
BRANCH   8   9
HETATM    9  S   UNL     1      -5.755   1.328 -32.718  1.00  0.00     0.179 S 
HETATM   10  O   UNL     1      -4.698   2.316 -32.766  1.00  0.00    -0.222 OA
HETATM   11  O   UNL     1      -6.808   1.287 -33.712  1.00  0.00    -0.222 OA
BRANCH   9  12
HETATM   12  C   UNL     1      -4.965  -0.213 -32.798  1.00  0.00     0.093 A 
HETATM   13  C   UNL     1      -3.800  -0.584 -32.141  1.00  0.00     0.028 A 
HETATM   14  C   UNL     1      -2.927   0.144 -31.183  1.00  0.00     0.070 C 
HETATM   15  N   UNL     1      -3.521  -1.874 -32.519  1.00  0.00    -0.358 N 
HETATM   16  H   UNL     1      -2.740  -2.422 -32.186  1.00  0.00     0.166 HD
HETATM   17  C   UNL     1      -4.446  -2.326 -33.431  1.00  0.00     0.044 A 
HETATM   18  C   UNL     1      -5.377  -1.303 -33.626  1.00  0.00     0.014 A 
HETATM   19  C   UNL     1      -4.523  -3.560 -34.088  1.00  0.00     0.030 A 
HETATM   20  C   UNL     1      -6.440  -1.537 -34.527  1.00  0.00     0.015 A 
HETATM   21  C   UNL     1      -6.530  -2.766 -35.192  1.00  0.00     0.001 A 
HETATM   22  C   UNL     1      -5.583  -3.761 -34.975  1.00  0.00     0.002 A 
ENDBRANCH   9  12
ENDBRANCH   8   9
ENDBRANCH   7   8
ENDBRANCH   1   7
BRANCH   3  23
HETATM   23  C   UNL     1     -11.054   1.510 -34.182  1.00  0.00     0.163 C 
BRANCH  23  24
HETATM   24  C   UNL     1     -12.398   1.854 -33.596  1.00  0.00    -0.038 A 
HETATM   25  C   UNL     1     -12.535   3.005 -32.804  1.00  0.00     0.048 A 
HETATM   26  C   UNL     1     -13.764   3.337 -32.222  1.00  0.00     0.102 A 
HETATM   27  C   UNL     1     -14.878   2.500 -32.431  1.00  0.00     0.101 A 
HETATM   28  C   UNL     1     -14.739   1.350 -33.216  1.00  0.00     0.040 A 
HETATM   29  C   UNL     1     -13.507   1.027 -33.791  1.00  0.00     0.012 A 
BRANCH  26  30
HETATM   30  O   UNL     1     -13.976   4.444 -31.438  1.00  0.00    -0.353 OA
HETATM   31  C   UNL     1     -12.836   5.174 -31.009  1.00  0.00     0.210 C 
ENDBRANCH  26  30
BRANCH  27  32
HETATM   32  O   UNL     1     -16.048   2.892 -31.828  1.00  0.00    -0.353 OA
HETATM   33  C   UNL     1     -17.267   2.574 -32.484  1.00  0.00     0.210 C 
ENDBRANCH  27  32
ENDBRANCH  23  24
ENDBRANCH   3  23
TORSDOF 8
ENDMDL
MODEL 10
REMARK VINA RESULT:      -7.7      1.787      2.783
REMARK  8 active torsions:
REMARK  status: ('A' for Active; 'I' for Inactive)
REMARK    1  A    between atoms: C_7  and  S_8 
REMARK    2  A    between atoms: S_8  and  C_9 
REMARK    3  A    between atoms: C_9  and  C_10 
REMARK    4  A    between atoms: C_10  and  N_11 
REMARK       I    between atoms: N_11  and  C_12 
REMARK       I    between atoms: C_12  and  N_13 
REMARK    5  A    between atoms: N_13  and  C_14 
REMARK    6  A    between atoms: C_14  and  C_15 
REMARK    7  A    between atoms: C_17  and  O_18 
REMARK    8  A    between atoms: C_20  and  O_21 
ROOT
HETATM    1  N   UNL     1      -7.031   2.101 -29.779  1.00  0.00    -0.342 N 
HETATM    2  C   UNL     1      -7.060   3.429 -30.062  1.00  0.00     0.316 C 
HETATM    3  N   UNL     1      -5.863   4.045 -30.215  1.00  0.00    -0.339 N 
HETATM    4  O   UNL     1      -8.143   3.992 -30.181  1.00  0.00    -0.248 OA
HETATM    5  H   UNL     1      -7.965   1.708 -29.822  1.00  0.00     0.164 HD
HETATM    6  H   UNL     1      -5.017   3.563 -29.964  1.00  0.00     0.164 HD
ENDROOT
BRANCH   1   7
HETATM    7  C   UNL     1      -5.888   1.198 -29.781  1.00  0.00     0.139 C 
BRANCH   7   8
HETATM    8  C   UNL     1      -6.026   0.125 -30.842  1.00  0.00     0.165 C 
BRANCH   8   9
HETATM    9  S   UNL     1      -5.413   0.732 -32.393  1.00  0.00     0.179 S 
HETATM   10  O   UNL     1      -4.027   1.125 -32.241  1.00  0.00    -0.222 OA
HETATM   11  O   UNL     1      -6.400   1.618 -32.976  1.00  0.00    -0.222 OA
BRANCH   9  12
HETATM   12  C   UNL     1      -5.395  -0.684 -33.393  1.00  0.00     0.093 A 
HETATM   13  C   UNL     1      -6.177  -0.917 -34.515  1.00  0.00     0.028 A 
HETATM   14  C   UNL     1      -7.186  -0.077 -35.214  1.00  0.00     0.070 C 
HETATM   15  N   UNL     1      -5.857  -2.172 -34.973  1.00  0.00    -0.358 N 
HETATM   16  H   UNL     1      -6.253  -2.611 -35.793  1.00  0.00     0.166 HD
HETATM   17  C   UNL     1      -4.928  -2.767 -34.152  1.00  0.00     0.044 A 
HETATM   18  C   UNL     1      -4.609  -1.851 -33.147  1.00  0.00     0.014 A 
HETATM   19  C   UNL     1      -4.351  -4.040 -34.233  1.00  0.00     0.030 A 
HETATM   20  C   UNL     1      -3.658  -2.238 -32.176  1.00  0.00     0.015 A 
HETATM   21  C   UNL     1      -3.073  -3.509 -32.243  1.00  0.00     0.001 A 
HETATM   22  C   UNL     1      -3.417  -4.396 -33.257  1.00  0.00     0.002 A 
ENDBRANCH   9  12
ENDBRANCH   8   9
ENDBRANCH   7   8
ENDBRANCH   1   7
BRANCH   3  23
HETATM   23  C   UNL     1      -5.757   5.463 -30.471  1.00  0.00     0.163 C 
BRANCH  23  24
HETATM   24  C   UNL     1      -4.343   5.818 -30.844  1.00  0.00    -0.038 A 
HETATM   25  C   UNL     1      -3.760   5.242 -31.984  1.00  0.00     0.048 A 
HETATM   26  C   UNL     1      -2.439   5.532 -32.342  1.00  0.00     0.102 A 
HETATM   27  C   UNL     1      -1.681   6.411 -31.544  1.00  0.00     0.101 A 
HETATM   28  C   UNL     1      -2.260   6.981 -30.405  1.00  0.00     0.040 A 
HETATM   29  C   UNL     1      -3.581   6.684 -30.056  1.00  0.00     0.012 A 
BRANCH  26  30
HETATM   30  O   UNL     1      -1.802   5.010 -33.441  1.00  0.00    -0.353 OA
HETATM   31  C   UNL     1      -2.430   5.172 -34.704  1.00  0.00     0.210 C 
ENDBRANCH  26  30
BRANCH  27  32
HETATM   32  O   UNL     1      -0.393   6.646 -31.960  1.00  0.00    -0.353 OA
HETATM   33  C   UNL     1       0.646   6.500 -31.003  1.00  0.00     0.210 C 
ENDBRANCH  27  32
ENDBRANCH  23  24
ENDBRANCH   3  23
TORSDOF 8
ENDMDL
