MODEL 1
REMARK VINA RESULT:      -9.2      0.000      0.000
REMARK  4 active torsions:
REMARK  status: ('A' for Active; 'I' for Inactive)
REMARK    1  A    between atoms: C_2  and  C_3 
REMARK       I    between atoms: C_3  and  N_4 
REMARK    2  A    between atoms: N_4  and  C_5 
REMARK    3  A    between atoms: C_12  and  C_13 
REMARK       I    between atoms: C_13  and  N_14 
REMARK    4  A    between atoms: C_19  and  C_20 
ROOT
HETATM    1  C   UNL     1      -9.121   2.230 -33.555  1.00  0.00     0.036 A 
HETATM    2  C   UNL     1     -10.208   1.347 -33.526  1.00  0.00     0.046 A 
HETATM    3  C   UNL     1     -11.411   1.702 -34.174  1.00  0.00     0.030 A 
HETATM    4  C   UNL     1     -11.475   2.914 -34.850  1.00  0.00     0.063 A 
HETATM    5  N   UNL     1     -12.733   2.967 -35.384  1.00  0.00    -0.277 N 
HETATM    6  H   UNL     1     -13.128   3.707 -35.952  1.00  0.00     0.189 HD
HETATM    7  N   UNL     1     -13.507   1.911 -35.089  1.00  0.00    -0.168 NA
HETATM    8  C   UNL     1     -12.706   1.122 -34.335  1.00  0.00     0.156 A 
HETATM    9  C   UNL     1     -10.411   3.817 -34.902  1.00  0.00     0.034 A 
HETATM   10  C   UNL     1      -9.239   3.454 -34.227  1.00  0.00     0.032 A 
ENDROOT
BRANCH   1  11
HETATM   11  N   UNL     1      -7.891   1.968 -32.920  1.00  0.00    -0.323 N 
HETATM   12  C   UNL     1      -6.667   1.781 -33.522  1.00  0.00     0.251 C 
HETATM   13  O   UNL     1      -6.378   1.882 -34.706  1.00  0.00    -0.268 OA
HETATM   14  H   UNL     1      -7.898   1.959 -31.908  1.00  0.00     0.169 HD
BRANCH  12  15
HETATM   15  C   UNL     1      -5.598   1.499 -32.522  1.00  0.00     0.007 C 
HETATM   16  C   UNL     1      -5.147   2.694 -31.743  1.00  0.00     0.054 C 
HETATM   17  C   UNL     1      -5.081   0.265 -32.367  1.00  0.00     0.023 C 
BRANCH  17  18
HETATM   18  C   UNL     1      -5.416  -0.931 -33.150  1.00  0.00    -0.035 A 
HETATM   19  C   UNL     1      -6.745  -1.280 -33.425  1.00  0.00     0.013 A 
HETATM   20  C   UNL     1      -7.039  -2.396 -34.214  1.00  0.00     0.024 A 
HETATM   21  C   UNL     1      -6.002  -3.159 -34.744  1.00  0.00     0.034 A 
HETATM   22 CL   UNL     1      -6.359  -4.526 -35.725  1.00  0.00    -0.084 Cl
HETATM   23  C   UNL     1      -4.675  -2.816 -34.493  1.00  0.00     0.024 A 
HETATM   24  C   UNL     1      -4.383  -1.700 -33.701  1.00  0.00     0.013 A 
ENDBRANCH  17  18
ENDBRANCH  12  15
ENDBRANCH   1  11
BRANCH   8  25
HETATM   25  C   UNL     1     -13.197  -0.146 -33.778  1.00  0.00     0.270 C 
HETATM   26  N   UNL     1     -14.533  -0.363 -33.978  1.00  0.00    -0.365 N 
HETATM   27  H   UNL     1     -15.073   0.350 -34.455  1.00  0.00     0.159 HD
HETATM   28  H   UNL     1     -14.968  -1.187 -33.595  1.00  0.00     0.159 HD
HETATM   29  O   UNL     1     -12.508  -0.955 -33.165  1.00  0.00    -0.266 OA
ENDBRANCH   8  25
TORSDOF 4
ENDMDL
MODEL 2
REMARK VINA RESULT:      -8.9      2.597      3.810
REMARK  4 active torsions:
REMARK  status: ('A' for Active; 'I' for Inactive)
REMARK    1  A    between atoms: C_2  and  C_3 
REMARK       I    between atoms: C_3  and  N_4 
REMARK    2  A    between atoms: N_4  and  C_5 
REMARK    3  A    between atoms: C_12  and  C_13 
REMARK       I    between atoms: C_13  and  N_14 
REMARK    4  A    between atoms: C_19  and  C_20 
ROOT
HETATM    1  C   UNL     1      -9.631   0.898 -33.192  1.00  0.00     0.036 A 
HETATM    2  C   UNL     1     -10.950   0.553 -33.515  1.00  0.00     0.046 A 
HETATM    3  C   UNL     1     -11.959   1.539 -33.463  1.00  0.00     0.030 A 
HETATM    4  C   UNL     1     -11.610   2.838 -33.114  1.00  0.00     0.063 A 
HETATM    5  N   UNL     1     -12.773   3.554 -33.171  1.00  0.00    -0.277 N 
HETATM    6  H   UNL     1     -12.894   4.544 -32.987  1.00  0.00     0.189 HD
HETATM    7  N   UNL     1     -13.857   2.831 -33.493  1.00  0.00    -0.168 NA
HETATM    8  C   UNL     1     -13.371   1.581 -33.670  1.00  0.00     0.156 A 
HETATM    9  C   UNL     1     -10.306   3.217 -32.789  1.00  0.00     0.034 A 
HETATM   10  C   UNL     1      -9.329   2.216 -32.821  1.00  0.00     0.032 A 
ENDROOT
BRANCH   1  11
HETATM   11  N   UNL     1      -8.565  -0.023 -33.198  1.00  0.00    -0.323 N 
HETATM   12  C   UNL     1      -7.754  -0.349 -34.262  1.00  0.00     0.251 C 
HETATM   13  O   UNL     1      -7.735   0.140 -35.382  1.00  0.00    -0.268 OA
HETATM   14  H   UNL     1      -8.341  -0.460 -32.314  1.00  0.00     0.169 HD
BRANCH  12  15
HETATM   15  C   UNL     1      -6.750  -1.387 -33.891  1.00  0.00     0.007 C 
HETATM   16  C   UNL     1      -6.899  -2.684 -34.622  1.00  0.00     0.054 C 
HETATM   17  C   UNL     1      -5.810  -1.160 -32.953  1.00  0.00     0.023 C 
BRANCH  17  18
HETATM   18  C   UNL     1      -5.657   0.053 -32.140  1.00  0.00    -0.035 A 
HETATM   19  C   UNL     1      -5.110   1.229 -32.673  1.00  0.00     0.013 A 
HETATM   20  C   UNL     1      -5.019   2.386 -31.896  1.00  0.00     0.024 A 
HETATM   21  C   UNL     1      -5.489   2.377 -30.585  1.00  0.00     0.034 A 
HETATM   22 CL   UNL     1      -5.389   3.803 -29.628  1.00  0.00    -0.084 Cl
HETATM   23  C   UNL     1      -6.049   1.220 -30.046  1.00  0.00     0.024 A 
HETATM   24  C   UNL     1      -6.138   0.062 -30.825  1.00  0.00     0.013 A 
ENDBRANCH  17  18
ENDBRANCH  12  15
ENDBRANCH   1  11
BRANCH   8  25
HETATM   25  C   UNL     1     -14.262   0.463 -34.013  1.00  0.00     0.270 C 
HETATM   26  N   UNL     1     -13.910  -0.727 -33.436  1.00  0.00    -0.365 N 
HETATM   27  H   UNL     1     -13.079  -0.758 -32.857  1.00  0.00     0.159 HD
HETATM   28  H   UNL     1     -14.439  -1.559 -33.646  1.00  0.00     0.159 HD
HETATM   29  O   UNL     1     -15.232   0.544 -34.759  1.00  0.00    -0.266 OA
ENDBRANCH   8  25
TORSDOF 4
ENDMDL
MODEL 3
REMARK VINA RESULT:      -8.7      6.114      9.008
REMARK  4 active torsions:
REMARK  status: ('A' for Active; 'I' for Inactive)
REMARK    1  A    between atoms: C_2  and  C_3 
REMARK       I    between atoms: C_3  and  N_4 
REMARK    2  A    between atoms: N_4  and  C_5 
REMARK    3  A    between atoms: C_12  and  C_13 
REMARK       I    between atoms: C_13  and  N_14 
REMARK    4  A    between atoms: C_19  and  C_20 
ROOT
HETATM    1  C   UNL     1      -4.206   3.557 -31.941  1.00  0.00     0.036 A 
HETATM    2  C   UNL     1      -4.422   2.227 -32.323  1.00  0.00     0.046 A 
HETATM    3  C   UNL     1      -5.291   1.416 -31.559  1.00  0.00     0.030 A 
HETATM    4  C   UNL     1      -5.930   1.972 -30.458  1.00  0.00     0.063 A 
HETATM    5  N   UNL     1      -6.706   0.969 -29.944  1.00  0.00    -0.277 N 
HETATM    6  H   UNL     1      -7.320   1.020 -29.140  1.00  0.00     0.189 HD
HETATM    7  N   UNL     1      -6.604  -0.201 -30.593  1.00  0.00    -0.168 NA
HETATM    8  C   UNL     1      -5.726   0.057 -31.591  1.00  0.00     0.156 A 
HETATM    9  C   UNL     1      -5.740   3.294 -30.051  1.00  0.00     0.034 A 
HETATM   10  C   UNL     1      -4.853   4.068 -30.807  1.00  0.00     0.032 A 
ENDROOT
BRANCH   1  11
HETATM   11  N   UNL     1      -3.343   4.432 -32.630  1.00  0.00    -0.323 N 
HETATM   12  C   UNL     1      -2.019   4.685 -32.349  1.00  0.00     0.251 C 
HETATM   13  O   UNL     1      -1.303   4.156 -31.511  1.00  0.00    -0.268 OA
HETATM   14  H   UNL     1      -3.724   4.891 -33.447  1.00  0.00     0.169 HD
BRANCH  12  15
HETATM   15  C   UNL     1      -1.441   5.693 -33.285  1.00  0.00     0.007 C 
HETATM   16  C   UNL     1      -1.478   5.293 -34.727  1.00  0.00     0.054 C 
HETATM   17  C   UNL     1      -0.914   6.850 -32.842  1.00  0.00     0.023 C 
BRANCH  17  18
HETATM   18  C   UNL     1      -0.770   7.270 -31.442  1.00  0.00    -0.035 A 
HETATM   19  C   UNL     1       0.377   6.961 -30.698  1.00  0.00     0.013 A 
HETATM   20  C   UNL     1       0.514   7.413 -29.383  1.00  0.00     0.024 A 
HETATM   21  C   UNL     1      -0.490   8.190 -28.811  1.00  0.00     0.034 A 
HETATM   22 CL   UNL     1      -0.320   8.758 -27.196  1.00  0.00    -0.084 Cl
HETATM   23  C   UNL     1      -1.629   8.518 -29.544  1.00  0.00     0.024 A 
HETATM   24  C   UNL     1      -1.766   8.063 -30.859  1.00  0.00     0.013 A 
ENDBRANCH  17  18
ENDBRANCH  12  15
ENDBRANCH   1  11
BRANCH   8  25
HETATM   25  C   UNL     1      -5.316  -0.995 -32.531  1.00  0.00     0.270 C 
HETATM   26  N   UNL     1      -4.054  -1.477 -32.314  1.00  0.00    -0.365 N 
HETATM   27  H   UNL     1      -3.504  -1.071 -31.566  1.00  0.00     0.159 HD
HETATM   28  H   UNL     1      -3.672  -2.172 -32.935  1.00  0.00     0.159 HD
HETATM   29  O   UNL     1      -6.007  -1.419 -33.452  1.00  0.00    -0.266 OA
ENDBRANCH   8  25
TORSDOF 4
ENDMDL
MODEL 4
REMARK VINA RESULT:      -8.6      4.045      7.541
REMARK  4 active torsions:
REMARK  status: ('A' for Active; 'I' for Inactive)
REMARK    1  A    between atoms: C_2  and  C_3 
REMARK       I    between atoms: C_3  and  N_4 
REMARK    2  A    between atoms: N_4  and  C_5 
REMARK    3  A    between atoms: C_12  and  C_13 
REMARK       I    between atoms: C_13  and  N_14 
REMARK    4  A    between atoms: C_19  and  C_20 
ROOT
HETATM    1  C   UNL     1      -5.070   3.888 -32.822  1.00  0.00     0.036 A 
HETATM    2  C   UNL     1      -3.864   4.220 -32.192  1.00  0.00     0.046 A 
HETATM    3  C   UNL     1      -2.908   4.996 -32.883  1.00  0.00     0.030 A 
HETATM    4  C   UNL     1      -3.203   5.433 -34.168  1.00  0.00     0.063 A 
HETATM    5  N   UNL     1      -2.117   6.165 -34.562  1.00  0.00    -0.277 N 
HETATM    6  H   UNL     1      -1.988   6.646 -35.444  1.00  0.00     0.189 HD
HETATM    7  N   UNL     1      -1.125   6.217 -33.659  1.00  0.00    -0.168 NA
HETATM    8  C   UNL     1      -1.596   5.493 -32.618  1.00  0.00     0.156 A 
HETATM    9  C   UNL     1      -4.395   5.123 -34.825  1.00  0.00     0.034 A 
HETATM   10  C   UNL     1      -5.314   4.329 -34.130  1.00  0.00     0.032 A 
ENDROOT
BRANCH   1  11
HETATM   11  N   UNL     1      -6.071   3.102 -32.217  1.00  0.00    -0.323 N 
HETATM   12  C   UNL     1      -7.268   2.709 -32.772  1.00  0.00     0.251 C 
HETATM   13  O   UNL     1      -7.672   2.885 -33.913  1.00  0.00    -0.268 OA
HETATM   14  H   UNL     1      -5.870   2.752 -31.290  1.00  0.00     0.169 HD
BRANCH  12  15
HETATM   15  C   UNL     1      -8.081   1.905 -31.815  1.00  0.00     0.007 C 
HETATM   16  C   UNL     1      -8.976   2.715 -30.930  1.00  0.00     0.054 C 
HETATM   17  C   UNL     1      -7.982   0.564 -31.755  1.00  0.00     0.023 C 
BRANCH  17  18
HETATM   18  C   UNL     1      -7.070  -0.285 -32.531  1.00  0.00    -0.035 A 
HETATM   19  C   UNL     1      -5.765  -0.552 -32.094  1.00  0.00     0.013 A 
HETATM   20  C   UNL     1      -4.930  -1.402 -32.824  1.00  0.00     0.024 A 
HETATM   21  C   UNL     1      -5.403  -2.002 -33.988  1.00  0.00     0.034 A 
HETATM   22 CL   UNL     1      -4.383  -3.059 -34.883  1.00  0.00    -0.084 Cl
HETATM   23  C   UNL     1      -6.704  -1.759 -34.427  1.00  0.00     0.024 A 
HETATM   24  C   UNL     1      -7.537  -0.906 -33.696  1.00  0.00     0.013 A 
ENDBRANCH  17  18
ENDBRANCH  12  15
ENDBRANCH   1  11
BRANCH   8  25
HETATM   25  C   UNL     1      -0.782   5.280 -31.413  1.00  0.00     0.270 C 
HETATM   26  N   UNL     1      -1.345   5.770 -30.265  1.00  0.00    -0.365 N 
HETATM   27  H   UNL     1      -2.236   6.249 -30.330  1.00  0.00     0.159 HD
HETATM   28  H   UNL     1      -0.841   5.706 -29.396  1.00  0.00     0.159 HD
HETATM   29  O   UNL     1       0.315   4.733 -31.396  1.00  0.00    -0.266 OA
ENDBRANCH   8  25
TORSDOF 4
ENDMDL
MODEL 5
REMARK VINA RESULT:      -8.5      4.785      8.133
REMARK  4 active torsions:
REMARK  status: ('A' for Active; 'I' for Inactive)
REMARK    1  A    between atoms: C_2  and  C_3 
REMARK       I    between atoms: C_3  and  N_4 
REMARK    2  A    between atoms: N_4  and  C_5 
REMARK    3  A    between atoms: C_12  and  C_13 
REMARK       I    between atoms: C_13  and  N_14 
REMARK    4  A    between atoms: C_19  and  C_20 
ROOT
HETATM    1  C   UNL     1      -3.816   2.659 -32.345  1.00  0.00     0.036 A 
HETATM    2  C   UNL     1      -2.694   3.208 -31.711  1.00  0.00     0.046 A 
HETATM    3  C   UNL     1      -2.606   4.607 -31.542  1.00  0.00     0.030 A 
HETATM    4  C   UNL     1      -3.654   5.404 -31.988  1.00  0.00     0.063 A 
HETATM    5  N   UNL     1      -3.297   6.685 -31.672  1.00  0.00    -0.277 N 
HETATM    6  H   UNL     1      -3.830   7.530 -31.841  1.00  0.00     0.189 HD
HETATM    7  N   UNL     1      -2.094   6.799 -31.087  1.00  0.00    -0.168 NA
HETATM    8  C   UNL     1      -1.650   5.523 -31.007  1.00  0.00     0.156 A 
HETATM    9  C   UNL     1      -4.787   4.890 -32.621  1.00  0.00     0.034 A 
HETATM   10  C   UNL     1      -4.838   3.503 -32.803  1.00  0.00     0.032 A 
ENDROOT
BRANCH   1  11
HETATM   11  N   UNL     1      -3.979   1.278 -32.575  1.00  0.00    -0.323 N 
HETATM   12  C   UNL     1      -4.365   0.324 -31.660  1.00  0.00     0.251 C 
HETATM   13  O   UNL     1      -4.719   0.479 -30.500  1.00  0.00    -0.268 OA
HETATM   14  H   UNL     1      -3.841   0.960 -33.524  1.00  0.00     0.169 HD
BRANCH  12  15
HETATM   15  C   UNL     1      -4.400  -1.037 -32.268  1.00  0.00     0.007 C 
HETATM   16  C   UNL     1      -3.181  -1.865 -32.006  1.00  0.00     0.054 C 
HETATM   17  C   UNL     1      -5.444  -1.456 -33.009  1.00  0.00     0.023 C 
BRANCH  17  18
HETATM   18  C   UNL     1      -6.630  -0.672 -33.374  1.00  0.00    -0.035 A 
HETATM   19  C   UNL     1      -7.571  -0.273 -32.414  1.00  0.00     0.013 A 
HETATM   20  C   UNL     1      -8.667   0.515 -32.777  1.00  0.00     0.024 A 
HETATM   21  C   UNL     1      -8.818   0.920 -34.100  1.00  0.00     0.034 A 
HETATM   22 CL   UNL     1     -10.160   1.899 -34.549  1.00  0.00    -0.084 Cl
HETATM   23  C   UNL     1      -7.883   0.545 -35.063  1.00  0.00     0.024 A 
HETATM   24  C   UNL     1      -6.788  -0.246 -34.699  1.00  0.00     0.013 A 
ENDBRANCH  17  18
ENDBRANCH  12  15
ENDBRANCH   1  11
BRANCH   8  25
HETATM   25  C   UNL     1      -0.330   5.214 -30.441  1.00  0.00     0.270 C 
HETATM   26  N   UNL     1      -0.217   5.487 -29.105  1.00  0.00    -0.365 N 
HETATM   27  H   UNL     1      -1.013   5.891 -28.625  1.00  0.00     0.159 HD
HETATM   28  H   UNL     1       0.665   5.345 -28.639  1.00  0.00     0.159 HD
HETATM   29  O   UNL     1       0.618   4.767 -31.079  1.00  0.00    -0.266 OA
ENDBRANCH   8  25
TORSDOF 4
ENDMDL
MODEL 6
REMARK VINA RESULT:      -8.5      4.803      7.531
REMARK  4 active torsions:
REMARK  status: ('A' for Active; 'I' for Inactive)
REMARK    1  A    between atoms: C_2  and  C_3 
REMARK       I    between atoms: C_3  and  N_4 
REMARK    2  A    between atoms: N_4  and  C_5 
REMARK    3  A    between atoms: C_12  and  C_13 
REMARK       I    between atoms: C_13  and  N_14 
REMARK    4  A    between atoms: C_19  and  C_20 
ROOT
HETATM    1  C   UNL     1      -6.241   0.584 -33.272  1.00  0.00     0.036 A 
HETATM    2  C   UNL     1      -5.227  -0.226 -32.745  1.00  0.00     0.046 A 
HETATM    3  C   UNL     1      -4.951  -1.475 -33.345  1.00  0.00     0.030 A 
HETATM    4  C   UNL     1      -5.681  -1.856 -34.464  1.00  0.00     0.063 A 
HETATM    5  N   UNL     1      -5.182  -3.077 -34.825  1.00  0.00    -0.277 N 
HETATM    6  H   UNL     1      -5.473  -3.651 -35.608  1.00  0.00     0.189 HD
HETATM    7  N   UNL     1      -4.213  -3.542 -34.021  1.00  0.00    -0.168 NA
HETATM    8  C   UNL     1      -4.064  -2.565 -33.096  1.00  0.00     0.156 A 
HETATM    9  C   UNL     1      -6.697  -1.072 -35.017  1.00  0.00     0.034 A 
HETATM   10  C   UNL     1      -6.970   0.147 -34.387  1.00  0.00     0.032 A 
ENDROOT
BRANCH   1  11
HETATM   11  N   UNL     1      -6.598   1.833 -32.727  1.00  0.00    -0.323 N 
HETATM   12  C   UNL     1      -6.109   2.407 -31.575  1.00  0.00     0.251 C 
HETATM   13  O   UNL     1      -5.222   2.001 -30.839  1.00  0.00    -0.268 OA
HETATM   14  H   UNL     1      -7.251   2.389 -33.262  1.00  0.00     0.169 HD
BRANCH  12  15
HETATM   15  C   UNL     1      -6.747   3.728 -31.306  1.00  0.00     0.007 C 
HETATM   16  C   UNL     1      -8.049   3.651 -30.572  1.00  0.00     0.054 C 
HETATM   17  C   UNL     1      -6.188   4.881 -31.720  1.00  0.00     0.023 C 
BRANCH  17  18
HETATM   18  C   UNL     1      -4.960   5.027 -32.512  1.00  0.00    -0.035 A 
HETATM   19  C   UNL     1      -3.693   4.989 -31.915  1.00  0.00     0.013 A 
HETATM   20  C   UNL     1      -2.537   5.080 -32.694  1.00  0.00     0.024 A 
HETATM   21  C   UNL     1      -2.643   5.195 -34.077  1.00  0.00     0.034 A 
HETATM   22 CL   UNL     1      -1.222   5.296 -35.041  1.00  0.00    -0.084 Cl
HETATM   23  C   UNL     1      -3.896   5.218 -34.687  1.00  0.00     0.024 A 
HETATM   24  C   UNL     1      -5.053   5.129 -33.906  1.00  0.00     0.013 A 
ENDBRANCH  17  18
ENDBRANCH  12  15
ENDBRANCH   1  11
BRANCH   8  25
HETATM   25  C   UNL     1      -3.098  -2.703 -31.997  1.00  0.00     0.270 C 
HETATM   26  N   UNL     1      -2.443  -1.543 -31.681  1.00  0.00    -0.365 N 
HETATM   27  H   UNL     1      -2.644  -0.711 -32.223  1.00  0.00     0.159 HD
HETATM   28  H   UNL     1      -1.732  -1.551 -30.967  1.00  0.00     0.159 HD
HETATM   29  O   UNL     1      -2.858  -3.749 -31.403  1.00  0.00    -0.266 OA
ENDBRANCH   8  25
TORSDOF 4
ENDMDL
MODEL 7
REMARK VINA RESULT:      -8.4      1.728      3.091
REMARK  4 active torsions:
REMARK  status: ('A' for Active; 'I' for Inactive)
REMARK    1  A    between atoms: C_2  and  C_3 
REMARK       I    between atoms: C_3  and  N_4 
REMARK    2  A    between atoms: N_4  and  C_5 
REMARK    3  A    between atoms: C_12  and  C_13 
REMARK       I    between atoms: C_13  and  N_14 
REMARK    4  A    between atoms: C_19  and  C_20 
ROOT
HETATM    1  C   UNL     1      -9.070   2.063 -33.389  1.00  0.00     0.036 A 
HETATM    2  C   UNL     1      -9.438   3.316 -33.896  1.00  0.00     0.046 A 
HETATM    3  C   UNL     1     -10.716   3.486 -34.472  1.00  0.00     0.030 A 
HETATM    4  C   UNL     1     -11.588   2.405 -34.497  1.00  0.00     0.063 A 
HETATM    5  N   UNL     1     -12.731   2.874 -35.084  1.00  0.00    -0.277 N 
HETATM    6  H   UNL     1     -13.587   2.359 -35.257  1.00  0.00     0.189 HD
HETATM    7  N   UNL     1     -12.670   4.156 -35.475  1.00  0.00    -0.168 NA
HETATM    8  C   UNL     1     -11.427   4.547 -35.109  1.00  0.00     0.156 A 
HETATM    9  C   UNL     1     -11.256   1.144 -33.999  1.00  0.00     0.034 A 
HETATM   10  C   UNL     1      -9.973   0.994 -33.459  1.00  0.00     0.032 A 
ENDROOT
BRANCH   1  11
HETATM   11  N   UNL     1      -7.810   1.797 -32.817  1.00  0.00    -0.323 N 
HETATM   12  C   UNL     1      -6.600   1.721 -33.469  1.00  0.00     0.251 C 
HETATM   13  O   UNL     1      -6.354   1.944 -34.646  1.00  0.00    -0.268 OA
HETATM   14  H   UNL     1      -7.785   1.694 -31.811  1.00  0.00     0.169 HD
BRANCH  12  15
HETATM   15  C   UNL     1      -5.489   1.393 -32.530  1.00  0.00     0.007 C 
HETATM   16  C   UNL     1      -5.014   2.548 -31.704  1.00  0.00     0.054 C 
HETATM   17  C   UNL     1      -4.957   0.158 -32.466  1.00  0.00     0.023 C 
BRANCH  17  18
HETATM   18  C   UNL     1      -5.315  -0.996 -33.300  1.00  0.00    -0.035 A 
HETATM   19  C   UNL     1      -4.336  -1.821 -33.871  1.00  0.00     0.013 A 
HETATM   20  C   UNL     1      -4.699  -2.942 -34.620  1.00  0.00     0.024 A 
HETATM   21  C   UNL     1      -6.046  -3.253 -34.789  1.00  0.00     0.034 A 
HETATM   22 CL   UNL     1      -6.498  -4.640 -35.701  1.00  0.00    -0.084 Cl
HETATM   23  C   UNL     1      -7.031  -2.452 -34.214  1.00  0.00     0.024 A 
HETATM   24  C   UNL     1      -6.665  -1.328 -33.466  1.00  0.00     0.013 A 
ENDBRANCH  17  18
ENDBRANCH  12  15
ENDBRANCH   1  11
BRANCH   8  25
HETATM   25  C   UNL     1     -10.947   5.907 -35.391  1.00  0.00     0.270 C 
HETATM   26  N   UNL     1     -11.858   6.890 -35.112  1.00  0.00    -0.365 N 
HETATM   27  H   UNL     1     -12.772   6.618 -34.768  1.00  0.00     0.159 HD
HETATM   28  H   UNL     1     -11.632   7.851 -35.311  1.00  0.00     0.159 HD
HETATM   29  O   UNL     1      -9.843   6.179 -35.852  1.00  0.00    -0.266 OA
ENDBRANCH   8  25
TORSDOF 4
ENDMDL
MODEL 8
REMARK VINA RESULT:      -8.4      3.742      7.351
REMARK  4 active torsions:
REMARK  status: ('A' for Active; 'I' for Inactive)
REMARK    1  A    between atoms: C_2  and  C_3 
REMARK       I    between atoms: C_3  and  N_4 
REMARK    2  A    between atoms: N_4  and  C_5 
REMARK    3  A    between atoms: C_12  and  C_13 
REMARK       I    between atoms: C_13  and  N_14 
REMARK    4  A    between atoms: C_19  and  C_20 
ROOT
HETATM    1  C   UNL     1      -6.783   0.267 -32.752  1.00  0.00     0.036 A 
HETATM    2  C   UNL     1      -5.647  -0.451 -32.357  1.00  0.00     0.046 A 
HETATM    3  C   UNL     1      -5.167  -1.498 -33.173  1.00  0.00     0.030 A 
HETATM    4  C   UNL     1      -5.823  -1.772 -34.367  1.00  0.00     0.063 A 
HETATM    5  N   UNL     1      -5.126  -2.802 -34.936  1.00  0.00    -0.277 N 
HETATM    6  H   UNL     1      -5.316  -3.255 -35.823  1.00  0.00     0.189 HD
HETATM    7  N   UNL     1      -4.093  -3.247 -34.204  1.00  0.00    -0.168 NA
HETATM    8  C   UNL     1      -4.109  -2.455 -33.107  1.00  0.00     0.156 A 
HETATM    9  C   UNL     1      -6.955  -1.075 -34.793  1.00  0.00     0.034 A 
HETATM   10  C   UNL     1      -7.428  -0.061 -33.953  1.00  0.00     0.032 A 
ENDROOT
BRANCH   1  11
HETATM   11  N   UNL     1      -7.344   1.313 -31.992  1.00  0.00    -0.323 N 
HETATM   12  C   UNL     1      -7.054   2.655 -32.085  1.00  0.00     0.251 C 
HETATM   13  O   UNL     1      -6.326   3.224 -32.886  1.00  0.00    -0.268 OA
HETATM   14  H   UNL     1      -8.069   1.055 -31.337  1.00  0.00     0.169 HD
BRANCH  12  15
HETATM   15  C   UNL     1      -7.831   3.455 -31.095  1.00  0.00     0.007 C 
HETATM   16  C   UNL     1      -7.144   3.651 -29.780  1.00  0.00     0.054 C 
HETATM   17  C   UNL     1      -9.059   3.932 -31.376  1.00  0.00     0.023 C 
BRANCH  17  18
HETATM   18  C   UNL     1      -9.825   3.710 -32.609  1.00  0.00    -0.035 A 
HETATM   19  C   UNL     1     -10.706   2.628 -32.741  1.00  0.00     0.013 A 
HETATM   20  C   UNL     1     -11.462   2.464 -33.904  1.00  0.00     0.024 A 
HETATM   21  C   UNL     1     -11.351   3.391 -34.936  1.00  0.00     0.034 A 
HETATM   22 CL   UNL     1     -12.289   3.200 -36.366  1.00  0.00    -0.084 Cl
HETATM   23  C   UNL     1     -10.492   4.481 -34.814  1.00  0.00     0.024 A 
HETATM   24  C   UNL     1      -9.734   4.643 -33.649  1.00  0.00     0.013 A 
ENDBRANCH  17  18
ENDBRANCH  12  15
ENDBRANCH   1  11
BRANCH   8  25
HETATM   25  C   UNL     1      -3.133  -2.641 -32.024  1.00  0.00     0.270 C 
HETATM   26  N   UNL     1      -2.467  -1.498 -31.671  1.00  0.00    -0.365 N 
HETATM   27  H   UNL     1      -2.668  -0.645 -32.178  1.00  0.00     0.159 HD
HETATM   28  H   UNL     1      -1.750  -1.537 -30.964  1.00  0.00     0.159 HD
HETATM   29  O   UNL     1      -2.894  -3.710 -31.472  1.00  0.00    -0.266 OA
ENDBRANCH   8  25
TORSDOF 4
ENDMDL
MODEL 9
REMARK VINA RESULT:      -8.3      3.442      7.492
REMARK  4 active torsions:
REMARK  status: ('A' for Active; 'I' for Inactive)
REMARK    1  A    between atoms: C_2  and  C_3 
REMARK       I    between atoms: C_3  and  N_4 
REMARK    2  A    between atoms: N_4  and  C_5 
REMARK    3  A    between atoms: C_12  and  C_13 
REMARK       I    between atoms: C_13  and  N_14 
REMARK    4  A    between atoms: C_19  and  C_20 
ROOT
HETATM    1  C   UNL     1      -7.037   1.229 -34.069  1.00  0.00     0.036 A 
HETATM    2  C   UNL     1      -5.952   0.901 -33.246  1.00  0.00     0.046 A 
HETATM    3  C   UNL     1      -5.374  -0.384 -33.336  1.00  0.00     0.030 A 
HETATM    4  C   UNL     1      -5.885  -1.285 -34.262  1.00  0.00     0.063 A 
HETATM    5  N   UNL     1      -5.122  -2.412 -34.131  1.00  0.00    -0.277 N 
HETATM    6  H   UNL     1      -5.205  -3.274 -34.658  1.00  0.00     0.189 HD
HETATM    7  N   UNL     1      -4.179  -2.339 -33.179  1.00  0.00    -0.168 NA
HETATM    8  C   UNL     1      -4.326  -1.092 -32.672  1.00  0.00     0.156 A 
HETATM    9  C   UNL     1      -6.963  -0.991 -35.098  1.00  0.00     0.034 A 
HETATM   10  C   UNL     1      -7.536   0.279 -34.971  1.00  0.00     0.032 A 
ENDROOT
BRANCH   1  11
HETATM   11  N   UNL     1      -7.688   2.478 -34.033  1.00  0.00    -0.323 N 
HETATM   12  C   UNL     1      -8.617   2.906 -33.111  1.00  0.00     0.251 C 
HETATM   13  O   UNL     1      -9.006   2.336 -32.102  1.00  0.00    -0.268 OA
HETATM   14  H   UNL     1      -7.411   3.151 -34.736  1.00  0.00     0.169 HD
BRANCH  12  15
HETATM   15  C   UNL     1      -9.103   4.281 -33.418  1.00  0.00     0.007 C 
HETATM   16  C   UNL     1      -8.074   5.355 -33.249  1.00  0.00     0.054 C 
HETATM   17  C   UNL     1     -10.375   4.516 -33.792  1.00  0.00     0.023 C 
BRANCH  17  18
HETATM   18  C   UNL     1     -11.455   3.527 -33.898  1.00  0.00    -0.035 A 
HETATM   19  C   UNL     1     -12.433   3.397 -32.902  1.00  0.00     0.013 A 
HETATM   20  C   UNL     1     -13.480   2.483 -33.047  1.00  0.00     0.024 A 
HETATM   21  C   UNL     1     -13.561   1.704 -34.199  1.00  0.00     0.034 A 
HETATM   22 CL   UNL     1     -14.855   0.586 -34.387  1.00  0.00    -0.084 Cl
HETATM   23  C   UNL     1     -12.606   1.833 -35.205  1.00  0.00     0.024 A 
HETATM   24  C   UNL     1     -11.558   2.747 -35.057  1.00  0.00     0.013 A 
ENDBRANCH  17  18
ENDBRANCH  12  15
ENDBRANCH   1  11
BRANCH   8  25
HETATM   25  C   UNL     1      -3.483  -0.619 -31.566  1.00  0.00     0.270 C 
HETATM   26  N   UNL     1      -2.217  -1.139 -31.567  1.00  0.00    -0.365 N 
HETATM   27  H   UNL     1      -1.969  -1.806 -32.287  1.00  0.00     0.159 HD
HETATM   28  H   UNL     1      -1.580  -0.902 -30.823  1.00  0.00     0.159 HD
HETATM   29  O   UNL     1      -3.849   0.158 -30.690  1.00  0.00    -0.266 OA
ENDBRANCH   8  25
TORSDOF 4
ENDMDL
MODEL 10
REMARK VINA RESULT:      -8.3      4.695      8.014
REMARK  4 active torsions:
REMARK  status: ('A' for Active; 'I' for Inactive)
REMARK    1  A    between atoms: C_2  and  C_3 
REMARK       I    between atoms: C_3  and  N_4 
REMARK    2  A    between atoms: N_4  and  C_5 
REMARK    3  A    between atoms: C_12  and  C_13 
REMARK       I    between atoms: C_13  and  N_14 
REMARK    4  A    between atoms: C_19  and  C_20 
ROOT
HETATM    1  C   UNL     1      -4.202   4.336 -31.926  1.00  0.00     0.036 A 
HETATM    2  C   UNL     1      -4.019   5.687 -31.601  1.00  0.00     0.046 A 
HETATM    3  C   UNL     1      -2.972   6.413 -32.210  1.00  0.00     0.030 A 
HETATM    4  C   UNL     1      -2.163   5.770 -33.139  1.00  0.00     0.063 A 
HETATM    5  N   UNL     1      -1.272   6.718 -33.561  1.00  0.00    -0.277 N 
HETATM    6  H   UNL     1      -0.536   6.605 -34.249  1.00  0.00     0.189 HD
HETATM    7  N   UNL     1      -1.407   7.914 -32.966  1.00  0.00    -0.168 NA
HETATM    8  C   UNL     1      -2.450   7.739 -32.122  1.00  0.00     0.156 A 
HETATM    9  C   UNL     1      -2.318   4.428 -33.488  1.00  0.00     0.034 A 
HETATM   10  C   UNL     1      -3.345   3.722 -32.850  1.00  0.00     0.032 A 
ENDROOT
BRANCH   1  11
HETATM   11  N   UNL     1      -5.206   3.530 -31.355  1.00  0.00    -0.323 N 
HETATM   12  C   UNL     1      -6.316   3.014 -31.984  1.00  0.00     0.251 C 
HETATM   13  O   UNL     1      -6.618   3.076 -33.168  1.00  0.00    -0.268 OA
HETATM   14  H   UNL     1      -5.075   3.264 -30.388  1.00  0.00     0.169 HD
BRANCH  12  15
HETATM   15  C   UNL     1      -7.167   2.229 -31.044  1.00  0.00     0.007 C 
HETATM   16  C   UNL     1      -7.879   3.052 -30.018  1.00  0.00     0.054 C 
HETATM   17  C   UNL     1      -7.251   0.887 -31.118  1.00  0.00     0.023 C 
BRANCH  17  18
HETATM   18  C   UNL     1      -6.520   0.011 -32.042  1.00  0.00    -0.035 A 
HETATM   19  C   UNL     1      -5.214  -0.417 -31.768  1.00  0.00     0.013 A 
HETATM   20  C   UNL     1      -4.554  -1.290 -32.637  1.00  0.00     0.024 A 
HETATM   21  C   UNL     1      -5.205  -1.752 -33.778  1.00  0.00     0.034 A 
HETATM   22 CL   UNL     1      -4.402  -2.836 -34.844  1.00  0.00    -0.084 Cl
HETATM   23  C   UNL     1      -6.510  -1.348 -34.056  1.00  0.00     0.024 A 
HETATM   24  C   UNL     1      -7.168  -0.472 -33.186  1.00  0.00     0.013 A 
ENDBRANCH  17  18
ENDBRANCH  12  15
ENDBRANCH   1  11
BRANCH   8  25
HETATM   25  C   UNL     1      -2.908   8.827 -31.247  1.00  0.00     0.270 C 
HETATM   26  N   UNL     1      -2.057   9.107 -30.212  1.00  0.00    -0.365 N 
HETATM   27  H   UNL     1      -1.217   8.549 -30.112  1.00  0.00     0.159 HD
HETATM   28  H   UNL     1      -2.308   9.812 -29.537  1.00  0.00     0.159 HD
HETATM   29  O   UNL     1      -3.960   9.442 -31.387  1.00  0.00    -0.266 OA
ENDBRANCH   8  25
TORSDOF 4
ENDMDL
