MODEL 1
REMARK VINA RESULT:      -8.2      0.000      0.000
REMARK  3 active torsions:
REMARK  status: ('A' for Active; 'I' for Inactive)
REMARK    1  A    between atoms: C_9  and  C_10 
REMARK    2  A    between atoms: C_16  and  C_17 
REMARK       I    between atoms: C_17  and  N_18 
REMARK    3  A    between atoms: N_18  and  C_19 
ROOT
HETATM    1  C   UNL     1      -3.349   0.851 -30.914  1.00  0.00     0.070 C 
HETATM    2  C   UNL     1      -4.222   1.697 -31.808  1.00  0.00     0.037 C 
HETATM    3  N   UNL     1      -3.896   3.050 -31.859  1.00  0.00    -0.191 N 
HETATM    4  C   UNL     1      -4.403   3.887 -32.789  1.00  0.00     0.735 A 
HETATM    5  N   UNL     1      -5.395   3.445 -33.618  1.00  0.00    -0.092 N 
HETATM    6  N   UNL     1      -5.703   4.389 -34.520  1.00  0.00     0.012 NA
HETATM    7  N   UNL     1      -4.927   5.421 -34.199  1.00  0.00     0.033 NA
HETATM    8  N   UNL     1      -4.111   5.121 -33.123  1.00  0.00     0.030 NA
HETATM    9  C   UNL     1      -5.990   2.113 -33.561  1.00  0.00     0.198 C 
HETATM   10  C   UNL     1      -5.222   1.218 -32.591  1.00  0.00     0.062 C 
HETATM   11  H   UNL     1      -3.081   3.358 -31.332  1.00  0.00     0.184 HD
ENDROOT
BRANCH  10  12
HETATM   12  C   UNL     1      -5.584  -0.219 -32.681  1.00  0.00     0.256 C 
HETATM   13  N   UNL     1      -5.002  -0.871 -33.743  1.00  0.00    -0.322 N 
HETATM   14  H   UNL     1      -4.350  -0.346 -34.313  1.00  0.00     0.169 HD
HETATM   15  O   UNL     1      -6.308  -0.702 -31.819  1.00  0.00    -0.267 OA
BRANCH  13  16
HETATM   16  C   UNL     1      -5.234  -2.208 -34.133  1.00  0.00     0.052 A 
HETATM   17  C   UNL     1      -4.311  -3.246 -34.030  1.00  0.00     0.145 A 
HETATM   18  N   UNL     1      -4.569  -4.533 -34.386  1.00  0.00    -0.271 NA
HETATM   19  C   UNL     1      -5.799  -4.799 -34.865  1.00  0.00     0.116 A 
HETATM   20  C   UNL     1      -6.787  -3.841 -35.010  1.00  0.00     0.021 A 
HETATM   21  C   UNL     1      -6.495  -2.528 -34.641  1.00  0.00     0.032 A 
ENDBRANCH  13  16
ENDBRANCH  10  12
BRANCH   9  22
HETATM   22  C   UNL     1      -7.469   2.204 -33.194  1.00  0.00    -0.029 A 
HETATM   23  C   UNL     1      -8.440   1.784 -34.118  1.00  0.00     0.009 A 
HETATM   24  C   UNL     1      -9.799   1.854 -33.805  1.00  0.00     0.001 A 
HETATM   25  C   UNL     1     -10.206   2.336 -32.563  1.00  0.00     0.000 A 
HETATM   26  C   UNL     1      -9.255   2.743 -31.629  1.00  0.00     0.001 A 
HETATM   27  C   UNL     1      -7.897   2.673 -31.938  1.00  0.00     0.009 A 
ENDBRANCH   9  22
TORSDOF 3
ENDMDL
MODEL 2
REMARK VINA RESULT:      -7.8      2.580      4.177
REMARK  3 active torsions:
REMARK  status: ('A' for Active; 'I' for Inactive)
REMARK    1  A    between atoms: C_9  and  C_10 
REMARK    2  A    between atoms: C_16  and  C_17 
REMARK       I    between atoms: C_17  and  N_18 
REMARK    3  A    between atoms: N_18  and  C_19 
ROOT
HETATM    1  C   UNL     1      -9.952   0.129 -32.681  1.00  0.00     0.070 C 
HETATM    2  C   UNL     1      -9.186   1.271 -32.059  1.00  0.00     0.037 C 
HETATM    3  N   UNL     1      -9.940   2.400 -31.746  1.00  0.00    -0.191 N 
HETATM    4  C   UNL     1      -9.472   3.395 -30.965  1.00  0.00     0.735 A 
HETATM    5  N   UNL     1      -8.158   3.391 -30.589  1.00  0.00    -0.092 N 
HETATM    6  N   UNL     1      -7.910   4.409 -29.752  1.00  0.00     0.012 NA
HETATM    7  N   UNL     1      -9.068   5.057 -29.664  1.00  0.00     0.033 NA
HETATM    8  N   UNL     1     -10.050   4.435 -30.414  1.00  0.00     0.030 NA
HETATM    9  C   UNL     1      -7.183   2.384 -30.999  1.00  0.00     0.198 C 
HETATM   10  C   UNL     1      -7.869   1.233 -31.733  1.00  0.00     0.062 C 
HETATM   11  H   UNL     1     -10.943   2.357 -31.918  1.00  0.00     0.184 HD
ENDROOT
BRANCH  10  12
HETATM   12  C   UNL     1      -7.001   0.045 -31.936  1.00  0.00     0.256 C 
HETATM   13  N   UNL     1      -6.845  -0.307 -33.258  1.00  0.00    -0.322 N 
HETATM   14  H   UNL     1      -7.271   0.293 -33.954  1.00  0.00     0.169 HD
HETATM   15  O   UNL     1      -6.482  -0.480 -30.961  1.00  0.00    -0.267 OA
BRANCH  13  16
HETATM   16  C   UNL     1      -6.158  -1.439 -33.746  1.00  0.00     0.052 A 
HETATM   17  C   UNL     1      -4.789  -1.660 -33.626  1.00  0.00     0.145 A 
HETATM   18  N   UNL     1      -4.154  -2.774 -34.079  1.00  0.00    -0.271 NA
HETATM   19  C   UNL     1      -4.916  -3.710 -34.678  1.00  0.00     0.116 A 
HETATM   20  C   UNL     1      -6.284  -3.586 -34.850  1.00  0.00     0.021 A 
HETATM   21  C   UNL     1      -6.910  -2.432 -34.378  1.00  0.00     0.032 A 
ENDBRANCH  13  16
ENDBRANCH  10  12
BRANCH   9  22
HETATM   22  C   UNL     1      -6.084   3.019 -31.847  1.00  0.00    -0.029 A 
HETATM   23  C   UNL     1      -4.760   3.020 -31.377  1.00  0.00     0.009 A 
HETATM   24  C   UNL     1      -3.736   3.591 -32.135  1.00  0.00     0.001 A 
HETATM   25  C   UNL     1      -4.019   4.161 -33.375  1.00  0.00     0.000 A 
HETATM   26  C   UNL     1      -5.324   4.155 -33.862  1.00  0.00     0.001 A 
HETATM   27  C   UNL     1      -6.350   3.584 -33.108  1.00  0.00     0.009 A 
ENDBRANCH   9  22
TORSDOF 3
ENDMDL
MODEL 3
REMARK VINA RESULT:      -7.8      2.841      5.662
REMARK  3 active torsions:
REMARK  status: ('A' for Active; 'I' for Inactive)
REMARK    1  A    between atoms: C_9  and  C_10 
REMARK    2  A    between atoms: C_16  and  C_17 
REMARK       I    between atoms: C_17  and  N_18 
REMARK    3  A    between atoms: N_18  and  C_19 
ROOT
HETATM    1  C   UNL     1      -8.801   5.484 -33.872  1.00  0.00     0.070 C 
HETATM    2  C   UNL     1      -7.711   4.487 -33.569  1.00  0.00     0.037 C 
HETATM    3  N   UNL     1      -6.416   4.903 -33.871  1.00  0.00    -0.191 N 
HETATM    4  C   UNL     1      -5.320   4.248 -33.434  1.00  0.00     0.735 A 
HETATM    5  N   UNL     1      -5.465   3.042 -32.807  1.00  0.00    -0.092 N 
HETATM    6  N   UNL     1      -4.276   2.595 -32.376  1.00  0.00     0.012 NA
HETATM    7  N   UNL     1      -3.406   3.513 -32.790  1.00  0.00     0.033 NA
HETATM    8  N   UNL     1      -4.044   4.548 -33.449  1.00  0.00     0.030 NA
HETATM    9  C   UNL     1      -6.744   2.370 -32.591  1.00  0.00     0.198 C 
HETATM   10  C   UNL     1      -7.907   3.283 -32.975  1.00  0.00     0.062 C 
HETATM   11  H   UNL     1      -6.298   5.849 -34.228  1.00  0.00     0.184 HD
ENDROOT
BRANCH  10  12
HETATM   12  C   UNL     1      -9.234   2.788 -32.527  1.00  0.00     0.256 C 
HETATM   13  N   UNL     1     -10.086   2.478 -33.562  1.00  0.00    -0.322 N 
HETATM   14  H   UNL     1      -9.723   2.552 -34.504  1.00  0.00     0.169 HD
HETATM   15  O   UNL     1      -9.443   2.661 -31.328  1.00  0.00    -0.267 OA
BRANCH  13  16
HETATM   16  C   UNL     1     -11.435   2.077 -33.443  1.00  0.00     0.052 A 
HETATM   17  C   UNL     1     -12.490   2.908 -33.078  1.00  0.00     0.145 A 
HETATM   18  N   UNL     1     -13.786   2.504 -32.998  1.00  0.00    -0.271 NA
HETATM   19  C   UNL     1     -14.043   1.216 -33.296  1.00  0.00     0.116 A 
HETATM   20  C   UNL     1     -13.067   0.307 -33.667  1.00  0.00     0.021 A 
HETATM   21  C   UNL     1     -11.745   0.747 -33.738  1.00  0.00     0.032 A 
ENDBRANCH  13  16
ENDBRANCH  10  12
BRANCH   9  22
HETATM   22  C   UNL     1      -6.788   1.048 -33.352  1.00  0.00    -0.029 A 
HETATM   23  C   UNL     1      -7.029   1.052 -34.736  1.00  0.00     0.009 A 
HETATM   24  C   UNL     1      -7.070  -0.143 -35.456  1.00  0.00     0.001 A 
HETATM   25  C   UNL     1      -6.863  -1.357 -34.806  1.00  0.00     0.000 A 
HETATM   26  C   UNL     1      -6.608  -1.379 -33.436  1.00  0.00     0.001 A 
HETATM   27  C   UNL     1      -6.564  -0.186 -32.714  1.00  0.00     0.009 A 
ENDBRANCH   9  22
TORSDOF 3
ENDMDL
MODEL 4
REMARK VINA RESULT:      -7.5     14.885     16.532
REMARK  3 active torsions:
REMARK  status: ('A' for Active; 'I' for Inactive)
REMARK    1  A    between atoms: C_9  and  C_10 
REMARK    2  A    between atoms: C_16  and  C_17 
REMARK       I    between atoms: C_17  and  N_18 
REMARK    3  A    between atoms: N_18  and  C_19 
ROOT
HETATM    1  C   UNL     1      -3.985 -12.376 -37.682  1.00  0.00     0.070 C 
HETATM    2  C   UNL     1      -4.825 -12.977 -38.782  1.00  0.00     0.037 C 
HETATM    3  N   UNL     1      -4.314 -12.841 -40.070  1.00  0.00    -0.191 N 
HETATM    4  C   UNL     1      -4.801 -13.530 -41.124  1.00  0.00     0.735 A 
HETATM    5  N   UNL     1      -5.938 -14.273 -40.971  1.00  0.00    -0.092 N 
HETATM    6  N   UNL     1      -6.210 -14.945 -42.100  1.00  0.00     0.012 NA
HETATM    7  N   UNL     1      -5.259 -14.565 -42.949  1.00  0.00     0.033 NA
HETATM    8  N   UNL     1      -4.374 -13.685 -42.354  1.00  0.00     0.030 NA
HETATM    9  C   UNL     1      -6.709 -14.360 -39.734  1.00  0.00     0.198 C 
HETATM   10  C   UNL     1      -5.969 -13.679 -38.585  1.00  0.00     0.062 C 
HETATM   11  H   UNL     1      -3.407 -12.391 -40.171  1.00  0.00     0.184 HD
ENDROOT
BRANCH  10  12
HETATM   12  C   UNL     1      -6.545 -13.963 -37.246  1.00  0.00     0.256 C 
HETATM   13  N   UNL     1      -6.027 -15.089 -36.648  1.00  0.00    -0.322 N 
HETATM   14  H   UNL     1      -5.280 -15.571 -37.130  1.00  0.00     0.169 HD
HETATM   15  O   UNL     1      -7.369 -13.186 -36.780  1.00  0.00    -0.267 OA
BRANCH  13  16
HETATM   16  C   UNL     1      -6.446 -15.654 -35.423  1.00  0.00     0.052 A 
HETATM   17  C   UNL     1      -7.237 -16.792 -35.294  1.00  0.00     0.145 A 
HETATM   18  N   UNL     1      -7.604 -17.334 -34.103  1.00  0.00    -0.271 NA
HETATM   19  C   UNL     1      -7.163 -16.715 -32.989  1.00  0.00     0.116 A 
HETATM   20  C   UNL     1      -6.376 -15.578 -33.008  1.00  0.00     0.021 A 
HETATM   21  C   UNL     1      -6.016 -15.041 -34.244  1.00  0.00     0.032 A 
ENDBRANCH  13  16
ENDBRANCH  10  12
BRANCH   9  22
HETATM   22  C   UNL     1      -8.105 -13.775 -39.933  1.00  0.00    -0.029 A 
HETATM   23  C   UNL     1      -9.226 -14.620 -39.877  1.00  0.00     0.009 A 
HETATM   24  C   UNL     1     -10.513 -14.109 -40.051  1.00  0.00     0.001 A 
HETATM   25  C   UNL     1     -10.699 -12.747 -40.276  1.00  0.00     0.000 A 
HETATM   26  C   UNL     1      -9.600 -11.892 -40.320  1.00  0.00     0.001 A 
HETATM   27  C   UNL     1      -8.312 -12.400 -40.144  1.00  0.00     0.009 A 
ENDBRANCH   9  22
TORSDOF 3
ENDMDL
MODEL 5
REMARK VINA RESULT:      -7.4      3.200      6.529
REMARK  3 active torsions:
REMARK  status: ('A' for Active; 'I' for Inactive)
REMARK    1  A    between atoms: C_9  and  C_10 
REMARK    2  A    between atoms: C_16  and  C_17 
REMARK       I    between atoms: C_17  and  N_18 
REMARK    3  A    between atoms: N_18  and  C_19 
ROOT
HETATM    1  C   UNL     1      -8.608   4.170 -30.225  1.00  0.00     0.070 C 
HETATM    2  C   UNL     1      -9.008   3.412 -31.467  1.00  0.00     0.037 C 
HETATM    3  N   UNL     1     -10.360   3.090 -31.563  1.00  0.00    -0.191 N 
HETATM    4  C   UNL     1     -10.923   2.647 -32.707  1.00  0.00     0.735 A 
HETATM    5  N   UNL     1     -10.124   2.345 -33.774  1.00  0.00    -0.092 N 
HETATM    6  N   UNL     1     -10.873   2.006 -34.834  1.00  0.00     0.012 NA
HETATM    7  N   UNL     1     -12.125   2.056 -34.387  1.00  0.00     0.033 NA
HETATM    8  N   UNL     1     -12.170   2.455 -33.064  1.00  0.00     0.030 NA
HETATM    9  C   UNL     1      -8.667   2.436 -33.769  1.00  0.00     0.198 C 
HETATM   10  C   UNL     1      -8.170   3.104 -32.488  1.00  0.00     0.062 C 
HETATM   11  H   UNL     1     -10.976   3.420 -30.823  1.00  0.00     0.184 HD
ENDROOT
BRANCH  10  12
HETATM   12  C   UNL     1      -6.736   3.487 -32.525  1.00  0.00     0.256 C 
HETATM   13  N   UNL     1      -6.484   4.616 -33.270  1.00  0.00    -0.322 N 
HETATM   14  H   UNL     1      -7.279   5.104 -33.662  1.00  0.00     0.169 HD
HETATM   15  O   UNL     1      -5.930   2.822 -31.886  1.00  0.00    -0.267 OA
BRANCH  13  16
HETATM   16  C   UNL     1      -5.213   5.160 -33.560  1.00  0.00     0.052 A 
HETATM   17  C   UNL     1      -4.522   4.991 -34.757  1.00  0.00     0.145 A 
HETATM   18  N   UNL     1      -3.312   5.549 -35.023  1.00  0.00    -0.271 NA
HETATM   19  C   UNL     1      -2.765   6.311 -34.056  1.00  0.00     0.116 A 
HETATM   20  C   UNL     1      -3.367   6.540 -32.831  1.00  0.00     0.021 A 
HETATM   21  C   UNL     1      -4.608   5.953 -32.583  1.00  0.00     0.032 A 
ENDBRANCH  13  16
ENDBRANCH  10  12
BRANCH   9  22
HETATM   22  C   UNL     1      -8.045   1.057 -33.965  1.00  0.00    -0.029 A 
HETATM   23  C   UNL     1      -7.417   0.745 -35.182  1.00  0.00     0.009 A 
HETATM   24  C   UNL     1      -6.836  -0.508 -35.385  1.00  0.00     0.001 A 
HETATM   25  C   UNL     1      -6.869  -1.465 -34.373  1.00  0.00     0.000 A 
HETATM   26  C   UNL     1      -7.474  -1.167 -33.153  1.00  0.00     0.001 A 
HETATM   27  C   UNL     1      -8.054   0.085 -32.947  1.00  0.00     0.009 A 
ENDBRANCH   9  22
TORSDOF 3
ENDMDL
MODEL 6
REMARK VINA RESULT:      -7.3      2.940      6.050
REMARK  3 active torsions:
REMARK  status: ('A' for Active; 'I' for Inactive)
REMARK    1  A    between atoms: C_9  and  C_10 
REMARK    2  A    between atoms: C_16  and  C_17 
REMARK       I    between atoms: C_17  and  N_18 
REMARK    3  A    between atoms: N_18  and  C_19 
ROOT
HETATM    1  C   UNL     1      -5.985   3.834 -29.576  1.00  0.00     0.070 C 
HETATM    2  C   UNL     1      -6.882   3.382 -30.703  1.00  0.00     0.037 C 
HETATM    3  N   UNL     1      -8.242   3.345 -30.408  1.00  0.00    -0.191 N 
HETATM    4  C   UNL     1      -9.190   3.213 -31.359  1.00  0.00     0.735 A 
HETATM    5  N   UNL     1      -8.816   2.944 -32.646  1.00  0.00    -0.092 N 
HETATM    6  N   UNL     1      -9.889   2.935 -33.451  1.00  0.00     0.012 NA
HETATM    7  N   UNL     1     -10.918   3.149 -32.636  1.00  0.00     0.033 NA
HETATM    8  N   UNL     1     -10.496   3.325 -31.330  1.00  0.00     0.030 NA
HETATM    9  C   UNL     1      -7.436   2.753 -33.084  1.00  0.00     0.198 C 
HETATM   10  C   UNL     1      -6.459   3.092 -31.959  1.00  0.00     0.062 C 
HETATM   11  H   UNL     1      -8.532   3.660 -29.484  1.00  0.00     0.184 HD
ENDROOT
BRANCH  10  12
HETATM   12  C   UNL     1      -5.045   3.194 -32.400  1.00  0.00     0.256 C 
HETATM   13  N   UNL     1      -4.692   4.448 -32.843  1.00  0.00    -0.322 N 
HETATM   14  H   UNL     1      -5.387   5.181 -32.772  1.00  0.00     0.169 HD
HETATM   15  O   UNL     1      -4.323   2.210 -32.301  1.00  0.00    -0.267 OA
BRANCH  13  16
HETATM   16  C   UNL     1      -3.451   4.818 -33.405  1.00  0.00     0.052 A 
HETATM   17  C   UNL     1      -3.218   5.040 -34.760  1.00  0.00     0.145 A 
HETATM   18  N   UNL     1      -2.021   5.424 -35.275  1.00  0.00    -0.271 NA
HETATM   19  C   UNL     1      -1.008   5.596 -34.402  1.00  0.00     0.116 A 
HETATM   20  C   UNL     1      -1.133   5.399 -33.038  1.00  0.00     0.021 A 
HETATM   21  C   UNL     1      -2.373   5.002 -32.537  1.00  0.00     0.032 A 
ENDBRANCH  13  16
ENDBRANCH  10  12
BRANCH   9  22
HETATM   22  C   UNL     1      -7.231   1.331 -33.600  1.00  0.00    -0.029 A 
HETATM   23  C   UNL     1      -7.162   0.266 -32.688  1.00  0.00     0.009 A 
HETATM   24  C   UNL     1      -6.980  -1.044 -33.134  1.00  0.00     0.001 A 
HETATM   25  C   UNL     1      -6.872  -1.308 -34.498  1.00  0.00     0.000 A 
HETATM   26  C   UNL     1      -6.954  -0.264 -35.418  1.00  0.00     0.001 A 
HETATM   27  C   UNL     1      -7.138   1.045 -34.974  1.00  0.00     0.009 A 
ENDBRANCH   9  22
TORSDOF 3
ENDMDL
MODEL 7
REMARK VINA RESULT:      -7.1     15.330     16.713
REMARK  3 active torsions:
REMARK  status: ('A' for Active; 'I' for Inactive)
REMARK    1  A    between atoms: C_9  and  C_10 
REMARK    2  A    between atoms: C_16  and  C_17 
REMARK       I    between atoms: C_17  and  N_18 
REMARK    3  A    between atoms: N_18  and  C_19 
ROOT
HETATM    1  C   UNL     1      -5.736 -13.799 -36.026  1.00  0.00     0.070 C 
HETATM    2  C   UNL     1      -6.369 -13.558 -37.374  1.00  0.00     0.037 C 
HETATM    3  N   UNL     1      -7.759 -13.635 -37.407  1.00  0.00    -0.191 N 
HETATM    4  C   UNL     1      -8.488 -13.202 -38.457  1.00  0.00     0.735 A 
HETATM    5  N   UNL     1      -7.850 -12.818 -39.603  1.00  0.00    -0.092 N 
HETATM    6  N   UNL     1      -8.735 -12.344 -40.492  1.00  0.00     0.012 NA
HETATM    7  N   UNL     1      -9.915 -12.489 -39.896  1.00  0.00     0.033 NA
HETATM    8  N   UNL     1      -9.775 -13.021 -38.627  1.00  0.00     0.030 NA
HETATM    9  C   UNL     1      -6.404 -12.868 -39.802  1.00  0.00     0.198 C 
HETATM   10  C   UNL     1      -5.689 -13.212 -38.496  1.00  0.00     0.062 C 
HETATM   11  H   UNL     1      -8.241 -13.804 -36.526  1.00  0.00     0.184 HD
ENDROOT
BRANCH  10  12
HETATM   12  C   UNL     1      -4.219 -13.010 -38.544  1.00  0.00     0.256 C 
HETATM   13  N   UNL     1      -3.517 -14.138 -38.902  1.00  0.00    -0.322 N 
HETATM   14  H   UNL     1      -4.051 -14.960 -39.154  1.00  0.00     0.169 HD
HETATM   15  O   UNL     1      -3.767 -11.896 -38.311  1.00  0.00    -0.267 OA
BRANCH  13  16
HETATM   16  C   UNL     1      -2.111 -14.271 -38.939  1.00  0.00     0.052 A 
HETATM   17  C   UNL     1      -1.297 -14.503 -37.834  1.00  0.00     0.145 A 
HETATM   18  N   UNL     1       0.052 -14.657 -37.900  1.00  0.00    -0.271 NA
HETATM   19  C   UNL     1       0.616 -14.578 -39.121  1.00  0.00     0.116 A 
HETATM   20  C   UNL     1      -0.102 -14.348 -40.282  1.00  0.00     0.021 A 
HETATM   21  C   UNL     1      -1.484 -14.191 -40.185  1.00  0.00     0.032 A 
ENDBRANCH  13  16
ENDBRANCH  10  12
BRANCH   9  22
HETATM   22  C   UNL     1      -6.052 -13.852 -40.914  1.00  0.00    -0.029 A 
HETATM   23  C   UNL     1      -6.548 -15.165 -40.862  1.00  0.00     0.009 A 
HETATM   24  C   UNL     1      -6.244 -16.083 -41.869  1.00  0.00     0.001 A 
HETATM   25  C   UNL     1      -5.447 -15.700 -42.946  1.00  0.00     0.000 A 
HETATM   26  C   UNL     1      -4.959 -14.397 -43.021  1.00  0.00     0.001 A 
HETATM   27  C   UNL     1      -5.262 -13.477 -42.017  1.00  0.00     0.009 A 
ENDBRANCH   9  22
TORSDOF 3
ENDMDL
MODEL 8
REMARK VINA RESULT:      -7.1      3.338      6.437
REMARK  3 active torsions:
REMARK  status: ('A' for Active; 'I' for Inactive)
REMARK    1  A    between atoms: C_9  and  C_10 
REMARK    2  A    between atoms: C_16  and  C_17 
REMARK       I    between atoms: C_17  and  N_18 
REMARK    3  A    between atoms: N_18  and  C_19 
ROOT
HETATM    1  C   UNL     1      -8.745   5.295 -31.010  1.00  0.00     0.070 C 
HETATM    2  C   UNL     1      -9.112   4.200 -31.981  1.00  0.00     0.037 C 
HETATM    3  N   UNL     1     -10.417   3.724 -31.883  1.00  0.00    -0.191 N 
HETATM    4  C   UNL     1     -10.980   2.940 -32.827  1.00  0.00     0.735 A 
HETATM    5  N   UNL     1     -10.206   2.454 -33.843  1.00  0.00    -0.092 N 
HETATM    6  N   UNL     1     -10.960   1.772 -34.717  1.00  0.00     0.012 NA
HETATM    7  N   UNL     1     -12.184   1.807 -34.198  1.00  0.00     0.033 NA
HETATM    8  N   UNL     1     -12.211   2.532 -33.021  1.00  0.00     0.030 NA
HETATM    9  C   UNL     1      -8.772   2.695 -33.979  1.00  0.00     0.198 C 
HETATM   10  C   UNL     1      -8.296   3.723 -32.955  1.00  0.00     0.062 C 
HETATM   11  H   UNL     1     -11.031   4.170 -31.204  1.00  0.00     0.184 HD
ENDROOT
BRANCH  10  12
HETATM   12  C   UNL     1      -6.923   4.231 -33.204  1.00  0.00     0.256 C 
HETATM   13  N   UNL     1      -6.022   3.898 -32.218  1.00  0.00    -0.322 N 
HETATM   14  H   UNL     1      -6.351   3.304 -31.467  1.00  0.00     0.169 HD
HETATM   15  O   UNL     1      -6.698   4.843 -34.241  1.00  0.00    -0.267 OA
BRANCH  13  16
HETATM   16  C   UNL     1      -4.677   4.318 -32.138  1.00  0.00     0.052 A 
HETATM   17  C   UNL     1      -4.196   5.315 -31.292  1.00  0.00     0.145 A 
HETATM   18  N   UNL     1      -2.890   5.681 -31.213  1.00  0.00    -0.271 NA
HETATM   19  C   UNL     1      -2.022   5.027 -32.009  1.00  0.00     0.116 A 
HETATM   20  C   UNL     1      -2.397   4.024 -32.886  1.00  0.00     0.021 A 
HETATM   21  C   UNL     1      -3.744   3.670 -32.951  1.00  0.00     0.032 A 
ENDBRANCH  13  16
ENDBRANCH  10  12
BRANCH   9  22
HETATM   22  C   UNL     1      -7.997   1.385 -33.867  1.00  0.00    -0.029 A 
HETATM   23  C   UNL     1      -7.484   0.781 -35.026  1.00  0.00     0.009 A 
HETATM   24  C   UNL     1      -6.768  -0.415 -34.950  1.00  0.00     0.001 A 
HETATM   25  C   UNL     1      -6.548  -1.020 -33.714  1.00  0.00     0.000 A 
HETATM   26  C   UNL     1      -7.038  -0.426 -32.552  1.00  0.00     0.001 A 
HETATM   27  C   UNL     1      -7.752   0.770 -32.625  1.00  0.00     0.009 A 
ENDBRANCH   9  22
TORSDOF 3
ENDMDL
MODEL 9
REMARK VINA RESULT:      -7.0     14.960     16.671
REMARK  3 active torsions:
REMARK  status: ('A' for Active; 'I' for Inactive)
REMARK    1  A    between atoms: C_9  and  C_10 
REMARK    2  A    between atoms: C_16  and  C_17 
REMARK       I    between atoms: C_17  and  N_18 
REMARK    3  A    between atoms: N_18  and  C_19 
ROOT
HETATM    1  C   UNL     1      -2.564 -13.194 -38.807  1.00  0.00     0.070 C 
HETATM    2  C   UNL     1      -3.674 -13.687 -39.703  1.00  0.00     0.037 C 
HETATM    3  N   UNL     1      -3.473 -13.496 -41.068  1.00  0.00    -0.191 N 
HETATM    4  C   UNL     1      -4.234 -14.096 -42.007  1.00  0.00     0.735 A 
HETATM    5  N   UNL     1      -5.346 -14.794 -41.623  1.00  0.00    -0.092 N 
HETATM    6  N   UNL     1      -5.915 -15.382 -42.686  1.00  0.00     0.012 NA
HETATM    7  N   UNL     1      -5.171 -14.996 -43.718  1.00  0.00     0.033 NA
HETATM    8  N   UNL     1      -4.120 -14.196 -43.309  1.00  0.00     0.030 NA
HETATM    9  C   UNL     1      -5.808 -14.921 -40.244  1.00  0.00     0.198 C 
HETATM   10  C   UNL     1      -4.779 -14.346 -39.273  1.00  0.00     0.062 C 
HETATM   11  H   UNL     1      -2.590 -13.084 -41.360  1.00  0.00     0.184 HD
ENDROOT
BRANCH  10  12
HETATM   12  C   UNL     1      -5.039 -14.684 -37.850  1.00  0.00     0.256 C 
HETATM   13  N   UNL     1      -5.677 -13.685 -37.152  1.00  0.00    -0.322 N 
HETATM   14  H   UNL     1      -5.960 -12.861 -37.668  1.00  0.00     0.169 HD
HETATM   15  O   UNL     1      -4.718 -15.791 -37.438  1.00  0.00    -0.267 OA
BRANCH  13  16
HETATM   16  C   UNL     1      -5.969 -13.685 -35.770  1.00  0.00     0.052 A 
HETATM   17  C   UNL     1      -7.149 -14.152 -35.198  1.00  0.00     0.145 A 
HETATM   18  N   UNL     1      -7.394 -14.168 -33.862  1.00  0.00    -0.271 NA
HETATM   19  C   UNL     1      -6.421 -13.698 -33.057  1.00  0.00     0.116 A 
HETATM   20  C   UNL     1      -5.213 -13.209 -33.523  1.00  0.00     0.021 A 
HETATM   21  C   UNL     1      -4.989 -13.201 -34.900  1.00  0.00     0.032 A 
ENDBRANCH  13  16
ENDBRANCH  10  12
BRANCH   9  22
HETATM   22  C   UNL     1      -7.174 -14.261 -40.076  1.00  0.00    -0.029 A 
HETATM   23  C   UNL     1      -7.341 -12.912 -40.429  1.00  0.00     0.009 A 
HETATM   24  C   UNL     1      -8.581 -12.286 -40.289  1.00  0.00     0.001 A 
HETATM   25  C   UNL     1      -9.673 -13.001 -39.801  1.00  0.00     0.000 A 
HETATM   26  C   UNL     1      -9.528 -14.345 -39.460  1.00  0.00     0.001 A 
HETATM   27  C   UNL     1      -8.291 -14.973 -39.601  1.00  0.00     0.009 A 
ENDBRANCH   9  22
TORSDOF 3
ENDMDL
MODEL 10
REMARK VINA RESULT:      -6.8     14.964     16.853
REMARK  3 active torsions:
REMARK  status: ('A' for Active; 'I' for Inactive)
REMARK    1  A    between atoms: C_9  and  C_10 
REMARK    2  A    between atoms: C_16  and  C_17 
REMARK       I    between atoms: C_17  and  N_18 
REMARK    3  A    between atoms: N_18  and  C_19 
ROOT
HETATM    1  C   UNL     1      -3.919 -16.880 -37.286  1.00  0.00     0.070 C 
HETATM    2  C   UNL     1      -4.977 -15.879 -36.893  1.00  0.00     0.037 C 
HETATM    3  N   UNL     1      -5.564 -16.085 -35.647  1.00  0.00    -0.191 N 
HETATM    4  C   UNL     1      -6.331 -15.154 -35.041  1.00  0.00     0.735 A 
HETATM    5  N   UNL     1      -6.686 -14.027 -35.728  1.00  0.00    -0.092 N 
HETATM    6  N   UNL     1      -7.372 -13.193 -34.931  1.00  0.00     0.012 NA
HETATM    7  N   UNL     1      -7.472 -13.844 -33.776  1.00  0.00     0.033 NA
HETATM    8  N   UNL     1      -6.827 -15.067 -33.830  1.00  0.00     0.030 NA
HETATM    9  C   UNL     1      -6.318 -13.752 -37.114  1.00  0.00     0.198 C 
HETATM   10  C   UNL     1      -5.321 -14.790 -37.625  1.00  0.00     0.062 C 
HETATM   11  H   UNL     1      -5.215 -16.857 -35.084  1.00  0.00     0.184 HD
ENDROOT
BRANCH  10  12
HETATM   12  C   UNL     1      -4.687 -14.429 -38.919  1.00  0.00     0.256 C 
HETATM   13  N   UNL     1      -5.099 -15.211 -39.974  1.00  0.00    -0.322 N 
HETATM   14  H   UNL     1      -5.820 -15.897 -39.793  1.00  0.00     0.169 HD
HETATM   15  O   UNL     1      -3.913 -13.482 -38.953  1.00  0.00    -0.267 OA
BRANCH  13  16
HETATM   16  C   UNL     1      -4.602 -15.162 -41.295  1.00  0.00     0.052 A 
HETATM   17  C   UNL     1      -5.007 -14.257 -42.272  1.00  0.00     0.145 A 
HETATM   18  N   UNL     1      -4.492 -14.212 -43.529  1.00  0.00    -0.271 NA
HETATM   19  C   UNL     1      -3.530 -15.106 -43.827  1.00  0.00     0.116 A 
HETATM   20  C   UNL     1      -3.057 -16.049 -42.931  1.00  0.00     0.021 A 
HETATM   21  C   UNL     1      -3.606 -16.075 -41.648  1.00  0.00     0.032 A 
ENDBRANCH  13  16
ENDBRANCH  10  12
BRANCH   9  22
HETATM   22  C   UNL     1      -7.564 -13.684 -37.993  1.00  0.00    -0.029 A 
HETATM   23  C   UNL     1      -8.338 -14.840 -38.191  1.00  0.00     0.009 A 
HETATM   24  C   UNL     1      -9.483 -14.803 -38.987  1.00  0.00     0.001 A 
HETATM   25  C   UNL     1      -9.877 -13.611 -39.591  1.00  0.00     0.000 A 
HETATM   26  C   UNL     1      -9.129 -12.451 -39.393  1.00  0.00     0.001 A 
HETATM   27  C   UNL     1      -7.985 -12.485 -38.596  1.00  0.00     0.009 A 
ENDBRANCH   9  22
TORSDOF 3
ENDMDL
