MODEL 1
REMARK VINA RESULT:      -9.1      0.000      0.000
REMARK  6 active torsions:
REMARK  status: ('A' for Active; 'I' for Inactive)
REMARK       I    between atoms: N_2  and  C_3 
REMARK    1  A    between atoms: N_2  and  C_15 
REMARK       I    between atoms: C_3  and  N_4 
REMARK    2  A    between atoms: N_4  and  C_5 
REMARK    3  A    between atoms: C_15  and  C_16 
REMARK    4  A    between atoms: C_16  and  C_17 
REMARK    5  A    between atoms: C_17  and  C_18 
REMARK    6  A    between atoms: C_22  and  C_23 
ROOT
HETATM    1  C   UNL     1      -8.585   2.187 -31.699  1.00  0.00     0.127 C 
ENDROOT
BRANCH   1   2
HETATM    2  N   UNL     1      -8.108   2.298 -33.082  1.00  0.00    -0.338 N 
HETATM    3  C   UNL     1      -8.052   3.651 -33.626  1.00  0.00     0.154 C 
HETATM    4  C   UNL     1      -7.315   1.348 -33.724  1.00  0.00     0.322 C 
HETATM    5  N   UNL     1      -7.469   0.062 -33.268  1.00  0.00    -0.309 N 
HETATM    6  O   UNL     1      -6.500   1.692 -34.575  1.00  0.00    -0.247 OA
HETATM    7  H   UNL     1      -8.319  -0.130 -32.764  1.00  0.00     0.170 HD
BRANCH   5   8
HETATM    8  C   UNL     1      -6.665  -1.063 -33.560  1.00  0.00     0.036 A 
HETATM    9  C   UNL     1      -7.119  -2.187 -34.257  1.00  0.00     0.039 A 
HETATM   10  C   UNL     1      -6.232  -3.225 -34.500  1.00  0.00    -0.024 A 
HETATM   11  C   UNL     1      -4.911  -3.159 -34.092  1.00  0.00    -0.026 A 
HETATM   12  C   UNL     1      -6.467  -4.509 -35.206  1.00  0.00     0.207 C 
HETATM   13  C   UNL     1      -4.203  -4.388 -34.529  1.00  0.00     0.207 C 
HETATM   14  C   UNL     1      -4.430  -2.055 -33.415  1.00  0.00     0.012 A 
HETATM   15  O   UNL     1      -5.253  -5.270 -34.990  1.00  0.00    -0.382 OA
HETATM   16  C   UNL     1      -5.319  -1.009 -33.142  1.00  0.00     0.030 A 
ENDBRANCH   5   8
ENDBRANCH   1   2
BRANCH   1  17
HETATM   17  C   UNL     1      -7.660   2.853 -30.667  1.00  0.00     0.026 C 
BRANCH  17  18
HETATM   18  C   UNL     1      -6.448   2.000 -30.277  1.00  0.00     0.060 C 
BRANCH  18  19
HETATM   19  C   UNL     1      -5.175   2.432 -30.918  1.00  0.00     0.030 A 
HETATM   20  N   UNL     1      -4.022   1.694 -30.912  1.00  0.00    -0.282 N 
HETATM   21  H   UNL     1      -3.857   0.769 -30.520  1.00  0.00     0.189 HD
HETATM   22  N   UNL     1      -2.989   2.311 -31.505  1.00  0.00    -0.174 NA
HETATM   23  C   UNL     1      -3.466   3.504 -31.890  1.00  0.00     0.089 A 
HETATM   24  C   UNL     1      -4.844   3.607 -31.558  1.00  0.00     0.060 A 
BRANCH  23  25
HETATM   25  C   UNL     1      -2.604   4.504 -32.535  1.00  0.00    -0.003 A 
HETATM   26  C   UNL     1      -1.662   5.235 -31.801  1.00  0.00     0.056 A 
HETATM   27  C   UNL     1      -0.843   6.160 -32.443  1.00  0.00     0.117 A 
HETATM   28  F   UNL     1       0.057   6.848 -31.726  1.00  0.00    -0.206 F 
HETATM   29  C   UNL     1      -0.939   6.385 -33.810  1.00  0.00     0.042 A 
HETATM   30  C   UNL     1      -1.871   5.669 -34.554  1.00  0.00     0.004 A 
HETATM   31  C   UNL     1      -2.698   4.736 -33.919  1.00  0.00     0.014 A 
ENDBRANCH  23  25
ENDBRANCH  18  19
ENDBRANCH  17  18
ENDBRANCH   1  17
TORSDOF 6
ENDMDL
MODEL 2
REMARK VINA RESULT:      -9.1      3.960      6.987
REMARK  6 active torsions:
REMARK  status: ('A' for Active; 'I' for Inactive)
REMARK       I    between atoms: N_2  and  C_3 
REMARK    1  A    between atoms: N_2  and  C_15 
REMARK       I    between atoms: C_3  and  N_4 
REMARK    2  A    between atoms: N_4  and  C_5 
REMARK    3  A    between atoms: C_15  and  C_16 
REMARK    4  A    between atoms: C_16  and  C_17 
REMARK    5  A    between atoms: C_17  and  C_18 
REMARK    6  A    between atoms: C_22  and  C_23 
ROOT
HETATM    1  C   UNL     1      -4.446   3.086 -32.652  1.00  0.00     0.127 C 
ENDROOT
BRANCH   1   2
HETATM    2  N   UNL     1      -4.708   2.106 -31.591  1.00  0.00    -0.338 N 
HETATM    3  C   UNL     1      -5.019   2.663 -30.278  1.00  0.00     0.154 C 
HETATM    4  C   UNL     1      -5.120   0.793 -31.812  1.00  0.00     0.322 C 
HETATM    5  N   UNL     1      -4.718   0.253 -33.009  1.00  0.00    -0.309 N 
HETATM    6  O   UNL     1      -5.850   0.226 -31.003  1.00  0.00    -0.247 OA
HETATM    7  H   UNL     1      -3.939   0.705 -33.458  1.00  0.00     0.170 HD
BRANCH   5   8
HETATM    8  C   UNL     1      -5.153  -0.953 -33.605  1.00  0.00     0.036 A 
HETATM    9  C   UNL     1      -4.458  -2.163 -33.514  1.00  0.00     0.039 A 
HETATM   10  C   UNL     1      -4.991  -3.287 -34.127  1.00  0.00    -0.024 A 
HETATM   11  C   UNL     1      -6.200  -3.240 -34.799  1.00  0.00    -0.026 A 
HETATM   12  C   UNL     1      -4.452  -4.669 -34.177  1.00  0.00     0.207 C 
HETATM   13  C   UNL     1      -6.529  -4.595 -35.307  1.00  0.00     0.207 C 
HETATM   14  C   UNL     1      -6.916  -2.062 -34.894  1.00  0.00     0.012 A 
HETATM   15  O   UNL     1      -5.321  -5.365 -35.103  1.00  0.00    -0.382 OA
HETATM   16  C   UNL     1      -6.379  -0.914 -34.300  1.00  0.00     0.030 A 
ENDBRANCH   5   8
ENDBRANCH   1   2
BRANCH   1  17
HETATM   17  C   UNL     1      -5.703   3.819 -33.147  1.00  0.00     0.026 C 
BRANCH  17  18
HETATM   18  C   UNL     1      -6.502   3.040 -34.198  1.00  0.00     0.060 C 
BRANCH  18  19
HETATM   19  C   UNL     1      -7.846   2.601 -33.732  1.00  0.00     0.030 A 
HETATM   20  N   UNL     1      -8.106   2.126 -32.474  1.00  0.00    -0.282 N 
HETATM   21  H   UNL     1      -7.472   2.026 -31.685  1.00  0.00     0.189 HD
HETATM   22  N   UNL     1      -9.380   1.741 -32.302  1.00  0.00    -0.174 NA
HETATM   23  C   UNL     1      -9.973   1.941 -33.488  1.00  0.00     0.089 A 
HETATM   24  C   UNL     1      -9.044   2.504 -34.406  1.00  0.00     0.060 A 
BRANCH  23  25
HETATM   25  C   UNL     1     -11.378   1.579 -33.716  1.00  0.00    -0.003 A 
HETATM   26  C   UNL     1     -11.845   0.283 -33.467  1.00  0.00     0.056 A 
HETATM   27  C   UNL     1     -13.188  -0.026 -33.670  1.00  0.00     0.117 A 
HETATM   28  F   UNL     1     -13.619  -1.270 -33.422  1.00  0.00    -0.206 F 
HETATM   29  C   UNL     1     -14.089   0.929 -34.124  1.00  0.00     0.042 A 
HETATM   30  C   UNL     1     -13.641   2.221 -34.379  1.00  0.00     0.004 A 
HETATM   31  C   UNL     1     -12.294   2.542 -34.177  1.00  0.00     0.014 A 
ENDBRANCH  23  25
ENDBRANCH  18  19
ENDBRANCH  17  18
ENDBRANCH   1  17
TORSDOF 6
ENDMDL
MODEL 3
REMARK VINA RESULT:      -9.0      2.970      4.384
REMARK  6 active torsions:
REMARK  status: ('A' for Active; 'I' for Inactive)
REMARK       I    between atoms: N_2  and  C_3 
REMARK    1  A    between atoms: N_2  and  C_15 
REMARK       I    between atoms: C_3  and  N_4 
REMARK    2  A    between atoms: N_4  and  C_5 
REMARK    3  A    between atoms: C_15  and  C_16 
REMARK    4  A    between atoms: C_16  and  C_17 
REMARK    5  A    between atoms: C_17  and  C_18 
REMARK    6  A    between atoms: C_22  and  C_23 
ROOT
HETATM    1  C   UNL     1      -4.458   3.131 -32.555  1.00  0.00     0.127 C 
ENDROOT
BRANCH   1   2
HETATM    2  N   UNL     1      -4.833   2.166 -31.515  1.00  0.00    -0.338 N 
HETATM    3  C   UNL     1      -5.236   2.739 -30.235  1.00  0.00     0.154 C 
HETATM    4  C   UNL     1      -5.261   0.862 -31.763  1.00  0.00     0.322 C 
HETATM    5  N   UNL     1      -4.777   0.304 -32.921  1.00  0.00    -0.309 N 
HETATM    6  O   UNL     1      -6.070   0.321 -31.015  1.00  0.00    -0.247 OA
HETATM    7  H   UNL     1      -3.951   0.733 -33.306  1.00  0.00     0.170 HD
BRANCH   5   8
HETATM    8  C   UNL     1      -5.192  -0.893 -33.545  1.00  0.00     0.036 A 
HETATM    9  C   UNL     1      -4.485  -2.098 -33.472  1.00  0.00     0.039 A 
HETATM   10  C   UNL     1      -5.001  -3.215 -34.113  1.00  0.00    -0.024 A 
HETATM   11  C   UNL     1      -6.205  -3.167 -34.795  1.00  0.00    -0.026 A 
HETATM   12  C   UNL     1      -4.447  -4.589 -34.186  1.00  0.00     0.207 C 
HETATM   13  C   UNL     1      -6.514  -4.515 -35.334  1.00  0.00     0.207 C 
HETATM   14  C   UNL     1      -6.932  -1.995 -34.872  1.00  0.00     0.012 A 
HETATM   15  O   UNL     1      -5.300  -5.275 -35.134  1.00  0.00    -0.382 OA
HETATM   16  C   UNL     1      -6.413  -0.853 -34.250  1.00  0.00     0.030 A 
ENDBRANCH   5   8
ENDBRANCH   1   2
BRANCH   1  17
HETATM   17  C   UNL     1      -2.943   3.367 -32.666  1.00  0.00     0.026 C 
BRANCH  17  18
HETATM   18  C   UNL     1      -2.568   4.743 -33.229  1.00  0.00     0.060 C 
BRANCH  18  19
HETATM   19  C   UNL     1      -1.749   5.572 -32.303  1.00  0.00     0.030 A 
HETATM   20  N   UNL     1      -0.852   6.522 -32.711  1.00  0.00    -0.282 N 
HETATM   21  H   UNL     1      -0.628   6.825 -33.656  1.00  0.00     0.189 HD
HETATM   22  N   UNL     1      -0.191   7.103 -31.698  1.00  0.00    -0.174 NA
HETATM   23  C   UNL     1      -0.646   6.501 -30.589  1.00  0.00     0.089 A 
HETATM   24  C   UNL     1      -1.644   5.548 -30.929  1.00  0.00     0.060 A 
BRANCH  23  25
HETATM   25  C   UNL     1      -0.111   6.830 -29.262  1.00  0.00    -0.003 A 
HETATM   26  C   UNL     1       0.855   7.831 -29.093  1.00  0.00     0.056 A 
HETATM   27  C   UNL     1       1.327   8.137 -27.820  1.00  0.00     0.117 A 
HETATM   28  F   UNL     1       2.247   9.101 -27.676  1.00  0.00    -0.206 F 
HETATM   29  C   UNL     1       0.864   7.465 -26.695  1.00  0.00     0.042 A 
HETATM   30  C   UNL     1      -0.093   6.467 -26.845  1.00  0.00     0.004 A 
HETATM   31  C   UNL     1      -0.575   6.152 -28.120  1.00  0.00     0.014 A 
ENDBRANCH  23  25
ENDBRANCH  18  19
ENDBRANCH  17  18
ENDBRANCH   1  17
TORSDOF 6
ENDMDL
MODEL 4
REMARK VINA RESULT:      -9.0      4.878     10.356
REMARK  6 active torsions:
REMARK  status: ('A' for Active; 'I' for Inactive)
REMARK       I    between atoms: N_2  and  C_3 
REMARK    1  A    between atoms: N_2  and  C_15 
REMARK       I    between atoms: C_3  and  N_4 
REMARK    2  A    between atoms: N_4  and  C_5 
REMARK    3  A    between atoms: C_15  and  C_16 
REMARK    4  A    between atoms: C_16  and  C_17 
REMARK    5  A    between atoms: C_17  and  C_18 
REMARK    6  A    between atoms: C_22  and  C_23 
ROOT
HETATM    1  C   UNL     1      -2.976   4.131 -31.532  1.00  0.00     0.127 C 
ENDROOT
BRANCH   1   2
HETATM    2  N   UNL     1      -1.794   4.797 -32.089  1.00  0.00    -0.338 N 
HETATM    3  C   UNL     1      -1.661   4.743 -33.542  1.00  0.00     0.154 C 
HETATM    4  C   UNL     1      -1.080   5.808 -31.447  1.00  0.00     0.322 C 
HETATM    5  N   UNL     1      -1.128   5.771 -30.076  1.00  0.00    -0.309 N 
HETATM    6  O   UNL     1      -0.527   6.689 -32.100  1.00  0.00    -0.247 OA
HETATM    7  H   UNL     1      -1.389   4.888 -29.667  1.00  0.00     0.170 HD
BRANCH   5   8
HETATM    8  C   UNL     1      -0.698   6.763 -29.166  1.00  0.00     0.036 A 
HETATM    9  C   UNL     1       0.366   6.597 -28.275  1.00  0.00     0.039 A 
HETATM   10  C   UNL     1       0.709   7.650 -27.440  1.00  0.00    -0.024 A 
HETATM   11  C   UNL     1       0.038   8.860 -27.488  1.00  0.00    -0.026 A 
HETATM   12  C   UNL     1       1.783   7.722 -26.418  1.00  0.00     0.207 C 
HETATM   13  C   UNL     1       0.653   9.798 -26.516  1.00  0.00     0.207 C 
HETATM   14  C   UNL     1      -1.008   9.058 -28.368  1.00  0.00     0.012 A 
HETATM   15  O   UNL     1       1.550   8.976 -25.733  1.00  0.00    -0.382 OA
HETATM   16  C   UNL     1      -1.381   7.997 -29.202  1.00  0.00     0.030 A 
ENDBRANCH   5   8
ENDBRANCH   1   2
BRANCH   1  17
HETATM   17  C   UNL     1      -3.385   2.856 -32.288  1.00  0.00     0.026 C 
BRANCH  17  18
HETATM   18  C   UNL     1      -4.892   2.576 -32.264  1.00  0.00     0.060 C 
BRANCH  18  19
HETATM   19  C   UNL     1      -5.294   1.367 -33.035  1.00  0.00     0.030 A 
HETATM   20  N   UNL     1      -6.349   1.327 -33.907  1.00  0.00    -0.282 N 
HETATM   21  H   UNL     1      -6.979   2.076 -34.183  1.00  0.00     0.189 HD
HETATM   22  N   UNL     1      -6.552   0.114 -34.443  1.00  0.00    -0.174 NA
HETATM   23  C   UNL     1      -5.622  -0.677 -33.889  1.00  0.00     0.089 A 
HETATM   24  C   UNL     1      -4.797   0.082 -33.014  1.00  0.00     0.060 A 
BRANCH  23  25
HETATM   25  C   UNL     1      -5.558  -2.114 -34.186  1.00  0.00    -0.003 A 
HETATM   26  C   UNL     1      -4.382  -2.848 -33.986  1.00  0.00     0.056 A 
HETATM   27  C   UNL     1      -4.357  -4.213 -34.255  1.00  0.00     0.117 A 
HETATM   28  F   UNL     1      -3.225  -4.901 -34.053  1.00  0.00    -0.206 F 
HETATM   29  C   UNL     1      -5.482  -4.878 -34.728  1.00  0.00     0.042 A 
HETATM   30  C   UNL     1      -6.658  -4.164 -34.935  1.00  0.00     0.004 A 
HETATM   31  C   UNL     1      -6.694  -2.791 -34.666  1.00  0.00     0.014 A 
ENDBRANCH  23  25
ENDBRANCH  18  19
ENDBRANCH  17  18
ENDBRANCH   1  17
TORSDOF 6
ENDMDL
MODEL 5
REMARK VINA RESULT:      -8.9      2.255      3.197
REMARK  6 active torsions:
REMARK  status: ('A' for Active; 'I' for Inactive)
REMARK       I    between atoms: N_2  and  C_3 
REMARK    1  A    between atoms: N_2  and  C_15 
REMARK       I    between atoms: C_3  and  N_4 
REMARK    2  A    between atoms: N_4  and  C_5 
REMARK    3  A    between atoms: C_15  and  C_16 
REMARK    4  A    between atoms: C_16  and  C_17 
REMARK    5  A    between atoms: C_17  and  C_18 
REMARK    6  A    between atoms: C_22  and  C_23 
ROOT
HETATM    1  C   UNL     1      -6.547   3.217 -33.912  1.00  0.00     0.127 C 
ENDROOT
BRANCH   1   2
HETATM    2  N   UNL     1      -6.502   2.528 -32.617  1.00  0.00    -0.338 N 
HETATM    3  C   UNL     1      -7.179   3.206 -31.516  1.00  0.00     0.154 C 
HETATM    4  C   UNL     1      -6.291   1.159 -32.457  1.00  0.00     0.322 C 
HETATM    5  N   UNL     1      -5.555   0.566 -33.451  1.00  0.00    -0.309 N 
HETATM    6  O   UNL     1      -6.809   0.557 -31.520  1.00  0.00    -0.247 OA
HETATM    7  H   UNL     1      -4.989   1.183 -34.011  1.00  0.00     0.170 HD
BRANCH   5   8
HETATM    8  C   UNL     1      -5.363  -0.815 -33.681  1.00  0.00     0.036 A 
HETATM    9  C   UNL     1      -6.235  -1.610 -34.432  1.00  0.00     0.039 A 
HETATM   10  C   UNL     1      -5.934  -2.953 -34.604  1.00  0.00    -0.024 A 
HETATM   11  C   UNL     1      -4.785  -3.511 -34.072  1.00  0.00    -0.026 A 
HETATM   12  C   UNL     1      -6.690  -3.992 -35.346  1.00  0.00     0.207 C 
HETATM   13  C   UNL     1      -4.715  -4.943 -34.457  1.00  0.00     0.207 C 
HETATM   14  C   UNL     1      -3.898  -2.748 -33.337  1.00  0.00     0.012 A 
HETATM   15  O   UNL     1      -6.012  -5.232 -35.027  1.00  0.00    -0.382 OA
HETATM   16  C   UNL     1      -4.200  -1.396 -33.135  1.00  0.00     0.030 A 
ENDBRANCH   5   8
ENDBRANCH   1   2
BRANCH   1  17
HETATM   17  C   UNL     1      -5.993   4.651 -33.872  1.00  0.00     0.026 C 
BRANCH  17  18
HETATM   18  C   UNL     1      -4.736   4.855 -34.725  1.00  0.00     0.060 C 
BRANCH  18  19
HETATM   19  C   UNL     1      -3.595   5.460 -33.984  1.00  0.00     0.030 A 
HETATM   20  N   UNL     1      -2.605   6.203 -34.570  1.00  0.00    -0.282 N 
HETATM   21  H   UNL     1      -2.503   6.477 -35.545  1.00  0.00     0.189 HD
HETATM   22  N   UNL     1      -1.654   6.597 -33.710  1.00  0.00    -0.174 NA
HETATM   23  C   UNL     1      -2.011   6.077 -32.526  1.00  0.00     0.089 A 
HETATM   24  C   UNL     1      -3.240   5.374 -32.656  1.00  0.00     0.060 A 
BRANCH  23  25
HETATM   25  C   UNL     1      -1.175   6.244 -31.330  1.00  0.00    -0.003 A 
HETATM   26  C   UNL     1      -0.359   5.207 -30.862  1.00  0.00     0.056 A 
HETATM   27  C   UNL     1       0.441   5.401 -29.738  1.00  0.00     0.117 A 
HETATM   28  F   UNL     1       1.219   4.399 -29.307  1.00  0.00    -0.206 F 
HETATM   29  C   UNL     1       0.448   6.611 -29.056  1.00  0.00     0.042 A 
HETATM   30  C   UNL     1      -0.359   7.651 -29.506  1.00  0.00     0.004 A 
HETATM   31  C   UNL     1      -1.165   7.467 -30.635  1.00  0.00     0.014 A 
ENDBRANCH  23  25
ENDBRANCH  18  19
ENDBRANCH  17  18
ENDBRANCH   1  17
TORSDOF 6
ENDMDL
MODEL 6
REMARK VINA RESULT:      -8.3      3.468      6.320
REMARK  6 active torsions:
REMARK  status: ('A' for Active; 'I' for Inactive)
REMARK       I    between atoms: N_2  and  C_3 
REMARK    1  A    between atoms: N_2  and  C_15 
REMARK       I    between atoms: C_3  and  N_4 
REMARK    2  A    between atoms: N_4  and  C_5 
REMARK    3  A    between atoms: C_15  and  C_16 
REMARK    4  A    between atoms: C_16  and  C_17 
REMARK    5  A    between atoms: C_17  and  C_18 
REMARK    6  A    between atoms: C_22  and  C_23 
ROOT
HETATM    1  C   UNL     1      -3.958   2.722 -32.282  1.00  0.00     0.127 C 
ENDROOT
BRANCH   1   2
HETATM    2  N   UNL     1      -4.608   1.894 -31.261  1.00  0.00    -0.338 N 
HETATM    3  C   UNL     1      -5.454   2.609 -30.310  1.00  0.00     0.154 C 
HETATM    4  C   UNL     1      -4.850   0.527 -31.387  1.00  0.00     0.322 C 
HETATM    5  N   UNL     1      -3.971  -0.145 -32.200  1.00  0.00    -0.309 N 
HETATM    6  O   UNL     1      -5.833   0.018 -30.855  1.00  0.00    -0.247 OA
HETATM    7  H   UNL     1      -3.089   0.312 -32.370  1.00  0.00     0.170 HD
BRANCH   5   8
HETATM    8  C   UNL     1      -4.081  -1.465 -32.692  1.00  0.00     0.036 A 
HETATM    9  C   UNL     1      -4.926  -1.839 -33.741  1.00  0.00     0.039 A 
HETATM   10  C   UNL     1      -4.937  -3.165 -34.149  1.00  0.00    -0.024 A 
HETATM   11  C   UNL     1      -4.115  -4.111 -33.561  1.00  0.00    -0.026 A 
HETATM   12  C   UNL     1      -5.737  -3.805 -35.223  1.00  0.00     0.207 C 
HETATM   13  C   UNL     1      -4.317  -5.418 -34.233  1.00  0.00     0.207 C 
HETATM   14  C   UNL     1      -3.259  -3.767 -32.532  1.00  0.00     0.012 A 
HETATM   15  O   UNL     1      -5.480  -5.223 -35.071  1.00  0.00    -0.382 OA
HETATM   16  C   UNL     1      -3.254  -2.438 -32.093  1.00  0.00     0.030 A 
ENDBRANCH   5   8
ENDBRANCH   1   2
BRANCH   1  17
HETATM   17  C   UNL     1      -4.677   4.054 -32.553  1.00  0.00     0.026 C 
BRANCH  17  18
HETATM   18  C   UNL     1      -5.415   4.100 -33.895  1.00  0.00     0.060 C 
BRANCH  18  19
HETATM   19  C   UNL     1      -6.590   3.188 -33.970  1.00  0.00     0.030 A 
HETATM   20  N   UNL     1      -6.514   1.861 -34.300  1.00  0.00    -0.282 N 
HETATM   21  H   UNL     1      -5.691   1.301 -34.509  1.00  0.00     0.189 HD
HETATM   22  N   UNL     1      -7.710   1.256 -34.355  1.00  0.00    -0.174 NA
HETATM   23  C   UNL     1      -8.605   2.216 -34.079  1.00  0.00     0.089 A 
HETATM   24  C   UNL     1      -7.935   3.440 -33.808  1.00  0.00     0.060 A 
BRANCH  23  25
HETATM   25  C   UNL     1     -10.049   1.949 -34.100  1.00  0.00    -0.003 A 
HETATM   26  C   UNL     1     -10.942   2.826 -34.729  1.00  0.00     0.056 A 
HETATM   27  C   UNL     1     -12.303   2.537 -34.753  1.00  0.00     0.117 A 
HETATM   28  F   UNL     1     -13.143   3.384 -35.363  1.00  0.00    -0.206 F 
HETATM   29  C   UNL     1     -12.809   1.388 -34.158  1.00  0.00     0.042 A 
HETATM   30  C   UNL     1     -11.937   0.507 -33.527  1.00  0.00     0.004 A 
HETATM   31  C   UNL     1     -10.567   0.788 -33.498  1.00  0.00     0.014 A 
ENDBRANCH  23  25
ENDBRANCH  18  19
ENDBRANCH  17  18
ENDBRANCH   1  17
TORSDOF 6
ENDMDL
MODEL 7
REMARK VINA RESULT:      -8.3      1.586      1.784
REMARK  6 active torsions:
REMARK  status: ('A' for Active; 'I' for Inactive)
REMARK       I    between atoms: N_2  and  C_3 
REMARK    1  A    between atoms: N_2  and  C_15 
REMARK       I    between atoms: C_3  and  N_4 
REMARK    2  A    between atoms: N_4  and  C_5 
REMARK    3  A    between atoms: C_15  and  C_16 
REMARK    4  A    between atoms: C_16  and  C_17 
REMARK    5  A    between atoms: C_17  and  C_18 
REMARK    6  A    between atoms: C_22  and  C_23 
ROOT
HETATM    1  C   UNL     1      -8.181   2.415 -31.679  1.00  0.00     0.127 C 
ENDROOT
BRANCH   1   2
HETATM    2  N   UNL     1      -7.842   2.441 -33.107  1.00  0.00    -0.338 N 
HETATM    3  C   UNL     1      -7.791   3.763 -33.722  1.00  0.00     0.154 C 
HETATM    4  C   UNL     1      -7.154   1.428 -33.775  1.00  0.00     0.322 C 
HETATM    5  N   UNL     1      -7.309   0.173 -33.242  1.00  0.00    -0.309 N 
HETATM    6  O   UNL     1      -6.416   1.697 -34.719  1.00  0.00    -0.247 OA
HETATM    7  H   UNL     1      -8.111   0.042 -32.646  1.00  0.00     0.170 HD
BRANCH   5   8
HETATM    8  C   UNL     1      -6.581  -0.997 -33.554  1.00  0.00     0.036 A 
HETATM    9  C   UNL     1      -7.113  -2.083 -34.256  1.00  0.00     0.039 A 
HETATM   10  C   UNL     1      -6.296  -3.173 -34.520  1.00  0.00    -0.024 A 
HETATM   11  C   UNL     1      -4.969  -3.194 -34.127  1.00  0.00    -0.026 A 
HETATM   12  C   UNL     1      -6.620  -4.432 -35.235  1.00  0.00     0.207 C 
HETATM   13  C   UNL     1      -4.346  -4.461 -34.584  1.00  0.00     0.207 C 
HETATM   14  C   UNL     1      -4.412  -2.130 -33.445  1.00  0.00     0.012 A 
HETATM   15  O   UNL     1      -5.454  -5.270 -35.042  1.00  0.00    -0.382 OA
HETATM   16  C   UNL     1      -5.230  -1.033 -33.151  1.00  0.00     0.030 A 
ENDBRANCH   5   8
ENDBRANCH   1   2
BRANCH   1  17
HETATM   17  C   UNL     1      -7.004   2.031 -30.768  1.00  0.00     0.026 C 
BRANCH  17  18
HETATM   18  C   UNL     1      -6.647   3.102 -29.730  1.00  0.00     0.060 C 
BRANCH  18  19
HETATM   19  C   UNL     1      -5.649   4.098 -30.209  1.00  0.00     0.030 A 
HETATM   20  N   UNL     1      -5.532   5.369 -29.713  1.00  0.00    -0.282 N 
HETATM   21  H   UNL     1      -6.054   5.811 -28.960  1.00  0.00     0.189 HD
HETATM   22  N   UNL     1      -4.598   6.102 -30.337  1.00  0.00    -0.174 NA
HETATM   23  C   UNL     1      -4.101   5.301 -31.291  1.00  0.00     0.089 A 
HETATM   24  C   UNL     1      -4.722   4.024 -31.226  1.00  0.00     0.060 A 
BRANCH  23  25
HETATM   25  C   UNL     1      -3.080   5.774 -32.236  1.00  0.00    -0.003 A 
HETATM   26  C   UNL     1      -2.769   5.050 -33.394  1.00  0.00     0.056 A 
HETATM   27  C   UNL     1      -1.813   5.533 -34.283  1.00  0.00     0.117 A 
HETATM   28  F   UNL     1      -1.532   4.831 -35.389  1.00  0.00    -0.206 F 
HETATM   29  C   UNL     1      -1.146   6.729 -34.049  1.00  0.00     0.042 A 
HETATM   30  C   UNL     1      -1.441   7.459 -32.902  1.00  0.00     0.004 A 
HETATM   31  C   UNL     1      -2.401   6.983 -32.002  1.00  0.00     0.014 A 
ENDBRANCH  23  25
ENDBRANCH  18  19
ENDBRANCH  17  18
ENDBRANCH   1  17
TORSDOF 6
ENDMDL
MODEL 8
REMARK VINA RESULT:      -8.2      3.273      6.118
REMARK  6 active torsions:
REMARK  status: ('A' for Active; 'I' for Inactive)
REMARK       I    between atoms: N_2  and  C_3 
REMARK    1  A    between atoms: N_2  and  C_15 
REMARK       I    between atoms: C_3  and  N_4 
REMARK    2  A    between atoms: N_4  and  C_5 
REMARK    3  A    between atoms: C_15  and  C_16 
REMARK    4  A    between atoms: C_16  and  C_17 
REMARK    5  A    between atoms: C_17  and  C_18 
REMARK    6  A    between atoms: C_22  and  C_23 
ROOT
HETATM    1  C   UNL     1      -4.631   6.491 -31.601  1.00  0.00     0.127 C 
ENDROOT
BRANCH   1   2
HETATM    2  N   UNL     1      -3.625   5.856 -32.460  1.00  0.00    -0.338 N 
HETATM    3  C   UNL     1      -2.295   6.456 -32.427  1.00  0.00     0.154 C 
HETATM    4  C   UNL     1      -3.692   4.541 -32.919  1.00  0.00     0.322 C 
HETATM    5  N   UNL     1      -4.962   4.037 -33.049  1.00  0.00    -0.309 N 
HETATM    6  O   UNL     1      -2.664   3.896 -33.106  1.00  0.00    -0.247 OA
HETATM    7  H   UNL     1      -5.703   4.716 -33.109  1.00  0.00     0.170 HD
BRANCH   5   8
HETATM    8  C   UNL     1      -5.342   2.695 -33.275  1.00  0.00     0.036 A 
HETATM    9  C   UNL     1      -6.240   2.295 -34.270  1.00  0.00     0.039 A 
HETATM   10  C   UNL     1      -6.525   0.944 -34.409  1.00  0.00    -0.024 A 
HETATM   11  C   UNL     1      -5.924  -0.009 -33.605  1.00  0.00    -0.026 A 
HETATM   12  C   UNL     1      -7.432   0.275 -35.373  1.00  0.00     0.207 C 
HETATM   13  C   UNL     1      -6.390  -1.357 -34.015  1.00  0.00     0.207 C 
HETATM   14  C   UNL     1      -5.023   0.355 -32.623  1.00  0.00     0.012 A 
HETATM   15  O   UNL     1      -7.479  -1.104 -34.932  1.00  0.00    -0.382 OA
HETATM   16  C   UNL     1      -4.742   1.716 -32.455  1.00  0.00     0.030 A 
ENDBRANCH   5   8
ENDBRANCH   1   2
BRANCH   1  17
HETATM   17  C   UNL     1      -4.605   5.998 -30.145  1.00  0.00     0.026 C 
BRANCH  17  18
HETATM   18  C   UNL     1      -5.995   5.828 -29.522  1.00  0.00     0.060 C 
BRANCH  18  19
HETATM   19  C   UNL     1      -6.678   4.561 -29.905  1.00  0.00     0.030 A 
HETATM   20  N   UNL     1      -6.333   3.326 -29.425  1.00  0.00    -0.282 N 
HETATM   21  H   UNL     1      -5.616   3.082 -28.746  1.00  0.00     0.189 HD
HETATM   22  N   UNL     1      -7.055   2.327 -29.955  1.00  0.00    -0.174 NA
HETATM   23  C   UNL     1      -7.883   2.916 -30.830  1.00  0.00     0.089 A 
HETATM   24  C   UNL     1      -7.691   4.324 -30.809  1.00  0.00     0.060 A 
BRANCH  23  25
HETATM   25  C   UNL     1      -8.805   2.132 -31.663  1.00  0.00    -0.003 A 
HETATM   26  C   UNL     1      -9.671   2.752 -32.572  1.00  0.00     0.056 A 
HETATM   27  C   UNL     1     -10.518   1.982 -33.365  1.00  0.00     0.117 A 
HETATM   28  F   UNL     1     -11.337   2.591 -34.233  1.00  0.00    -0.206 F 
HETATM   29  C   UNL     1     -10.531   0.596 -33.275  1.00  0.00     0.042 A 
HETATM   30  C   UNL     1      -9.679  -0.036 -32.376  1.00  0.00     0.004 A 
HETATM   31  C   UNL     1      -8.823   0.728 -31.575  1.00  0.00     0.014 A 
ENDBRANCH  23  25
ENDBRANCH  18  19
ENDBRANCH  17  18
ENDBRANCH   1  17
TORSDOF 6
ENDMDL
MODEL 9
REMARK VINA RESULT:      -8.1      4.086      7.386
REMARK  6 active torsions:
REMARK  status: ('A' for Active; 'I' for Inactive)
REMARK       I    between atoms: N_2  and  C_3 
REMARK    1  A    between atoms: N_2  and  C_15 
REMARK       I    between atoms: C_3  and  N_4 
REMARK    2  A    between atoms: N_4  and  C_5 
REMARK    3  A    between atoms: C_15  and  C_16 
REMARK    4  A    between atoms: C_16  and  C_17 
REMARK    5  A    between atoms: C_17  and  C_18 
REMARK    6  A    between atoms: C_22  and  C_23 
ROOT
HETATM    1  C   UNL     1      -5.009   4.055 -32.988  1.00  0.00     0.127 C 
ENDROOT
BRANCH   1   2
HETATM    2  N   UNL     1      -6.091   5.000 -32.689  1.00  0.00    -0.338 N 
HETATM    3  C   UNL     1      -5.693   6.397 -32.552  1.00  0.00     0.154 C 
HETATM    4  C   UNL     1      -7.439   4.772 -32.966  1.00  0.00     0.322 C 
HETATM    5  N   UNL     1      -7.813   3.451 -32.978  1.00  0.00    -0.309 N 
HETATM    6  O   UNL     1      -8.182   5.709 -33.247  1.00  0.00    -0.247 OA
HETATM    7  H   UNL     1      -7.198   2.814 -32.499  1.00  0.00     0.170 HD
BRANCH   5   8
HETATM    8  C   UNL     1      -9.032   2.900 -33.433  1.00  0.00     0.036 A 
HETATM    9  C   UNL     1      -9.875   3.527 -34.356  1.00  0.00     0.039 A 
HETATM   10  C   UNL     1     -11.040   2.881 -34.742  1.00  0.00    -0.024 A 
HETATM   11  C   UNL     1     -11.368   1.627 -34.256  1.00  0.00    -0.026 A 
HETATM   12  C   UNL     1     -12.088   3.332 -35.691  1.00  0.00     0.207 C 
HETATM   13  C   UNL     1     -12.639   1.180 -34.878  1.00  0.00     0.207 C 
HETATM   14  C   UNL     1     -10.547   0.977 -33.354  1.00  0.00     0.012 A 
HETATM   15  O   UNL     1     -13.146   2.352 -35.557  1.00  0.00    -0.382 OA
HETATM   16  C   UNL     1      -9.380   1.627 -32.937  1.00  0.00     0.030 A 
ENDBRANCH   5   8
ENDBRANCH   1   2
BRANCH   1  17
HETATM   17  C   UNL     1      -4.485   3.300 -31.755  1.00  0.00     0.026 C 
BRANCH  17  18
HETATM   18  C   UNL     1      -3.537   2.143 -32.092  1.00  0.00     0.060 C 
BRANCH  18  19
HETATM   19  C   UNL     1      -4.219   0.952 -32.669  1.00  0.00     0.030 A 
HETATM   20  N   UNL     1      -5.560   0.888 -32.937  1.00  0.00    -0.282 N 
HETATM   21  H   UNL     1      -6.270   1.609 -32.822  1.00  0.00     0.189 HD
HETATM   22  N   UNL     1      -5.956  -0.306 -33.402  1.00  0.00    -0.174 NA
HETATM   23  C   UNL     1      -4.849  -1.063 -33.417  1.00  0.00     0.089 A 
HETATM   24  C   UNL     1      -3.731  -0.298 -32.984  1.00  0.00     0.060 A 
BRANCH  23  25
HETATM   25  C   UNL     1      -4.888  -2.475 -33.818  1.00  0.00    -0.003 A 
HETATM   26  C   UNL     1      -5.938  -2.983 -34.594  1.00  0.00     0.056 A 
HETATM   27  C   UNL     1      -5.938  -4.321 -34.978  1.00  0.00     0.117 A 
HETATM   28  F   UNL     1      -6.948  -4.789 -35.724  1.00  0.00    -0.206 F 
HETATM   29  C   UNL     1      -4.913  -5.181 -34.604  1.00  0.00     0.042 A 
HETATM   30  C   UNL     1      -3.864  -4.694 -33.831  1.00  0.00     0.004 A 
HETATM   31  C   UNL     1      -3.854  -3.351 -33.440  1.00  0.00     0.014 A 
ENDBRANCH  23  25
ENDBRANCH  18  19
ENDBRANCH  17  18
ENDBRANCH   1  17
TORSDOF 6
ENDMDL
MODEL 10
REMARK VINA RESULT:      -8.1      3.717      7.999
REMARK  6 active torsions:
REMARK  status: ('A' for Active; 'I' for Inactive)
REMARK       I    between atoms: N_2  and  C_3 
REMARK    1  A    between atoms: N_2  and  C_15 
REMARK       I    between atoms: C_3  and  N_4 
REMARK    2  A    between atoms: N_4  and  C_5 
REMARK    3  A    between atoms: C_15  and  C_16 
REMARK    4  A    between atoms: C_16  and  C_17 
REMARK    5  A    between atoms: C_17  and  C_18 
REMARK    6  A    between atoms: C_22  and  C_23 
ROOT
HETATM    1  C   UNL     1      -8.220   3.913 -31.683  1.00  0.00     0.127 C 
ENDROOT
BRANCH   1   2
HETATM    2  N   UNL     1      -7.796   4.996 -32.578  1.00  0.00    -0.338 N 
HETATM    3  C   UNL     1      -8.857   5.884 -33.044  1.00  0.00     0.154 C 
HETATM    4  C   UNL     1      -6.499   5.503 -32.648  1.00  0.00     0.322 C 
HETATM    5  N   UNL     1      -5.510   4.612 -32.312  1.00  0.00    -0.309 N 
HETATM    6  O   UNL     1      -6.308   6.685 -32.921  1.00  0.00    -0.247 OA
HETATM    7  H   UNL     1      -5.760   3.638 -32.353  1.00  0.00     0.170 HD
BRANCH   5   8
HETATM    8  C   UNL     1      -4.143   4.884 -32.079  1.00  0.00     0.036 A 
HETATM    9  C   UNL     1      -3.669   5.622 -30.989  1.00  0.00     0.039 A 
HETATM   10  C   UNL     1      -2.301   5.809 -30.854  1.00  0.00    -0.024 A 
HETATM   11  C   UNL     1      -1.403   5.263 -31.755  1.00  0.00    -0.026 A 
HETATM   12  C   UNL     1      -1.559   6.547 -29.802  1.00  0.00     0.207 C 
HETATM   13  C   UNL     1      -0.021   5.596 -31.327  1.00  0.00     0.207 C 
HETATM   14  C   UNL     1      -1.841   4.518 -32.832  1.00  0.00     0.012 A 
HETATM   15  O   UNL     1      -0.189   6.571 -30.273  1.00  0.00    -0.382 OA
HETATM   16  C   UNL     1      -3.220   4.339 -32.995  1.00  0.00     0.030 A 
ENDBRANCH   5   8
ENDBRANCH   1   2
BRANCH   1  17
HETATM   17  C   UNL     1      -8.597   2.614 -32.414  1.00  0.00     0.026 C 
BRANCH  17  18
HETATM   18  C   UNL     1      -7.809   2.378 -33.707  1.00  0.00     0.060 C 
BRANCH  18  19
HETATM   19  C   UNL     1      -6.951   1.161 -33.677  1.00  0.00     0.030 A 
HETATM   20  N   UNL     1      -5.630   1.160 -33.320  1.00  0.00    -0.282 N 
HETATM   21  H   UNL     1      -5.052   1.937 -33.005  1.00  0.00     0.189 HD
HETATM   22  N   UNL     1      -5.049  -0.045 -33.422  1.00  0.00    -0.174 NA
HETATM   23  C   UNL     1      -6.008  -0.860 -33.885  1.00  0.00     0.089 A 
HETATM   24  C   UNL     1      -7.225  -0.141 -34.036  1.00  0.00     0.060 A 
BRANCH  23  25
HETATM   25  C   UNL     1      -5.738  -2.272 -34.185  1.00  0.00    -0.003 A 
HETATM   26  C   UNL     1      -4.466  -2.826 -33.993  1.00  0.00     0.056 A 
HETATM   27  C   UNL     1      -4.244  -4.174 -34.265  1.00  0.00     0.117 A 
HETATM   28  F   UNL     1      -3.023  -4.689 -34.071  1.00  0.00    -0.206 F 
HETATM   29  C   UNL     1      -5.263  -4.995 -34.731  1.00  0.00     0.042 A 
HETATM   30  C   UNL     1      -6.532  -4.460 -34.929  1.00  0.00     0.004 A 
HETATM   31  C   UNL     1      -6.766  -3.107 -34.659  1.00  0.00     0.014 A 
ENDBRANCH  23  25
ENDBRANCH  18  19
ENDBRANCH  17  18
ENDBRANCH   1  17
TORSDOF 6
ENDMDL
