MODEL 1
REMARK VINA RESULT:      -9.1      0.000      0.000
REMARK  5 active torsions:
REMARK  status: ('A' for Active; 'I' for Inactive)
REMARK    1  A    between atoms: C_2  and  O_3 
REMARK    2  A    between atoms: O_3  and  C_4 
REMARK    3  A    between atoms: C_7  and  C_8 
REMARK       I    between atoms: N_11  and  C_12 
REMARK    4  A    between atoms: C_12  and  C_13 
REMARK    5  A    between atoms: C_15  and  C_16 
ROOT
HETATM    1  C   UNL     1       0.671   7.807 -27.330  1.00  0.00    -0.049 C 
HETATM    2  C   UNL     1      -0.520   8.030 -26.427  1.00  0.00     0.059 C 
HETATM    3  C   UNL     1      -0.311   9.201 -25.471  1.00  0.00     0.131 C 
HETATM    4  N   UNL     1       1.000   9.155 -24.828  1.00  0.00    -0.344 N 
HETATM    5  C   UNL     1       1.073   9.702 -23.541  1.00  0.00     0.254 C 
HETATM    6  O   UNL     1       0.087  10.073 -22.908  1.00  0.00    -0.267 OA
HETATM    7  C   UNL     1       2.150   9.103 -25.728  1.00  0.00     0.154 C 
HETATM    8  C   UNL     1       1.870   8.310 -26.976  1.00  0.00     0.001 C 
ENDROOT
BRANCH   5   9
HETATM    9  C   UNL     1       2.388   9.882 -22.891  1.00  0.00     0.033 A 
HETATM   10  C   UNL     1       3.166   8.742 -22.652  1.00  0.00     0.032 A 
HETATM   11  C   UNL     1       4.447   8.860 -22.097  1.00  0.00     0.014 A 
HETATM   12  C   UNL     1       4.933  10.139 -21.789  1.00  0.00     0.015 A 
HETATM   13  C   UNL     1       4.166  11.280 -22.049  1.00  0.00     0.002 A 
HETATM   14  C   UNL     1       2.897  11.154 -22.615  1.00  0.00     0.017 A 
BRANCH  11  15
HETATM   15  C   UNL     1       5.272   7.677 -21.867  1.00  0.00     0.181 A 
HETATM   16  N   UNL     1       5.284   6.980 -20.720  1.00  0.00    -0.152 NA
HETATM   17  N   UNL     1       6.144   5.992 -20.997  1.00  0.00    -0.263 N 
HETATM   18  H   UNL     1       6.337   5.290 -20.292  1.00  0.00     0.190 HD
HETATM   19  C   UNL     1       6.642   6.102 -22.262  1.00  0.00     0.118 A 
HETATM   20  C   UNL     1       7.617   5.152 -22.834  1.00  0.00     0.093 C 
HETATM   21  N   UNL     1       6.115   7.163 -22.832  1.00  0.00    -0.212 NA
ENDBRANCH  11  15
ENDBRANCH   5   9
BRANCH   1  22
HETATM   22  C   UNL     1       0.461   7.026 -28.578  1.00  0.00    -0.030 A 
HETATM   23  C   UNL     1       0.717   5.646 -28.615  1.00  0.00     0.014 A 
HETATM   24  C   UNL     1       0.473   4.884 -29.768  1.00  0.00     0.037 A 
HETATM   25  C   UNL     1      -0.031   5.491 -30.915  1.00  0.00     0.068 A 
HETATM   26  C   UNL     1      -0.275   6.863 -30.899  1.00  0.00     0.037 A 
HETATM   27  C   UNL     1      -0.042   7.620 -29.744  1.00  0.00     0.014 A 
BRANCH  25  28
HETATM   28  O   UNL     1      -0.317   4.866 -32.096  1.00  0.00    -0.352 OA
BRANCH  28  29
HETATM   29  C   UNL     1      -1.656   4.978 -32.576  1.00  0.00     0.171 C 
HETATM   30  C   UNL     1      -1.601   5.151 -34.084  1.00  0.00     0.034 C 
ENDBRANCH  28  29
ENDBRANCH  25  28
ENDBRANCH   1  22
TORSDOF 5
ENDMDL
MODEL 2
REMARK VINA RESULT:      -8.8     15.132     18.329
REMARK  5 active torsions:
REMARK  status: ('A' for Active; 'I' for Inactive)
REMARK    1  A    between atoms: C_2  and  O_3 
REMARK    2  A    between atoms: O_3  and  C_4 
REMARK    3  A    between atoms: C_7  and  C_8 
REMARK       I    between atoms: N_11  and  C_12 
REMARK    4  A    between atoms: C_12  and  C_13 
REMARK    5  A    between atoms: C_15  and  C_16 
ROOT
HETATM    1  C   UNL     1      -7.881  -0.180 -34.013  1.00  0.00    -0.049 C 
HETATM    2  C   UNL     1      -7.811   1.119 -34.781  1.00  0.00     0.059 C 
HETATM    3  C   UNL     1      -8.780   2.166 -34.239  1.00  0.00     0.131 C 
HETATM    4  N   UNL     1     -10.111   1.613 -34.010  1.00  0.00    -0.344 N 
HETATM    5  C   UNL     1     -11.182   2.502 -34.162  1.00  0.00     0.254 C 
HETATM    6  O   UNL     1     -11.054   3.644 -34.600  1.00  0.00    -0.267 OA
HETATM    7  C   UNL     1     -10.175   0.448 -33.129  1.00  0.00     0.154 C 
HETATM    8  C   UNL     1      -8.975  -0.450 -33.274  1.00  0.00     0.001 C 
ENDROOT
BRANCH   5   9
HETATM    9  C   UNL     1     -12.544   2.091 -33.760  1.00  0.00     0.033 A 
HETATM   10  C   UNL     1     -13.350   3.032 -33.107  1.00  0.00     0.032 A 
HETATM   11  C   UNL     1     -14.671   2.717 -32.762  1.00  0.00     0.014 A 
HETATM   12  C   UNL     1     -15.167   1.445 -33.085  1.00  0.00     0.015 A 
HETATM   13  C   UNL     1     -14.370   0.513 -33.757  1.00  0.00     0.002 A 
HETATM   14  C   UNL     1     -13.061   0.840 -34.110  1.00  0.00     0.017 A 
BRANCH  11  15
HETATM   15  C   UNL     1     -15.524   3.702 -32.102  1.00  0.00     0.181 A 
HETATM   16  N   UNL     1     -15.075   4.848 -31.567  1.00  0.00    -0.152 NA
HETATM   17  N   UNL     1     -16.203   5.416 -31.125  1.00  0.00    -0.263 N 
HETATM   18  H   UNL     1     -16.158   6.324 -30.677  1.00  0.00     0.190 HD
HETATM   19  C   UNL     1     -17.289   4.630 -31.371  1.00  0.00     0.118 A 
HETATM   20  C   UNL     1     -18.665   5.005 -30.986  1.00  0.00     0.093 C 
HETATM   21  N   UNL     1     -16.889   3.536 -31.980  1.00  0.00    -0.212 NA
ENDBRANCH  11  15
ENDBRANCH   5   9
BRANCH   1  22
HETATM   22  C   UNL     1      -6.729  -1.114 -34.119  1.00  0.00    -0.030 A 
HETATM   23  C   UNL     1      -5.435  -0.704 -33.757  1.00  0.00     0.014 A 
HETATM   24  C   UNL     1      -4.347  -1.588 -33.799  1.00  0.00     0.037 A 
HETATM   25  C   UNL     1      -4.529  -2.905 -34.210  1.00  0.00     0.068 A 
HETATM   26  C   UNL     1      -5.803  -3.323 -34.588  1.00  0.00     0.037 A 
HETATM   27  C   UNL     1      -6.892  -2.442 -34.534  1.00  0.00     0.014 A 
BRANCH  25  28
HETATM   28  O   UNL     1      -3.559  -3.865 -34.290  1.00  0.00    -0.352 OA
BRANCH  28  29
HETATM   29  C   UNL     1      -3.403  -4.719 -33.158  1.00  0.00     0.171 C 
HETATM   30  C   UNL     1      -3.035  -3.854 -31.965  1.00  0.00     0.034 C 
ENDBRANCH  28  29
ENDBRANCH  25  28
ENDBRANCH   1  22
TORSDOF 5
ENDMDL
MODEL 3
REMARK VINA RESULT:      -8.6      7.046     11.780
REMARK  5 active torsions:
REMARK  status: ('A' for Active; 'I' for Inactive)
REMARK    1  A    between atoms: C_2  and  O_3 
REMARK    2  A    between atoms: O_3  and  C_4 
REMARK    3  A    between atoms: C_7  and  C_8 
REMARK       I    between atoms: N_11  and  C_12 
REMARK    4  A    between atoms: C_12  and  C_13 
REMARK    5  A    between atoms: C_15  and  C_16 
ROOT
HETATM    1  C   UNL     1      -7.477   2.430 -32.890  1.00  0.00    -0.049 C 
HETATM    2  C   UNL     1      -6.646   1.271 -32.392  1.00  0.00     0.059 C 
HETATM    3  C   UNL     1      -5.486   1.726 -31.512  1.00  0.00     0.131 C 
HETATM    4  N   UNL     1      -4.760   2.848 -32.100  1.00  0.00    -0.344 N 
HETATM    5  C   UNL     1      -3.395   2.925 -31.795  1.00  0.00     0.254 C 
HETATM    6  O   UNL     1      -2.787   2.043 -31.194  1.00  0.00    -0.267 OA
HETATM    7  C   UNL     1      -5.561   4.026 -32.425  1.00  0.00     0.154 C 
HETATM    8  C   UNL     1      -6.947   3.669 -32.891  1.00  0.00     0.001 C 
ENDROOT
BRANCH   5   9
HETATM    9  C   UNL     1      -2.622   4.126 -32.177  1.00  0.00     0.033 A 
HETATM   10  C   UNL     1      -2.229   5.007 -31.162  1.00  0.00     0.032 A 
HETATM   11  C   UNL     1      -1.441   6.126 -31.459  1.00  0.00     0.014 A 
HETATM   12  C   UNL     1      -1.051   6.343 -32.789  1.00  0.00     0.015 A 
HETATM   13  C   UNL     1      -1.423   5.451 -33.800  1.00  0.00     0.002 A 
HETATM   14  C   UNL     1      -2.197   4.331 -33.493  1.00  0.00     0.017 A 
BRANCH  11  15
HETATM   15  C   UNL     1      -1.009   7.036 -30.401  1.00  0.00     0.181 A 
HETATM   16  N   UNL     1      -1.772   8.019 -29.897  1.00  0.00    -0.152 NA
HETATM   17  N   UNL     1      -0.977   8.540 -28.955  1.00  0.00    -0.263 N 
HETATM   18  H   UNL     1      -1.316   9.311 -28.391  1.00  0.00     0.190 HD
HETATM   19  C   UNL     1       0.228   7.903 -28.907  1.00  0.00     0.118 A 
HETATM   20  C   UNL     1       1.303   8.272 -27.965  1.00  0.00     0.093 C 
HETATM   21  N   UNL     1       0.239   6.953 -29.816  1.00  0.00    -0.212 NA
ENDBRANCH  11  15
ENDBRANCH   5   9
BRANCH   1  22
HETATM   22  C   UNL     1      -8.856   2.143 -33.369  1.00  0.00    -0.030 A 
HETATM   23  C   UNL     1      -9.550   3.071 -34.161  1.00  0.00     0.014 A 
HETATM   24  C   UNL     1     -10.829   2.794 -34.666  1.00  0.00     0.037 A 
HETATM   25  C   UNL     1     -11.445   1.578 -34.385  1.00  0.00     0.068 A 
HETATM   26  C   UNL     1     -10.776   0.652 -33.586  1.00  0.00     0.037 A 
HETATM   27  C   UNL     1      -9.494   0.926 -33.092  1.00  0.00     0.014 A 
BRANCH  25  28
HETATM   28  O   UNL     1     -12.680   1.181 -34.817  1.00  0.00    -0.352 OA
BRANCH  28  29
HETATM   29  C   UNL     1     -13.427   0.335 -33.945  1.00  0.00     0.171 C 
HETATM   30  C   UNL     1     -14.883   0.763 -34.008  1.00  0.00     0.034 C 
ENDBRANCH  28  29
ENDBRANCH  25  28
ENDBRANCH   1  22
TORSDOF 5
ENDMDL
MODEL 4
REMARK VINA RESULT:      -8.6      5.084     11.437
REMARK  5 active torsions:
REMARK  status: ('A' for Active; 'I' for Inactive)
REMARK    1  A    between atoms: C_2  and  O_3 
REMARK    2  A    between atoms: O_3  and  C_4 
REMARK    3  A    between atoms: C_7  and  C_8 
REMARK       I    between atoms: N_11  and  C_12 
REMARK    4  A    between atoms: C_12  and  C_13 
REMARK    5  A    between atoms: C_15  and  C_16 
ROOT
HETATM    1  C   UNL     1      -0.612   7.320 -29.521  1.00  0.00    -0.049 C 
HETATM    2  C   UNL     1       0.369   7.061 -30.640  1.00  0.00     0.059 C 
HETATM    3  C   UNL     1      -0.316   6.965 -32.000  1.00  0.00     0.131 C 
HETATM    4  N   UNL     1      -1.501   6.113 -31.957  1.00  0.00    -0.344 N 
HETATM    5  C   UNL     1      -1.811   5.430 -33.140  1.00  0.00     0.254 C 
HETATM    6  O   UNL     1      -1.074   5.414 -34.123  1.00  0.00    -0.267 OA
HETATM    7  C   UNL     1      -2.516   6.480 -30.972  1.00  0.00     0.154 C 
HETATM    8  C   UNL     1      -1.917   7.040 -29.710  1.00  0.00     0.001 C 
ENDROOT
BRANCH   5   9
HETATM    9  C   UNL     1      -3.093   4.704 -33.257  1.00  0.00     0.033 A 
HETATM   10  C   UNL     1      -3.154   3.393 -32.769  1.00  0.00     0.032 A 
HETATM   11  C   UNL     1      -4.360   2.680 -32.796  1.00  0.00     0.014 A 
HETATM   12  C   UNL     1      -5.502   3.307 -33.318  1.00  0.00     0.015 A 
HETATM   13  C   UNL     1      -5.447   4.625 -33.785  1.00  0.00     0.002 A 
HETATM   14  C   UNL     1      -4.245   5.331 -33.741  1.00  0.00     0.017 A 
BRANCH  11  15
HETATM   15  C   UNL     1      -4.436   1.321 -32.267  1.00  0.00     0.181 A 
HETATM   16  N   UNL     1      -5.396   0.892 -31.433  1.00  0.00    -0.152 NA
HETATM   17  N   UNL     1      -5.069  -0.395 -31.263  1.00  0.00    -0.263 N 
HETATM   18  H   UNL     1      -5.650  -0.981 -30.674  1.00  0.00     0.190 HD
HETATM   19  C   UNL     1      -3.942  -0.722 -31.958  1.00  0.00     0.118 A 
HETATM   20  C   UNL     1      -3.348  -2.073 -31.949  1.00  0.00     0.093 C 
HETATM   21  N   UNL     1      -3.515   0.347 -32.595  1.00  0.00    -0.212 NA
ENDBRANCH  11  15
ENDBRANCH   5   9
BRANCH   1  22
HETATM   22  C   UNL     1      -0.082   7.869 -28.245  1.00  0.00    -0.030 A 
HETATM   23  C   UNL     1      -0.923   8.049 -27.134  1.00  0.00     0.014 A 
HETATM   24  C   UNL     1      -0.428   8.515 -25.907  1.00  0.00     0.037 A 
HETATM   25  C   UNL     1       0.923   8.817 -25.765  1.00  0.00     0.068 A 
HETATM   26  C   UNL     1       1.767   8.659 -26.862  1.00  0.00     0.037 A 
HETATM   27  C   UNL     1       1.275   8.183 -28.083  1.00  0.00     0.014 A 
BRANCH  25  28
HETATM   28  O   UNL     1       1.531   9.271 -24.628  1.00  0.00    -0.352 OA
BRANCH  28  29
HETATM   29  C   UNL     1       2.905   8.928 -24.452  1.00  0.00     0.171 C 
HETATM   30  C   UNL     1       3.118   8.582 -22.988  1.00  0.00     0.034 C 
ENDBRANCH  28  29
ENDBRANCH  25  28
ENDBRANCH   1  22
TORSDOF 5
ENDMDL
MODEL 5
REMARK VINA RESULT:      -8.6      5.567      9.224
REMARK  5 active torsions:
REMARK  status: ('A' for Active; 'I' for Inactive)
REMARK    1  A    between atoms: C_2  and  O_3 
REMARK    2  A    between atoms: O_3  and  C_4 
REMARK    3  A    between atoms: C_7  and  C_8 
REMARK       I    between atoms: N_11  and  C_12 
REMARK    4  A    between atoms: C_12  and  C_13 
REMARK    5  A    between atoms: C_15  and  C_16 
ROOT
HETATM    1  C   UNL     1      -4.159   3.023 -32.637  1.00  0.00    -0.049 C 
HETATM    2  C   UNL     1      -4.765   4.290 -33.193  1.00  0.00     0.059 C 
HETATM    3  C   UNL     1      -3.755   5.431 -33.270  1.00  0.00     0.131 C 
HETATM    4  N   UNL     1      -2.982   5.561 -32.038  1.00  0.00    -0.344 N 
HETATM    5  C   UNL     1      -2.550   6.854 -31.716  1.00  0.00     0.254 C 
HETATM    6  O   UNL     1      -2.905   7.857 -32.332  1.00  0.00    -0.267 OA
HETATM    7  C   UNL     1      -2.268   4.362 -31.603  1.00  0.00     0.154 C 
HETATM    8  C   UNL     1      -3.022   3.098 -31.916  1.00  0.00     0.001 C 
ENDROOT
BRANCH   5   9
HETATM    9  C   UNL     1      -1.600   7.057 -30.602  1.00  0.00     0.033 A 
HETATM   10  C   UNL     1      -2.122   7.232 -29.315  1.00  0.00     0.032 A 
HETATM   11  C   UNL     1      -1.266   7.365 -28.213  1.00  0.00     0.014 A 
HETATM   12  C   UNL     1       0.120   7.316 -28.427  1.00  0.00     0.015 A 
HETATM   13  C   UNL     1       0.642   7.118 -29.709  1.00  0.00     0.002 A 
HETATM   14  C   UNL     1      -0.218   6.972 -30.798  1.00  0.00     0.017 A 
BRANCH  11  15
HETATM   15  C   UNL     1      -1.804   7.525 -26.865  1.00  0.00     0.181 A 
HETATM   16  N   UNL     1      -2.583   6.618 -26.255  1.00  0.00    -0.152 NA
HETATM   17  N   UNL     1      -2.787   7.180 -25.057  1.00  0.00    -0.263 N 
HETATM   18  H   UNL     1      -3.346   6.690 -24.368  1.00  0.00     0.190 HD
HETATM   19  C   UNL     1      -2.165   8.389 -24.959  1.00  0.00     0.118 A 
HETATM   20  C   UNL     1      -2.224   9.236 -23.750  1.00  0.00     0.093 C 
HETATM   21  N   UNL     1      -1.543   8.637 -26.091  1.00  0.00    -0.212 NA
ENDBRANCH  11  15
ENDBRANCH   5   9
BRANCH   1  22
HETATM   22  C   UNL     1      -4.859   1.739 -32.908  1.00  0.00    -0.030 A 
HETATM   23  C   UNL     1      -6.138   1.726 -33.488  1.00  0.00     0.014 A 
HETATM   24  C   UNL     1      -6.790   0.523 -33.800  1.00  0.00     0.037 A 
HETATM   25  C   UNL     1      -6.176  -0.697 -33.532  1.00  0.00     0.068 A 
HETATM   26  C   UNL     1      -4.914  -0.700 -32.941  1.00  0.00     0.037 A 
HETATM   27  C   UNL     1      -4.259   0.501 -32.641  1.00  0.00     0.014 A 
BRANCH  25  28
HETATM   28  O   UNL     1      -6.696  -1.934 -33.791  1.00  0.00    -0.352 OA
BRANCH  28  29
HETATM   29  C   UNL     1      -5.889  -2.825 -34.559  1.00  0.00     0.171 C 
HETATM   30  C   UNL     1      -6.730  -4.042 -34.903  1.00  0.00     0.034 C 
ENDBRANCH  28  29
ENDBRANCH  25  28
ENDBRANCH   1  22
TORSDOF 5
ENDMDL
MODEL 6
REMARK VINA RESULT:      -8.4      7.819     13.884
REMARK  5 active torsions:
REMARK  status: ('A' for Active; 'I' for Inactive)
REMARK    1  A    between atoms: C_2  and  O_3 
REMARK    2  A    between atoms: O_3  and  C_4 
REMARK    3  A    between atoms: C_7  and  C_8 
REMARK       I    between atoms: N_11  and  C_12 
REMARK    4  A    between atoms: C_12  and  C_13 
REMARK    5  A    between atoms: C_15  and  C_16 
ROOT
HETATM    1  C   UNL     1      -4.070   5.232 -31.603  1.00  0.00    -0.049 C 
HETATM    2  C   UNL     1      -4.645   5.984 -32.781  1.00  0.00     0.059 C 
HETATM    3  C   UNL     1      -6.135   5.712 -32.970  1.00  0.00     0.131 C 
HETATM    4  N   UNL     1      -6.446   4.287 -32.887  1.00  0.00    -0.344 N 
HETATM    5  C   UNL     1      -7.536   3.850 -33.650  1.00  0.00     0.254 C 
HETATM    6  O   UNL     1      -8.123   4.565 -34.459  1.00  0.00    -0.267 OA
HETATM    7  C   UNL     1      -6.021   3.612 -31.662  1.00  0.00     0.154 C 
HETATM    8  C   UNL     1      -4.725   4.156 -31.125  1.00  0.00     0.001 C 
ENDROOT
BRANCH   5   9
HETATM    9  C   UNL     1      -8.049   2.474 -33.480  1.00  0.00     0.033 A 
HETATM   10  C   UNL     1      -7.226   1.411 -33.871  1.00  0.00     0.032 A 
HETATM   11  C   UNL     1      -7.636   0.086 -33.674  1.00  0.00     0.014 A 
HETATM   12  C   UNL     1      -8.883  -0.152 -33.076  1.00  0.00     0.015 A 
HETATM   13  C   UNL     1      -9.695   0.909 -32.664  1.00  0.00     0.002 A 
HETATM   14  C   UNL     1      -9.273   2.226 -32.851  1.00  0.00     0.017 A 
BRANCH  11  15
HETATM   15  C   UNL     1      -6.772  -1.027 -34.058  1.00  0.00     0.181 A 
HETATM   16  N   UNL     1      -5.432  -0.987 -34.016  1.00  0.00    -0.152 NA
HETATM   17  N   UNL     1      -5.098  -2.221 -34.417  1.00  0.00    -0.263 N 
HETATM   18  H   UNL     1      -4.120  -2.478 -34.465  1.00  0.00     0.190 HD
HETATM   19  C   UNL     1      -6.201  -2.968 -34.704  1.00  0.00     0.118 A 
HETATM   20  C   UNL     1      -6.133  -4.366 -35.174  1.00  0.00     0.093 C 
HETATM   21  N   UNL     1      -7.274  -2.237 -34.495  1.00  0.00    -0.212 NA
ENDBRANCH  11  15
ENDBRANCH   5   9
BRANCH   1  22
HETATM   22  C   UNL     1      -2.787   5.717 -31.028  1.00  0.00    -0.030 A 
HETATM   23  C   UNL     1      -1.561   5.169 -31.441  1.00  0.00     0.014 A 
HETATM   24  C   UNL     1      -0.339   5.652 -30.949  1.00  0.00     0.037 A 
HETATM   25  C   UNL     1      -0.317   6.694 -30.027  1.00  0.00     0.068 A 
HETATM   26  C   UNL     1      -1.526   7.237 -29.595  1.00  0.00     0.037 A 
HETATM   27  C   UNL     1      -2.745   6.762 -30.096  1.00  0.00     0.014 A 
BRANCH  25  28
HETATM   28  O   UNL     1       0.799   7.258 -29.476  1.00  0.00    -0.352 OA
BRANCH  28  29
HETATM   29  C   UNL     1       0.800   7.435 -28.060  1.00  0.00     0.171 C 
HETATM   30  C   UNL     1       1.574   8.703 -27.746  1.00  0.00     0.034 C 
ENDBRANCH  28  29
ENDBRANCH  25  28
ENDBRANCH   1  22
TORSDOF 5
ENDMDL
MODEL 7
REMARK VINA RESULT:      -8.3     14.987     17.964
REMARK  5 active torsions:
REMARK  status: ('A' for Active; 'I' for Inactive)
REMARK    1  A    between atoms: C_2  and  O_3 
REMARK    2  A    between atoms: O_3  and  C_4 
REMARK    3  A    between atoms: C_7  and  C_8 
REMARK       I    between atoms: N_11  and  C_12 
REMARK    4  A    between atoms: C_12  and  C_13 
REMARK    5  A    between atoms: C_15  and  C_16 
ROOT
HETATM    1  C   UNL     1      -8.899   0.868 -33.732  1.00  0.00    -0.049 C 
HETATM    2  C   UNL     1     -10.153   0.297 -33.114  1.00  0.00     0.059 C 
HETATM    3  C   UNL     1     -11.417   0.971 -33.641  1.00  0.00     0.131 C 
HETATM    4  N   UNL     1     -11.296   2.427 -33.654  1.00  0.00    -0.344 N 
HETATM    5  C   UNL     1     -12.484   3.144 -33.468  1.00  0.00     0.254 C 
HETATM    6  O   UNL     1     -13.552   2.616 -33.167  1.00  0.00    -0.267 OA
HETATM    7  C   UNL     1     -10.159   2.966 -34.398  1.00  0.00     0.154 C 
HETATM    8  C   UNL     1      -8.941   2.087 -34.305  1.00  0.00     0.001 C 
ENDROOT
BRANCH   5   9
HETATM    9  C   UNL     1     -12.497   4.610 -33.662  1.00  0.00     0.033 A 
HETATM   10  C   UNL     1     -12.871   5.105 -34.918  1.00  0.00     0.032 A 
HETATM   11  C   UNL     1     -12.963   6.485 -35.138  1.00  0.00     0.014 A 
HETATM   12  C   UNL     1     -12.676   7.358 -34.077  1.00  0.00     0.015 A 
HETATM   13  C   UNL     1     -12.326   6.864 -32.817  1.00  0.00     0.002 A 
HETATM   14  C   UNL     1     -12.251   5.487 -32.602  1.00  0.00     0.017 A 
BRANCH  11  15
HETATM   15  C   UNL     1     -13.375   7.007 -36.439  1.00  0.00     0.181 A 
HETATM   16  N   UNL     1     -14.500   6.643 -37.073  1.00  0.00    -0.152 NA
HETATM   17  N   UNL     1     -14.460   7.397 -38.178  1.00  0.00    -0.263 N 
HETATM   18  H   UNL     1     -15.216   7.334 -38.849  1.00  0.00     0.190 HD
HETATM   19  C   UNL     1     -13.341   8.174 -38.213  1.00  0.00     0.118 A 
HETATM   20  C   UNL     1     -13.032   9.102 -39.320  1.00  0.00     0.093 C 
HETATM   21  N   UNL     1     -12.632   7.942 -37.130  1.00  0.00    -0.212 NA
ENDBRANCH  11  15
ENDBRANCH   5   9
BRANCH   1  22
HETATM   22  C   UNL     1      -7.658   0.049 -33.668  1.00  0.00    -0.030 A 
HETATM   23  C   UNL     1      -6.875   0.018 -32.503  1.00  0.00     0.014 A 
HETATM   24  C   UNL     1      -5.733  -0.790 -32.408  1.00  0.00     0.037 A 
HETATM   25  C   UNL     1      -5.345  -1.585 -33.482  1.00  0.00     0.068 A 
HETATM   26  C   UNL     1      -6.102  -1.553 -34.652  1.00  0.00     0.037 A 
HETATM   27  C   UNL     1      -7.249  -0.754 -34.741  1.00  0.00     0.014 A 
BRANCH  25  28
HETATM   28  O   UNL     1      -4.262  -2.418 -33.518  1.00  0.00    -0.352 OA
BRANCH  28  29
HETATM   29  C   UNL     1      -4.378  -3.592 -34.320  1.00  0.00     0.171 C 
HETATM   30  C   UNL     1      -3.683  -4.729 -33.592  1.00  0.00     0.034 C 
ENDBRANCH  28  29
ENDBRANCH  25  28
ENDBRANCH   1  22
TORSDOF 5
ENDMDL
MODEL 8
REMARK VINA RESULT:      -8.2      6.028     10.006
REMARK  5 active torsions:
REMARK  status: ('A' for Active; 'I' for Inactive)
REMARK    1  A    between atoms: C_2  and  O_3 
REMARK    2  A    between atoms: O_3  and  C_4 
REMARK    3  A    between atoms: C_7  and  C_8 
REMARK       I    between atoms: N_11  and  C_12 
REMARK    4  A    between atoms: C_12  and  C_13 
REMARK    5  A    between atoms: C_15  and  C_16 
ROOT
HETATM    1  C   UNL     1      -4.879   3.938 -33.439  1.00  0.00    -0.049 C 
HETATM    2  C   UNL     1      -4.727   5.053 -34.447  1.00  0.00     0.059 C 
HETATM    3  C   UNL     1      -3.301   5.592 -34.502  1.00  0.00     0.131 C 
HETATM    4  N   UNL     1      -2.755   5.834 -33.170  1.00  0.00    -0.344 N 
HETATM    5  C   UNL     1      -1.821   6.873 -33.067  1.00  0.00     0.254 C 
HETATM    6  O   UNL     1      -1.564   7.644 -33.989  1.00  0.00    -0.267 OA
HETATM    7  C   UNL     1      -2.763   4.691 -32.260  1.00  0.00     0.154 C 
HETATM    8  C   UNL     1      -3.965   3.807 -32.457  1.00  0.00     0.001 C 
ENDROOT
BRANCH   5   9
HETATM    9  C   UNL     1      -1.068   7.065 -31.809  1.00  0.00     0.033 A 
HETATM   10  C   UNL     1      -1.643   7.862 -30.813  1.00  0.00     0.032 A 
HETATM   11  C   UNL     1      -1.004   8.026 -29.577  1.00  0.00     0.014 A 
HETATM   12  C   UNL     1       0.220   7.374 -29.360  1.00  0.00     0.015 A 
HETATM   13  C   UNL     1       0.784   6.559 -30.346  1.00  0.00     0.002 A 
HETATM   14  C   UNL     1       0.133   6.390 -31.568  1.00  0.00     0.017 A 
BRANCH  11  15
HETATM   15  C   UNL     1      -1.610   8.838 -28.525  1.00  0.00     0.181 A 
HETATM   16  N   UNL     1      -2.892   8.737 -28.143  1.00  0.00    -0.152 NA
HETATM   17  N   UNL     1      -2.964   9.635 -27.152  1.00  0.00    -0.263 N 
HETATM   18  H   UNL     1      -3.841   9.760 -26.660  1.00  0.00     0.190 HD
HETATM   19  C   UNL     1      -1.770  10.263 -26.958  1.00  0.00     0.118 A 
HETATM   20  C   UNL     1      -1.560  11.306 -25.934  1.00  0.00     0.093 C 
HETATM   21  N   UNL     1      -0.897   9.786 -27.818  1.00  0.00    -0.212 NA
ENDBRANCH  11  15
ENDBRANCH   5   9
BRANCH   1  22
HETATM   22  C   UNL     1      -6.050   3.031 -33.576  1.00  0.00    -0.030 A 
HETATM   23  C   UNL     1      -7.339   3.547 -33.791  1.00  0.00     0.014 A 
HETATM   24  C   UNL     1      -8.445   2.706 -33.977  1.00  0.00     0.037 A 
HETATM   25  C   UNL     1      -8.287   1.323 -33.947  1.00  0.00     0.068 A 
HETATM   26  C   UNL     1      -7.017   0.795 -33.719  1.00  0.00     0.037 A 
HETATM   27  C   UNL     1      -5.911   1.637 -33.545  1.00  0.00     0.014 A 
BRANCH  25  28
HETATM   28  O   UNL     1      -9.276   0.396 -34.119  1.00  0.00    -0.352 OA
BRANCH  28  29
HETATM   29  C   UNL     1     -10.201   0.235 -33.045  1.00  0.00     0.171 C 
HETATM   30  C   UNL     1     -11.571   0.672 -33.536  1.00  0.00     0.034 C 
ENDBRANCH  28  29
ENDBRANCH  25  28
ENDBRANCH   1  22
TORSDOF 5
ENDMDL
MODEL 9
REMARK VINA RESULT:      -8.0     14.252     16.643
REMARK  5 active torsions:
REMARK  status: ('A' for Active; 'I' for Inactive)
REMARK    1  A    between atoms: C_2  and  O_3 
REMARK    2  A    between atoms: O_3  and  C_4 
REMARK    3  A    between atoms: C_7  and  C_8 
REMARK       I    between atoms: N_11  and  C_12 
REMARK    4  A    between atoms: C_12  and  C_13 
REMARK    5  A    between atoms: C_15  and  C_16 
ROOT
HETATM    1  C   UNL     1      -7.915   0.502 -32.950  1.00  0.00    -0.049 C 
HETATM    2  C   UNL     1      -7.607   1.244 -31.671  1.00  0.00     0.059 C 
HETATM    3  C   UNL     1      -8.846   1.905 -31.072  1.00  0.00     0.131 C 
HETATM    4  N   UNL     1      -9.621   2.626 -32.078  1.00  0.00    -0.344 N 
HETATM    5  C   UNL     1     -10.327   3.746 -31.623  1.00  0.00     0.254 C 
HETATM    6  O   UNL     1     -10.207   4.205 -30.489  1.00  0.00    -0.267 OA
HETATM    7  C   UNL     1     -10.049   1.843 -33.235  1.00  0.00     0.154 C 
HETATM    8  C   UNL     1      -9.035   0.805 -33.635  1.00  0.00     0.001 C 
ENDROOT
BRANCH   5   9
HETATM    9  C   UNL     1     -11.293   4.421 -32.516  1.00  0.00     0.033 A 
HETATM   10  C   UNL     1     -10.795   5.329 -33.458  1.00  0.00     0.032 A 
HETATM   11  C   UNL     1     -11.657   5.949 -34.372  1.00  0.00     0.014 A 
HETATM   12  C   UNL     1     -13.025   5.639 -34.325  1.00  0.00     0.015 A 
HETATM   13  C   UNL     1     -13.520   4.715 -33.399  1.00  0.00     0.002 A 
HETATM   14  C   UNL     1     -12.652   4.092 -32.502  1.00  0.00     0.017 A 
BRANCH  11  15
HETATM   15  C   UNL     1     -11.141   6.879 -35.373  1.00  0.00     0.181 A 
HETATM   16  N   UNL     1      -9.966   6.729 -36.003  1.00  0.00    -0.152 NA
HETATM   17  N   UNL     1      -9.950   7.783 -36.829  1.00  0.00    -0.263 N 
HETATM   18  H   UNL     1      -9.161   7.912 -37.451  1.00  0.00     0.190 HD
HETATM   19  C   UNL     1     -11.070   8.547 -36.687  1.00  0.00     0.118 A 
HETATM   20  C   UNL     1     -11.317   9.775 -37.467  1.00  0.00     0.093 C 
HETATM   21  N   UNL     1     -11.837   8.004 -35.767  1.00  0.00    -0.212 NA
ENDBRANCH  11  15
ENDBRANCH   5   9
BRANCH   1  22
HETATM   22  C   UNL     1      -6.948  -0.534 -33.402  1.00  0.00    -0.030 A 
HETATM   23  C   UNL     1      -7.357  -1.580 -34.245  1.00  0.00     0.014 A 
HETATM   24  C   UNL     1      -6.448  -2.535 -34.724  1.00  0.00     0.037 A 
HETATM   25  C   UNL     1      -5.105  -2.466 -34.366  1.00  0.00     0.068 A 
HETATM   26  C   UNL     1      -4.686  -1.443 -33.517  1.00  0.00     0.037 A 
HETATM   27  C   UNL     1      -5.593  -0.484 -33.048  1.00  0.00     0.014 A 
BRANCH  25  28
HETATM   28  O   UNL     1      -4.120  -3.324 -34.766  1.00  0.00    -0.352 OA
BRANCH  28  29
HETATM   29  C   UNL     1      -4.206  -4.668 -34.295  1.00  0.00     0.171 C 
HETATM   30  C   UNL     1      -3.331  -4.790 -33.060  1.00  0.00     0.034 C 
ENDBRANCH  28  29
ENDBRANCH  25  28
ENDBRANCH   1  22
TORSDOF 5
ENDMDL
MODEL 10
REMARK VINA RESULT:      -7.9     14.184     17.439
REMARK  5 active torsions:
REMARK  status: ('A' for Active; 'I' for Inactive)
REMARK    1  A    between atoms: C_2  and  O_3 
REMARK    2  A    between atoms: O_3  and  C_4 
REMARK    3  A    between atoms: C_7  and  C_8 
REMARK       I    between atoms: N_11  and  C_12 
REMARK    4  A    between atoms: C_12  and  C_13 
REMARK    5  A    between atoms: C_15  and  C_16 
ROOT
HETATM    1  C   UNL     1      -7.843   0.371 -32.878  1.00  0.00    -0.049 C 
HETATM    2  C   UNL     1      -7.431   1.255 -31.725  1.00  0.00     0.059 C 
HETATM    3  C   UNL     1      -8.629   1.893 -31.027  1.00  0.00     0.131 C 
HETATM    4  N   UNL     1      -9.580   2.459 -31.980  1.00  0.00    -0.344 N 
HETATM    5  C   UNL     1     -10.304   3.572 -31.537  1.00  0.00     0.254 C 
HETATM    6  O   UNL     1     -10.075   4.149 -30.476  1.00  0.00    -0.267 OA
HETATM    7  C   UNL     1     -10.092   1.539 -32.993  1.00  0.00     0.154 C 
HETATM    8  C   UNL     1      -9.062   0.532 -33.430  1.00  0.00     0.001 C 
ENDROOT
BRANCH   5   9
HETATM    9  C   UNL     1     -11.426   4.092 -32.349  1.00  0.00     0.033 A 
HETATM   10  C   UNL     1     -12.721   3.668 -32.031  1.00  0.00     0.032 A 
HETATM   11  C   UNL     1     -13.826   4.178 -32.725  1.00  0.00     0.014 A 
HETATM   12  C   UNL     1     -13.607   5.120 -33.741  1.00  0.00     0.015 A 
HETATM   13  C   UNL     1     -12.315   5.562 -34.044  1.00  0.00     0.002 A 
HETATM   14  C   UNL     1     -11.222   5.060 -33.338  1.00  0.00     0.017 A 
BRANCH  11  15
HETATM   15  C   UNL     1     -15.182   3.757 -32.382  1.00  0.00     0.181 A 
HETATM   16  N   UNL     1     -15.590   2.479 -32.364  1.00  0.00    -0.152 NA
HETATM   17  N   UNL     1     -16.864   2.593 -31.967  1.00  0.00    -0.263 N 
HETATM   18  H   UNL     1     -17.423   1.757 -31.850  1.00  0.00     0.190 HD
HETATM   19  C   UNL     1     -17.211   3.896 -31.769  1.00  0.00     0.118 A 
HETATM   20  C   UNL     1     -18.557   4.319 -31.333  1.00  0.00     0.093 C 
HETATM   21  N   UNL     1     -16.170   4.655 -32.033  1.00  0.00    -0.212 NA
ENDBRANCH  11  15
ENDBRANCH   5   9
BRANCH   1  22
HETATM   22  C   UNL     1      -6.867  -0.642 -33.361  1.00  0.00    -0.030 A 
HETATM   23  C   UNL     1      -7.299  -1.780 -34.062  1.00  0.00     0.014 A 
HETATM   24  C   UNL     1      -6.388  -2.718 -34.571  1.00  0.00     0.037 A 
HETATM   25  C   UNL     1      -5.020  -2.539 -34.386  1.00  0.00     0.068 A 
HETATM   26  C   UNL     1      -4.577  -1.423 -33.678  1.00  0.00     0.037 A 
HETATM   27  C   UNL     1      -5.487  -0.482 -33.180  1.00  0.00     0.014 A 
BRANCH  25  28
HETATM   28  O   UNL     1      -4.032  -3.369 -34.834  1.00  0.00    -0.352 OA
BRANCH  28  29
HETATM   29  C   UNL     1      -3.932  -4.648 -34.208  1.00  0.00     0.171 C 
HETATM   30  C   UNL     1      -3.295  -4.454 -32.843  1.00  0.00     0.034 C 
ENDBRANCH  28  29
ENDBRANCH  25  28
ENDBRANCH   1  22
TORSDOF 5
ENDMDL
