MODEL 1
REMARK VINA RESULT:      -9.1      0.000      0.000
REMARK  6 active torsions:
REMARK  status: ('A' for Active; 'I' for Inactive)
REMARK    1  A    between atoms: O_2  and  C_3 
REMARK    2  A    between atoms: C_5  and  N_6 
REMARK    3  A    between atoms: C_7  and  O_8 
REMARK    4  A    between atoms: C_7  and  C_9 
REMARK       I    between atoms: C_9  and  N_10 
REMARK    5  A    between atoms: N_10  and  C_11 
REMARK    6  A    between atoms: C_11  and  C_12 
ROOT
HETATM    1  N   UNL     1      -8.066   2.271 -32.816  1.00  0.00    -0.254 N 
HETATM    2  C   UNL     1      -7.534   1.016 -32.256  1.00  0.00     0.256 C 
HETATM    3  C   UNL     1      -6.084   1.125 -31.822  1.00  0.00     0.034 A 
HETATM    4  C   UNL     1      -5.284   2.070 -32.447  1.00  0.00     0.048 A 
HETATM    5  N   UNL     1      -5.872   2.940 -33.354  1.00  0.00    -0.308 N 
HETATM    6  C   UNL     1      -7.217   3.108 -33.529  1.00  0.00     0.330 C 
HETATM    7  O   UNL     1      -7.563   3.977 -34.328  1.00  0.00    -0.246 OA
HETATM    8  C   UNL     1      -5.488   0.237 -30.911  1.00  0.00     0.015 A 
HETATM    9  C   UNL     1      -4.121   0.315 -30.637  1.00  0.00     0.001 A 
HETATM   10  C   UNL     1      -3.334   1.268 -31.281  1.00  0.00     0.002 A 
HETATM   11  C   UNL     1      -3.915   2.148 -32.194  1.00  0.00     0.030 A 
HETATM   12  H   UNL     1      -5.306   3.630 -33.832  1.00  0.00     0.170 HD
ENDROOT
BRANCH   2  13
HETATM   13  O   UNL     1      -8.259   0.687 -31.065  1.00  0.00    -0.359 OA
HETATM   14  H   UNL     1      -9.183   0.569 -31.357  1.00  0.00     0.213 HD
ENDBRANCH   2  13
BRANCH   2  15
HETATM   15  C   UNL     1      -7.647  -0.156 -33.317  1.00  0.00     0.279 C 
HETATM   16  N   UNL     1      -6.518  -0.456 -34.045  1.00  0.00    -0.352 N 
HETATM   17  H   UNL     1      -5.695   0.126 -33.953  1.00  0.00     0.162 HD
HETATM   18  O   UNL     1      -8.695  -0.804 -33.419  1.00  0.00    -0.268 OA
BRANCH  16  19
HETATM   19  C   UNL     1      -6.455  -1.599 -34.924  1.00  0.00     0.163 C 
BRANCH  19  20
HETATM   20  C   UNL     1      -5.475  -2.621 -34.408  1.00  0.00    -0.019 A 
HETATM   21  C   UNL     1      -5.581  -3.987 -34.719  1.00  0.00     0.042 A 
HETATM   22 CL   UNL     1      -6.847  -4.599 -35.724  1.00  0.00    -0.084 Cl
HETATM   23  C   UNL     1      -4.659  -4.907 -34.210  1.00  0.00     0.024 A 
HETATM   24  C   UNL     1      -3.623  -4.477 -33.381  1.00  0.00     0.002 A 
HETATM   25  C   UNL     1      -3.511  -3.128 -33.058  1.00  0.00     0.001 A 
HETATM   26  C   UNL     1      -4.431  -2.207 -33.563  1.00  0.00     0.010 A 
ENDBRANCH  19  20
ENDBRANCH  16  19
ENDBRANCH   2  15
BRANCH   1  27
HETATM   27  C   UNL     1      -9.485   2.551 -32.788  1.00  0.00     0.045 A 
HETATM   28  C   UNL     1     -10.346   1.917 -33.702  1.00  0.00     0.066 A 
HETATM   29  C   UNL     1     -11.721   2.187 -33.745  1.00  0.00     0.070 A 
HETATM   30  C   UNL     1     -12.263   3.108 -32.856  1.00  0.00     0.037 A 
HETATM   31  C   UNL     1     -11.433   3.748 -31.937  1.00  0.00     0.005 A 
HETATM   32  C   UNL     1     -10.061   3.475 -31.906  1.00  0.00     0.030 A 
BRANCH  29  33
HETATM   33  O   UNL     1     -12.410   1.497 -34.707  1.00  0.00    -0.356 OA
HETATM   34  C   UNL     1     -13.567   0.787 -34.287  1.00  0.00     0.210 C 
ENDBRANCH  29  33
ENDBRANCH   1  27
TORSDOF 6
ENDMDL
MODEL 2
REMARK VINA RESULT:      -8.9      1.611      2.063
REMARK  6 active torsions:
REMARK  status: ('A' for Active; 'I' for Inactive)
REMARK    1  A    between atoms: O_2  and  C_3 
REMARK    2  A    between atoms: C_5  and  N_6 
REMARK    3  A    between atoms: C_7  and  O_8 
REMARK    4  A    between atoms: C_7  and  C_9 
REMARK       I    between atoms: C_9  and  N_10 
REMARK    5  A    between atoms: N_10  and  C_11 
REMARK    6  A    between atoms: C_11  and  C_12 
ROOT
HETATM    1  N   UNL     1      -9.531   2.542 -33.129  1.00  0.00    -0.254 N 
HETATM    2  C   UNL     1      -8.711   1.439 -32.602  1.00  0.00     0.256 C 
HETATM    3  C   UNL     1      -7.615   1.908 -31.663  1.00  0.00     0.034 A 
HETATM    4  C   UNL     1      -7.134   3.200 -31.813  1.00  0.00     0.048 A 
HETATM    5  N   UNL     1      -7.750   4.033 -32.736  1.00  0.00    -0.308 N 
HETATM    6  C   UNL     1      -8.938   3.778 -33.359  1.00  0.00     0.330 C 
HETATM    7  O   UNL     1      -9.374   4.662 -34.095  1.00  0.00    -0.246 OA
HETATM    8  C   UNL     1      -6.986   1.060 -30.735  1.00  0.00     0.015 A 
HETATM    9  C   UNL     1      -5.906   1.517 -29.977  1.00  0.00     0.001 A 
HETATM   10  C   UNL     1      -5.433   2.817 -30.149  1.00  0.00     0.002 A 
HETATM   11  C   UNL     1      -6.046   3.663 -31.073  1.00  0.00     0.030 A 
HETATM   12  H   UNL     1      -7.407   4.976 -32.873  1.00  0.00     0.170 HD
ENDROOT
BRANCH   2  13
HETATM   13  O   UNL     1      -9.536   0.572 -31.814  1.00  0.00    -0.359 OA
HETATM   14  H   UNL     1      -9.830   1.120 -31.062  1.00  0.00     0.213 HD
ENDBRANCH   2  13
BRANCH   2  15
HETATM   15  C   UNL     1      -8.034   0.634 -33.788  1.00  0.00     0.279 C 
HETATM   16  N   UNL     1      -7.775  -0.701 -33.575  1.00  0.00    -0.352 N 
HETATM   17  H   UNL     1      -7.932  -1.101 -32.658  1.00  0.00     0.162 HD
HETATM   18  O   UNL     1      -7.821   1.186 -34.873  1.00  0.00    -0.268 OA
BRANCH  16  19
HETATM   19  C   UNL     1      -7.307  -1.568 -34.629  1.00  0.00     0.163 C 
BRANCH  19  20
HETATM   20  C   UNL     1      -6.030  -2.260 -34.230  1.00  0.00    -0.019 A 
HETATM   21  C   UNL     1      -5.726  -3.570 -34.637  1.00  0.00     0.042 A 
HETATM   22 CL   UNL     1      -6.798  -4.490 -35.632  1.00  0.00    -0.084 Cl
HETATM   23  C   UNL     1      -4.535  -4.182 -34.235  1.00  0.00     0.024 A 
HETATM   24  C   UNL     1      -3.634  -3.497 -33.419  1.00  0.00     0.002 A 
HETATM   25  C   UNL     1      -3.926  -2.202 -33.002  1.00  0.00     0.001 A 
HETATM   26  C   UNL     1      -5.115  -1.588 -33.400  1.00  0.00     0.010 A 
ENDBRANCH  19  20
ENDBRANCH  16  19
ENDBRANCH   2  15
BRANCH   1  27
HETATM   27  C   UNL     1     -10.887   2.308 -33.577  1.00  0.00     0.045 A 
HETATM   28  C   UNL     1     -11.972   2.709 -32.778  1.00  0.00     0.066 A 
HETATM   29  C   UNL     1     -13.303   2.465 -33.147  1.00  0.00     0.070 A 
HETATM   30  C   UNL     1     -13.570   1.808 -34.342  1.00  0.00     0.037 A 
HETATM   31  C   UNL     1     -12.512   1.402 -35.155  1.00  0.00     0.005 A 
HETATM   32  C   UNL     1     -11.188   1.646 -34.775  1.00  0.00     0.030 A 
BRANCH  29  33
HETATM   33  O   UNL     1     -14.236   2.906 -32.246  1.00  0.00    -0.356 OA
HETATM   34  C   UNL     1     -15.441   2.160 -32.150  1.00  0.00     0.210 C 
ENDBRANCH  29  33
ENDBRANCH   1  27
TORSDOF 6
ENDMDL
MODEL 3
REMARK VINA RESULT:      -8.8      1.048      1.778
REMARK  6 active torsions:
REMARK  status: ('A' for Active; 'I' for Inactive)
REMARK    1  A    between atoms: O_2  and  C_3 
REMARK    2  A    between atoms: C_5  and  N_6 
REMARK    3  A    between atoms: C_7  and  O_8 
REMARK    4  A    between atoms: C_7  and  C_9 
REMARK       I    between atoms: C_9  and  N_10 
REMARK    5  A    between atoms: N_10  and  C_11 
REMARK    6  A    between atoms: C_11  and  C_12 
ROOT
HETATM    1  N   UNL     1      -7.947   2.301 -32.814  1.00  0.00    -0.254 N 
HETATM    2  C   UNL     1      -7.463   1.036 -32.236  1.00  0.00     0.256 C 
HETATM    3  C   UNL     1      -6.012   1.100 -31.794  1.00  0.00     0.034 A 
HETATM    4  C   UNL     1      -5.177   2.010 -32.425  1.00  0.00     0.048 A 
HETATM    5  N   UNL     1      -5.729   2.889 -33.346  1.00  0.00    -0.308 N 
HETATM    6  C   UNL     1      -7.066   3.100 -33.532  1.00  0.00     0.330 C 
HETATM    7  O   UNL     1      -7.377   3.971 -34.344  1.00  0.00    -0.246 OA
HETATM    8  C   UNL     1      -5.452   0.204 -30.868  1.00  0.00     0.015 A 
HETATM    9  C   UNL     1      -4.085   0.239 -30.586  1.00  0.00     0.001 A 
HETATM   10  C   UNL     1      -3.262   1.156 -31.237  1.00  0.00     0.002 A 
HETATM   11  C   UNL     1      -3.807   2.044 -32.163  1.00  0.00     0.030 A 
HETATM   12  H   UNL     1      -5.136   3.553 -33.829  1.00  0.00     0.170 HD
ENDROOT
BRANCH   2  13
HETATM   13  O   UNL     1      -8.206   0.746 -31.046  1.00  0.00    -0.359 OA
HETATM   14  H   UNL     1      -8.492  -0.181 -31.148  1.00  0.00     0.213 HD
ENDBRANCH   2  13
BRANCH   2  15
HETATM   15  C   UNL     1      -7.609  -0.145 -33.284  1.00  0.00     0.279 C 
HETATM   16  N   UNL     1      -6.496  -0.466 -34.029  1.00  0.00    -0.352 N 
HETATM   17  H   UNL     1      -5.664   0.107 -33.957  1.00  0.00     0.162 HD
HETATM   18  O   UNL     1      -8.666  -0.780 -33.362  1.00  0.00    -0.268 OA
BRANCH  16  19
HETATM   19  C   UNL     1      -6.463  -1.617 -34.897  1.00  0.00     0.163 C 
BRANCH  19  20
HETATM   20  C   UNL     1      -5.471  -2.637 -34.401  1.00  0.00    -0.019 A 
HETATM   21  C   UNL     1      -5.560  -3.998 -34.740  1.00  0.00     0.042 A 
HETATM   22 CL   UNL     1      -6.816  -4.606 -35.759  1.00  0.00    -0.084 Cl
HETATM   23  C   UNL     1      -4.627  -4.917 -34.248  1.00  0.00     0.024 A 
HETATM   24  C   UNL     1      -3.598  -4.491 -33.409  1.00  0.00     0.002 A 
HETATM   25  C   UNL     1      -3.502  -3.147 -33.058  1.00  0.00     0.001 A 
HETATM   26  C   UNL     1      -4.433  -2.228 -33.546  1.00  0.00     0.010 A 
ENDBRANCH  19  20
ENDBRANCH  16  19
ENDBRANCH   2  15
BRANCH   1  27
HETATM   27  C   UNL     1      -9.356   2.629 -32.800  1.00  0.00     0.045 A 
HETATM   28  C   UNL     1      -9.861   3.528 -31.843  1.00  0.00     0.066 A 
HETATM   29  C   UNL     1     -11.224   3.844 -31.759  1.00  0.00     0.070 A 
HETATM   30  C   UNL     1     -12.116   3.258 -32.650  1.00  0.00     0.037 A 
HETATM   31  C   UNL     1     -11.642   2.366 -33.611  1.00  0.00     0.005 A 
HETATM   32  C   UNL     1     -10.280   2.053 -33.682  1.00  0.00     0.030 A 
BRANCH  29  33
HETATM   33  O   UNL     1     -11.547   4.722 -30.759  1.00  0.00    -0.356 OA
HETATM   34  C   UNL     1     -10.651   5.801 -30.533  1.00  0.00     0.210 C 
ENDBRANCH  29  33
ENDBRANCH   1  27
TORSDOF 6
ENDMDL
MODEL 4
REMARK VINA RESULT:      -8.8      2.547      5.805
REMARK  6 active torsions:
REMARK  status: ('A' for Active; 'I' for Inactive)
REMARK    1  A    between atoms: O_2  and  C_3 
REMARK    2  A    between atoms: C_5  and  N_6 
REMARK    3  A    between atoms: C_7  and  O_8 
REMARK    4  A    between atoms: C_7  and  C_9 
REMARK       I    between atoms: C_9  and  N_10 
REMARK    5  A    between atoms: N_10  and  C_11 
REMARK    6  A    between atoms: C_11  and  C_12 
ROOT
HETATM    1  N   UNL     1      -6.224   3.629 -33.023  1.00  0.00    -0.254 N 
HETATM    2  C   UNL     1      -6.712   2.332 -33.522  1.00  0.00     0.256 C 
HETATM    3  C   UNL     1      -8.226   2.220 -33.508  1.00  0.00     0.034 A 
HETATM    4  C   UNL     1      -8.929   2.991 -32.593  1.00  0.00     0.048 A 
HETATM    5  N   UNL     1      -8.228   3.902 -31.816  1.00  0.00    -0.308 N 
HETATM    6  C   UNL     1      -6.931   4.280 -32.021  1.00  0.00     0.330 C 
HETATM    7  O   UNL     1      -6.491   5.156 -31.277  1.00  0.00    -0.246 OA
HETATM    8  C   UNL     1      -8.933   1.291 -34.288  1.00  0.00     0.015 A 
HETATM    9  C   UNL     1     -10.316   1.156 -34.149  1.00  0.00     0.001 A 
HETATM   10  C   UNL     1     -11.002   1.934 -33.219  1.00  0.00     0.002 A 
HETATM   11  C   UNL     1     -10.308   2.853 -32.434  1.00  0.00     0.030 A 
HETATM   12  H   UNL     1      -8.718   4.465 -31.133  1.00  0.00     0.170 HD
ENDROOT
BRANCH   2  13
HETATM   13  O   UNL     1      -6.337   2.183 -34.897  1.00  0.00    -0.359 OA
HETATM   14  H   UNL     1      -6.338   1.220 -35.055  1.00  0.00     0.213 HD
ENDBRANCH   2  13
BRANCH   2  15
HETATM   15  C   UNL     1      -6.121   1.145 -32.653  1.00  0.00     0.279 C 
HETATM   16  N   UNL     1      -5.336   0.219 -33.304  1.00  0.00    -0.352 N 
HETATM   17  H   UNL     1      -5.238   0.267 -34.311  1.00  0.00     0.162 HD
HETATM   18  O   UNL     1      -6.312   1.112 -31.433  1.00  0.00    -0.268 OA
BRANCH  16  19
HETATM   19  C   UNL     1      -4.619  -0.812 -32.594  1.00  0.00     0.163 C 
BRANCH  19  20
HETATM   20  C   UNL     1      -4.721  -2.131 -33.314  1.00  0.00    -0.019 A 
HETATM   21  C   UNL     1      -3.901  -3.226 -32.995  1.00  0.00     0.042 A 
HETATM   22 CL   UNL     1      -2.711  -3.143 -31.745  1.00  0.00    -0.084 Cl
HETATM   23  C   UNL     1      -4.017  -4.431 -33.696  1.00  0.00     0.024 A 
HETATM   24  C   UNL     1      -4.949  -4.557 -34.725  1.00  0.00     0.002 A 
HETATM   25  C   UNL     1      -5.763  -3.478 -35.058  1.00  0.00     0.001 A 
HETATM   26  C   UNL     1      -5.648  -2.273 -34.361  1.00  0.00     0.010 A 
ENDBRANCH  19  20
ENDBRANCH  16  19
ENDBRANCH   2  15
BRANCH   1  27
HETATM   27  C   UNL     1      -4.933   4.139 -33.432  1.00  0.00     0.045 A 
HETATM   28  C   UNL     1      -3.802   3.924 -32.623  1.00  0.00     0.066 A 
HETATM   29  C   UNL     1      -2.539   4.436 -32.953  1.00  0.00     0.070 A 
HETATM   30  C   UNL     1      -2.387   5.179 -34.118  1.00  0.00     0.037 A 
HETATM   31  C   UNL     1      -3.491   5.405 -34.939  1.00  0.00     0.005 A 
HETATM   32  C   UNL     1      -4.748   4.895 -34.598  1.00  0.00     0.030 A 
BRANCH  29  33
HETATM   33  O   UNL     1      -1.552   4.149 -32.048  1.00  0.00    -0.356 OA
HETATM   34  C   UNL     1      -0.872   5.252 -31.464  1.00  0.00     0.210 C 
ENDBRANCH  29  33
ENDBRANCH   1  27
TORSDOF 6
ENDMDL
MODEL 5
REMARK VINA RESULT:      -8.7      2.767      4.126
REMARK  6 active torsions:
REMARK  status: ('A' for Active; 'I' for Inactive)
REMARK    1  A    between atoms: O_2  and  C_3 
REMARK    2  A    between atoms: C_5  and  N_6 
REMARK    3  A    between atoms: C_7  and  O_8 
REMARK    4  A    between atoms: C_7  and  C_9 
REMARK       I    between atoms: C_9  and  N_10 
REMARK    5  A    between atoms: N_10  and  C_11 
REMARK    6  A    between atoms: C_11  and  C_12 
ROOT
HETATM    1  N   UNL     1      -5.452   3.914 -32.353  1.00  0.00    -0.254 N 
HETATM    2  C   UNL     1      -4.157   3.719 -31.680  1.00  0.00     0.256 C 
HETATM    3  C   UNL     1      -3.039   4.546 -32.288  1.00  0.00     0.034 A 
HETATM    4  C   UNL     1      -3.149   4.912 -33.622  1.00  0.00     0.048 A 
HETATM    5  N   UNL     1      -4.319   4.602 -34.300  1.00  0.00    -0.308 N 
HETATM    6  C   UNL     1      -5.475   4.164 -33.720  1.00  0.00     0.330 C 
HETATM    7  O   UNL     1      -6.439   4.006 -34.467  1.00  0.00    -0.246 OA
HETATM    8  C   UNL     1      -1.852   4.852 -31.602  1.00  0.00     0.015 A 
HETATM    9  C   UNL     1      -0.811   5.518 -32.252  1.00  0.00     0.001 A 
HETATM   10  C   UNL     1      -0.938   5.871 -33.594  1.00  0.00     0.002 A 
HETATM   11  C   UNL     1      -2.110   5.564 -34.285  1.00  0.00     0.030 A 
HETATM   12  H   UNL     1      -4.416   4.847 -35.278  1.00  0.00     0.170 HD
ENDROOT
BRANCH   2  13
HETATM   13  O   UNL     1      -4.259   4.165 -30.323  1.00  0.00    -0.359 OA
HETATM   14  H   UNL     1      -3.716   3.537 -29.810  1.00  0.00     0.213 HD
ENDBRANCH   2  13
BRANCH   2  15
HETATM   15  C   UNL     1      -3.728   2.194 -31.733  1.00  0.00     0.279 C 
HETATM   16  N   UNL     1      -4.310   1.410 -32.704  1.00  0.00    -0.352 N 
HETATM   17  H   UNL     1      -5.046   1.795 -33.283  1.00  0.00     0.162 HD
HETATM   18  O   UNL     1      -2.857   1.765 -30.968  1.00  0.00    -0.268 OA
BRANCH  16  19
HETATM   19  C   UNL     1      -3.886   0.053 -32.948  1.00  0.00     0.163 C 
BRANCH  19  20
HETATM   20  C   UNL     1      -4.966  -0.731 -33.647  1.00  0.00    -0.019 A 
HETATM   21  C   UNL     1      -4.927  -2.131 -33.757  1.00  0.00     0.042 A 
HETATM   22 CL   UNL     1      -3.633  -3.064 -33.093  1.00  0.00    -0.084 Cl
HETATM   23  C   UNL     1      -5.944  -2.822 -34.425  1.00  0.00     0.024 A 
HETATM   24  C   UNL     1      -7.008  -2.124 -34.995  1.00  0.00     0.002 A 
HETATM   25  C   UNL     1      -7.056  -0.736 -34.902  1.00  0.00     0.001 A 
HETATM   26  C   UNL     1      -6.042  -0.044 -34.237  1.00  0.00     0.010 A 
ENDBRANCH  19  20
ENDBRANCH  16  19
ENDBRANCH   2  15
BRANCH   1  27
HETATM   27  C   UNL     1      -6.694   3.669 -31.652  1.00  0.00     0.045 A 
HETATM   28  C   UNL     1      -7.325   2.416 -31.751  1.00  0.00     0.066 A 
HETATM   29  C   UNL     1      -8.551   2.144 -31.128  1.00  0.00     0.070 A 
HETATM   30  C   UNL     1      -9.171   3.139 -30.380  1.00  0.00     0.037 A 
HETATM   31  C   UNL     1      -8.566   4.389 -30.264  1.00  0.00     0.005 A 
HETATM   32  C   UNL     1      -7.345   4.652 -30.895  1.00  0.00     0.030 A 
BRANCH  29  33
HETATM   33  O   UNL     1      -9.033   0.881 -31.341  1.00  0.00    -0.356 OA
HETATM   34  C   UNL     1      -9.594   0.612 -32.619  1.00  0.00     0.210 C 
ENDBRANCH  29  33
ENDBRANCH   1  27
TORSDOF 6
ENDMDL
MODEL 6
REMARK VINA RESULT:      -8.5      1.228      1.546
REMARK  6 active torsions:
REMARK  status: ('A' for Active; 'I' for Inactive)
REMARK    1  A    between atoms: O_2  and  C_3 
REMARK    2  A    between atoms: C_5  and  N_6 
REMARK    3  A    between atoms: C_7  and  O_8 
REMARK    4  A    between atoms: C_7  and  C_9 
REMARK       I    between atoms: C_9  and  N_10 
REMARK    5  A    between atoms: N_10  and  C_11 
REMARK    6  A    between atoms: C_11  and  C_12 
ROOT
HETATM    1  N   UNL     1      -7.932   2.594 -32.237  1.00  0.00    -0.254 N 
HETATM    2  C   UNL     1      -7.498   1.212 -31.974  1.00  0.00     0.256 C 
HETATM    3  C   UNL     1      -6.031   1.109 -31.598  1.00  0.00     0.034 A 
HETATM    4  C   UNL     1      -5.170   2.097 -32.052  1.00  0.00     0.048 A 
HETATM    5  N   UNL     1      -5.705   3.183 -32.730  1.00  0.00    -0.308 N 
HETATM    6  C   UNL     1      -7.034   3.491 -32.802  1.00  0.00     0.330 C 
HETATM    7  O   UNL     1      -7.325   4.534 -33.387  1.00  0.00    -0.246 OA
HETATM    8  C   UNL     1      -5.490   0.005 -30.919  1.00  0.00     0.015 A 
HETATM    9  C   UNL     1      -4.113  -0.087 -30.700  1.00  0.00     0.001 A 
HETATM   10  C   UNL     1      -3.265   0.913 -31.171  1.00  0.00     0.002 A 
HETATM   11  C   UNL     1      -3.792   2.009 -31.854  1.00  0.00     0.030 A 
HETATM   12  H   UNL     1      -5.094   3.909 -33.082  1.00  0.00     0.170 HD
ENDROOT
BRANCH   2  13
HETATM   13  O   UNL     1      -8.213   0.699 -30.844  1.00  0.00    -0.359 OA
HETATM   14  H   UNL     1      -8.862   1.393 -30.621  1.00  0.00     0.213 HD
ENDBRANCH   2  13
BRANCH   2  15
HETATM   15  C   UNL     1      -7.746   0.301 -33.248  1.00  0.00     0.279 C 
HETATM   16  N   UNL     1      -6.663   0.043 -34.058  1.00  0.00    -0.352 N 
HETATM   17  H   UNL     1      -5.781   0.506 -33.876  1.00  0.00     0.162 HD
HETATM   18  O   UNL     1      -8.858  -0.201 -33.447  1.00  0.00    -0.268 OA
BRANCH  16  19
HETATM   19  C   UNL     1      -6.732  -0.894 -35.152  1.00  0.00     0.163 C 
BRANCH  19  20
HETATM   20  C   UNL     1      -6.097  -2.208 -34.777  1.00  0.00    -0.019 A 
HETATM   21  C   UNL     1      -4.795  -2.291 -34.256  1.00  0.00     0.042 A 
HETATM   22 CL   UNL     1      -3.820  -0.887 -34.002  1.00  0.00    -0.084 Cl
HETATM   23  C   UNL     1      -4.236  -3.532 -33.931  1.00  0.00     0.024 A 
HETATM   24  C   UNL     1      -4.967  -4.703 -34.125  1.00  0.00     0.002 A 
HETATM   25  C   UNL     1      -6.255  -4.637 -34.649  1.00  0.00     0.001 A 
HETATM   26  C   UNL     1      -6.815  -3.400 -34.975  1.00  0.00     0.010 A 
ENDBRANCH  19  20
ENDBRANCH  16  19
ENDBRANCH   2  15
BRANCH   1  27
HETATM   27  C   UNL     1      -9.319   2.976 -32.084  1.00  0.00     0.045 A 
HETATM   28  C   UNL     1     -10.227   2.768 -33.138  1.00  0.00     0.066 A 
HETATM   29  C   UNL     1     -11.571   3.160 -33.056  1.00  0.00     0.070 A 
HETATM   30  C   UNL     1     -12.033   3.772 -31.896  1.00  0.00     0.037 A 
HETATM   31  C   UNL     1     -11.155   3.987 -30.835  1.00  0.00     0.005 A 
HETATM   32  C   UNL     1      -9.814   3.597 -30.930  1.00  0.00     0.030 A 
BRANCH  29  33
HETATM   33  O   UNL     1     -12.312   2.901 -34.178  1.00  0.00    -0.356 OA
HETATM   34  C   UNL     1     -12.098   1.650 -34.818  1.00  0.00     0.210 C 
ENDBRANCH  29  33
ENDBRANCH   1  27
TORSDOF 6
ENDMDL
MODEL 7
REMARK VINA RESULT:      -8.5      2.428      6.654
REMARK  6 active torsions:
REMARK  status: ('A' for Active; 'I' for Inactive)
REMARK    1  A    between atoms: O_2  and  C_3 
REMARK    2  A    between atoms: C_5  and  N_6 
REMARK    3  A    between atoms: C_7  and  O_8 
REMARK    4  A    between atoms: C_7  and  C_9 
REMARK       I    between atoms: C_9  and  N_10 
REMARK    5  A    between atoms: N_10  and  C_11 
REMARK    6  A    between atoms: C_11  and  C_12 
ROOT
HETATM    1  N   UNL     1      -5.120   0.808 -32.702  1.00  0.00    -0.254 N 
HETATM    2  C   UNL     1      -5.730   2.095 -33.078  1.00  0.00     0.256 C 
HETATM    3  C   UNL     1      -4.793   3.274 -32.891  1.00  0.00     0.034 A 
HETATM    4  C   UNL     1      -3.785   3.165 -31.944  1.00  0.00     0.048 A 
HETATM    5  N   UNL     1      -3.614   1.950 -31.296  1.00  0.00    -0.308 N 
HETATM    6  C   UNL     1      -4.201   0.771 -31.661  1.00  0.00     0.330 C 
HETATM    7  O   UNL     1      -3.879  -0.225 -31.016  1.00  0.00    -0.246 OA
HETATM    8  C   UNL     1      -4.973   4.507 -33.541  1.00  0.00     0.015 A 
HETATM    9  C   UNL     1      -4.147   5.592 -33.243  1.00  0.00     0.001 A 
HETATM   10  C   UNL     1      -3.145   5.463 -32.283  1.00  0.00     0.002 A 
HETATM   11  C   UNL     1      -2.964   4.246 -31.627  1.00  0.00     0.030 A 
HETATM   12  H   UNL     1      -2.894   1.850 -30.592  1.00  0.00     0.170 HD
ENDROOT
BRANCH   2  13
HETATM   13  O   UNL     1      -6.040   2.079 -34.476  1.00  0.00    -0.359 OA
HETATM   14  H   UNL     1      -5.181   2.187 -34.926  1.00  0.00     0.213 HD
ENDBRANCH   2  13
BRANCH   2  15
HETATM   15  C   UNL     1      -7.037   2.361 -32.222  1.00  0.00     0.279 C 
HETATM   16  N   UNL     1      -8.206   2.588 -32.912  1.00  0.00    -0.352 N 
HETATM   17  H   UNL     1      -8.182   2.671 -33.921  1.00  0.00     0.162 HD
HETATM   18  O   UNL     1      -6.997   2.294 -30.988  1.00  0.00    -0.268 OA
BRANCH  16  19
HETATM   19  C   UNL     1      -9.482   2.688 -32.246  1.00  0.00     0.163 C 
BRANCH  19  20
HETATM   20  C   UNL     1     -10.614   2.573 -33.233  1.00  0.00    -0.019 A 
HETATM   21  C   UNL     1     -11.162   1.334 -33.607  1.00  0.00     0.042 A 
HETATM   22 CL   UNL     1     -10.579  -0.157 -32.957  1.00  0.00    -0.084 Cl
HETATM   23  C   UNL     1     -12.205   1.268 -34.537  1.00  0.00     0.024 A 
HETATM   24  C   UNL     1     -12.711   2.435 -35.108  1.00  0.00     0.002 A 
HETATM   25  C   UNL     1     -12.172   3.669 -34.754  1.00  0.00     0.001 A 
HETATM   26  C   UNL     1     -11.130   3.738 -33.827  1.00  0.00     0.010 A 
ENDBRANCH  19  20
ENDBRANCH  16  19
ENDBRANCH   2  15
BRANCH   1  27
HETATM   27  C   UNL     1      -5.598  -0.432 -33.275  1.00  0.00     0.045 A 
HETATM   28  C   UNL     1      -4.681  -1.398 -33.728  1.00  0.00     0.066 A 
HETATM   29  C   UNL     1      -5.093  -2.595 -34.330  1.00  0.00     0.070 A 
HETATM   30  C   UNL     1      -6.451  -2.848 -34.488  1.00  0.00     0.037 A 
HETATM   31  C   UNL     1      -7.381  -1.908 -34.045  1.00  0.00     0.005 A 
HETATM   32  C   UNL     1      -6.959  -0.714 -33.450  1.00  0.00     0.030 A 
BRANCH  29  33
HETATM   33  O   UNL     1      -4.072  -3.416 -34.729  1.00  0.00    -0.356 OA
HETATM   34  C   UNL     1      -3.667  -4.430 -33.819  1.00  0.00     0.210 C 
ENDBRANCH  29  33
ENDBRANCH   1  27
TORSDOF 6
ENDMDL
MODEL 8
REMARK VINA RESULT:      -8.5      2.507      6.940
REMARK  6 active torsions:
REMARK  status: ('A' for Active; 'I' for Inactive)
REMARK    1  A    between atoms: O_2  and  C_3 
REMARK    2  A    between atoms: C_5  and  N_6 
REMARK    3  A    between atoms: C_7  and  O_8 
REMARK    4  A    between atoms: C_7  and  C_9 
REMARK       I    between atoms: C_9  and  N_10 
REMARK    5  A    between atoms: N_10  and  C_11 
REMARK    6  A    between atoms: C_11  and  C_12 
ROOT
HETATM    1  N   UNL     1      -6.486   1.141 -31.681  1.00  0.00    -0.254 N 
HETATM    2  C   UNL     1      -7.396   2.128 -32.287  1.00  0.00     0.256 C 
HETATM    3  C   UNL     1      -7.503   3.411 -31.483  1.00  0.00     0.034 A 
HETATM    4  C   UNL     1      -7.256   3.350 -30.119  1.00  0.00     0.048 A 
HETATM    5  N   UNL     1      -6.817   2.150 -29.578  1.00  0.00    -0.308 N 
HETATM    6  C   UNL     1      -6.385   1.071 -30.297  1.00  0.00     0.330 C 
HETATM    7  O   UNL     1      -5.962   0.114 -29.650  1.00  0.00    -0.246 OA
HETATM    8  C   UNL     1      -7.957   4.622 -32.030  1.00  0.00     0.015 A 
HETATM    9  C   UNL     1      -8.144   5.741 -31.215  1.00  0.00     0.001 A 
HETATM   10  C   UNL     1      -7.896   5.656 -29.847  1.00  0.00     0.002 A 
HETATM   11  C   UNL     1      -7.454   4.456 -29.293  1.00  0.00     0.030 A 
HETATM   12  H   UNL     1      -6.643   2.078 -28.583  1.00  0.00     0.170 HD
ENDROOT
BRANCH   2  13
HETATM   13  O   UNL     1      -6.878   2.526 -33.562  1.00  0.00    -0.359 OA
HETATM   14  H   UNL     1      -7.122   3.467 -33.650  1.00  0.00     0.213 HD
ENDBRANCH   2  13
BRANCH   2  15
HETATM   15  C   UNL     1      -8.850   1.518 -32.443  1.00  0.00     0.279 C 
HETATM   16  N   UNL     1      -9.515   1.771 -33.622  1.00  0.00    -0.352 N 
HETATM   17  H   UNL     1      -9.106   2.401 -34.301  1.00  0.00     0.162 HD
HETATM   18  O   UNL     1      -9.320   0.794 -31.559  1.00  0.00    -0.268 OA
BRANCH  16  19
HETATM   19  C   UNL     1     -10.774   1.143 -33.941  1.00  0.00     0.163 C 
BRANCH  19  20
HETATM   20  C   UNL     1     -11.930   1.998 -33.491  1.00  0.00    -0.019 A 
HETATM   21  C   UNL     1     -13.230   1.485 -33.340  1.00  0.00     0.042 A 
HETATM   22 CL   UNL     1     -13.601  -0.172 -33.659  1.00  0.00    -0.084 Cl
HETATM   23  C   UNL     1     -14.280   2.314 -32.932  1.00  0.00     0.024 A 
HETATM   24  C   UNL     1     -14.047   3.665 -32.673  1.00  0.00     0.002 A 
HETATM   25  C   UNL     1     -12.767   4.189 -32.826  1.00  0.00     0.001 A 
HETATM   26  C   UNL     1     -11.717   3.364 -33.235  1.00  0.00     0.010 A 
ENDBRANCH  19  20
ENDBRANCH  16  19
ENDBRANCH   2  15
BRANCH   1  27
HETATM   27  C   UNL     1      -5.841   0.133 -32.494  1.00  0.00     0.045 A 
HETATM   28  C   UNL     1      -6.608  -0.872 -33.111  1.00  0.00     0.066 A 
HETATM   29  C   UNL     1      -6.026  -1.896 -33.872  1.00  0.00     0.070 A 
HETATM   30  C   UNL     1      -4.645  -1.926 -34.032  1.00  0.00     0.037 A 
HETATM   31  C   UNL     1      -3.862  -0.941 -33.433  1.00  0.00     0.005 A 
HETATM   32  C   UNL     1      -4.452   0.073 -32.671  1.00  0.00     0.030 A 
BRANCH  29  33
HETATM   33  O   UNL     1      -6.915  -2.801 -34.387  1.00  0.00    -0.356 OA
HETATM   34  C   UNL     1      -6.372  -3.978 -34.969  1.00  0.00     0.210 C 
ENDBRANCH  29  33
ENDBRANCH   1  27
TORSDOF 6
ENDMDL
MODEL 9
REMARK VINA RESULT:      -8.3      3.836      7.138
REMARK  6 active torsions:
REMARK  status: ('A' for Active; 'I' for Inactive)
REMARK    1  A    between atoms: O_2  and  C_3 
REMARK    2  A    between atoms: C_5  and  N_6 
REMARK    3  A    between atoms: C_7  and  O_8 
REMARK    4  A    between atoms: C_7  and  C_9 
REMARK       I    between atoms: C_9  and  N_10 
REMARK    5  A    between atoms: N_10  and  C_11 
REMARK    6  A    between atoms: C_11  and  C_12 
ROOT
HETATM    1  N   UNL     1      -4.141   5.185 -31.609  1.00  0.00    -0.254 N 
HETATM    2  C   UNL     1      -4.617   4.172 -32.566  1.00  0.00     0.256 C 
HETATM    3  C   UNL     1      -6.130   4.120 -32.673  1.00  0.00     0.034 A 
HETATM    4  C   UNL     1      -6.878   4.537 -31.582  1.00  0.00     0.048 A 
HETATM    5  N   UNL     1      -6.212   5.083 -30.493  1.00  0.00    -0.308 N 
HETATM    6  C   UNL     1      -4.900   5.460 -30.479  1.00  0.00     0.330 C 
HETATM    7  O   UNL     1      -4.493   5.994 -29.448  1.00  0.00    -0.246 OA
HETATM    8  C   UNL     1      -6.802   3.559 -33.773  1.00  0.00     0.015 A 
HETATM    9  C   UNL     1      -8.193   3.435 -33.765  1.00  0.00     0.001 A 
HETATM   10  C   UNL     1      -8.924   3.854 -32.655  1.00  0.00     0.002 A 
HETATM   11  C   UNL     1      -8.266   4.404 -31.556  1.00  0.00     0.030 A 
HETATM   12  H   UNL     1      -6.736   5.382 -29.680  1.00  0.00     0.170 HD
ENDROOT
BRANCH   2  13
HETATM   13  O   UNL     1      -4.158   4.511 -33.880  1.00  0.00    -0.359 OA
HETATM   14  H   UNL     1      -3.606   5.306 -33.756  1.00  0.00     0.213 HD
ENDBRANCH   2  13
BRANCH   2  15
HETATM   15  C   UNL     1      -4.101   2.732 -32.152  1.00  0.00     0.279 C 
HETATM   16  N   UNL     1      -4.974   1.926 -31.456  1.00  0.00    -0.352 N 
HETATM   17  H   UNL     1      -5.865   2.300 -31.153  1.00  0.00     0.162 HD
HETATM   18  O   UNL     1      -2.983   2.345 -32.510  1.00  0.00    -0.268 OA
BRANCH  16  19
HETATM   19  C   UNL     1      -4.674   0.546 -31.162  1.00  0.00     0.163 C 
BRANCH  19  20
HETATM   20  C   UNL     1      -5.163  -0.357 -32.265  1.00  0.00    -0.019 A 
HETATM   21  C   UNL     1      -6.525  -0.482 -32.586  1.00  0.00     0.042 A 
HETATM   22 CL   UNL     1      -7.747   0.398 -31.740  1.00  0.00    -0.084 Cl
HETATM   23  C   UNL     1      -6.939  -1.341 -33.609  1.00  0.00     0.024 A 
HETATM   24  C   UNL     1      -6.002  -2.089 -34.320  1.00  0.00     0.002 A 
HETATM   25  C   UNL     1      -4.650  -1.982 -34.008  1.00  0.00     0.001 A 
HETATM   26  C   UNL     1      -4.233  -1.126 -32.986  1.00  0.00     0.010 A 
ENDBRANCH  19  20
ENDBRANCH  16  19
ENDBRANCH   2  15
BRANCH   1  27
HETATM   27  C   UNL     1      -2.818   5.759 -31.737  1.00  0.00     0.045 A 
HETATM   28  C   UNL     1      -1.690   5.027 -31.327  1.00  0.00     0.066 A 
HETATM   29  C   UNL     1      -0.393   5.555 -31.390  1.00  0.00     0.070 A 
HETATM   30  C   UNL     1      -0.204   6.844 -31.875  1.00  0.00     0.037 A 
HETATM   31  C   UNL     1      -1.305   7.591 -32.291  1.00  0.00     0.005 A 
HETATM   32  C   UNL     1      -2.596   7.056 -32.219  1.00  0.00     0.030 A 
BRANCH  29  33
HETATM   33  O   UNL     1       0.589   4.717 -30.934  1.00  0.00    -0.356 OA
HETATM   34  C   UNL     1       0.884   4.763 -29.544  1.00  0.00     0.210 C 
ENDBRANCH  29  33
ENDBRANCH   1  27
TORSDOF 6
ENDMDL
MODEL 10
REMARK VINA RESULT:      -8.3     14.442     16.625
REMARK  6 active torsions:
REMARK  status: ('A' for Active; 'I' for Inactive)
REMARK    1  A    between atoms: O_2  and  C_3 
REMARK    2  A    between atoms: C_5  and  N_6 
REMARK    3  A    between atoms: C_7  and  O_8 
REMARK    4  A    between atoms: C_7  and  C_9 
REMARK       I    between atoms: C_9  and  N_10 
REMARK    5  A    between atoms: N_10  and  C_11 
REMARK    6  A    between atoms: C_11  and  C_12 
ROOT
HETATM    1  N   UNL     1      -3.996 -13.867 -38.132  1.00  0.00    -0.254 N 
HETATM    2  C   UNL     1      -3.853 -15.032 -39.022  1.00  0.00     0.256 C 
HETATM    3  C   UNL     1      -2.422 -15.265 -39.472  1.00  0.00     0.034 A 
HETATM    4  C   UNL     1      -1.563 -14.177 -39.509  1.00  0.00     0.048 A 
HETATM    5  N   UNL     1      -2.019 -12.956 -39.032  1.00  0.00    -0.308 N 
HETATM    6  C   UNL     1      -3.165 -12.768 -38.314  1.00  0.00     0.330 C 
HETATM    7  O   UNL     1      -3.378 -11.627 -37.908  1.00  0.00    -0.246 OA
HETATM    8  C   UNL     1      -1.965 -16.500 -39.964  1.00  0.00     0.015 A 
HETATM    9  C   UNL     1      -0.669 -16.624 -40.470  1.00  0.00     0.001 A 
HETATM   10  C   UNL     1       0.175 -15.516 -40.505  1.00  0.00     0.002 A 
HETATM   11  C   UNL     1      -0.272 -14.285 -40.027  1.00  0.00     0.030 A 
HETATM   12  H   UNL     1      -1.413 -12.145 -39.061  1.00  0.00     0.170 HD
ENDROOT
BRANCH   2  13
HETATM   13  O   UNL     1      -4.222 -16.219 -38.310  1.00  0.00    -0.359 OA
HETATM   14  H   UNL     1      -3.450 -16.427 -37.750  1.00  0.00     0.213 HD
ENDBRANCH   2  13
BRANCH   2  15
HETATM   15  C   UNL     1      -4.755 -14.856 -40.314  1.00  0.00     0.279 C 
HETATM   16  N   UNL     1      -6.051 -15.316 -40.243  1.00  0.00    -0.352 N 
HETATM   17  H   UNL     1      -6.356 -15.825 -39.423  1.00  0.00     0.162 HD
HETATM   18  O   UNL     1      -4.313 -14.267 -41.306  1.00  0.00    -0.268 OA
BRANCH  16  19
HETATM   19  C   UNL     1      -7.008 -15.073 -41.295  1.00  0.00     0.163 C 
BRANCH  19  20
HETATM   20  C   UNL     1      -8.174 -14.266 -40.786  1.00  0.00    -0.019 A 
HETATM   21  C   UNL     1      -8.100 -12.876 -40.597  1.00  0.00     0.042 A 
HETATM   22 CL   UNL     1      -6.661 -11.982 -40.939  1.00  0.00    -0.084 Cl
HETATM   23  C   UNL     1      -9.201 -12.164 -40.110  1.00  0.00     0.024 A 
HETATM   24  C   UNL     1     -10.387 -12.830 -39.802  1.00  0.00     0.002 A 
HETATM   25  C   UNL     1     -10.472 -14.209 -39.976  1.00  0.00     0.001 A 
HETATM   26  C   UNL     1      -9.374 -14.922 -40.461  1.00  0.00     0.010 A 
ENDBRANCH  19  20
ENDBRANCH  16  19
ENDBRANCH   2  15
BRANCH   1  27
HETATM   27  C   UNL     1      -5.098 -13.781 -37.198  1.00  0.00     0.045 A 
HETATM   28  C   UNL     1      -4.902 -14.112 -35.845  1.00  0.00     0.066 A 
HETATM   29  C   UNL     1      -5.948 -14.087 -34.911  1.00  0.00     0.070 A 
HETATM   30  C   UNL     1      -7.223 -13.721 -35.324  1.00  0.00     0.037 A 
HETATM   31  C   UNL     1      -7.444 -13.385 -36.659  1.00  0.00     0.005 A 
HETATM   32  C   UNL     1      -6.395 -13.418 -37.585  1.00  0.00     0.030 A 
BRANCH  29  33
HETATM   33  O   UNL     1      -5.589 -14.455 -33.642  1.00  0.00    -0.356 OA
HETATM   34  C   UNL     1      -5.644 -13.450 -32.639  1.00  0.00     0.210 C 
ENDBRANCH  29  33
ENDBRANCH   1  27
TORSDOF 6
ENDMDL
