MODEL 1
REMARK VINA RESULT:      -9.9      0.000      0.000
REMARK  3 active torsions:
REMARK  status: ('A' for Active; 'I' for Inactive)
REMARK    1  A    between atoms: C_2  and  C_3 
REMARK    2  A    between atoms: C_8  and  C_9 
REMARK       I    between atoms: C_9  and  N_10 
REMARK    3  A    between atoms: N_10  and  C_11 
ROOT
HETATM    1  C   UNL     1      -7.398   3.678 -33.701  1.00  0.00     0.104 A 
HETATM    2  N   UNL     1      -8.252   4.643 -34.088  1.00  0.00    -0.174 NA
HETATM    3  N   UNL     1      -9.432   4.027 -34.214  1.00  0.00    -0.288 N 
HETATM    4  H   UNL     1     -10.241   4.584 -34.473  1.00  0.00     0.188 HD
HETATM    5  C   UNL     1      -9.371   2.696 -33.974  1.00  0.00     0.128 A 
HETATM    6  C   UNL     1      -8.054   2.403 -33.667  1.00  0.00     0.080 A 
ENDROOT
BRANCH   6   7
HETATM    7  C   UNL     1      -7.594   1.047 -33.380  1.00  0.00     0.260 C 
HETATM    8  N   UNL     1      -6.515   0.628 -34.136  1.00  0.00    -0.323 N 
HETATM    9  H   UNL     1      -6.158   1.280 -34.822  1.00  0.00     0.169 HD
HETATM   10  O   UNL     1      -8.196   0.363 -32.559  1.00  0.00    -0.267 OA
BRANCH   8  11
HETATM   11  C   UNL     1      -5.875  -0.630 -34.098  1.00  0.00     0.035 A 
HETATM   12  C   UNL     1      -6.364  -1.774 -34.736  1.00  0.00     0.037 A 
HETATM   13  C   UNL     1      -5.643  -2.956 -34.638  1.00  0.00    -0.050 A 
HETATM   14  C   UNL     1      -4.444  -3.021 -33.924  1.00  0.00    -0.052 A 
HETATM   15  C   UNL     1      -5.954  -4.273 -35.283  1.00  0.00     0.039 C 
HETATM   16  C   UNL     1      -3.840  -4.386 -34.021  1.00  0.00     0.039 C 
HETATM   17  C   UNL     1      -3.940  -1.902 -33.291  1.00  0.00     0.010 A 
HETATM   18  C   UNL     1      -5.047  -5.217 -34.481  1.00  0.00     0.009 C 
HETATM   19  C   UNL     1      -4.664  -0.706 -33.376  1.00  0.00     0.030 A 
ENDBRANCH   8  11
ENDBRANCH   6   7
BRANCH   1  20
HETATM   20  C   UNL     1      -6.016   4.046 -33.379  1.00  0.00    -0.002 A 
HETATM   21  C   UNL     1      -5.405   3.512 -32.232  1.00  0.00     0.017 A 
HETATM   22  C   UNL     1      -4.079   3.818 -31.917  1.00  0.00     0.040 A 
HETATM   23  C   UNL     1      -3.350   4.660 -32.751  1.00  0.00     0.102 A 
HETATM   24  C   UNL     1      -3.953   5.216 -33.884  1.00  0.00     0.103 A 
HETATM   25  O   UNL     1      -2.047   4.898 -32.399  1.00  0.00    -0.346 OA
HETATM   26  C   UNL     1      -5.272   4.893 -34.212  1.00  0.00     0.053 A 
HETATM   27  O   UNL     1      -3.304   6.079 -34.730  1.00  0.00    -0.346 OA
HETATM   28  C   UNL     1      -2.099   6.583 -34.143  1.00  0.00     0.202 C 
HETATM   29  C   UNL     1      -1.310   5.459 -33.492  1.00  0.00     0.202 C 
ENDBRANCH   1  20
TORSDOF 3
ENDMDL
MODEL 2
REMARK VINA RESULT:      -9.3      2.955      6.412
REMARK  3 active torsions:
REMARK  status: ('A' for Active; 'I' for Inactive)
REMARK    1  A    between atoms: C_2  and  C_3 
REMARK    2  A    between atoms: C_8  and  C_9 
REMARK       I    between atoms: C_9  and  N_10 
REMARK    3  A    between atoms: N_10  and  C_11 
ROOT
HETATM    1  C   UNL     1      -9.385   3.849 -33.933  1.00  0.00     0.104 A 
HETATM    2  N   UNL     1      -9.265   5.182 -34.078  1.00  0.00    -0.174 NA
HETATM    3  N   UNL     1      -7.957   5.424 -33.951  1.00  0.00    -0.288 N 
HETATM    4  H   UNL     1      -7.631   6.380 -34.057  1.00  0.00     0.188 HD
HETATM    5  C   UNL     1      -7.228   4.315 -33.682  1.00  0.00     0.128 A 
HETATM    6  C   UNL     1      -8.118   3.256 -33.624  1.00  0.00     0.080 A 
ENDROOT
BRANCH   6   7
HETATM    7  C   UNL     1      -7.698   1.890 -33.318  1.00  0.00     0.260 C 
HETATM    8  N   UNL     1      -6.831   1.331 -34.238  1.00  0.00    -0.323 N 
HETATM    9  H   UNL     1      -6.583   1.900 -35.037  1.00  0.00     0.169 HD
HETATM   10  O   UNL     1      -8.159   1.319 -32.335  1.00  0.00    -0.267 OA
BRANCH   8  11
HETATM   11  C   UNL     1      -6.281   0.030 -34.220  1.00  0.00     0.035 A 
HETATM   12  C   UNL     1      -6.903  -1.088 -34.784  1.00  0.00     0.037 A 
HETATM   13  C   UNL     1      -6.262  -2.317 -34.716  1.00  0.00    -0.050 A 
HETATM   14  C   UNL     1      -5.014  -2.455 -34.105  1.00  0.00    -0.052 A 
HETATM   15  C   UNL     1      -6.720  -3.620 -35.297  1.00  0.00     0.039 C 
HETATM   16  C   UNL     1      -4.519  -3.862 -34.217  1.00  0.00     0.039 C 
HETATM   17  C   UNL     1      -4.379  -1.363 -33.547  1.00  0.00     0.010 A 
HETATM   18  C   UNL     1      -5.817  -4.612 -34.551  1.00  0.00     0.009 C 
HETATM   19  C   UNL     1      -5.020  -0.120 -33.602  1.00  0.00     0.030 A 
ENDBRANCH   8  11
ENDBRANCH   6   7
BRANCH   1  20
HETATM   20  C   UNL     1     -10.704   3.236 -34.115  1.00  0.00    -0.002 A 
HETATM   21  C   UNL     1     -11.037   2.658 -35.352  1.00  0.00     0.017 A 
HETATM   22  C   UNL     1     -12.273   2.038 -35.545  1.00  0.00     0.040 A 
HETATM   23  C   UNL     1     -13.188   1.985 -34.499  1.00  0.00     0.102 A 
HETATM   24  C   UNL     1     -12.878   2.575 -33.268  1.00  0.00     0.103 A 
HETATM   25  O   UNL     1     -14.371   1.338 -34.746  1.00  0.00    -0.346 OA
HETATM   26  C   UNL     1     -11.634   3.176 -33.068  1.00  0.00     0.053 A 
HETATM   27  O   UNL     1     -13.745   2.588 -32.205  1.00  0.00    -0.346 OA
HETATM   28  C   UNL     1     -15.076   2.241 -32.609  1.00  0.00     0.202 C 
HETATM   29  C   UNL     1     -15.058   1.031 -33.527  1.00  0.00     0.202 C 
ENDBRANCH   1  20
TORSDOF 3
ENDMDL
MODEL 3
REMARK VINA RESULT:      -9.3      3.241      7.409
REMARK  3 active torsions:
REMARK  status: ('A' for Active; 'I' for Inactive)
REMARK    1  A    between atoms: C_2  and  C_3 
REMARK    2  A    between atoms: C_8  and  C_9 
REMARK       I    between atoms: C_9  and  N_10 
REMARK    3  A    between atoms: N_10  and  C_11 
ROOT
HETATM    1  C   UNL     1      -5.686   1.347 -32.792  1.00  0.00     0.104 A 
HETATM    2  N   UNL     1      -4.638   2.192 -32.753  1.00  0.00    -0.174 NA
HETATM    3  N   UNL     1      -5.131   3.326 -32.245  1.00  0.00    -0.288 N 
HETATM    4  H   UNL     1      -4.495   4.104 -32.097  1.00  0.00     0.188 HD
HETATM    5  C   UNL     1      -6.462   3.271 -31.998  1.00  0.00     0.128 A 
HETATM    6  C   UNL     1      -6.886   2.007 -32.372  1.00  0.00     0.080 A 
ENDROOT
BRANCH   6   7
HETATM    7  C   UNL     1      -8.283   1.587 -32.281  1.00  0.00     0.260 C 
HETATM    8  N   UNL     1      -9.169   2.360 -33.007  1.00  0.00    -0.323 N 
HETATM    9  H   UNL     1      -8.782   3.146 -33.512  1.00  0.00     0.169 HD
HETATM   10  O   UNL     1      -8.586   0.645 -31.555  1.00  0.00    -0.267 OA
BRANCH   8  11
HETATM   11  C   UNL     1     -10.571   2.210 -33.089  1.00  0.00     0.035 A 
HETATM   12  C   UNL     1     -11.207   1.064 -33.576  1.00  0.00     0.037 A 
HETATM   13  C   UNL     1     -12.594   1.025 -33.601  1.00  0.00    -0.050 A 
HETATM   14  C   UNL     1     -13.360   2.099 -33.145  1.00  0.00    -0.052 A 
HETATM   15  C   UNL     1     -13.469  -0.114 -34.027  1.00  0.00     0.039 C 
HETATM   16  C   UNL     1     -14.820   1.784 -33.223  1.00  0.00     0.039 C 
HETATM   17  C   UNL     1     -12.754   3.239 -32.654  1.00  0.00     0.010 A 
HETATM   18  C   UNL     1     -14.819   0.597 -34.199  1.00  0.00     0.009 C 
HETATM   19  C   UNL     1     -11.355   3.293 -32.633  1.00  0.00     0.030 A 
ENDBRANCH   8  11
ENDBRANCH   6   7
BRANCH   1  20
HETATM   20  C   UNL     1      -5.459  -0.037 -33.218  1.00  0.00    -0.002 A 
HETATM   21  C   UNL     1      -6.222  -0.574 -34.269  1.00  0.00     0.017 A 
HETATM   22  C   UNL     1      -6.005  -1.879 -34.718  1.00  0.00     0.040 A 
HETATM   23  C   UNL     1      -5.020  -2.658 -34.122  1.00  0.00     0.102 A 
HETATM   24  C   UNL     1      -4.268  -2.143 -33.060  1.00  0.00     0.103 A 
HETATM   25  O   UNL     1      -4.841  -3.919 -34.628  1.00  0.00    -0.346 OA
HETATM   26  C   UNL     1      -4.468  -0.831 -32.625  1.00  0.00     0.053 A 
HETATM   27  O   UNL     1      -3.304  -2.867 -32.405  1.00  0.00    -0.346 OA
HETATM   28  C   UNL     1      -3.400  -4.264 -32.708  1.00  0.00     0.202 C 
HETATM   29  C   UNL     1      -3.592  -4.477 -34.200  1.00  0.00     0.202 C 
ENDBRANCH   1  20
TORSDOF 3
ENDMDL
MODEL 4
REMARK VINA RESULT:      -9.2      2.449      5.861
REMARK  3 active torsions:
REMARK  status: ('A' for Active; 'I' for Inactive)
REMARK    1  A    between atoms: C_2  and  C_3 
REMARK    2  A    between atoms: C_8  and  C_9 
REMARK       I    between atoms: C_9  and  N_10 
REMARK    3  A    between atoms: N_10  and  C_11 
ROOT
HETATM    1  C   UNL     1      -7.965   3.790 -33.887  1.00  0.00     0.104 A 
HETATM    2  N   UNL     1      -7.647   5.093 -34.001  1.00  0.00    -0.174 NA
HETATM    3  N   UNL     1      -6.327   5.144 -33.798  1.00  0.00    -0.288 N 
HETATM    4  H   UNL     1      -5.862   6.044 -33.870  1.00  0.00     0.188 HD
HETATM    5  C   UNL     1      -5.781   3.938 -33.510  1.00  0.00     0.128 A 
HETATM    6  C   UNL     1      -6.815   3.018 -33.519  1.00  0.00     0.080 A 
ENDROOT
BRANCH   6   7
HETATM    7  C   UNL     1      -6.613   1.603 -33.216  1.00  0.00     0.260 C 
HETATM    8  N   UNL     1      -6.186   0.836 -34.284  1.00  0.00    -0.323 N 
HETATM    9  H   UNL     1      -6.071   1.311 -35.170  1.00  0.00     0.169 HD
HETATM   10  O   UNL     1      -6.873   1.180 -32.094  1.00  0.00    -0.267 OA
BRANCH   8  11
HETATM   11  C   UNL     1      -5.933  -0.553 -34.297  1.00  0.00     0.035 A 
HETATM   12  C   UNL     1      -4.808  -1.148 -33.719  1.00  0.00     0.037 A 
HETATM   13  C   UNL     1      -4.670  -2.527 -33.784  1.00  0.00    -0.050 A 
HETATM   14  C   UNL     1      -5.631  -3.327 -34.407  1.00  0.00    -0.052 A 
HETATM   15  C   UNL     1      -3.581  -3.366 -33.188  1.00  0.00     0.039 C 
HETATM   16  C   UNL     1      -5.277  -4.775 -34.289  1.00  0.00     0.039 C 
HETATM   17  C   UNL     1      -6.754  -2.761 -34.979  1.00  0.00     0.010 A 
HETATM   18  C   UNL     1      -3.784  -4.692 -33.936  1.00  0.00     0.009 C 
HETATM   19  C   UNL     1      -6.898  -1.369 -34.928  1.00  0.00     0.030 A 
ENDBRANCH   8  11
ENDBRANCH   6   7
BRANCH   1  20
HETATM   20  C   UNL     1      -9.346   3.375 -34.151  1.00  0.00    -0.002 A 
HETATM   21  C   UNL     1     -10.187   4.207 -34.909  1.00  0.00     0.017 A 
HETATM   22  C   UNL     1     -11.497   3.823 -35.206  1.00  0.00     0.040 A 
HETATM   23  C   UNL     1     -11.976   2.599 -34.750  1.00  0.00     0.102 A 
HETATM   24  C   UNL     1     -11.155   1.771 -33.977  1.00  0.00     0.103 A 
HETATM   25  O   UNL     1     -13.260   2.272 -35.099  1.00  0.00    -0.346 OA
HETATM   26  C   UNL     1      -9.839   2.144 -33.698  1.00  0.00     0.053 A 
HETATM   27  O   UNL     1     -11.573   0.568 -33.468  1.00  0.00    -0.346 OA
HETATM   28  C   UNL     1     -12.999   0.435 -33.537  1.00  0.00     0.202 C 
HETATM   29  C   UNL     1     -13.512   0.876 -34.898  1.00  0.00     0.202 C 
ENDBRANCH   1  20
TORSDOF 3
ENDMDL
MODEL 5
REMARK VINA RESULT:      -9.2      1.996      3.072
REMARK  3 active torsions:
REMARK  status: ('A' for Active; 'I' for Inactive)
REMARK    1  A    between atoms: C_2  and  C_3 
REMARK    2  A    between atoms: C_8  and  C_9 
REMARK       I    between atoms: C_9  and  N_10 
REMARK    3  A    between atoms: N_10  and  C_11 
ROOT
HETATM    1  C   UNL     1      -5.682   5.606 -32.451  1.00  0.00     0.104 A 
HETATM    2  N   UNL     1      -6.139   6.864 -32.598  1.00  0.00    -0.174 NA
HETATM    3  N   UNL     1      -7.464   6.736 -32.715  1.00  0.00    -0.288 N 
HETATM    4  H   UNL     1      -8.023   7.579 -32.806  1.00  0.00     0.188 HD
HETATM    5  C   UNL     1      -7.883   5.448 -32.700  1.00  0.00     0.128 A 
HETATM    6  C   UNL     1      -6.753   4.661 -32.565  1.00  0.00     0.080 A 
ENDROOT
BRANCH   6   7
HETATM    7  C   UNL     1      -6.808   3.201 -32.543  1.00  0.00     0.260 C 
HETATM    8  N   UNL     1      -6.389   2.588 -33.709  1.00  0.00    -0.323 N 
HETATM    9  H   UNL     1      -6.103   3.194 -34.467  1.00  0.00     0.169 HD
HETATM   10  O   UNL     1      -7.255   2.625 -31.557  1.00  0.00    -0.267 OA
BRANCH   8  11
HETATM   11  C   UNL     1      -6.355   1.204 -33.988  1.00  0.00     0.035 A 
HETATM   12  C   UNL     1      -5.350   0.341 -33.539  1.00  0.00     0.037 A 
HETATM   13  C   UNL     1      -5.427  -1.005 -33.866  1.00  0.00    -0.050 A 
HETATM   14  C   UNL     1      -6.485  -1.511 -34.624  1.00  0.00    -0.052 A 
HETATM   15  C   UNL     1      -4.496  -2.102 -33.447  1.00  0.00     0.039 C 
HETATM   16  C   UNL     1      -6.363  -2.993 -34.786  1.00  0.00     0.039 C 
HETATM   17  C   UNL     1      -7.491  -0.678 -35.073  1.00  0.00     0.010 A 
HETATM   18  C   UNL     1      -4.885  -3.214 -34.433  1.00  0.00     0.009 C 
HETATM   19  C   UNL     1      -7.419   0.684 -34.756  1.00  0.00     0.030 A 
ENDBRANCH   8  11
ENDBRANCH   6   7
BRANCH   1  20
HETATM   20  C   UNL     1      -4.252   5.400 -32.199  1.00  0.00    -0.002 A 
HETATM   21  C   UNL     1      -3.515   4.548 -33.040  1.00  0.00     0.017 A 
HETATM   22  C   UNL     1      -2.145   4.359 -32.845  1.00  0.00     0.040 A 
HETATM   23  C   UNL     1      -1.498   5.023 -31.809  1.00  0.00     0.102 A 
HETATM   24  C   UNL     1      -2.225   5.857 -30.951  1.00  0.00     0.103 A 
HETATM   25  O   UNL     1      -0.149   4.814 -31.690  1.00  0.00    -0.346 OA
HETATM   26  C   UNL     1      -3.590   6.065 -31.159  1.00  0.00     0.053 A 
HETATM   27  O   UNL     1      -1.657   6.516 -29.891  1.00  0.00    -0.346 OA
HETATM   28  C   UNL     1      -0.359   5.995 -29.582  1.00  0.00     0.202 C 
HETATM   29  C   UNL     1       0.457   5.804 -30.850  1.00  0.00     0.202 C 
ENDBRANCH   1  20
TORSDOF 3
ENDMDL
MODEL 6
REMARK VINA RESULT:      -9.0      2.318      7.694
REMARK  3 active torsions:
REMARK  status: ('A' for Active; 'I' for Inactive)
REMARK    1  A    between atoms: C_2  and  C_3 
REMARK    2  A    between atoms: C_8  and  C_9 
REMARK       I    between atoms: C_9  and  N_10 
REMARK    3  A    between atoms: N_10  and  C_11 
ROOT
HETATM    1  C   UNL     1      -7.631   0.688 -32.687  1.00  0.00     0.104 A 
HETATM    2  N   UNL     1      -8.812   0.373 -32.123  1.00  0.00    -0.174 NA
HETATM    3  N   UNL     1      -9.396   1.548 -31.870  1.00  0.00    -0.288 N 
HETATM    4  H   UNL     1     -10.327   1.546 -31.464  1.00  0.00     0.188 HD
HETATM    5  C   UNL     1      -8.626   2.613 -32.199  1.00  0.00     0.128 A 
HETATM    6  C   UNL     1      -7.441   2.108 -32.708  1.00  0.00     0.080 A 
ENDROOT
BRANCH   6   7
HETATM    7  C   UNL     1      -6.342   2.967 -33.142  1.00  0.00     0.260 C 
HETATM    8  N   UNL     1      -5.501   3.389 -32.129  1.00  0.00    -0.323 N 
HETATM    9  H   UNL     1      -5.729   3.087 -31.191  1.00  0.00     0.169 HD
HETATM   10  O   UNL     1      -6.258   3.296 -34.321  1.00  0.00    -0.267 OA
BRANCH   8  11
HETATM   11  C   UNL     1      -4.379   4.239 -32.243  1.00  0.00     0.035 A 
HETATM   12  C   UNL     1      -4.394   5.600 -31.923  1.00  0.00     0.037 A 
HETATM   13  C   UNL     1      -3.226   6.335 -32.064  1.00  0.00    -0.050 A 
HETATM   14  C   UNL     1      -2.042   5.743 -32.509  1.00  0.00    -0.052 A 
HETATM   15  C   UNL     1      -3.008   7.779 -31.728  1.00  0.00     0.039 C 
HETATM   16  C   UNL     1      -0.921   6.733 -32.516  1.00  0.00     0.039 C 
HETATM   17  C   UNL     1      -2.002   4.398 -32.824  1.00  0.00     0.010 A 
HETATM   18  C   UNL     1      -1.692   8.061 -32.467  1.00  0.00     0.009 C 
HETATM   19  C   UNL     1      -3.178   3.649 -32.695  1.00  0.00     0.030 A 
ENDBRANCH   8  11
ENDBRANCH   6   7
BRANCH   1  20
HETATM   20  C   UNL     1      -6.773  -0.395 -33.179  1.00  0.00    -0.002 A 
HETATM   21  C   UNL     1      -5.378  -0.282 -33.061  1.00  0.00     0.017 A 
HETATM   22  C   UNL     1      -4.537  -1.312 -33.490  1.00  0.00     0.040 A 
HETATM   23  C   UNL     1      -5.085  -2.466 -34.038  1.00  0.00     0.102 A 
HETATM   24  C   UNL     1      -6.473  -2.582 -34.181  1.00  0.00     0.103 A 
HETATM   25  O   UNL     1      -4.206  -3.449 -34.413  1.00  0.00    -0.346 OA
HETATM   26  C   UNL     1      -7.315  -1.563 -33.732  1.00  0.00     0.053 A 
HETATM   27  O   UNL     1      -7.078  -3.678 -34.741  1.00  0.00    -0.346 OA
HETATM   28  C   UNL     1      -6.135  -4.498 -35.442  1.00  0.00     0.202 C 
HETATM   29  C   UNL     1      -4.879  -4.698 -34.612  1.00  0.00     0.202 C 
ENDBRANCH   1  20
TORSDOF 3
ENDMDL
MODEL 7
REMARK VINA RESULT:      -9.0      2.913      6.936
REMARK  3 active torsions:
REMARK  status: ('A' for Active; 'I' for Inactive)
REMARK    1  A    between atoms: C_2  and  C_3 
REMARK    2  A    between atoms: C_8  and  C_9 
REMARK       I    between atoms: C_9  and  N_10 
REMARK    3  A    between atoms: N_10  and  C_11 
ROOT
HETATM    1  C   UNL     1      -4.143   1.475 -31.838  1.00  0.00     0.104 A 
HETATM    2  N   UNL     1      -2.992   2.148 -31.653  1.00  0.00    -0.174 NA
HETATM    3  N   UNL     1      -3.362   3.325 -31.138  1.00  0.00    -0.288 N 
HETATM    4  H   UNL     1      -2.637   3.991 -30.888  1.00  0.00     0.188 HD
HETATM    5  C   UNL     1      -4.704   3.465 -31.026  1.00  0.00     0.128 A 
HETATM    6  C   UNL     1      -5.270   2.295 -31.504  1.00  0.00     0.080 A 
ENDROOT
BRANCH   6   7
HETATM    7  C   UNL     1      -6.715   2.090 -31.573  1.00  0.00     0.260 C 
HETATM    8  N   UNL     1      -7.221   1.954 -32.852  1.00  0.00    -0.323 N 
HETATM    9  H   UNL     1      -6.560   2.026 -33.614  1.00  0.00     0.169 HD
HETATM   10  O   UNL     1      -7.379   2.103 -30.541  1.00  0.00    -0.267 OA
BRANCH   8  11
HETATM   11  C   UNL     1      -8.570   1.771 -33.227  1.00  0.00     0.035 A 
HETATM   12  C   UNL     1      -9.304   2.695 -33.976  1.00  0.00     0.037 A 
HETATM   13  C   UNL     1     -10.623   2.403 -34.296  1.00  0.00    -0.050 A 
HETATM   14  C   UNL     1     -11.223   1.209 -33.892  1.00  0.00    -0.052 A 
HETATM   15  C   UNL     1     -11.564   3.220 -35.128  1.00  0.00     0.039 C 
HETATM   16  C   UNL     1     -12.621   1.113 -34.412  1.00  0.00     0.039 C 
HETATM   17  C   UNL     1     -10.514   0.278 -33.157  1.00  0.00     0.010 A 
HETATM   18  C   UNL     1     -12.912   2.579 -34.767  1.00  0.00     0.009 C 
HETATM   19  C   UNL     1      -9.186   0.567 -32.820  1.00  0.00     0.030 A 
ENDBRANCH   8  11
ENDBRANCH   6   7
BRANCH   1  20
HETATM   20  C   UNL     1      -4.081   0.089 -32.310  1.00  0.00    -0.002 A 
HETATM   21  C   UNL     1      -3.222  -0.823 -31.673  1.00  0.00     0.017 A 
HETATM   22  C   UNL     1      -3.167  -2.159 -32.078  1.00  0.00     0.040 A 
HETATM   23  C   UNL     1      -3.974  -2.596 -33.123  1.00  0.00     0.102 A 
HETATM   24  C   UNL     1      -4.818  -1.693 -33.780  1.00  0.00     0.103 A 
HETATM   25  O   UNL     1      -3.890  -3.924 -33.453  1.00  0.00    -0.346 OA
HETATM   26  C   UNL     1      -4.890  -0.363 -33.361  1.00  0.00     0.053 A 
HETATM   27  O   UNL     1      -5.615  -2.048 -34.838  1.00  0.00    -0.346 OA
HETATM   28  C   UNL     1      -5.234  -3.320 -35.379  1.00  0.00     0.202 C 
HETATM   29  C   UNL     1      -4.999  -4.327 -34.265  1.00  0.00     0.202 C 
ENDBRANCH   1  20
TORSDOF 3
ENDMDL
MODEL 8
REMARK VINA RESULT:      -8.7      1.538      2.042
REMARK  3 active torsions:
REMARK  status: ('A' for Active; 'I' for Inactive)
REMARK    1  A    between atoms: C_2  and  C_3 
REMARK    2  A    between atoms: C_8  and  C_9 
REMARK       I    between atoms: C_9  and  N_10 
REMARK    3  A    between atoms: N_10  and  C_11 
ROOT
HETATM    1  C   UNL     1      -7.198   4.294 -31.525  1.00  0.00     0.104 A 
HETATM    2  N   UNL     1      -7.883   5.400 -31.179  1.00  0.00    -0.174 NA
HETATM    3  N   UNL     1      -9.093   4.957 -30.823  1.00  0.00    -0.288 N 
HETATM    4  H   UNL     1      -9.775   5.632 -30.491  1.00  0.00     0.188 HD
HETATM    5  C   UNL     1      -9.239   3.618 -30.969  1.00  0.00     0.128 A 
HETATM    6  C   UNL     1      -8.039   3.135 -31.460  1.00  0.00     0.080 A 
ENDROOT
BRANCH   6   7
HETATM    7  C   UNL     1      -7.829   1.724 -31.778  1.00  0.00     0.260 C 
HETATM    8  N   UNL     1      -6.949   1.490 -32.818  1.00  0.00    -0.323 N 
HETATM    9  H   UNL     1      -6.550   2.301 -33.271  1.00  0.00     0.169 HD
HETATM   10  O   UNL     1      -8.456   0.865 -31.168  1.00  0.00    -0.267 OA
BRANCH   8  11
HETATM   11  C   UNL     1      -6.572   0.241 -33.359  1.00  0.00     0.035 A 
HETATM   12  C   UNL     1      -5.433  -0.469 -32.967  1.00  0.00     0.037 A 
HETATM   13  C   UNL     1      -5.169  -1.694 -33.562  1.00  0.00    -0.050 A 
HETATM   14  C   UNL     1      -6.017  -2.230 -34.534  1.00  0.00    -0.052 A 
HETATM   15  C   UNL     1      -4.045  -2.636 -33.254  1.00  0.00     0.039 C 
HETATM   16  C   UNL     1      -5.542  -3.580 -34.970  1.00  0.00     0.039 C 
HETATM   17  C   UNL     1      -7.151  -1.549 -34.932  1.00  0.00     0.010 A 
HETATM   18  C   UNL     1      -4.085  -3.558 -34.482  1.00  0.00     0.009 C 
HETATM   19  C   UNL     1      -7.422  -0.308 -34.345  1.00  0.00     0.030 A 
ENDBRANCH   8  11
ENDBRANCH   6   7
BRANCH   1  20
HETATM   20  C   UNL     1      -5.782   4.424 -31.880  1.00  0.00    -0.002 A 
HETATM   21  C   UNL     1      -4.814   3.722 -31.142  1.00  0.00     0.017 A 
HETATM   22  C   UNL     1      -3.460   3.800 -31.479  1.00  0.00     0.040 A 
HETATM   23  C   UNL     1      -3.063   4.578 -32.561  1.00  0.00     0.102 A 
HETATM   24  C   UNL     1      -4.014   5.299 -33.291  1.00  0.00     0.103 A 
HETATM   25  O   UNL     1      -1.724   4.589 -32.853  1.00  0.00    -0.346 OA
HETATM   26  C   UNL     1      -5.370   5.204 -32.969  1.00  0.00     0.053 A 
HETATM   27  O   UNL     1      -3.689   6.111 -34.347  1.00  0.00    -0.346 OA
HETATM   28  C   UNL     1      -2.283   6.383 -34.387  1.00  0.00     0.202 C 
HETATM   29  C   UNL     1      -1.485   5.108 -34.167  1.00  0.00     0.202 C 
ENDBRANCH   1  20
TORSDOF 3
ENDMDL
MODEL 9
REMARK VINA RESULT:      -8.6      3.172      5.610
REMARK  3 active torsions:
REMARK  status: ('A' for Active; 'I' for Inactive)
REMARK    1  A    between atoms: C_2  and  C_3 
REMARK    2  A    between atoms: C_8  and  C_9 
REMARK       I    between atoms: C_9  and  N_10 
REMARK    3  A    between atoms: N_10  and  C_11 
ROOT
HETATM    1  C   UNL     1      -8.005   3.399 -30.965  1.00  0.00     0.104 A 
HETATM    2  N   UNL     1      -8.112   4.150 -29.853  1.00  0.00    -0.174 NA
HETATM    3  N   UNL     1      -6.903   4.095 -29.285  1.00  0.00    -0.288 N 
HETATM    4  H   UNL     1      -6.746   4.626 -28.433  1.00  0.00     0.188 HD
HETATM    5  C   UNL     1      -6.031   3.303 -29.952  1.00  0.00     0.128 A 
HETATM    6  C   UNL     1      -6.709   2.791 -31.045  1.00  0.00     0.080 A 
ENDROOT
BRANCH   6   7
HETATM    7  C   UNL     1      -6.096   1.859 -31.987  1.00  0.00     0.260 C 
HETATM    8  N   UNL     1      -6.367   0.525 -31.744  1.00  0.00    -0.323 N 
HETATM    9  H   UNL     1      -6.940   0.316 -30.938  1.00  0.00     0.169 HD
HETATM   10  O   UNL     1      -5.362   2.287 -32.872  1.00  0.00    -0.267 OA
BRANCH   8  11
HETATM   11  C   UNL     1      -5.895  -0.593 -32.466  1.00  0.00     0.035 A 
HETATM   12  C   UNL     1      -6.663  -1.304 -33.393  1.00  0.00     0.037 A 
HETATM   13  C   UNL     1      -6.089  -2.382 -34.052  1.00  0.00    -0.050 A 
HETATM   14  C   UNL     1      -4.767  -2.762 -33.814  1.00  0.00    -0.052 A 
HETATM   15  C   UNL     1      -6.709  -3.240 -35.113  1.00  0.00     0.039 C 
HETATM   16  C   UNL     1      -4.376  -3.910 -34.689  1.00  0.00     0.039 C 
HETATM   17  C   UNL     1      -3.988  -2.069 -32.907  1.00  0.00     0.010 A 
HETATM   18  C   UNL     1      -5.751  -4.440 -35.122  1.00  0.00     0.009 C 
HETATM   19  C   UNL     1      -4.560  -0.986 -32.229  1.00  0.00     0.030 A 
ENDBRANCH   8  11
ENDBRANCH   6   7
BRANCH   1  20
HETATM   20  C   UNL     1      -9.148   3.328 -31.880  1.00  0.00    -0.002 A 
HETATM   21  C   UNL     1      -9.671   4.510 -32.431  1.00  0.00     0.017 A 
HETATM   22  C   UNL     1     -10.738   4.471 -33.331  1.00  0.00     0.040 A 
HETATM   23  C   UNL     1     -11.289   3.247 -33.694  1.00  0.00     0.102 A 
HETATM   24  C   UNL     1     -10.792   2.063 -33.137  1.00  0.00     0.103 A 
HETATM   25  O   UNL     1     -12.315   3.277 -34.602  1.00  0.00    -0.346 OA
HETATM   26  C   UNL     1      -9.711   2.100 -32.253  1.00  0.00     0.053 A 
HETATM   27  O   UNL     1     -11.308   0.826 -33.424  1.00  0.00    -0.346 OA
HETATM   28  C   UNL     1     -12.584   0.926 -34.069  1.00  0.00     0.202 C 
HETATM   29  C   UNL     1     -12.548   1.980 -35.164  1.00  0.00     0.202 C 
ENDBRANCH   1  20
TORSDOF 3
ENDMDL
MODEL 10
REMARK VINA RESULT:      -8.5      2.264      6.749
REMARK  3 active torsions:
REMARK  status: ('A' for Active; 'I' for Inactive)
REMARK    1  A    between atoms: C_2  and  C_3 
REMARK    2  A    between atoms: C_8  and  C_9 
REMARK       I    between atoms: C_9  and  N_10 
REMARK    3  A    between atoms: N_10  and  C_11 
ROOT
HETATM    1  C   UNL     1      -8.587   1.328 -32.652  1.00  0.00     0.104 A 
HETATM    2  N   UNL     1      -9.888   1.004 -32.524  1.00  0.00    -0.174 NA
HETATM    3  N   UNL     1     -10.503   2.157 -32.246  1.00  0.00    -0.288 N 
HETATM    4  H   UNL     1     -11.514   2.151 -32.138  1.00  0.00     0.188 HD
HETATM    5  C   UNL     1      -9.655   3.208 -32.140  1.00  0.00     0.128 A 
HETATM    6  C   UNL     1      -8.380   2.717 -32.361  1.00  0.00     0.080 A 
ENDROOT
BRANCH   6   7
HETATM    7  C   UNL     1      -7.188   3.559 -32.294  1.00  0.00     0.260 C 
HETATM    8  N   UNL     1      -6.290   3.377 -33.329  1.00  0.00    -0.323 N 
HETATM    9  H   UNL     1      -6.525   2.676 -34.019  1.00  0.00     0.169 HD
HETATM   10  O   UNL     1      -7.030   4.310 -31.337  1.00  0.00    -0.267 OA
BRANCH   8  11
HETATM   11  C   UNL     1      -5.050   4.027 -33.515  1.00  0.00     0.035 A 
HETATM   12  C   UNL     1      -4.014   4.014 -32.577  1.00  0.00     0.037 A 
HETATM   13  C   UNL     1      -2.833   4.679 -32.873  1.00  0.00    -0.050 A 
HETATM   14  C   UNL     1      -2.660   5.351 -34.084  1.00  0.00    -0.052 A 
HETATM   15  C   UNL     1      -1.587   4.746 -32.042  1.00  0.00     0.039 C 
HETATM   16  C   UNL     1      -1.285   5.933 -34.180  1.00  0.00     0.039 C 
HETATM   17  C   UNL     1      -3.668   5.372 -35.028  1.00  0.00     0.010 A 
HETATM   18  C   UNL     1      -0.848   5.915 -32.707  1.00  0.00     0.009 C 
HETATM   19  C   UNL     1      -4.867   4.712 -34.736  1.00  0.00     0.030 A 
ENDBRANCH   8  11
ENDBRANCH   6   7
BRANCH   1  20
HETATM   20  C   UNL     1      -7.637   0.288 -33.057  1.00  0.00    -0.002 A 
HETATM   21  C   UNL     1      -7.882  -0.460 -34.221  1.00  0.00     0.017 A 
HETATM   22  C   UNL     1      -6.978  -1.435 -34.650  1.00  0.00     0.040 A 
HETATM   23  C   UNL     1      -5.817  -1.667 -33.919  1.00  0.00     0.102 A 
HETATM   24  C   UNL     1      -5.572  -0.944 -32.746  1.00  0.00     0.103 A 
HETATM   25  O   UNL     1      -4.960  -2.618 -34.409  1.00  0.00    -0.346 OA
HETATM   26  C   UNL     1      -6.464   0.046 -32.329  1.00  0.00     0.053 A 
HETATM   27  O   UNL     1      -4.466  -1.145 -31.961  1.00  0.00    -0.346 OA
HETATM   28  C   UNL     1      -3.800  -2.369 -32.294  1.00  0.00     0.202 C 
HETATM   29  C   UNL     1      -3.667  -2.513 -33.801  1.00  0.00     0.202 C 
ENDBRANCH   1  20
TORSDOF 3
ENDMDL
