MODEL 1
REMARK VINA RESULT:      -7.6      0.000      0.000
REMARK  6 active torsions:
REMARK  status: ('A' for Active; 'I' for Inactive)
REMARK    1  A    between atoms: C_2  and  O_3 
REMARK    2  A    between atoms: O_3  and  C_4 
REMARK    3  A    between atoms: C_4  and  C_5 
REMARK    4  A    between atoms: C_10  and  C_11 
REMARK    5  A    between atoms: C_11  and  N_12 
REMARK    6  A    between atoms: C_11  and  C_16 
ROOT
HETATM    1  C   UNL     1      -4.192  -0.175 -32.667  1.00  0.00     0.118 A 
HETATM    2  N   UNL     1      -3.665  -1.080 -33.550  1.00  0.00    -0.350 N 
HETATM    3  H   UNL     1      -2.680  -1.164 -33.775  1.00  0.00     0.166 HD
HETATM    4  C   UNL     1      -4.643  -1.915 -34.023  1.00  0.00     0.043 A 
HETATM    5  C   UNL     1      -5.862  -1.481 -33.494  1.00  0.00     0.002 A 
HETATM    6  C   UNL     1      -5.586  -0.332 -32.664  1.00  0.00     0.022 A 
HETATM    7  C   UNL     1      -4.522  -3.013 -34.883  1.00  0.00     0.030 A 
HETATM    8  C   UNL     1      -5.683  -3.709 -35.220  1.00  0.00     0.002 A 
HETATM    9  C   UNL     1      -6.915  -3.314 -34.718  1.00  0.00     0.001 A 
HETATM   10  C   UNL     1      -7.018  -2.209 -33.862  1.00  0.00     0.014 A 
ENDROOT
BRANCH   6  11
HETATM   11  C   UNL     1      -6.496   0.574 -31.863  1.00  0.00     0.252 C 
BRANCH  11  12
HETATM   12  N   UNL     1      -6.687   0.046 -30.496  1.00  0.00    -0.067 N 
HETATM   13  H   UNL     1      -7.412  -0.677 -30.477  1.00  0.00     0.275 HD
HETATM   14  H   UNL     1      -5.810  -0.315 -30.115  1.00  0.00     0.275 HD
HETATM   15  H   UNL     1      -7.008   0.829 -29.902  1.00  0.00     0.275 HD
ENDBRANCH  11  12
BRANCH  11  16
HETATM   16  C   UNL     1      -7.771   0.883 -32.610  1.00  0.00    -0.024 A 
HETATM   17  C   UNL     1      -8.973   0.288 -32.174  1.00  0.00     0.009 A 
HETATM   18  C   UNL     1     -10.171   0.503 -32.856  1.00  0.00     0.001 A 
HETATM   19  C   UNL     1     -10.192   1.314 -33.986  1.00  0.00     0.000 A 
HETATM   20  C   UNL     1      -9.017   1.913 -34.434  1.00  0.00     0.001 A 
HETATM   21  C   UNL     1      -7.813   1.701 -33.754  1.00  0.00     0.009 A 
ENDBRANCH  11  16
ENDBRANCH   6  11
BRANCH   1  22
HETATM   22  C   UNL     1      -3.407   0.748 -31.882  1.00  0.00     0.310 C 
HETATM   23  O   UNL     1      -2.765   0.395 -30.899  1.00  0.00    -0.258 OA
BRANCH  22  24
HETATM   24  O   UNL     1      -3.493   1.997 -32.396  1.00  0.00    -0.317 OA
BRANCH  24  25
HETATM   25  C   UNL     1      -3.580   3.071 -31.446  1.00  0.00     0.175 C 
HETATM   26  C   UNL     1      -2.522   4.114 -31.759  1.00  0.00     0.034 C 
ENDBRANCH  24  25
ENDBRANCH  22  24
ENDBRANCH   1  22
TORSDOF 6
ENDMDL
MODEL 2
REMARK VINA RESULT:      -7.2      2.396      4.278
REMARK  6 active torsions:
REMARK  status: ('A' for Active; 'I' for Inactive)
REMARK    1  A    between atoms: C_2  and  O_3 
REMARK    2  A    between atoms: O_3  and  C_4 
REMARK    3  A    between atoms: C_4  and  C_5 
REMARK    4  A    between atoms: C_10  and  C_11 
REMARK    5  A    between atoms: C_11  and  N_12 
REMARK    6  A    between atoms: C_11  and  C_16 
ROOT
HETATM    1  C   UNL     1      -6.565  -1.063 -34.596  1.00  0.00     0.118 A 
HETATM    2  N   UNL     1      -6.985  -2.333 -34.892  1.00  0.00    -0.350 N 
HETATM    3  H   UNL     1      -7.871  -2.563 -35.326  1.00  0.00     0.166 HD
HETATM    4  C   UNL     1      -6.004  -3.244 -34.597  1.00  0.00     0.043 A 
HETATM    5  C   UNL     1      -4.943  -2.548 -34.010  1.00  0.00     0.002 A 
HETATM    6  C   UNL     1      -5.319  -1.155 -33.958  1.00  0.00     0.022 A 
HETATM    7  C   UNL     1      -5.997  -4.627 -34.810  1.00  0.00     0.030 A 
HETATM    8  C   UNL     1      -4.865  -5.342 -34.418  1.00  0.00     0.002 A 
HETATM    9  C   UNL     1      -3.788  -4.692 -33.831  1.00  0.00     0.001 A 
HETATM   10  C   UNL     1      -3.815  -3.307 -33.621  1.00  0.00     0.014 A 
ENDROOT
BRANCH   6  11
HETATM   11  C   UNL     1      -4.603   0.061 -33.411  1.00  0.00     0.252 C 
BRANCH  11  12
HETATM   12  N   UNL     1      -3.151  -0.192 -33.301  1.00  0.00    -0.067 N 
HETATM   13  H   UNL     1      -2.687  -0.079 -34.207  1.00  0.00     0.275 HD
HETATM   14  H   UNL     1      -2.723   0.415 -32.599  1.00  0.00     0.275 HD
HETATM   15  H   UNL     1      -3.029  -1.176 -33.006  1.00  0.00     0.275 HD
ENDBRANCH  11  12
BRANCH  11  16
HETATM   16  C   UNL     1      -5.257   0.572 -32.150  1.00  0.00    -0.024 A 
HETATM   17  C   UNL     1      -5.279   1.963 -31.914  1.00  0.00     0.009 A 
HETATM   18  C   UNL     1      -5.830   2.485 -30.743  1.00  0.00     0.001 A 
HETATM   19  C   UNL     1      -6.366   1.630 -29.786  1.00  0.00     0.000 A 
HETATM   20  C   UNL     1      -6.356   0.254 -29.999  1.00  0.00     0.001 A 
HETATM   21  C   UNL     1      -5.806  -0.276 -31.170  1.00  0.00     0.009 A 
ENDBRANCH  11  16
ENDBRANCH   6  11
BRANCH   1  22
HETATM   22  C   UNL     1      -7.303   0.135 -34.921  1.00  0.00     0.310 C 
HETATM   23  O   UNL     1      -6.927   0.927 -35.778  1.00  0.00    -0.258 OA
BRANCH  22  24
HETATM   24  O   UNL     1      -8.421   0.221 -34.164  1.00  0.00    -0.317 OA
BRANCH  24  25
HETATM   25  C   UNL     1      -8.629   1.467 -33.478  1.00  0.00     0.175 C 
HETATM   26  C   UNL     1      -9.276   1.203 -32.130  1.00  0.00     0.034 C 
ENDBRANCH  24  25
ENDBRANCH  22  24
ENDBRANCH   1  22
TORSDOF 6
ENDMDL
MODEL 3
REMARK VINA RESULT:      -7.0      2.599      5.918
REMARK  6 active torsions:
REMARK  status: ('A' for Active; 'I' for Inactive)
REMARK    1  A    between atoms: C_2  and  O_3 
REMARK    2  A    between atoms: O_3  and  C_4 
REMARK    3  A    between atoms: C_4  and  C_5 
REMARK    4  A    between atoms: C_10  and  C_11 
REMARK    5  A    between atoms: C_11  and  N_12 
REMARK    6  A    between atoms: C_11  and  C_16 
ROOT
HETATM    1  C   UNL     1      -7.381   3.060 -33.387  1.00  0.00     0.118 A 
HETATM    2  N   UNL     1      -6.749   4.117 -33.988  1.00  0.00    -0.350 N 
HETATM    3  H   UNL     1      -7.213   4.838 -34.528  1.00  0.00     0.166 HD
HETATM    4  C   UNL     1      -5.412   4.112 -33.685  1.00  0.00     0.043 A 
HETATM    5  C   UNL     1      -5.153   2.963 -32.933  1.00  0.00     0.002 A 
HETATM    6  C   UNL     1      -6.403   2.256 -32.783  1.00  0.00     0.022 A 
HETATM    7  C   UNL     1      -4.428   5.045 -34.035  1.00  0.00     0.030 A 
HETATM    8  C   UNL     1      -3.124   4.811 -33.600  1.00  0.00     0.002 A 
HETATM    9  C   UNL     1      -2.821   3.683 -32.850  1.00  0.00     0.001 A 
HETATM   10  C   UNL     1      -3.818   2.758 -32.514  1.00  0.00     0.014 A 
ENDROOT
BRANCH   6  11
HETATM   11  C   UNL     1      -6.744   0.948 -32.102  1.00  0.00     0.252 C 
BRANCH  11  12
HETATM   12  N   UNL     1      -6.344   0.979 -30.679  1.00  0.00    -0.067 N 
HETATM   13  H   UNL     1      -7.106   1.326 -30.090  1.00  0.00     0.275 HD
HETATM   14  H   UNL     1      -6.036   0.057 -30.364  1.00  0.00     0.275 HD
HETATM   15  H   UNL     1      -5.554   1.641 -30.593  1.00  0.00     0.275 HD
ENDBRANCH  11  12
BRANCH  11  16
HETATM   16  C   UNL     1      -6.229  -0.237 -32.882  1.00  0.00    -0.024 A 
HETATM   17  C   UNL     1      -4.972  -0.779 -32.541  1.00  0.00     0.009 A 
HETATM   18  C   UNL     1      -4.429  -1.844 -33.260  1.00  0.00     0.001 A 
HETATM   19  C   UNL     1      -5.128  -2.387 -34.333  1.00  0.00     0.000 A 
HETATM   20  C   UNL     1      -6.371  -1.868 -34.687  1.00  0.00     0.001 A 
HETATM   21  C   UNL     1      -6.921  -0.801 -33.971  1.00  0.00     0.009 A 
ENDBRANCH  11  16
ENDBRANCH   6  11
BRANCH   1  22
HETATM   22  C   UNL     1      -8.811   2.860 -33.387  1.00  0.00     0.310 C 
HETATM   23  O   UNL     1      -9.563   3.495 -32.657  1.00  0.00    -0.258 OA
BRANCH  22  24
HETATM   24  O   UNL     1      -9.155   1.910 -34.287  1.00  0.00    -0.317 OA
BRANCH  24  25
HETATM   25  C   UNL     1     -10.437   1.290 -34.098  1.00  0.00     0.175 C 
HETATM   26  C   UNL     1     -10.324   0.197 -33.050  1.00  0.00     0.034 C 
ENDBRANCH  24  25
ENDBRANCH  22  24
ENDBRANCH   1  22
TORSDOF 6
ENDMDL
MODEL 4
REMARK VINA RESULT:      -7.0      2.220      4.347
REMARK  6 active torsions:
REMARK  status: ('A' for Active; 'I' for Inactive)
REMARK    1  A    between atoms: C_2  and  O_3 
REMARK    2  A    between atoms: O_3  and  C_4 
REMARK    3  A    between atoms: C_4  and  C_5 
REMARK    4  A    between atoms: C_10  and  C_11 
REMARK    5  A    between atoms: C_11  and  N_12 
REMARK    6  A    between atoms: C_11  and  C_16 
ROOT
HETATM    1  C   UNL     1      -7.412   0.663 -32.255  1.00  0.00     0.118 A 
HETATM    2  N   UNL     1      -7.774  -0.203 -33.253  1.00  0.00    -0.350 N 
HETATM    3  H   UNL     1      -8.665  -0.190 -33.735  1.00  0.00     0.166 HD
HETATM    4  C   UNL     1      -6.731  -1.033 -33.570  1.00  0.00     0.043 A 
HETATM    5  C   UNL     1      -5.684  -0.753 -32.688  1.00  0.00     0.002 A 
HETATM    6  C   UNL     1      -6.134   0.298 -31.806  1.00  0.00     0.022 A 
HETATM    7  C   UNL     1      -6.656  -2.007 -34.573  1.00  0.00     0.030 A 
HETATM    8  C   UNL     1      -5.470  -2.729 -34.694  1.00  0.00     0.002 A 
HETATM    9  C   UNL     1      -4.404  -2.485 -33.840  1.00  0.00     0.001 A 
HETATM   10  C   UNL     1      -4.498  -1.509 -32.838  1.00  0.00     0.014 A 
ENDROOT
BRANCH   6  11
HETATM   11  C   UNL     1      -5.461   0.991 -30.641  1.00  0.00     0.252 C 
BRANCH  11  12
HETATM   12  N   UNL     1      -6.436   1.273 -29.566  1.00  0.00    -0.067 N 
HETATM   13  H   UNL     1      -5.962   1.482 -28.684  1.00  0.00     0.275 HD
HETATM   14  H   UNL     1      -7.063   2.036 -29.829  1.00  0.00     0.275 HD
HETATM   15  H   UNL     1      -6.999   0.416 -29.426  1.00  0.00     0.275 HD
ENDBRANCH  11  12
BRANCH  11  16
HETATM   16  C   UNL     1      -4.652   2.182 -31.093  1.00  0.00    -0.024 A 
HETATM   17  C   UNL     1      -4.948   3.450 -30.550  1.00  0.00     0.009 A 
HETATM   18  C   UNL     1      -4.262   4.590 -30.968  1.00  0.00     0.001 A 
HETATM   19  C   UNL     1      -3.269   4.488 -31.936  1.00  0.00     0.000 A 
HETATM   20  C   UNL     1      -2.959   3.246 -32.486  1.00  0.00     0.001 A 
HETATM   21  C   UNL     1      -3.643   2.100 -32.071  1.00  0.00     0.009 A 
ENDBRANCH  11  16
ENDBRANCH   6  11
BRANCH   1  22
HETATM   22  C   UNL     1      -8.230   1.758 -31.791  1.00  0.00     0.310 C 
HETATM   23  O   UNL     1      -9.250   1.584 -31.133  1.00  0.00    -0.258 OA
BRANCH  22  24
HETATM   24  O   UNL     1      -7.701   2.941 -32.178  1.00  0.00    -0.317 OA
BRANCH  24  25
HETATM   25  C   UNL     1      -7.727   3.218 -33.588  1.00  0.00     0.175 C 
HETATM   26  C   UNL     1      -6.379   3.766 -34.024  1.00  0.00     0.034 C 
ENDBRANCH  24  25
ENDBRANCH  22  24
ENDBRANCH   1  22
TORSDOF 6
ENDMDL
MODEL 5
REMARK VINA RESULT:      -7.0      2.285      5.287
REMARK  6 active torsions:
REMARK  status: ('A' for Active; 'I' for Inactive)
REMARK    1  A    between atoms: C_2  and  O_3 
REMARK    2  A    between atoms: O_3  and  C_4 
REMARK    3  A    between atoms: C_4  and  C_5 
REMARK    4  A    between atoms: C_10  and  C_11 
REMARK    5  A    between atoms: C_11  and  N_12 
REMARK    6  A    between atoms: C_11  and  C_16 
ROOT
HETATM    1  C   UNL     1      -8.516   2.509 -33.573  1.00  0.00     0.118 A 
HETATM    2  N   UNL     1      -9.445   3.204 -34.302  1.00  0.00    -0.350 N 
HETATM    3  H   UNL     1      -9.267   4.079 -34.782  1.00  0.00     0.166 HD
HETATM    4  C   UNL     1     -10.624   2.509 -34.365  1.00  0.00     0.043 A 
HETATM    5  C   UNL     1     -10.483   1.363 -33.577  1.00  0.00     0.002 A 
HETATM    6  C   UNL     1      -9.150   1.384 -33.023  1.00  0.00     0.022 A 
HETATM    7  C   UNL     1     -11.796   2.828 -35.061  1.00  0.00     0.030 A 
HETATM    8  C   UNL     1     -12.873   1.948 -34.963  1.00  0.00     0.002 A 
HETATM    9  C   UNL     1     -12.778   0.797 -34.193  1.00  0.00     0.001 A 
HETATM   10  C   UNL     1     -11.598   0.497 -33.498  1.00  0.00     0.014 A 
ENDROOT
BRANCH   6  11
HETATM   11  C   UNL     1      -8.436   0.437 -32.082  1.00  0.00     0.252 C 
BRANCH  11  12
HETATM   12  N   UNL     1      -8.050   1.131 -30.836  1.00  0.00    -0.067 N 
HETATM   13  H   UNL     1      -8.818   1.708 -30.482  1.00  0.00     0.275 HD
HETATM   14  H   UNL     1      -7.742   0.466 -30.124  1.00  0.00     0.275 HD
HETATM   15  H   UNL     1      -7.262   1.762 -31.062  1.00  0.00     0.275 HD
ENDBRANCH  11  12
BRANCH  11  16
HETATM   16  C   UNL     1      -7.314  -0.296 -32.776  1.00  0.00    -0.024 A 
HETATM   17  C   UNL     1      -7.579  -0.928 -34.010  1.00  0.00     0.009 A 
HETATM   18  C   UNL     1      -6.590  -1.658 -34.670  1.00  0.00     0.001 A 
HETATM   19  C   UNL     1      -5.321  -1.774 -34.113  1.00  0.00     0.000 A 
HETATM   20  C   UNL     1      -5.038  -1.158 -32.896  1.00  0.00     0.001 A 
HETATM   21  C   UNL     1      -6.024  -0.425 -32.229  1.00  0.00     0.009 A 
ENDBRANCH  11  16
ENDBRANCH   6  11
BRANCH   1  22
HETATM   22  C   UNL     1      -7.132   2.895 -33.438  1.00  0.00     0.310 C 
HETATM   23  O   UNL     1      -6.298   2.671 -34.309  1.00  0.00    -0.258 OA
BRANCH  22  24
HETATM   24  O   UNL     1      -6.928   3.517 -32.254  1.00  0.00    -0.317 OA
BRANCH  24  25
HETATM   25  C   UNL     1      -5.579   3.925 -31.974  1.00  0.00     0.175 C 
HETATM   26  C   UNL     1      -4.960   2.976 -30.963  1.00  0.00     0.034 C 
ENDBRANCH  24  25
ENDBRANCH  22  24
ENDBRANCH   1  22
TORSDOF 6
ENDMDL
MODEL 6
REMARK VINA RESULT:      -6.8      1.845      2.731
REMARK  6 active torsions:
REMARK  status: ('A' for Active; 'I' for Inactive)
REMARK    1  A    between atoms: C_2  and  O_3 
REMARK    2  A    between atoms: O_3  and  C_4 
REMARK    3  A    between atoms: C_4  and  C_5 
REMARK    4  A    between atoms: C_10  and  C_11 
REMARK    5  A    between atoms: C_11  and  N_12 
REMARK    6  A    between atoms: C_11  and  C_16 
ROOT
HETATM    1  C   UNL     1      -5.351   0.759 -32.401  1.00  0.00     0.118 A 
HETATM    2  N   UNL     1      -4.472  -0.249 -32.103  1.00  0.00    -0.350 N 
HETATM    3  H   UNL     1      -3.847  -0.255 -31.306  1.00  0.00     0.166 HD
HETATM    4  C   UNL     1      -4.616  -1.287 -32.986  1.00  0.00     0.043 A 
HETATM    5  C   UNL     1      -5.562  -0.904 -33.940  1.00  0.00     0.002 A 
HETATM    6  C   UNL     1      -5.999   0.430 -33.601  1.00  0.00     0.022 A 
HETATM    7  C   UNL     1      -3.967  -2.528 -32.996  1.00  0.00     0.030 A 
HETATM    8  C   UNL     1      -4.291  -3.425 -34.014  1.00  0.00     0.002 A 
HETATM    9  C   UNL     1      -5.226  -3.087 -34.983  1.00  0.00     0.001 A 
HETATM   10  C   UNL     1      -5.862  -1.838 -34.959  1.00  0.00     0.014 A 
ENDROOT
BRANCH   6  11
HETATM   11  C   UNL     1      -6.977   1.370 -34.272  1.00  0.00     0.252 C 
BRANCH  11  12
HETATM   12  N   UNL     1      -6.596   2.778 -34.034  1.00  0.00    -0.067 N 
HETATM   13  H   UNL     1      -7.034   3.139 -33.182  1.00  0.00     0.275 HD
HETATM   14  H   UNL     1      -5.580   2.882 -33.989  1.00  0.00     0.275 HD
HETATM   15  H   UNL     1      -6.951   3.335 -34.830  1.00  0.00     0.275 HD
ENDBRANCH  11  12
BRANCH  11  16
HETATM   16  C   UNL     1      -8.406   1.029 -33.923  1.00  0.00    -0.024 A 
HETATM   17  C   UNL     1      -9.439   1.855 -34.414  1.00  0.00     0.009 A 
HETATM   18  C   UNL     1     -10.773   1.612 -34.084  1.00  0.00     0.001 A 
HETATM   19  C   UNL     1     -11.100   0.542 -33.257  1.00  0.00     0.000 A 
HETATM   20  C   UNL     1     -10.096  -0.287 -32.762  1.00  0.00     0.001 A 
HETATM   21  C   UNL     1      -8.758  -0.049 -33.090  1.00  0.00     0.009 A 
ENDBRANCH  11  16
ENDBRANCH   6  11
BRANCH   1  22
HETATM   22  C   UNL     1      -5.556   1.929 -31.581  1.00  0.00     0.310 C 
HETATM   23  O   UNL     1      -4.805   2.898 -31.619  1.00  0.00    -0.258 OA
BRANCH  22  24
HETATM   24  O   UNL     1      -6.661   1.783 -30.814  1.00  0.00    -0.317 OA
BRANCH  24  25
HETATM   25  C   UNL     1      -7.331   2.993 -30.426  1.00  0.00     0.175 C 
HETATM   26  C   UNL     1      -8.804   2.893 -30.777  1.00  0.00     0.034 C 
ENDBRANCH  24  25
ENDBRANCH  22  24
ENDBRANCH   1  22
TORSDOF 6
ENDMDL
MODEL 7
REMARK VINA RESULT:      -6.7      1.705      2.184
REMARK  6 active torsions:
REMARK  status: ('A' for Active; 'I' for Inactive)
REMARK    1  A    between atoms: C_2  and  O_3 
REMARK    2  A    between atoms: O_3  and  C_4 
REMARK    3  A    between atoms: C_4  and  C_5 
REMARK    4  A    between atoms: C_10  and  C_11 
REMARK    5  A    between atoms: C_11  and  N_12 
REMARK    6  A    between atoms: C_11  and  C_16 
ROOT
HETATM    1  C   UNL     1      -4.908  -0.301 -31.927  1.00  0.00     0.118 A 
HETATM    2  N   UNL     1      -4.110  -1.243 -32.523  1.00  0.00    -0.350 N 
HETATM    3  H   UNL     1      -3.138  -1.407 -32.291  1.00  0.00     0.166 HD
HETATM    4  C   UNL     1      -4.834  -1.990 -33.415  1.00  0.00     0.043 A 
HETATM    5  C   UNL     1      -6.126  -1.458 -33.463  1.00  0.00     0.002 A 
HETATM    6  C   UNL     1      -6.165  -0.341 -32.549  1.00  0.00     0.022 A 
HETATM    7  C   UNL     1      -4.423  -3.090 -34.178  1.00  0.00     0.030 A 
HETATM    8  C   UNL     1      -5.360  -3.684 -35.023  1.00  0.00     0.002 A 
HETATM    9  C   UNL     1      -6.654  -3.190 -35.102  1.00  0.00     0.001 A 
HETATM   10  C   UNL     1      -7.047  -2.085 -34.335  1.00  0.00     0.014 A 
ENDROOT
BRANCH   6  11
HETATM   11  C   UNL     1      -7.269   0.634 -32.197  1.00  0.00     0.252 C 
BRANCH  11  12
HETATM   12  N   UNL     1      -8.579   0.129 -32.658  1.00  0.00    -0.067 N 
HETATM   13  H   UNL     1      -9.160   0.889 -33.022  1.00  0.00     0.275 HD
HETATM   14  H   UNL     1      -8.464  -0.605 -33.361  1.00  0.00     0.275 HD
HETATM   15  H   UNL     1      -9.063  -0.273 -31.837  1.00  0.00     0.275 HD
ENDBRANCH  11  12
BRANCH  11  16
HETATM   16  C   UNL     1      -6.935   2.037 -32.642  1.00  0.00    -0.024 A 
HETATM   17  C   UNL     1      -7.207   3.108 -31.765  1.00  0.00     0.009 A 
HETATM   18  C   UNL     1      -6.961   4.428 -32.144  1.00  0.00     0.001 A 
HETATM   19  C   UNL     1      -6.441   4.704 -33.404  1.00  0.00     0.000 A 
HETATM   20  C   UNL     1      -6.164   3.662 -34.286  1.00  0.00     0.001 A 
HETATM   21  C   UNL     1      -6.408   2.337 -33.911  1.00  0.00     0.009 A 
ENDBRANCH  11  16
ENDBRANCH   6  11
BRANCH   1  22
HETATM   22  C   UNL     1      -4.489   0.549 -30.838  1.00  0.00     0.310 C 
HETATM   23  O   UNL     1      -5.069   0.567 -29.758  1.00  0.00    -0.258 OA
BRANCH  22  24
HETATM   24  O   UNL     1      -3.405   1.275 -31.195  1.00  0.00    -0.317 OA
BRANCH  24  25
HETATM   25  C   UNL     1      -3.573   2.702 -31.215  1.00  0.00     0.175 C 
HETATM   26  C   UNL     1      -3.012   3.262 -32.510  1.00  0.00     0.034 C 
ENDBRANCH  24  25
ENDBRANCH  22  24
ENDBRANCH   1  22
TORSDOF 6
ENDMDL
MODEL 8
REMARK VINA RESULT:      -6.7      2.974      6.366
REMARK  6 active torsions:
REMARK  status: ('A' for Active; 'I' for Inactive)
REMARK    1  A    between atoms: C_2  and  O_3 
REMARK    2  A    between atoms: O_3  and  C_4 
REMARK    3  A    between atoms: C_4  and  C_5 
REMARK    4  A    between atoms: C_10  and  C_11 
REMARK    5  A    between atoms: C_11  and  N_12 
REMARK    6  A    between atoms: C_11  and  C_16 
ROOT
HETATM    1  C   UNL     1      -8.874   1.174 -32.495  1.00  0.00     0.118 A 
HETATM    2  N   UNL     1      -8.837   1.844 -31.300  1.00  0.00    -0.350 N 
HETATM    3  H   UNL     1      -9.628   1.965 -30.680  1.00  0.00     0.166 HD
HETATM    4  C   UNL     1      -7.559   2.253 -31.019  1.00  0.00     0.043 A 
HETATM    5  C   UNL     1      -6.755   1.911 -32.111  1.00  0.00     0.002 A 
HETATM    6  C   UNL     1      -7.604   1.265 -33.085  1.00  0.00     0.022 A 
HETATM    7  C   UNL     1      -7.075   2.902 -29.878  1.00  0.00     0.030 A 
HETATM    8  C   UNL     1      -5.718   3.217 -29.832  1.00  0.00     0.002 A 
HETATM    9  C   UNL     1      -4.882   2.896 -30.892  1.00  0.00     0.001 A 
HETATM   10  C   UNL     1      -5.385   2.250 -32.030  1.00  0.00     0.014 A 
ENDROOT
BRANCH   6  11
HETATM   11  C   UNL     1      -7.314   0.709 -34.462  1.00  0.00     0.252 C 
BRANCH  11  12
HETATM   12  N   UNL     1      -8.546   0.662 -35.277  1.00  0.00    -0.067 N 
HETATM   13  H   UNL     1      -8.452  -0.004 -36.049  1.00  0.00     0.275 HD
HETATM   14  H   UNL     1      -9.359   0.434 -34.701  1.00  0.00     0.275 HD
HETATM   15  H   UNL     1      -8.683   1.602 -35.687  1.00  0.00     0.275 HD
ENDBRANCH  11  12
BRANCH  11  16
HETATM   16  C   UNL     1      -6.549  -0.590 -34.388  1.00  0.00    -0.024 A 
HETATM   17  C   UNL     1      -7.213  -1.787 -34.729  1.00  0.00     0.009 A 
HETATM   18  C   UNL     1      -6.566  -3.020 -34.633  1.00  0.00     0.001 A 
HETATM   19  C   UNL     1      -5.249  -3.082 -34.194  1.00  0.00     0.000 A 
HETATM   20  C   UNL     1      -4.573  -1.912 -33.852  1.00  0.00     0.001 A 
HETATM   21  C   UNL     1      -5.216  -0.674 -33.946  1.00  0.00     0.009 A 
ENDBRANCH  11  16
ENDBRANCH   6  11
BRANCH   1  22
HETATM   22  C   UNL     1     -10.037   0.491 -33.009  1.00  0.00     0.310 C 
HETATM   23  O   UNL     1     -10.263  -0.692 -32.775  1.00  0.00    -0.258 OA
BRANCH  22  24
HETATM   24  O   UNL     1     -10.795   1.336 -33.745  1.00  0.00    -0.317 OA
BRANCH  24  25
HETATM   25  C   UNL     1     -12.213   1.282 -33.518  1.00  0.00     0.175 C 
HETATM   26  C   UNL     1     -12.940   1.233 -34.849  1.00  0.00     0.034 C 
ENDBRANCH  24  25
ENDBRANCH  22  24
ENDBRANCH   1  22
TORSDOF 6
ENDMDL
MODEL 9
REMARK VINA RESULT:      -6.6      1.716      2.158
REMARK  6 active torsions:
REMARK  status: ('A' for Active; 'I' for Inactive)
REMARK    1  A    between atoms: C_2  and  O_3 
REMARK    2  A    between atoms: O_3  and  C_4 
REMARK    3  A    between atoms: C_4  and  C_5 
REMARK    4  A    between atoms: C_10  and  C_11 
REMARK    5  A    between atoms: C_11  and  N_12 
REMARK    6  A    between atoms: C_11  and  C_16 
ROOT
HETATM    1  C   UNL     1      -5.864   1.441 -31.874  1.00  0.00     0.118 A 
HETATM    2  N   UNL     1      -4.895   0.756 -32.557  1.00  0.00    -0.350 N 
HETATM    3  H   UNL     1      -3.904   0.964 -32.521  1.00  0.00     0.166 HD
HETATM    4  C   UNL     1      -5.442  -0.306 -33.230  1.00  0.00     0.043 A 
HETATM    5  C   UNL     1      -6.826  -0.256 -33.045  1.00  0.00     0.002 A 
HETATM    6  C   UNL     1      -7.109   0.894 -32.219  1.00  0.00     0.022 A 
HETATM    7  C   UNL     1      -4.799  -1.293 -33.987  1.00  0.00     0.030 A 
HETATM    8  C   UNL     1      -5.588  -2.277 -34.580  1.00  0.00     0.002 A 
HETATM    9  C   UNL     1      -6.967  -2.268 -34.423  1.00  0.00     0.001 A 
HETATM   10  C   UNL     1      -7.594  -1.269 -33.666  1.00  0.00     0.014 A 
ENDROOT
BRANCH   6  11
HETATM   11  C   UNL     1      -8.412   1.474 -31.712  1.00  0.00     0.252 C 
BRANCH  11  12
HETATM   12  N   UNL     1      -9.193   0.449 -30.989  1.00  0.00    -0.067 N 
HETATM   13  H   UNL     1      -8.807  -0.486 -31.143  1.00  0.00     0.275 HD
HETATM   14  H   UNL     1      -9.240   0.659 -29.989  1.00  0.00     0.275 HD
HETATM   15  H   UNL     1     -10.153   0.461 -31.375  1.00  0.00     0.275 HD
ENDBRANCH  11  12
BRANCH  11  16
HETATM   16  C   UNL     1      -9.163   2.194 -32.805  1.00  0.00    -0.024 A 
HETATM   17  C   UNL     1     -10.275   1.558 -33.396  1.00  0.00     0.009 A 
HETATM   18  C   UNL     1     -10.976   2.159 -34.442  1.00  0.00     0.001 A 
HETATM   19  C   UNL     1     -10.581   3.405 -34.918  1.00  0.00     0.000 A 
HETATM   20  C   UNL     1      -9.486   4.052 -34.348  1.00  0.00     0.001 A 
HETATM   21  C   UNL     1      -8.780   3.454 -33.300  1.00  0.00     0.009 A 
ENDBRANCH  11  16
ENDBRANCH   6  11
BRANCH   1  22
HETATM   22  C   UNL     1      -5.601   2.521 -30.952  1.00  0.00     0.310 C 
HETATM   23  O   UNL     1      -5.650   2.375 -29.736  1.00  0.00    -0.258 OA
BRANCH  22  24
HETATM   24  O   UNL     1      -5.300   3.655 -31.627  1.00  0.00    -0.317 OA
BRANCH  24  25
HETATM   25  C   UNL     1      -4.120   4.355 -31.200  1.00  0.00     0.175 C 
HETATM   26  C   UNL     1      -2.895   3.721 -31.833  1.00  0.00     0.034 C 
ENDBRANCH  24  25
ENDBRANCH  22  24
ENDBRANCH   1  22
TORSDOF 6
ENDMDL
MODEL 10
REMARK VINA RESULT:      -6.5      2.276      5.048
REMARK  6 active torsions:
REMARK  status: ('A' for Active; 'I' for Inactive)
REMARK    1  A    between atoms: C_2  and  O_3 
REMARK    2  A    between atoms: O_3  and  C_4 
REMARK    3  A    between atoms: C_4  and  C_5 
REMARK    4  A    between atoms: C_10  and  C_11 
REMARK    5  A    between atoms: C_11  and  N_12 
REMARK    6  A    between atoms: C_11  and  C_16 
ROOT
HETATM    1  C   UNL     1      -4.415   2.478 -31.664  1.00  0.00     0.118 A 
HETATM    2  N   UNL     1      -3.138   2.964 -31.764  1.00  0.00    -0.350 N 
HETATM    3  H   UNL     1      -2.354   2.651 -31.203  1.00  0.00     0.166 HD
HETATM    4  C   UNL     1      -3.049   3.870 -32.788  1.00  0.00     0.043 A 
HETATM    5  C   UNL     1      -4.332   4.042 -33.315  1.00  0.00     0.002 A 
HETATM    6  C   UNL     1      -5.223   3.191 -32.562  1.00  0.00     0.022 A 
HETATM    7  C   UNL     1      -1.920   4.543 -33.270  1.00  0.00     0.030 A 
HETATM    8  C   UNL     1      -2.092   5.427 -34.335  1.00  0.00     0.002 A 
HETATM    9  C   UNL     1      -3.348   5.628 -34.890  1.00  0.00     0.001 A 
HETATM   10  C   UNL     1      -4.468   4.949 -34.391  1.00  0.00     0.014 A 
ENDROOT
BRANCH   6  11
HETATM   11  C   UNL     1      -6.718   2.972 -32.648  1.00  0.00     0.252 C 
BRANCH  11  12
HETATM   12  N   UNL     1      -7.357   3.204 -31.336  1.00  0.00    -0.067 N 
HETATM   13  H   UNL     1      -8.220   3.745 -31.436  1.00  0.00     0.275 HD
HETATM   14  H   UNL     1      -7.539   2.321 -30.854  1.00  0.00     0.275 HD
HETATM   15  H   UNL     1      -6.700   3.762 -30.765  1.00  0.00     0.275 HD
ENDBRANCH  11  12
BRANCH  11  16
HETATM   16  C   UNL     1      -7.051   1.649 -33.294  1.00  0.00    -0.024 A 
HETATM   17  C   UNL     1      -6.677   1.438 -34.638  1.00  0.00     0.009 A 
HETATM   18  C   UNL     1      -7.001   0.251 -35.297  1.00  0.00     0.001 A 
HETATM   19  C   UNL     1      -7.705  -0.745 -34.629  1.00  0.00     0.000 A 
HETATM   20  C   UNL     1      -8.083  -0.559 -33.301  1.00  0.00     0.001 A 
HETATM   21  C   UNL     1      -7.761   0.628 -32.635  1.00  0.00     0.009 A 
ENDBRANCH  11  16
ENDBRANCH   6  11
BRANCH   1  22
HETATM   22  C   UNL     1      -4.811   1.403 -30.784  1.00  0.00     0.310 C 
HETATM   23  O   UNL     1      -5.625   1.560 -29.881  1.00  0.00    -0.258 OA
BRANCH  22  24
HETATM   24  O   UNL     1      -4.168   0.260 -31.115  1.00  0.00    -0.317 OA
BRANCH  24  25
HETATM   25  C   UNL     1      -4.054  -0.021 -32.520  1.00  0.00     0.175 C 
HETATM   26  C   UNL     1      -4.481  -1.452 -32.789  1.00  0.00     0.034 C 
ENDBRANCH  24  25
ENDBRANCH  22  24
ENDBRANCH   1  22
TORSDOF 6
ENDMDL
