MODEL 1
REMARK VINA RESULT:      -7.8      0.000      0.000
REMARK  4 active torsions:
REMARK  status: ('A' for Active; 'I' for Inactive)
REMARK    1  A    between atoms: C_5  and  C_6 
REMARK    2  A    between atoms: C_6  and  N_7 
REMARK       I    between atoms: N_7  and  C_8 
REMARK       I    between atoms: C_8  and  N_9 
REMARK    3  A    between atoms: N_9  and  C_10 
REMARK    4  A    between atoms: C_11  and  C_12 
ROOT
HETATM    1  N   UNL     1      -4.541   0.165 -31.333  1.00  0.00    -0.339 N 
HETATM    2  C   UNL     1      -5.664   0.675 -30.743  1.00  0.00     0.321 C 
HETATM    3  N   UNL     1      -6.292   1.662 -31.449  1.00  0.00    -0.305 N 
HETATM    4  O   UNL     1      -5.997   0.239 -29.648  1.00  0.00    -0.247 OA
HETATM    5  H   UNL     1      -4.156  -0.595 -30.785  1.00  0.00     0.164 HD
HETATM    6  H   UNL     1      -5.688   2.203 -32.041  1.00  0.00     0.171 HD
ENDROOT
BRANCH   1   7
HETATM    7  C   UNL     1      -4.266   0.125 -32.754  1.00  0.00     0.162 C 
BRANCH   7   8
HETATM    8  C   UNL     1      -4.862  -1.091 -33.410  1.00  0.00    -0.040 A 
HETATM    9  C   UNL     1      -6.158  -1.051 -33.939  1.00  0.00     0.009 A 
HETATM   10  C   UNL     1      -6.693  -2.163 -34.595  1.00  0.00     0.007 A 
HETATM   11  C   UNL     1      -5.940  -3.333 -34.740  1.00  0.00    -0.062 A 
HETATM   12  C   UNL     1      -6.500  -4.530 -35.450  1.00  0.00     0.048 C 
HETATM   13  C   UNL     1      -4.646  -3.377 -34.210  1.00  0.00     0.007 A 
HETATM   14  C   UNL     1      -4.110  -2.266 -33.554  1.00  0.00     0.009 A 
ENDBRANCH   7   8
ENDBRANCH   1   7
BRANCH   3  15
HETATM   15  C   UNL     1      -7.533   2.221 -31.168  1.00  0.00     0.095 A 
HETATM   16  C   UNL     1      -8.750   1.744 -31.633  1.00  0.00     0.112 A 
HETATM   17  O   UNL     1      -9.747   2.532 -31.138  1.00  0.00    -0.215 OA
HETATM   18  N   UNL     1      -9.223   3.514 -30.336  1.00  0.00    -0.131 NA
HETATM   19  C   UNL     1      -7.898   3.327 -30.339  1.00  0.00     0.087 A 
HETATM   20  C   UNL     1      -7.071   4.216 -29.488  1.00  0.00     0.075 C 
BRANCH  16  21
HETATM   21  C   UNL     1      -9.111   0.575 -32.546  1.00  0.00     0.048 A 
HETATM   22  C   UNL     1     -10.489   0.455 -33.155  1.00  0.00     0.012 A 
HETATM   23  C   UNL     1      -9.321   0.769 -34.031  1.00  0.00     0.012 A 
ENDBRANCH  16  21
ENDBRANCH   3  15
TORSDOF 4
ENDMDL
MODEL 2
REMARK VINA RESULT:      -7.6      4.809      6.422
REMARK  4 active torsions:
REMARK  status: ('A' for Active; 'I' for Inactive)
REMARK    1  A    between atoms: C_5  and  C_6 
REMARK    2  A    between atoms: C_6  and  N_7 
REMARK       I    between atoms: N_7  and  C_8 
REMARK       I    between atoms: C_8  and  N_9 
REMARK    3  A    between atoms: N_9  and  C_10 
REMARK    4  A    between atoms: C_11  and  C_12 
ROOT
HETATM    1  N   UNL     1      -4.205   2.027 -31.907  1.00  0.00    -0.339 N 
HETATM    2  C   UNL     1      -3.984   3.332 -32.251  1.00  0.00     0.321 C 
HETATM    3  N   UNL     1      -2.690   3.639 -32.559  1.00  0.00    -0.305 N 
HETATM    4  O   UNL     1      -4.932   4.108 -32.233  1.00  0.00    -0.247 OA
HETATM    5  H   UNL     1      -5.190   1.856 -31.744  1.00  0.00     0.164 HD
HETATM    6  H   UNL     1      -2.002   3.067 -32.100  1.00  0.00     0.171 HD
ENDROOT
BRANCH   1   7
HETATM    7  C   UNL     1      -3.428   0.885 -32.343  1.00  0.00     0.162 C 
BRANCH   7   8
HETATM    8  C   UNL     1      -4.282  -0.153 -33.019  1.00  0.00    -0.040 A 
HETATM    9  C   UNL     1      -3.789  -1.446 -33.241  1.00  0.00     0.009 A 
HETATM   10  C   UNL     1      -4.600  -2.426 -33.819  1.00  0.00     0.007 A 
HETATM   11  C   UNL     1      -5.919  -2.135 -34.180  1.00  0.00    -0.062 A 
HETATM   12  C   UNL     1      -6.802  -3.181 -34.793  1.00  0.00     0.048 C 
HETATM   13  C   UNL     1      -6.414  -0.844 -33.962  1.00  0.00     0.007 A 
HETATM   14  C   UNL     1      -5.604   0.136 -33.384  1.00  0.00     0.009 A 
ENDBRANCH   7   8
ENDBRANCH   1   7
BRANCH   3  15
HETATM   15  C   UNL     1      -2.227   4.830 -33.103  1.00  0.00     0.095 A 
HETATM   16  C   UNL     1      -1.153   5.567 -32.623  1.00  0.00     0.112 A 
HETATM   17  O   UNL     1      -0.983   6.661 -33.420  1.00  0.00    -0.215 OA
HETATM   18  N   UNL     1      -1.905   6.660 -34.433  1.00  0.00    -0.131 NA
HETATM   19  C   UNL     1      -2.648   5.560 -34.259  1.00  0.00     0.087 A 
HETATM   20  C   UNL     1      -3.695   5.264 -35.264  1.00  0.00     0.075 C 
BRANCH  16  21
HETATM   21  C   UNL     1      -0.222   5.362 -31.432  1.00  0.00     0.048 A 
HETATM   22  C   UNL     1       0.613   6.498 -30.886  1.00  0.00     0.012 A 
HETATM   23  C   UNL     1      -0.525   5.964 -30.078  1.00  0.00     0.012 A 
ENDBRANCH  16  21
ENDBRANCH   3  15
TORSDOF 4
ENDMDL
MODEL 3
REMARK VINA RESULT:      -7.4     14.351     16.670
REMARK  4 active torsions:
REMARK  status: ('A' for Active; 'I' for Inactive)
REMARK    1  A    between atoms: C_5  and  C_6 
REMARK    2  A    between atoms: C_6  and  N_7 
REMARK       I    between atoms: N_7  and  C_8 
REMARK       I    between atoms: C_8  and  N_9 
REMARK    3  A    between atoms: N_9  and  C_10 
REMARK    4  A    between atoms: C_11  and  C_12 
ROOT
HETATM    1  N   UNL     1      -5.144 -12.942 -36.942  1.00  0.00    -0.339 N 
HETATM    2  C   UNL     1      -4.490 -12.762 -38.128  1.00  0.00     0.321 C 
HETATM    3  N   UNL     1      -4.448 -13.860 -38.939  1.00  0.00    -0.305 N 
HETATM    4  O   UNL     1      -3.984 -11.670 -38.355  1.00  0.00    -0.247 OA
HETATM    5  H   UNL     1      -5.184 -12.078 -36.414  1.00  0.00     0.164 HD
HETATM    6  H   UNL     1      -4.478 -14.740 -38.456  1.00  0.00     0.171 HD
ENDROOT
BRANCH   1   7
HETATM    7  C   UNL     1      -6.212 -13.889 -36.689  1.00  0.00     0.162 C 
BRANCH   7   8
HETATM    8  C   UNL     1      -7.352 -13.723 -37.657  1.00  0.00    -0.040 A 
HETATM    9  C   UNL     1      -8.164 -14.814 -37.994  1.00  0.00     0.009 A 
HETATM   10  C   UNL     1      -9.256 -14.649 -38.851  1.00  0.00     0.007 A 
HETATM   11  C   UNL     1      -9.560 -13.391 -39.381  1.00  0.00    -0.062 A 
HETATM   12  C   UNL     1     -10.733 -13.200 -40.295  1.00  0.00     0.048 C 
HETATM   13  C   UNL     1      -8.749 -12.300 -39.049  1.00  0.00     0.007 A 
HETATM   14  C   UNL     1      -7.658 -12.464 -38.192  1.00  0.00     0.009 A 
ENDBRANCH   7   8
ENDBRANCH   1   7
BRANCH   3  15
HETATM   15  C   UNL     1      -4.007 -13.901 -40.256  1.00  0.00     0.095 A 
HETATM   16  C   UNL     1      -2.735 -14.281 -40.664  1.00  0.00     0.112 A 
HETATM   17  O   UNL     1      -2.675 -14.217 -42.025  1.00  0.00    -0.215 OA
HETATM   18  N   UNL     1      -3.884 -13.822 -42.537  1.00  0.00    -0.131 NA
HETATM   19  C   UNL     1      -4.692 -13.642 -41.485  1.00  0.00     0.087 A 
HETATM   20  C   UNL     1      -6.103 -13.274 -41.749  1.00  0.00     0.075 C 
BRANCH  16  21
HETATM   21  C   UNL     1      -1.497 -14.712 -39.884  1.00  0.00     0.048 A 
HETATM   22  C   UNL     1      -0.106 -14.390 -40.383  1.00  0.00     0.012 A 
HETATM   23  C   UNL     1      -0.628 -13.706 -39.162  1.00  0.00     0.012 A 
ENDBRANCH  16  21
ENDBRANCH   3  15
TORSDOF 4
ENDMDL
MODEL 4
REMARK VINA RESULT:      -7.3      3.599      4.694
REMARK  4 active torsions:
REMARK  status: ('A' for Active; 'I' for Inactive)
REMARK    1  A    between atoms: C_5  and  C_6 
REMARK    2  A    between atoms: C_6  and  N_7 
REMARK       I    between atoms: N_7  and  C_8 
REMARK       I    between atoms: C_8  and  N_9 
REMARK    3  A    between atoms: N_9  and  C_10 
REMARK    4  A    between atoms: C_11  and  C_12 
ROOT
HETATM    1  N   UNL     1      -4.290   0.959 -32.491  1.00  0.00    -0.339 N 
HETATM    2  C   UNL     1      -3.841   2.156 -32.007  1.00  0.00     0.321 C 
HETATM    3  N   UNL     1      -4.531   3.252 -32.442  1.00  0.00    -0.305 N 
HETATM    4  O   UNL     1      -2.868   2.157 -31.264  1.00  0.00    -0.247 OA
HETATM    5  H   UNL     1      -3.771   0.187 -32.090  1.00  0.00     0.164 HD
HETATM    6  H   UNL     1      -4.955   3.149 -33.347  1.00  0.00     0.171 HD
ENDROOT
BRANCH   1   7
HETATM    7  C   UNL     1      -5.644   0.661 -32.913  1.00  0.00     0.162 C 
BRANCH   7   8
HETATM    8  C   UNL     1      -5.742  -0.682 -33.583  1.00  0.00    -0.040 A 
HETATM    9  C   UNL     1      -4.602  -1.478 -33.754  1.00  0.00     0.009 A 
HETATM   10  C   UNL     1      -4.702  -2.749 -34.328  1.00  0.00     0.007 A 
HETATM   11  C   UNL     1      -5.942  -3.250 -34.734  1.00  0.00    -0.062 A 
HETATM   12  C   UNL     1      -6.063  -4.615 -35.343  1.00  0.00     0.048 C 
HETATM   13  C   UNL     1      -7.083  -2.456 -34.567  1.00  0.00     0.007 A 
HETATM   14  C   UNL     1      -6.984  -1.186 -33.994  1.00  0.00     0.009 A 
ENDBRANCH   7   8
ENDBRANCH   1   7
BRANCH   3  15
HETATM   15  C   UNL     1      -4.399   4.554 -31.974  1.00  0.00     0.095 A 
HETATM   16  C   UNL     1      -3.812   5.601 -32.672  1.00  0.00     0.112 A 
HETATM   17  O   UNL     1      -3.881   6.728 -31.908  1.00  0.00    -0.215 OA
HETATM   18  N   UNL     1      -4.518   6.463 -30.724  1.00  0.00    -0.131 NA
HETATM   19  C   UNL     1      -4.843   5.165 -30.760  1.00  0.00     0.087 A 
HETATM   20  C   UNL     1      -5.614   4.611 -29.622  1.00  0.00     0.075 C 
BRANCH  16  21
HETATM   21  C   UNL     1      -3.148   5.671 -34.045  1.00  0.00     0.048 A 
HETATM   22  C   UNL     1      -1.877   6.461 -34.259  1.00  0.00     0.012 A 
HETATM   23  C   UNL     1      -1.838   4.970 -34.325  1.00  0.00     0.012 A 
ENDBRANCH  16  21
ENDBRANCH   3  15
TORSDOF 4
ENDMDL
MODEL 5
REMARK VINA RESULT:      -7.0     14.330     16.589
REMARK  4 active torsions:
REMARK  status: ('A' for Active; 'I' for Inactive)
REMARK    1  A    between atoms: C_5  and  C_6 
REMARK    2  A    between atoms: C_6  and  N_7 
REMARK       I    between atoms: N_7  and  C_8 
REMARK       I    between atoms: C_8  and  N_9 
REMARK    3  A    between atoms: N_9  and  C_10 
REMARK    4  A    between atoms: C_11  and  C_12 
ROOT
HETATM    1  N   UNL     1      -5.061 -12.728 -37.039  1.00  0.00    -0.339 N 
HETATM    2  C   UNL     1      -4.105 -12.706 -38.015  1.00  0.00     0.321 C 
HETATM    3  N   UNL     1      -3.677 -13.933 -38.436  1.00  0.00    -0.305 N 
HETATM    4  O   UNL     1      -3.698 -11.620 -38.408  1.00  0.00    -0.247 OA
HETATM    5  H   UNL     1      -5.371 -11.791 -36.812  1.00  0.00     0.164 HD
HETATM    6  H   UNL     1      -3.740 -14.659 -37.744  1.00  0.00     0.171 HD
ENDROOT
BRANCH   1   7
HETATM    7  C   UNL     1      -6.024 -13.786 -36.810  1.00  0.00     0.162 C 
BRANCH   7   8
HETATM    8  C   UNL     1      -7.205 -13.684 -37.737  1.00  0.00    -0.040 A 
HETATM    9  C   UNL     1      -7.982 -14.813 -38.028  1.00  0.00     0.009 A 
HETATM   10  C   UNL     1      -9.110 -14.708 -38.846  1.00  0.00     0.007 A 
HETATM   11  C   UNL     1      -9.486 -13.473 -39.383  1.00  0.00    -0.062 A 
HETATM   12  C   UNL     1     -10.699 -13.346 -40.256  1.00  0.00     0.048 C 
HETATM   13  C   UNL     1      -8.710 -12.344 -39.098  1.00  0.00     0.007 A 
HETATM   14  C   UNL     1      -7.582 -12.448 -38.280  1.00  0.00     0.009 A 
ENDBRANCH   7   8
ENDBRANCH   1   7
BRANCH   3  15
HETATM   15  C   UNL     1      -2.853 -14.196 -39.523  1.00  0.00     0.095 A 
HETATM   16  C   UNL     1      -3.290 -14.531 -40.797  1.00  0.00     0.112 A 
HETATM   17  O   UNL     1      -2.203 -14.697 -41.603  1.00  0.00    -0.215 OA
HETATM   18  N   UNL     1      -1.049 -14.459 -40.901  1.00  0.00    -0.131 NA
HETATM   19  C   UNL     1      -1.430 -14.147 -39.656  1.00  0.00     0.087 A 
HETATM   20  C   UNL     1      -0.378 -13.770 -38.683  1.00  0.00     0.075 C 
BRANCH  16  21
HETATM   21  C   UNL     1      -4.686 -14.736 -41.379  1.00  0.00     0.048 A 
HETATM   22  C   UNL     1      -5.720 -13.633 -41.340  1.00  0.00     0.012 A 
HETATM   23  C   UNL     1      -5.123 -14.039 -42.648  1.00  0.00     0.012 A 
ENDBRANCH  16  21
ENDBRANCH   3  15
TORSDOF 4
ENDMDL
MODEL 6
REMARK VINA RESULT:      -7.0      4.874      6.514
REMARK  4 active torsions:
REMARK  status: ('A' for Active; 'I' for Inactive)
REMARK    1  A    between atoms: C_5  and  C_6 
REMARK    2  A    between atoms: C_6  and  N_7 
REMARK       I    between atoms: N_7  and  C_8 
REMARK       I    between atoms: C_8  and  N_9 
REMARK    3  A    between atoms: N_9  and  C_10 
REMARK    4  A    between atoms: C_11  and  C_12 
ROOT
HETATM    1  N   UNL     1      -5.611   3.726 -32.931  1.00  0.00    -0.339 N 
HETATM    2  C   UNL     1      -5.034   4.907 -33.308  1.00  0.00     0.321 C 
HETATM    3  N   UNL     1      -3.911   5.252 -32.612  1.00  0.00    -0.305 N 
HETATM    4  O   UNL     1      -5.569   5.560 -34.197  1.00  0.00    -0.247 OA
HETATM    5  H   UNL     1      -6.405   3.505 -33.520  1.00  0.00     0.164 HD
HETATM    6  H   UNL     1      -3.874   4.897 -31.673  1.00  0.00     0.171 HD
ENDROOT
BRANCH   1   7
HETATM    7  C   UNL     1      -4.930   2.595 -32.335  1.00  0.00     0.162 C 
BRANCH   7   8
HETATM    8  C   UNL     1      -5.332   1.294 -32.975  1.00  0.00    -0.040 A 
HETATM    9  C   UNL     1      -4.713   0.095 -32.601  1.00  0.00     0.009 A 
HETATM   10  C   UNL     1      -5.123  -1.121 -33.156  1.00  0.00     0.007 A 
HETATM   11  C   UNL     1      -6.163  -1.161 -34.089  1.00  0.00    -0.062 A 
HETATM   12  C   UNL     1      -6.618  -2.459 -34.686  1.00  0.00     0.048 C 
HETATM   13  C   UNL     1      -6.782   0.036 -34.469  1.00  0.00     0.007 A 
HETATM   14  C   UNL     1      -6.373   1.251 -33.914  1.00  0.00     0.009 A 
ENDBRANCH   7   8
ENDBRANCH   1   7
BRANCH   3  15
HETATM   15  C   UNL     1      -3.042   6.296 -32.904  1.00  0.00     0.095 A 
HETATM   16  C   UNL     1      -2.959   7.490 -32.201  1.00  0.00     0.112 A 
HETATM   17  O   UNL     1      -1.984   8.261 -32.763  1.00  0.00    -0.215 OA
HETATM   18  N   UNL     1      -1.401   7.600 -33.813  1.00  0.00    -0.131 NA
HETATM   19  C   UNL     1      -2.021   6.416 -33.898  1.00  0.00     0.087 A 
HETATM   20  C   UNL     1      -1.541   5.454 -34.917  1.00  0.00     0.075 C 
BRANCH  16  21
HETATM   21  C   UNL     1      -3.735   8.028 -31.003  1.00  0.00     0.048 A 
HETATM   22  C   UNL     1      -4.018   9.506 -30.854  1.00  0.00     0.012 A 
HETATM   23  C   UNL     1      -5.141   8.566 -31.149  1.00  0.00     0.012 A 
ENDBRANCH  16  21
ENDBRANCH   3  15
TORSDOF 4
ENDMDL
MODEL 7
REMARK VINA RESULT:      -6.9      2.941      4.293
REMARK  4 active torsions:
REMARK  status: ('A' for Active; 'I' for Inactive)
REMARK    1  A    between atoms: C_5  and  C_6 
REMARK    2  A    between atoms: C_6  and  N_7 
REMARK       I    between atoms: N_7  and  C_8 
REMARK       I    between atoms: C_8  and  N_9 
REMARK    3  A    between atoms: N_9  and  C_10 
REMARK    4  A    between atoms: C_11  and  C_12 
ROOT
HETATM    1  N   UNL     1      -7.456   0.556 -32.584  1.00  0.00    -0.339 N 
HETATM    2  C   UNL     1      -7.125   1.853 -32.304  1.00  0.00     0.321 C 
HETATM    3  N   UNL     1      -6.249   2.429 -33.179  1.00  0.00    -0.305 N 
HETATM    4  O   UNL     1      -7.605   2.374 -31.305  1.00  0.00    -0.247 OA
HETATM    5  H   UNL     1      -8.146   0.207 -31.930  1.00  0.00     0.164 HD
HETATM    6  H   UNL     1      -5.622   1.787 -33.629  1.00  0.00     0.171 HD
ENDROOT
BRANCH   1   7
HETATM    7  C   UNL     1      -7.456  -0.062 -33.895  1.00  0.00     0.162 C 
BRANCH   7   8
HETATM    8  C   UNL     1      -6.450  -1.177 -33.992  1.00  0.00    -0.040 A 
HETATM    9  C   UNL     1      -5.230  -1.097 -33.308  1.00  0.00     0.009 A 
HETATM   10  C   UNL     1      -4.319  -2.156 -33.355  1.00  0.00     0.007 A 
HETATM   11  C   UNL     1      -4.612  -3.315 -34.081  1.00  0.00    -0.062 A 
HETATM   12  C   UNL     1      -3.647  -4.461 -34.132  1.00  0.00     0.048 C 
HETATM   13  C   UNL     1      -5.829  -3.396 -34.768  1.00  0.00     0.007 A 
HETATM   14  C   UNL     1      -6.741  -2.338 -34.721  1.00  0.00     0.009 A 
ENDBRANCH   7   8
ENDBRANCH   1   7
BRANCH   3  15
HETATM   15  C   UNL     1      -5.889   3.770 -33.228  1.00  0.00     0.095 A 
HETATM   16  C   UNL     1      -4.604   4.262 -33.039  1.00  0.00     0.112 A 
HETATM   17  O   UNL     1      -4.631   5.619 -33.180  1.00  0.00    -0.215 OA
HETATM   18  N   UNL     1      -5.901   6.042 -33.478  1.00  0.00    -0.131 NA
HETATM   19  C   UNL     1      -6.659   4.939 -33.521  1.00  0.00     0.087 A 
HETATM   20  C   UNL     1      -8.085   5.092 -33.895  1.00  0.00     0.075 C 
BRANCH  16  21
HETATM   21  C   UNL     1      -3.282   3.574 -32.715  1.00  0.00     0.048 A 
HETATM   22  C   UNL     1      -2.356   4.120 -31.652  1.00  0.00     0.012 A 
HETATM   23  C   UNL     1      -3.076   2.833 -31.413  1.00  0.00     0.012 A 
ENDBRANCH  16  21
ENDBRANCH   3  15
TORSDOF 4
ENDMDL
MODEL 8
REMARK VINA RESULT:      -6.8      2.447      3.351
REMARK  4 active torsions:
REMARK  status: ('A' for Active; 'I' for Inactive)
REMARK    1  A    between atoms: C_5  and  C_6 
REMARK    2  A    between atoms: C_6  and  N_7 
REMARK       I    between atoms: N_7  and  C_8 
REMARK       I    between atoms: C_8  and  N_9 
REMARK    3  A    between atoms: N_9  and  C_10 
REMARK    4  A    between atoms: C_11  and  C_12 
ROOT
HETATM    1  N   UNL     1      -7.455   0.317 -33.167  1.00  0.00    -0.339 N 
HETATM    2  C   UNL     1      -8.193   1.456 -33.007  1.00  0.00     0.321 C 
HETATM    3  N   UNL     1      -8.747   1.954 -34.152  1.00  0.00    -0.305 N 
HETATM    4  O   UNL     1      -8.277   1.944 -31.886  1.00  0.00    -0.247 OA
HETATM    5  H   UNL     1      -7.118  -0.027 -32.276  1.00  0.00     0.164 HD
HETATM    6  H   UNL     1      -8.236   1.743 -34.991  1.00  0.00     0.171 HD
ENDROOT
BRANCH   1   7
HETATM    7  C   UNL     1      -7.636  -0.680 -34.203  1.00  0.00     0.162 C 
BRANCH   7   8
HETATM    8  C   UNL     1      -6.532  -1.702 -34.201  1.00  0.00    -0.040 A 
HETATM    9  C   UNL     1      -5.301  -1.420 -33.595  1.00  0.00     0.009 A 
HETATM   10  C   UNL     1      -4.294  -2.388 -33.545  1.00  0.00     0.007 A 
HETATM   11  C   UNL     1      -4.502  -3.657 -34.094  1.00  0.00    -0.062 A 
HETATM   12  C   UNL     1      -3.432  -4.707 -34.039  1.00  0.00     0.048 C 
HETATM   13  C   UNL     1      -5.729  -3.942 -34.703  1.00  0.00     0.007 A 
HETATM   14  C   UNL     1      -6.736  -2.975 -34.753  1.00  0.00     0.009 A 
ENDBRANCH   7   8
ENDBRANCH   1   7
BRANCH   3  15
HETATM   15  C   UNL     1      -9.674   2.985 -34.244  1.00  0.00     0.095 A 
HETATM   16  C   UNL     1     -11.040   2.820 -34.430  1.00  0.00     0.112 A 
HETATM   17  O   UNL     1     -11.629   4.050 -34.451  1.00  0.00    -0.215 OA
HETATM   18  N   UNL     1     -10.691   5.031 -34.264  1.00  0.00    -0.131 NA
HETATM   19  C   UNL     1      -9.517   4.402 -34.127  1.00  0.00     0.087 A 
HETATM   20  C   UNL     1      -8.318   5.224 -33.839  1.00  0.00     0.075 C 
BRANCH  16  21
HETATM   21  C   UNL     1     -11.906   1.576 -34.610  1.00  0.00     0.048 A 
HETATM   22  C   UNL     1     -11.864   0.443 -33.609  1.00  0.00     0.012 A 
HETATM   23  C   UNL     1     -13.085   1.298 -33.705  1.00  0.00     0.012 A 
ENDBRANCH  16  21
ENDBRANCH   3  15
TORSDOF 4
ENDMDL
MODEL 9
REMARK VINA RESULT:      -6.8      2.862      4.802
REMARK  4 active torsions:
REMARK  status: ('A' for Active; 'I' for Inactive)
REMARK    1  A    between atoms: C_5  and  C_6 
REMARK    2  A    between atoms: C_6  and  N_7 
REMARK       I    between atoms: N_7  and  C_8 
REMARK       I    between atoms: C_8  and  N_9 
REMARK    3  A    between atoms: N_9  and  C_10 
REMARK    4  A    between atoms: C_11  and  C_12 
ROOT
HETATM    1  N   UNL     1      -7.971   3.655 -33.586  1.00  0.00    -0.339 N 
HETATM    2  C   UNL     1      -6.659   4.007 -33.444  1.00  0.00     0.321 C 
HETATM    3  N   UNL     1      -6.064   3.572 -32.294  1.00  0.00    -0.305 N 
HETATM    4  O   UNL     1      -6.139   4.688 -34.320  1.00  0.00    -0.247 OA
HETATM    5  H   UNL     1      -8.335   3.962 -34.480  1.00  0.00     0.164 HD
HETATM    6  H   UNL     1      -6.689   3.455 -31.516  1.00  0.00     0.171 HD
ENDROOT
BRANCH   1   7
HETATM    7  C   UNL     1      -8.612   2.491 -33.008  1.00  0.00     0.162 C 
BRANCH   7   8
HETATM    8  C   UNL     1      -7.978   1.209 -33.474  1.00  0.00    -0.040 A 
HETATM    9  C   UNL     1      -7.724   0.993 -34.834  1.00  0.00     0.009 A 
HETATM   10  C   UNL     1      -7.086  -0.174 -35.263  1.00  0.00     0.007 A 
HETATM   11  C   UNL     1      -6.684  -1.144 -34.339  1.00  0.00    -0.062 A 
HETATM   12  C   UNL     1      -5.992  -2.397 -34.785  1.00  0.00     0.048 C 
HETATM   13  C   UNL     1      -6.940  -0.934 -32.979  1.00  0.00     0.007 A 
HETATM   14  C   UNL     1      -7.577   0.233 -32.550  1.00  0.00     0.009 A 
ENDBRANCH   7   8
ENDBRANCH   1   7
BRANCH   3  15
HETATM   15  C   UNL     1      -4.710   3.638 -31.984  1.00  0.00     0.095 A 
HETATM   16  C   UNL     1      -3.879   2.544 -31.787  1.00  0.00     0.112 A 
HETATM   17  O   UNL     1      -2.620   2.994 -31.522  1.00  0.00    -0.215 OA
HETATM   18  N   UNL     1      -2.586   4.365 -31.558  1.00  0.00    -0.131 NA
HETATM   19  C   UNL     1      -3.833   4.759 -31.846  1.00  0.00     0.087 A 
HETATM   20  C   UNL     1      -4.079   6.210 -32.017  1.00  0.00     0.075 C 
BRANCH  16  21
HETATM   21  C   UNL     1      -4.143   1.041 -31.810  1.00  0.00     0.048 A 
HETATM   22  C   UNL     1      -3.363   0.124 -32.723  1.00  0.00     0.012 A 
HETATM   23  C   UNL     1      -3.144   0.056 -31.247  1.00  0.00     0.012 A 
ENDBRANCH  16  21
ENDBRANCH   3  15
TORSDOF 4
ENDMDL
MODEL 10
REMARK VINA RESULT:      -6.8      2.035      3.243
REMARK  4 active torsions:
REMARK  status: ('A' for Active; 'I' for Inactive)
REMARK    1  A    between atoms: C_5  and  C_6 
REMARK    2  A    between atoms: C_6  and  N_7 
REMARK       I    between atoms: N_7  and  C_8 
REMARK       I    between atoms: C_8  and  N_9 
REMARK    3  A    between atoms: N_9  and  C_10 
REMARK    4  A    between atoms: C_11  and  C_12 
ROOT
HETATM    1  N   UNL     1      -6.945   0.520 -35.173  1.00  0.00    -0.339 N 
HETATM    2  C   UNL     1      -6.909   1.548 -34.273  1.00  0.00     0.321 C 
HETATM    3  N   UNL     1      -7.901   1.533 -33.335  1.00  0.00    -0.305 N 
HETATM    4  O   UNL     1      -6.030   2.394 -34.389  1.00  0.00    -0.247 OA
HETATM    5  H   UNL     1      -6.155   0.562 -35.805  1.00  0.00     0.164 HD
HETATM    6  H   UNL     1      -8.754   1.094 -33.633  1.00  0.00     0.171 HD
ENDROOT
BRANCH   1   7
HETATM    7  C   UNL     1      -7.504  -0.796 -34.943  1.00  0.00     0.162 C 
BRANCH   7   8
HETATM    8  C   UNL     1      -6.436  -1.829 -34.709  1.00  0.00    -0.040 A 
HETATM    9  C   UNL     1      -5.193  -1.461 -34.178  1.00  0.00     0.009 A 
HETATM   10  C   UNL     1      -4.219  -2.427 -33.911  1.00  0.00     0.007 A 
HETATM   11  C   UNL     1      -4.472  -3.779 -34.162  1.00  0.00    -0.062 A 
HETATM   12  C   UNL     1      -3.439  -4.826 -33.872  1.00  0.00     0.048 C 
HETATM   13  C   UNL     1      -5.711  -4.151 -34.696  1.00  0.00     0.007 A 
HETATM   14  C   UNL     1      -6.685  -3.186 -34.963  1.00  0.00     0.009 A 
ENDBRANCH   7   8
ENDBRANCH   1   7
BRANCH   3  15
HETATM   15  C   UNL     1      -7.995   2.348 -32.213  1.00  0.00     0.095 A 
HETATM   16  C   UNL     1      -7.606   1.992 -30.929  1.00  0.00     0.112 A 
HETATM   17  O   UNL     1      -7.827   3.049 -30.096  1.00  0.00    -0.215 OA
HETATM   18  N   UNL     1      -8.336   4.110 -30.799  1.00  0.00    -0.131 NA
HETATM   19  C   UNL     1      -8.429   3.704 -32.071  1.00  0.00     0.087 A 
HETATM   20  C   UNL     1      -8.891   4.684 -33.081  1.00  0.00     0.075 C 
BRANCH  16  21
HETATM   21  C   UNL     1      -7.028   0.701 -30.355  1.00  0.00     0.048 A 
HETATM   22  C   UNL     1      -5.838   0.024 -30.998  1.00  0.00     0.012 A 
HETATM   23  C   UNL     1      -5.683   0.677 -29.663  1.00  0.00     0.012 A 
ENDBRANCH  16  21
ENDBRANCH   3  15
TORSDOF 4
ENDMDL
