MODEL 1
REMARK VINA RESULT:      -7.2      0.000      0.000
REMARK  5 active torsions:
REMARK  status: ('A' for Active; 'I' for Inactive)
REMARK    1  A    between atoms: C_2  and  C_3 
REMARK    2  A    between atoms: C_3  and  N_4 
REMARK    3  A    between atoms: C_10  and  C_11 
REMARK       I    between atoms: C_11  and  N_12 
REMARK    4  A    between atoms: N_12  and  C_13 
REMARK    5  A    between atoms: C_14  and  O_15 
ROOT
HETATM    1  C   UNL     1      -7.424   0.046 -34.659  1.00  0.00     0.256 C 
HETATM    2  N   UNL     1      -8.416   0.251 -33.727  1.00  0.00    -0.320 N 
HETATM    3  O   UNL     1      -7.232   0.756 -35.643  1.00  0.00    -0.267 OA
HETATM    4  H   UNL     1      -8.387  -0.309 -32.889  1.00  0.00     0.169 HD
ENDROOT
BRANCH   1   5
HETATM    5  C   UNL     1      -6.506  -1.127 -34.460  1.00  0.00     0.032 A 
HETATM    6  C   UNL     1      -6.778  -2.428 -34.899  1.00  0.00     0.017 A 
HETATM    7  C   UNL     1      -5.836  -3.453 -34.719  1.00  0.00     0.010 A 
HETATM    8  C   UNL     1      -4.595  -3.196 -34.117  1.00  0.00    -0.033 A 
HETATM    9  C   UNL     1      -4.324  -1.895 -33.672  1.00  0.00     0.010 A 
HETATM   10  C   UNL     1      -5.269  -0.879 -33.840  1.00  0.00     0.017 A 
BRANCH   8  11
HETATM   11  C   UNL     1      -3.577  -4.285 -33.947  1.00  0.00     0.268 C 
BRANCH  11  12
HETATM   12  N   UNL     1      -4.204  -5.624 -33.960  1.00  0.00    -0.075 N 
HETATM   13  H   UNL     1      -4.048  -6.112 -33.070  1.00  0.00     0.274 HD
HETATM   14  H   UNL     1      -5.221  -5.549 -34.090  1.00  0.00     0.274 HD
HETATM   15  H   UNL     1      -3.827  -6.210 -34.713  1.00  0.00     0.274 HD
ENDBRANCH  11  12
ENDBRANCH   8  11
ENDBRANCH   1   5
BRANCH   2  16
HETATM   16  C   UNL     1      -9.496   1.180 -33.752  1.00  0.00     0.069 A 
HETATM   17  C   UNL     1      -9.427   2.577 -33.868  1.00  0.00     0.092 A 
HETATM   18  C   UNL     1     -10.592   3.353 -33.926  1.00  0.00     0.040 A 
HETATM   19  C   UNL     1     -11.849   2.757 -33.867  1.00  0.00     0.022 A 
HETATM   20  C   UNL     1     -11.933   1.377 -33.747  1.00  0.00     0.013 A 
HETATM   21 BR   UNL     1     -13.629   0.544 -33.671  1.00  0.00    -0.051 Br
HETATM   22  C   UNL     1     -10.775   0.596 -33.691  1.00  0.00     0.051 A 
BRANCH  17  23
HETATM   23  O   UNL     1      -8.285   3.318 -33.951  1.00  0.00    -0.358 OA
HETATM   24  H   UNL     1      -7.762   3.193 -33.133  1.00  0.00     0.218 HD
ENDBRANCH  17  23
ENDBRANCH   2  16
TORSDOF 5
ENDMDL
MODEL 2
REMARK VINA RESULT:      -7.0      4.634      5.522
REMARK  5 active torsions:
REMARK  status: ('A' for Active; 'I' for Inactive)
REMARK    1  A    between atoms: C_2  and  C_3 
REMARK    2  A    between atoms: C_3  and  N_4 
REMARK    3  A    between atoms: C_10  and  C_11 
REMARK       I    between atoms: C_11  and  N_12 
REMARK    4  A    between atoms: N_12  and  C_13 
REMARK    5  A    between atoms: C_14  and  O_15 
ROOT
HETATM    1  C   UNL     1      -5.751   0.917 -33.359  1.00  0.00     0.256 C 
HETATM    2  N   UNL     1      -4.633   1.387 -32.708  1.00  0.00    -0.320 N 
HETATM    3  O   UNL     1      -6.720   1.605 -33.669  1.00  0.00    -0.267 OA
HETATM    4  H   UNL     1      -3.844   0.764 -32.634  1.00  0.00     0.169 HD
ENDROOT
BRANCH   1   5
HETATM    5  C   UNL     1      -5.791  -0.540 -33.723  1.00  0.00     0.032 A 
HETATM    6  C   UNL     1      -6.936  -1.214 -34.163  1.00  0.00     0.017 A 
HETATM    7  C   UNL     1      -6.868  -2.566 -34.535  1.00  0.00     0.010 A 
HETATM    8  C   UNL     1      -5.653  -3.266 -34.495  1.00  0.00    -0.033 A 
HETATM    9  C   UNL     1      -4.508  -2.594 -34.049  1.00  0.00     0.010 A 
HETATM   10  C   UNL     1      -4.580  -1.251 -33.666  1.00  0.00     0.017 A 
BRANCH   8  11
HETATM   11  C   UNL     1      -5.574  -4.705 -34.917  1.00  0.00     0.268 C 
BRANCH  11  12
HETATM   12  N   UNL     1      -4.460  -5.409 -34.246  1.00  0.00    -0.075 N 
HETATM   13  H   UNL     1      -3.656  -4.783 -34.113  1.00  0.00     0.274 HD
HETATM   14  H   UNL     1      -4.745  -5.738 -33.315  1.00  0.00     0.274 HD
HETATM   15  H   UNL     1      -4.145  -6.220 -34.790  1.00  0.00     0.274 HD
ENDBRANCH  11  12
ENDBRANCH   8  11
ENDBRANCH   1   5
BRANCH   2  16
HETATM   16  C   UNL     1      -4.402   2.667 -32.126  1.00  0.00     0.069 A 
HETATM   17  C   UNL     1      -5.237   3.376 -31.247  1.00  0.00     0.092 A 
HETATM   18  C   UNL     1      -4.842   4.613 -30.720  1.00  0.00     0.040 A 
HETATM   19  C   UNL     1      -3.613   5.172 -31.059  1.00  0.00     0.022 A 
HETATM   20  C   UNL     1      -2.779   4.486 -31.930  1.00  0.00     0.013 A 
HETATM   21 BR   UNL     1      -1.102   5.223 -32.401  1.00  0.00    -0.051 Br
HETATM   22  C   UNL     1      -3.165   3.249 -32.458  1.00  0.00     0.051 A 
BRANCH  17  23
HETATM   23  O   UNL     1      -6.461   2.970 -30.803  1.00  0.00    -0.358 OA
HETATM   24  H   UNL     1      -6.785   3.608 -30.134  1.00  0.00     0.218 HD
ENDBRANCH  17  23
ENDBRANCH   2  16
TORSDOF 5
ENDMDL
MODEL 3
REMARK VINA RESULT:      -7.0     13.918     16.016
REMARK  5 active torsions:
REMARK  status: ('A' for Active; 'I' for Inactive)
REMARK    1  A    between atoms: C_2  and  C_3 
REMARK    2  A    between atoms: C_3  and  N_4 
REMARK    3  A    between atoms: C_10  and  C_11 
REMARK       I    between atoms: C_11  and  N_12 
REMARK    4  A    between atoms: N_12  and  C_13 
REMARK    5  A    between atoms: C_14  and  O_15 
ROOT
HETATM    1  C   UNL     1      -4.319 -12.573 -38.810  1.00  0.00     0.256 C 
HETATM    2  N   UNL     1      -3.586 -13.628 -39.306  1.00  0.00    -0.320 N 
HETATM    3  O   UNL     1      -3.861 -11.673 -38.113  1.00  0.00    -0.267 OA
HETATM    4  H   UNL     1      -4.036 -14.227 -39.982  1.00  0.00     0.169 HD
ENDROOT
BRANCH   1   5
HETATM    5  C   UNL     1      -5.782 -12.515 -39.146  1.00  0.00     0.032 A 
HETATM    6  C   UNL     1      -6.290 -12.295 -40.431  1.00  0.00     0.017 A 
HETATM    7  C   UNL     1      -7.675 -12.312 -40.663  1.00  0.00     0.010 A 
HETATM    8  C   UNL     1      -8.578 -12.570 -39.622  1.00  0.00    -0.033 A 
HETATM    9  C   UNL     1      -8.070 -12.785 -38.334  1.00  0.00     0.010 A 
HETATM   10  C   UNL     1      -6.692 -12.754 -38.103  1.00  0.00     0.017 A 
BRANCH   8  11
HETATM   11  C   UNL     1     -10.057 -12.615 -39.873  1.00  0.00     0.268 C 
BRANCH  11  12
HETATM   12  N   UNL     1     -10.518 -11.427 -40.623  1.00  0.00    -0.075 N 
HETATM   13  H   UNL     1     -10.228 -10.560 -40.154  1.00  0.00     0.274 HD
HETATM   14  H   UNL     1     -10.112 -11.412 -41.567  1.00  0.00     0.274 HD
HETATM   15  H   UNL     1     -11.540 -11.411 -40.713  1.00  0.00     0.274 HD
ENDBRANCH  11  12
ENDBRANCH   8  11
ENDBRANCH   1   5
BRANCH   2  16
HETATM   16  C   UNL     1      -2.241 -14.001 -39.024  1.00  0.00     0.069 A 
HETATM   17  C   UNL     1      -1.112 -13.836 -39.843  1.00  0.00     0.092 A 
HETATM   18  C   UNL     1       0.162 -14.215 -39.398  1.00  0.00     0.040 A 
HETATM   19  C   UNL     1       0.338 -14.769 -38.133  1.00  0.00     0.022 A 
HETATM   20  C   UNL     1      -0.768 -14.944 -37.315  1.00  0.00     0.013 A 
HETATM   21 BR   UNL     1      -0.552 -15.690 -35.590  1.00  0.00    -0.051 Br
HETATM   22  C   UNL     1      -2.042 -14.566 -37.750  1.00  0.00     0.051 A 
BRANCH  17  23
HETATM   23  O   UNL     1      -1.104 -13.300 -41.097  1.00  0.00    -0.358 OA
HETATM   24  H   UNL     1      -0.282 -12.781 -41.217  1.00  0.00     0.218 HD
ENDBRANCH  17  23
ENDBRANCH   2  16
TORSDOF 5
ENDMDL
MODEL 4
REMARK VINA RESULT:      -7.0      1.586      1.934
REMARK  5 active torsions:
REMARK  status: ('A' for Active; 'I' for Inactive)
REMARK    1  A    between atoms: C_2  and  C_3 
REMARK    2  A    between atoms: C_3  and  N_4 
REMARK    3  A    between atoms: C_10  and  C_11 
REMARK       I    between atoms: C_11  and  N_12 
REMARK    4  A    between atoms: N_12  and  C_13 
REMARK    5  A    between atoms: C_14  and  O_15 
ROOT
HETATM    1  C   UNL     1      -7.095   0.152 -33.314  1.00  0.00     0.256 C 
HETATM    2  N   UNL     1      -8.468   0.138 -33.215  1.00  0.00    -0.320 N 
HETATM    3  O   UNL     1      -6.390   1.133 -33.095  1.00  0.00    -0.267 OA
HETATM    4  H   UNL     1      -8.927  -0.758 -33.279  1.00  0.00     0.169 HD
ENDROOT
BRANCH   1   5
HETATM    5  C   UNL     1      -6.406  -1.121 -33.715  1.00  0.00     0.032 A 
HETATM    6  C   UNL     1      -5.050  -1.389 -33.497  1.00  0.00     0.017 A 
HETATM    7  C   UNL     1      -4.502  -2.632 -33.854  1.00  0.00     0.010 A 
HETATM    8  C   UNL     1      -5.301  -3.638 -34.419  1.00  0.00    -0.033 A 
HETATM    9  C   UNL     1      -6.657  -3.368 -34.643  1.00  0.00     0.010 A 
HETATM   10  C   UNL     1      -7.197  -2.126 -34.298  1.00  0.00     0.017 A 
BRANCH   8  11
HETATM   11  C   UNL     1      -4.722  -4.975 -34.778  1.00  0.00     0.268 C 
BRANCH  11  12
HETATM   12  N   UNL     1      -3.640  -5.367 -33.850  1.00  0.00    -0.075 N 
HETATM   13  H   UNL     1      -4.004  -5.946 -33.083  1.00  0.00     0.274 HD
HETATM   14  H   UNL     1      -2.926  -5.924 -34.337  1.00  0.00     0.274 HD
HETATM   15  H   UNL     1      -3.181  -4.547 -33.438  1.00  0.00     0.274 HD
ENDBRANCH  11  12
ENDBRANCH   8  11
ENDBRANCH   1   5
BRANCH   2  16
HETATM   16  C   UNL     1      -9.367   1.222 -33.004  1.00  0.00     0.069 A 
HETATM   17  C   UNL     1      -9.404   2.110 -31.917  1.00  0.00     0.092 A 
HETATM   18  C   UNL     1     -10.327   3.164 -31.880  1.00  0.00     0.040 A 
HETATM   19  C   UNL     1     -11.233   3.354 -32.920  1.00  0.00     0.022 A 
HETATM   20  C   UNL     1     -11.212   2.482 -33.999  1.00  0.00     0.013 A 
HETATM   21 BR   UNL     1     -12.429   2.724 -35.426  1.00  0.00    -0.051 Br
HETATM   22  C   UNL     1     -10.292   1.430 -34.045  1.00  0.00     0.051 A 
BRANCH  17  23
HETATM   23  O   UNL     1      -8.585   2.076 -30.828  1.00  0.00    -0.358 OA
HETATM   24  H   UNL     1      -9.133   2.088 -30.016  1.00  0.00     0.218 HD
ENDBRANCH  17  23
ENDBRANCH   2  16
TORSDOF 5
ENDMDL
MODEL 5
REMARK VINA RESULT:      -6.8      3.343      3.896
REMARK  5 active torsions:
REMARK  status: ('A' for Active; 'I' for Inactive)
REMARK    1  A    between atoms: C_2  and  C_3 
REMARK    2  A    between atoms: C_3  and  N_4 
REMARK    3  A    between atoms: C_10  and  C_11 
REMARK       I    between atoms: C_11  and  N_12 
REMARK    4  A    between atoms: N_12  and  C_13 
REMARK    5  A    between atoms: C_14  and  O_15 
ROOT
HETATM    1  C   UNL     1      -6.551   0.600 -33.535  1.00  0.00     0.256 C 
HETATM    2  N   UNL     1      -6.654   0.963 -32.211  1.00  0.00    -0.320 N 
HETATM    3  O   UNL     1      -6.837   1.326 -34.482  1.00  0.00    -0.267 OA
HETATM    4  H   UNL     1      -6.257   0.337 -31.527  1.00  0.00     0.169 HD
ENDROOT
BRANCH   1   5
HETATM    5  C   UNL     1      -6.052  -0.783 -33.846  1.00  0.00     0.032 A 
HETATM    6  C   UNL     1      -4.766  -1.246 -33.544  1.00  0.00     0.017 A 
HETATM    7  C   UNL     1      -4.402  -2.573 -33.822  1.00  0.00     0.010 A 
HETATM    8  C   UNL     1      -5.321  -3.470 -34.388  1.00  0.00    -0.033 A 
HETATM    9  C   UNL     1      -6.606  -3.006 -34.696  1.00  0.00     0.010 A 
HETATM   10  C   UNL     1      -6.961  -1.680 -34.431  1.00  0.00     0.017 A 
BRANCH   8  11
HETATM   11  C   UNL     1      -4.942  -4.896 -34.661  1.00  0.00     0.268 C 
BRANCH  11  12
HETATM   12  N   UNL     1      -3.697  -5.273 -33.959  1.00  0.00    -0.075 N 
HETATM   13  H   UNL     1      -3.849  -6.088 -33.351  1.00  0.00     0.274 HD
HETATM   14  H   UNL     1      -2.963  -5.530 -34.631  1.00  0.00     0.274 HD
HETATM   15  H   UNL     1      -3.344  -4.505 -33.377  1.00  0.00     0.274 HD
ENDBRANCH  11  12
ENDBRANCH   8  11
ENDBRANCH   1   5
BRANCH   2  16
HETATM   16  C   UNL     1      -7.228   2.136 -31.641  1.00  0.00     0.069 A 
HETATM   17  C   UNL     1      -8.504   2.280 -31.074  1.00  0.00     0.092 A 
HETATM   18  C   UNL     1      -8.906   3.498 -30.508  1.00  0.00     0.040 A 
HETATM   19  C   UNL     1      -8.050   4.596 -30.499  1.00  0.00     0.022 A 
HETATM   20  C   UNL     1      -6.788   4.470 -31.060  1.00  0.00     0.013 A 
HETATM   21 BR   UNL     1      -5.606   5.946 -31.053  1.00  0.00    -0.051 Br
HETATM   22  C   UNL     1      -6.379   3.258 -31.624  1.00  0.00     0.051 A 
BRANCH  17  23
HETATM   23  O   UNL     1      -9.457   1.308 -30.988  1.00  0.00    -0.358 OA
HETATM   24  H   UNL     1      -9.589   0.911 -31.873  1.00  0.00     0.218 HD
ENDBRANCH  17  23
ENDBRANCH   2  16
TORSDOF 5
ENDMDL
MODEL 6
REMARK VINA RESULT:      -6.8      2.998      7.408
REMARK  5 active torsions:
REMARK  status: ('A' for Active; 'I' for Inactive)
REMARK    1  A    between atoms: C_2  and  C_3 
REMARK    2  A    between atoms: C_3  and  N_4 
REMARK    3  A    between atoms: C_10  and  C_11 
REMARK       I    between atoms: C_11  and  N_12 
REMARK    4  A    between atoms: N_12  and  C_13 
REMARK    5  A    between atoms: C_14  and  O_15 
ROOT
HETATM    1  C   UNL     1      -8.306   0.712 -32.632  1.00  0.00     0.256 C 
HETATM    2  N   UNL     1      -7.773   0.132 -33.761  1.00  0.00    -0.320 N 
HETATM    3  O   UNL     1      -7.771   0.709 -31.527  1.00  0.00    -0.267 OA
HETATM    4  H   UNL     1      -8.232   0.320 -34.639  1.00  0.00     0.169 HD
ENDROOT
BRANCH   1   5
HETATM    5  C   UNL     1      -9.636   1.400 -32.758  1.00  0.00     0.032 A 
HETATM    6  C   UNL     1      -9.895   2.705 -32.321  1.00  0.00     0.017 A 
HETATM    7  C   UNL     1     -11.154   3.289 -32.531  1.00  0.00     0.010 A 
HETATM    8  C   UNL     1     -12.173   2.591 -33.197  1.00  0.00    -0.033 A 
HETATM    9  C   UNL     1     -11.915   1.284 -33.629  1.00  0.00     0.010 A 
HETATM   10  C   UNL     1     -10.665   0.699 -33.408  1.00  0.00     0.017 A 
BRANCH   8  11
HETATM   11  C   UNL     1     -13.511   3.224 -33.445  1.00  0.00     0.268 C 
BRANCH  11  12
HETATM   12  N   UNL     1     -14.574   2.208 -33.597  1.00  0.00    -0.075 N 
HETATM   13  H   UNL     1     -14.226   1.384 -34.102  1.00  0.00     0.274 HD
HETATM   14  H   UNL     1     -14.903   1.884 -32.678  1.00  0.00     0.274 HD
HETATM   15  H   UNL     1     -15.380   2.580 -34.113  1.00  0.00     0.274 HD
ENDBRANCH  11  12
ENDBRANCH   8  11
ENDBRANCH   1   5
BRANCH   2  16
HETATM   16  C   UNL     1      -6.622  -0.698 -33.889  1.00  0.00     0.069 A 
HETATM   17  C   UNL     1      -5.307  -0.412 -33.490  1.00  0.00     0.092 A 
HETATM   18  C   UNL     1      -4.286  -1.360 -33.643  1.00  0.00     0.040 A 
HETATM   19  C   UNL     1      -4.552  -2.609 -34.197  1.00  0.00     0.022 A 
HETATM   20  C   UNL     1      -5.845  -2.905 -34.600  1.00  0.00     0.013 A 
HETATM   21 BR   UNL     1      -6.231  -4.598 -35.350  1.00  0.00    -0.051 Br
HETATM   22  C   UNL     1      -6.870  -1.965 -34.449  1.00  0.00     0.051 A 
BRANCH  17  23
HETATM   23  O   UNL     1      -4.877   0.751 -32.921  1.00  0.00    -0.358 OA
HETATM   24  H   UNL     1      -4.712   1.410 -33.626  1.00  0.00     0.218 HD
ENDBRANCH  17  23
ENDBRANCH   2  16
TORSDOF 5
ENDMDL
MODEL 7
REMARK VINA RESULT:      -6.8      5.252      6.218
REMARK  5 active torsions:
REMARK  status: ('A' for Active; 'I' for Inactive)
REMARK    1  A    between atoms: C_2  and  C_3 
REMARK    2  A    between atoms: C_3  and  N_4 
REMARK    3  A    between atoms: C_10  and  C_11 
REMARK       I    between atoms: C_11  and  N_12 
REMARK    4  A    between atoms: N_12  and  C_13 
REMARK    5  A    between atoms: C_14  and  O_15 
ROOT
HETATM    1  C   UNL     1      -3.866   0.831 -32.320  1.00  0.00     0.256 C 
HETATM    2  N   UNL     1      -4.354   2.071 -32.668  1.00  0.00    -0.320 N 
HETATM    3  O   UNL     1      -2.995   0.635 -31.478  1.00  0.00    -0.267 OA
HETATM    4  H   UNL     1      -5.165   2.098 -33.266  1.00  0.00     0.169 HD
ENDROOT
BRANCH   1   5
HETATM    5  C   UNL     1      -4.442  -0.370 -33.015  1.00  0.00     0.032 A 
HETATM    6  C   UNL     1      -5.612  -0.354 -33.784  1.00  0.00     0.017 A 
HETATM    7  C   UNL     1      -6.047  -1.514 -34.445  1.00  0.00     0.010 A 
HETATM    8  C   UNL     1      -5.312  -2.706 -34.369  1.00  0.00    -0.033 A 
HETATM    9  C   UNL     1      -4.145  -2.725 -33.595  1.00  0.00     0.010 A 
HETATM   10  C   UNL     1      -3.721  -1.573 -32.927  1.00  0.00     0.017 A 
BRANCH   8  11
HETATM   11  C   UNL     1      -5.762  -3.940 -35.096  1.00  0.00     0.268 C 
BRANCH  11  12
HETATM   12  N   UNL     1      -7.111  -4.366 -34.664  1.00  0.00    -0.075 N 
HETATM   13  H   UNL     1      -7.081  -5.297 -34.231  1.00  0.00     0.274 HD
HETATM   14  H   UNL     1      -7.490  -3.717 -33.963  1.00  0.00     0.274 HD
HETATM   15  H   UNL     1      -7.765  -4.403 -35.454  1.00  0.00     0.274 HD
ENDBRANCH  11  12
ENDBRANCH   8  11
ENDBRANCH   1   5
BRANCH   2  16
HETATM   16  C   UNL     1      -3.890   3.361 -32.282  1.00  0.00     0.069 A 
HETATM   17  C   UNL     1      -4.132   4.037 -31.077  1.00  0.00     0.092 A 
HETATM   18  C   UNL     1      -3.560   5.293 -30.827  1.00  0.00     0.040 A 
HETATM   19  C   UNL     1      -2.739   5.901 -31.773  1.00  0.00     0.022 A 
HETATM   20  C   UNL     1      -2.494   5.247 -32.971  1.00  0.00     0.013 A 
HETATM   21 BR   UNL     1      -1.377   6.052 -34.268  1.00  0.00    -0.051 Br
HETATM   22  C   UNL     1      -3.059   3.994 -33.226  1.00  0.00     0.051 A 
BRANCH  17  23
HETATM   23  O   UNL     1      -4.897   3.582 -30.043  1.00  0.00    -0.358 OA
HETATM   24  H   UNL     1      -4.354   3.562 -29.229  1.00  0.00     0.218 HD
ENDBRANCH  17  23
ENDBRANCH   2  16
TORSDOF 5
ENDMDL
MODEL 8
REMARK VINA RESULT:      -6.6     10.507     11.812
REMARK  5 active torsions:
REMARK  status: ('A' for Active; 'I' for Inactive)
REMARK    1  A    between atoms: C_2  and  C_3 
REMARK    2  A    between atoms: C_3  and  N_4 
REMARK    3  A    between atoms: C_10  and  C_11 
REMARK       I    between atoms: C_11  and  N_12 
REMARK    4  A    between atoms: N_12  and  C_13 
REMARK    5  A    between atoms: C_14  and  O_15 
ROOT
HETATM    1  C   UNL     1      -0.040   6.038 -30.144  1.00  0.00     0.256 C 
HETATM    2  N   UNL     1      -1.079   6.585 -30.862  1.00  0.00    -0.320 N 
HETATM    3  O   UNL     1       0.548   5.003 -30.444  1.00  0.00    -0.267 OA
HETATM    4  H   UNL     1      -1.388   7.508 -30.600  1.00  0.00     0.169 HD
ENDROOT
BRANCH   1   5
HETATM    5  C   UNL     1       0.411   6.758 -28.904  1.00  0.00     0.032 A 
HETATM    6  C   UNL     1       1.136   7.956 -28.906  1.00  0.00     0.017 A 
HETATM    7  C   UNL     1       1.468   8.589 -27.698  1.00  0.00     0.010 A 
HETATM    8  C   UNL     1       1.067   8.051 -26.466  1.00  0.00    -0.033 A 
HETATM    9  C   UNL     1       0.346   6.850 -26.464  1.00  0.00     0.010 A 
HETATM   10  C   UNL     1       0.028   6.214 -27.667  1.00  0.00     0.017 A 
BRANCH   8  11
HETATM   11  C   UNL     1       1.399   8.741 -25.175  1.00  0.00     0.268 C 
BRANCH  11  12
HETATM   12  N   UNL     1       2.690   8.275 -24.625  1.00  0.00    -0.075 N 
HETATM   13  H   UNL     1       2.683   8.303 -23.598  1.00  0.00     0.274 HD
HETATM   14  H   UNL     1       2.873   7.302 -24.900  1.00  0.00     0.274 HD
HETATM   15  H   UNL     1       3.471   8.854 -24.953  1.00  0.00     0.274 HD
ENDBRANCH  11  12
ENDBRANCH   8  11
ENDBRANCH   1   5
BRANCH   2  16
HETATM   16  C   UNL     1      -1.791   6.041 -31.970  1.00  0.00     0.069 A 
HETATM   17  C   UNL     1      -1.944   6.596 -33.250  1.00  0.00     0.092 A 
HETATM   18  C   UNL     1      -2.640   5.909 -34.255  1.00  0.00     0.040 A 
HETATM   19  C   UNL     1      -3.200   4.659 -34.005  1.00  0.00     0.022 A 
HETATM   20  C   UNL     1      -3.061   4.100 -32.743  1.00  0.00     0.013 A 
HETATM   21 BR   UNL     1      -3.809   2.400 -32.382  1.00  0.00    -0.051 Br
HETATM   22  C   UNL     1      -2.366   4.778 -31.737  1.00  0.00     0.051 A 
BRANCH  17  23
HETATM   23  O   UNL     1      -1.451   7.798 -33.667  1.00  0.00    -0.358 OA
HETATM   24  H   UNL     1      -1.186   7.726 -34.607  1.00  0.00     0.218 HD
ENDBRANCH  17  23
ENDBRANCH   2  16
TORSDOF 5
ENDMDL
MODEL 9
REMARK VINA RESULT:      -6.6      4.040      4.778
REMARK  5 active torsions:
REMARK  status: ('A' for Active; 'I' for Inactive)
REMARK    1  A    between atoms: C_2  and  C_3 
REMARK    2  A    between atoms: C_3  and  N_4 
REMARK    3  A    between atoms: C_10  and  C_11 
REMARK       I    between atoms: C_11  and  N_12 
REMARK    4  A    between atoms: N_12  and  C_13 
REMARK    5  A    between atoms: C_14  and  O_15 
ROOT
HETATM    1  C   UNL     1      -5.668   0.937 -33.421  1.00  0.00     0.256 C 
HETATM    2  N   UNL     1      -4.855   1.318 -32.378  1.00  0.00    -0.320 N 
HETATM    3  O   UNL     1      -6.345   1.708 -34.096  1.00  0.00    -0.267 OA
HETATM    4  H   UNL     1      -4.240   0.618 -31.991  1.00  0.00     0.169 HD
ENDROOT
BRANCH   1   5
HETATM    5  C   UNL     1      -5.733  -0.525 -33.764  1.00  0.00     0.032 A 
HETATM    6  C   UNL     1      -6.884  -1.181 -34.213  1.00  0.00     0.017 A 
HETATM    7  C   UNL     1      -6.839  -2.540 -34.565  1.00  0.00     0.010 A 
HETATM    8  C   UNL     1      -5.640  -3.265 -34.493  1.00  0.00    -0.033 A 
HETATM    9  C   UNL     1      -4.489  -2.609 -34.037  1.00  0.00     0.010 A 
HETATM   10  C   UNL     1      -4.539  -1.260 -33.675  1.00  0.00     0.017 A 
BRANCH   8  11
HETATM   11  C   UNL     1      -5.584  -4.710 -34.892  1.00  0.00     0.268 C 
BRANCH  11  12
HETATM   12  N   UNL     1      -4.448  -5.409 -34.253  1.00  0.00    -0.075 N 
HETATM   13  H   UNL     1      -4.749  -6.300 -33.841  1.00  0.00     0.274 HD
HETATM   14  H   UNL     1      -3.719  -5.625 -34.944  1.00  0.00     0.274 HD
HETATM   15  H   UNL     1      -4.026  -4.841 -33.510  1.00  0.00     0.274 HD
ENDBRANCH  11  12
ENDBRANCH   8  11
ENDBRANCH   1   5
BRANCH   2  16
HETATM   16  C   UNL     1      -4.725   2.593 -31.757  1.00  0.00     0.069 A 
HETATM   17  C   UNL     1      -3.669   3.509 -31.887  1.00  0.00     0.092 A 
HETATM   18  C   UNL     1      -3.712   4.754 -31.243  1.00  0.00     0.040 A 
HETATM   19  C   UNL     1      -4.804   5.110 -30.456  1.00  0.00     0.022 A 
HETATM   20  C   UNL     1      -5.852   4.214 -30.314  1.00  0.00     0.013 A 
HETATM   21 BR   UNL     1      -7.348   4.679 -29.254  1.00  0.00    -0.051 Br
HETATM   22  C   UNL     1      -5.818   2.971 -30.955  1.00  0.00     0.051 A 
BRANCH  17  23
HETATM   23  O   UNL     1      -2.537   3.327 -32.626  1.00  0.00    -0.358 OA
HETATM   24  H   UNL     1      -2.768   3.359 -33.577  1.00  0.00     0.218 HD
ENDBRANCH  17  23
ENDBRANCH   2  16
TORSDOF 5
ENDMDL
MODEL 10
REMARK VINA RESULT:      -6.5      3.813      8.240
REMARK  5 active torsions:
REMARK  status: ('A' for Active; 'I' for Inactive)
REMARK    1  A    between atoms: C_2  and  C_3 
REMARK    2  A    between atoms: C_3  and  N_4 
REMARK    3  A    between atoms: C_10  and  C_11 
REMARK       I    between atoms: C_11  and  N_12 
REMARK    4  A    between atoms: N_12  and  C_13 
REMARK    5  A    between atoms: C_14  and  O_15 
ROOT
HETATM    1  C   UNL     1     -11.216   1.957 -33.251  1.00  0.00     0.256 C 
HETATM    2  N   UNL     1     -10.559   0.967 -32.556  1.00  0.00    -0.320 N 
HETATM    3  O   UNL     1     -10.677   2.737 -34.031  1.00  0.00    -0.267 OA
HETATM    4  H   UNL     1     -11.125   0.299 -32.056  1.00  0.00     0.169 HD
ENDROOT
BRANCH   1   5
HETATM    5  C   UNL     1     -12.698   2.094 -33.046  1.00  0.00     0.032 A 
HETATM    6  C   UNL     1     -13.650   1.183 -33.519  1.00  0.00     0.017 A 
HETATM    7  C   UNL     1     -15.012   1.361 -33.232  1.00  0.00     0.010 A 
HETATM    8  C   UNL     1     -15.450   2.441 -32.451  1.00  0.00    -0.033 A 
HETATM    9  C   UNL     1     -14.499   3.356 -31.982  1.00  0.00     0.010 A 
HETATM   10  C   UNL     1     -13.145   3.184 -32.280  1.00  0.00     0.017 A 
BRANCH   8  11
HETATM   11  C   UNL     1     -16.904   2.618 -32.121  1.00  0.00     0.268 C 
BRANCH  11  12
HETATM   12  N   UNL     1     -17.731   2.717 -33.343  1.00  0.00    -0.075 N 
HETATM   13  H   UNL     1     -17.202   3.145 -34.112  1.00  0.00     0.274 HD
HETATM   14  H   UNL     1     -18.025   1.784 -33.660  1.00  0.00     0.274 HD
HETATM   15  H   UNL     1     -18.573   3.282 -33.184  1.00  0.00     0.274 HD
ENDBRANCH  11  12
ENDBRANCH   8  11
ENDBRANCH   1   5
BRANCH   2  16
HETATM   16  C   UNL     1      -9.161   0.717 -32.451  1.00  0.00     0.069 A 
HETATM   17  C   UNL     1      -8.259   1.254 -31.518  1.00  0.00     0.092 A 
HETATM   18  C   UNL     1      -6.911   0.869 -31.517  1.00  0.00     0.040 A 
HETATM   19  C   UNL     1      -6.433  -0.054 -32.444  1.00  0.00     0.022 A 
HETATM   20  C   UNL     1      -7.311  -0.588 -33.375  1.00  0.00     0.013 A 
HETATM   21 BR   UNL     1      -6.686  -1.847 -34.640  1.00  0.00    -0.051 Br
HETATM   22  C   UNL     1      -8.658  -0.211 -33.381  1.00  0.00     0.051 A 
BRANCH  17  23
HETATM   23  O   UNL     1      -8.560   2.153 -30.538  1.00  0.00    -0.358 OA
HETATM   24  H   UNL     1      -7.733   2.426 -30.090  1.00  0.00     0.218 HD
ENDBRANCH  17  23
ENDBRANCH   2  16
TORSDOF 5
ENDMDL
