MODEL 1
REMARK VINA RESULT:      -9.2      0.000      0.000
REMARK  8 active torsions:
REMARK  status: ('A' for Active; 'I' for Inactive)
REMARK    1  A    between atoms: N_2  and  C_3 
REMARK    2  A    between atoms: C_4  and  C_5 
REMARK       I    between atoms: C_5  and  N_6 
REMARK    3  A    between atoms: N_6  and  C_7 
REMARK    4  A    between atoms: C_7  and  C_8 
REMARK    5  A    between atoms: N_13  and  C_15 
REMARK    6  A    between atoms: C_15  and  C_16 
REMARK    7  A    between atoms: C_16  and  C_17 
REMARK    8  A    between atoms: C_17  and  C_18 
ROOT
HETATM    1  C   UNL     1      -6.170   1.798 -31.057  1.00  0.00     0.140 C 
HETATM    2  O   UNL     1      -5.549   2.560 -32.116  1.00  0.00    -0.373 OA
HETATM    3  C   UNL     1      -4.989   3.757 -31.535  1.00  0.00     0.064 C 
HETATM    4  C   UNL     1      -5.473   4.937 -32.386  1.00  0.00     0.066 C 
HETATM    5  C   UNL     1      -4.882   4.910 -33.792  1.00  0.00     0.237 C 
HETATM    6  N   UNL     1      -3.366   4.837 -33.743  1.00  0.00    -0.071 N 
HETATM    7  H   UNL     1      -3.080   4.675 -34.718  1.00  0.00     0.279 HD
HETATM    8  C   UNL     1      -2.936   3.597 -32.988  1.00  0.00     0.237 C 
HETATM    9  C   UNL     1      -3.462   3.635 -31.564  1.00  0.00     0.066 C 
HETATM   10  C   UNL     1      -5.513   3.831 -30.093  1.00  0.00     0.041 C 
HETATM   11  C   UNL     1      -6.665   2.855 -30.086  1.00  0.00     0.036 C 
ENDROOT
BRANCH   1  12
HETATM   12  C   UNL     1      -7.282   0.897 -31.597  1.00  0.00     0.155 C 
BRANCH  12  13
HETATM   13  N   UNL     1      -6.779  -0.358 -32.115  1.00  0.00    -0.354 N 
HETATM   14  C   UNL     1      -6.683  -0.573 -33.482  1.00  0.00     0.253 C 
HETATM   15  O   UNL     1      -7.074   0.249 -34.301  1.00  0.00    -0.268 OA
HETATM   16  H   UNL     1      -6.349  -1.021 -31.483  1.00  0.00     0.162 HD
BRANCH  14  17
HETATM   17  C   UNL     1      -6.059  -1.872 -33.865  1.00  0.00     0.053 A 
HETATM   18  C   UNL     1      -4.732  -2.199 -33.500  1.00  0.00     0.025 A 
HETATM   19  C   UNL     1      -4.240  -3.452 -33.919  1.00  0.00     0.025 A 
HETATM   20  C   UNL     1      -5.021  -4.336 -34.670  1.00  0.00     0.002 A 
HETATM   21  C   UNL     1      -6.317  -3.990 -35.031  1.00  0.00     0.001 A 
HETATM   22  C   UNL     1      -6.836  -2.761 -34.633  1.00  0.00     0.019 A 
BRANCH  18  23
HETATM   23  N   UNL     1      -3.944  -1.336 -32.714  1.00  0.00    -0.291 NA
HETATM   24  C   UNL     1      -3.039  -2.052 -31.819  1.00  0.00     0.116 C 
HETATM   25  C   UNL     1      -3.347  -0.194 -33.407  1.00  0.00     0.116 C 
ENDBRANCH  18  23
ENDBRANCH  14  17
ENDBRANCH  12  13
ENDBRANCH   1  12
BRANCH   6  26
HETATM   26  C   UNL     1      -2.732   6.149 -33.323  1.00  0.00     0.235 C 
BRANCH  26  27
HETATM   27  C   UNL     1      -1.210   6.110 -33.245  1.00  0.00     0.032 C 
BRANCH  27  28
HETATM   28  C   UNL     1      -0.597   7.207 -32.374  1.00  0.00     0.040 C 
BRANCH  28  29
HETATM   29  C   UNL     1      -0.144   6.644 -31.052  1.00  0.00    -0.058 A 
HETATM   30  C   UNL     1      -0.108   7.456 -29.909  1.00  0.00     0.007 A 
HETATM   31  C   UNL     1       0.350   6.945 -28.693  1.00  0.00     0.001 A 
HETATM   32  C   UNL     1       0.780   5.622 -28.609  1.00  0.00     0.000 A 
HETATM   33  C   UNL     1       0.747   4.807 -29.739  1.00  0.00     0.001 A 
HETATM   34  C   UNL     1       0.287   5.315 -30.955  1.00  0.00     0.007 A 
ENDBRANCH  28  29
ENDBRANCH  27  28
ENDBRANCH  26  27
ENDBRANCH   6  26
TORSDOF 8
ENDMDL
MODEL 2
REMARK VINA RESULT:      -8.8      1.577      2.271
REMARK  8 active torsions:
REMARK  status: ('A' for Active; 'I' for Inactive)
REMARK    1  A    between atoms: N_2  and  C_3 
REMARK    2  A    between atoms: C_4  and  C_5 
REMARK       I    between atoms: C_5  and  N_6 
REMARK    3  A    between atoms: N_6  and  C_7 
REMARK    4  A    between atoms: C_7  and  C_8 
REMARK    5  A    between atoms: N_13  and  C_15 
REMARK    6  A    between atoms: C_15  and  C_16 
REMARK    7  A    between atoms: C_16  and  C_17 
REMARK    8  A    between atoms: C_17  and  C_18 
ROOT
HETATM    1  C   UNL     1      -6.653   3.797 -33.159  1.00  0.00     0.140 C 
HETATM    2  O   UNL     1      -5.210   3.744 -33.211  1.00  0.00    -0.373 OA
HETATM    3  C   UNL     1      -4.702   5.043 -32.837  1.00  0.00     0.064 C 
HETATM    4  C   UNL     1      -3.687   5.453 -33.909  1.00  0.00     0.066 C 
HETATM    5  C   UNL     1      -2.447   4.564 -33.894  1.00  0.00     0.237 C 
HETATM    6  N   UNL     1      -1.820   4.529 -32.512  1.00  0.00    -0.071 N 
HETATM    7  H   UNL     1      -1.096   3.801 -32.571  1.00  0.00     0.279 HD
HETATM    8  C   UNL     1      -2.826   4.012 -31.505  1.00  0.00     0.237 C 
HETATM    9  C   UNL     1      -4.043   4.920 -31.459  1.00  0.00     0.066 C 
HETATM   10  C   UNL     1      -5.910   5.989 -32.792  1.00  0.00     0.041 C 
HETATM   11  C   UNL     1      -6.982   5.230 -33.537  1.00  0.00     0.036 C 
ENDROOT
BRANCH   1  12
HETATM   12  C   UNL     1      -7.283   2.760 -34.091  1.00  0.00     0.155 C 
BRANCH  12  13
HETATM   13  N   UNL     1      -6.550   1.511 -34.111  1.00  0.00    -0.354 N 
HETATM   14  C   UNL     1      -7.142   0.335 -33.677  1.00  0.00     0.253 C 
HETATM   15  O   UNL     1      -8.269   0.309 -33.200  1.00  0.00    -0.268 OA
HETATM   16  H   UNL     1      -5.660   1.465 -34.591  1.00  0.00     0.162 HD
BRANCH  14  17
HETATM   17  C   UNL     1      -6.301  -0.884 -33.846  1.00  0.00     0.053 A 
HETATM   18  C   UNL     1      -5.030  -1.006 -33.236  1.00  0.00     0.025 A 
HETATM   19  C   UNL     1      -4.318  -2.200 -33.465  1.00  0.00     0.025 A 
HETATM   20  C   UNL     1      -4.834  -3.222 -34.268  1.00  0.00     0.002 A 
HETATM   21  C   UNL     1      -6.078  -3.079 -34.870  1.00  0.00     0.001 A 
HETATM   22  C   UNL     1      -6.810  -1.912 -34.664  1.00  0.00     0.019 A 
BRANCH  18  23
HETATM   23  N   UNL     1      -4.512  -0.001 -32.396  1.00  0.00    -0.291 NA
HETATM   24  C   UNL     1      -4.830  -0.220 -30.987  1.00  0.00     0.116 C 
HETATM   25  C   UNL     1      -3.133   0.412 -32.657  1.00  0.00     0.116 C 
ENDBRANCH  18  23
ENDBRANCH  14  17
ENDBRANCH  12  13
ENDBRANCH   1  12
BRANCH   6  26
HETATM   26  C   UNL     1      -1.103   5.818 -32.163  1.00  0.00     0.235 C 
BRANCH  26  27
HETATM   27  C   UNL     1      -0.384   5.788 -30.819  1.00  0.00     0.032 C 
BRANCH  27  28
HETATM   28  C   UNL     1       0.352   7.083 -30.471  1.00  0.00     0.040 C 
BRANCH  28  29
HETATM   29  C   UNL     1       0.506   7.221 -28.978  1.00  0.00    -0.058 A 
HETATM   30  C   UNL     1       1.315   8.230 -28.437  1.00  0.00     0.007 A 
HETATM   31  C   UNL     1       1.490   8.332 -27.056  1.00  0.00     0.001 A 
HETATM   32  C   UNL     1       0.863   7.425 -26.204  1.00  0.00     0.000 A 
HETATM   33  C   UNL     1       0.057   6.418 -26.731  1.00  0.00     0.001 A 
HETATM   34  C   UNL     1      -0.121   6.316 -28.112  1.00  0.00     0.007 A 
ENDBRANCH  28  29
ENDBRANCH  27  28
ENDBRANCH  26  27
ENDBRANCH   6  26
TORSDOF 8
ENDMDL
MODEL 3
REMARK VINA RESULT:      -8.8      2.375      9.861
REMARK  8 active torsions:
REMARK  status: ('A' for Active; 'I' for Inactive)
REMARK    1  A    between atoms: N_2  and  C_3 
REMARK    2  A    between atoms: C_4  and  C_5 
REMARK       I    between atoms: C_5  and  N_6 
REMARK    3  A    between atoms: N_6  and  C_7 
REMARK    4  A    between atoms: C_7  and  C_8 
REMARK    5  A    between atoms: N_13  and  C_15 
REMARK    6  A    between atoms: C_15  and  C_16 
REMARK    7  A    between atoms: C_16  and  C_17 
REMARK    8  A    between atoms: C_17  and  C_18 
ROOT
HETATM    1  C   UNL     1      -3.477   5.684 -31.638  1.00  0.00     0.140 C 
HETATM    2  O   UNL     1      -4.697   5.025 -32.045  1.00  0.00    -0.373 OA
HETATM    3  C   UNL     1      -4.355   4.026 -33.031  1.00  0.00     0.064 C 
HETATM    4  C   UNL     1      -5.298   4.231 -34.223  1.00  0.00     0.066 C 
HETATM    5  C   UNL     1      -6.746   3.907 -33.869  1.00  0.00     0.237 C 
HETATM    6  N   UNL     1      -6.866   2.508 -33.293  1.00  0.00    -0.071 N 
HETATM    7  H   UNL     1      -7.836   2.445 -32.956  1.00  0.00     0.279 HD
HETATM    8  C   UNL     1      -6.004   2.387 -32.055  1.00  0.00     0.237 C 
HETATM    9  C   UNL     1      -4.546   2.644 -32.397  1.00  0.00     0.066 C 
HETATM   10  C   UNL     1      -2.886   4.265 -33.408  1.00  0.00     0.041 C 
HETATM   11  C   UNL     1      -2.610   5.654 -32.884  1.00  0.00     0.036 C 
ENDROOT
BRANCH   1  12
HETATM   12  C   UNL     1      -3.754   7.097 -31.121  1.00  0.00     0.155 C 
BRANCH  12  13
HETATM   13  N   UNL     1      -2.612   7.677 -30.445  1.00  0.00    -0.354 N 
HETATM   14  C   UNL     1      -2.481   7.586 -29.068  1.00  0.00     0.253 C 
HETATM   15  O   UNL     1      -3.344   7.079 -28.363  1.00  0.00    -0.268 OA
HETATM   16  H   UNL     1      -1.827   8.011 -30.992  1.00  0.00     0.162 HD
BRANCH  14  17
HETATM   17  C   UNL     1      -1.210   8.143 -28.525  1.00  0.00     0.053 A 
HETATM   18  C   UNL     1       0.045   7.552 -28.806  1.00  0.00     0.025 A 
HETATM   19  C   UNL     1       1.183   8.159 -28.238  1.00  0.00     0.025 A 
HETATM   20  C   UNL     1       1.085   9.291 -27.423  1.00  0.00     0.002 A 
HETATM   21  C   UNL     1      -0.157   9.848 -27.147  1.00  0.00     0.001 A 
HETATM   22  C   UNL     1      -1.303   9.276 -27.693  1.00  0.00     0.019 A 
BRANCH  18  23
HETATM   23  N   UNL     1       0.164   6.434 -29.654  1.00  0.00    -0.291 NA
HETATM   24  C   UNL     1       0.668   6.779 -30.980  1.00  0.00     0.116 C 
HETATM   25  C   UNL     1       0.762   5.236 -29.063  1.00  0.00     0.116 C 
ENDBRANCH  18  23
ENDBRANCH  14  17
ENDBRANCH  12  13
ENDBRANCH   1  12
BRANCH   6  26
HETATM   26  C   UNL     1      -6.708   1.428 -34.346  1.00  0.00     0.235 C 
BRANCH  26  27
HETATM   27  C   UNL     1      -6.699   0.009 -33.787  1.00  0.00     0.032 C 
BRANCH  27  28
HETATM   28  C   UNL     1      -7.135  -1.062 -34.787  1.00  0.00     0.040 C 
BRANCH  28  29
HETATM   29  C   UNL     1      -6.272  -2.291 -34.659  1.00  0.00    -0.058 A 
HETATM   30  C   UNL     1      -6.784  -3.556 -34.981  1.00  0.00     0.007 A 
HETATM   31  C   UNL     1      -5.997  -4.698 -34.822  1.00  0.00     0.001 A 
HETATM   32  C   UNL     1      -4.696  -4.588 -34.337  1.00  0.00     0.000 A 
HETATM   33  C   UNL     1      -4.177  -3.336 -34.015  1.00  0.00     0.001 A 
HETATM   34  C   UNL     1      -4.961  -2.192 -34.174  1.00  0.00     0.007 A 
ENDBRANCH  28  29
ENDBRANCH  27  28
ENDBRANCH  26  27
ENDBRANCH   6  26
TORSDOF 8
ENDMDL
MODEL 4
REMARK VINA RESULT:      -8.7      1.972      8.777
REMARK  8 active torsions:
REMARK  status: ('A' for Active; 'I' for Inactive)
REMARK    1  A    between atoms: N_2  and  C_3 
REMARK    2  A    between atoms: C_4  and  C_5 
REMARK       I    between atoms: C_5  and  N_6 
REMARK    3  A    between atoms: N_6  and  C_7 
REMARK    4  A    between atoms: C_7  and  C_8 
REMARK    5  A    between atoms: N_13  and  C_15 
REMARK    6  A    between atoms: C_15  and  C_16 
REMARK    7  A    between atoms: C_16  and  C_17 
REMARK    8  A    between atoms: C_17  and  C_18 
ROOT
HETATM    1  C   UNL     1      -6.652   5.662 -30.489  1.00  0.00     0.140 C 
HETATM    2  O   UNL     1      -5.944   4.522 -31.028  1.00  0.00    -0.373 OA
HETATM    3  C   UNL     1      -6.702   3.335 -30.707  1.00  0.00     0.064 C 
HETATM    4  C   UNL     1      -5.722   2.333 -30.085  1.00  0.00     0.066 C 
HETATM    5  C   UNL     1      -4.690   1.840 -31.094  1.00  0.00     0.237 C 
HETATM    6  N   UNL     1      -5.365   1.271 -32.329  1.00  0.00    -0.071 N 
HETATM    7  H   UNL     1      -4.598   1.108 -32.995  1.00  0.00     0.279 HD
HETATM    8  C   UNL     1      -6.234   2.331 -32.972  1.00  0.00     0.237 C 
HETATM    9  C   UNL     1      -7.311   2.792 -32.004  1.00  0.00     0.066 C 
HETATM   10  C   UNL     1      -7.794   3.766 -29.718  1.00  0.00     0.041 C 
HETATM   11  C   UNL     1      -7.325   5.120 -29.241  1.00  0.00     0.036 C 
ENDROOT
BRANCH   1  12
HETATM   12  C   UNL     1      -5.701   6.827 -30.212  1.00  0.00     0.155 C 
BRANCH  12  13
HETATM   13  N   UNL     1      -4.314   6.483 -30.447  1.00  0.00    -0.354 N 
HETATM   14  C   UNL     1      -3.411   7.438 -30.890  1.00  0.00     0.253 C 
HETATM   15  O   UNL     1      -3.753   8.581 -31.164  1.00  0.00    -0.268 OA
HETATM   16  H   UNL     1      -3.965   5.585 -30.135  1.00  0.00     0.162 HD
BRANCH  14  17
HETATM   17  C   UNL     1      -2.002   6.962 -30.994  1.00  0.00     0.053 A 
HETATM   18  C   UNL     1      -1.595   6.045 -31.992  1.00  0.00     0.025 A 
HETATM   19  C   UNL     1      -0.240   5.659 -31.996  1.00  0.00     0.025 A 
HETATM   20  C   UNL     1       0.668   6.150 -31.053  1.00  0.00     0.002 A 
HETATM   21  C   UNL     1       0.247   7.038 -30.072  1.00  0.00     0.001 A 
HETATM   22  C   UNL     1      -1.085   7.442 -30.038  1.00  0.00     0.019 A 
BRANCH  18  23
HETATM   23  N   UNL     1      -2.489   5.570 -32.971  1.00  0.00    -0.291 NA
HETATM   24  C   UNL     1      -2.341   6.253 -34.254  1.00  0.00     0.116 C 
HETATM   25  C   UNL     1      -2.636   4.117 -33.062  1.00  0.00     0.116 C 
ENDBRANCH  18  23
ENDBRANCH  14  17
ENDBRANCH  12  13
ENDBRANCH   1  12
BRANCH   6  26
HETATM   26  C   UNL     1      -6.006  -0.079 -32.075  1.00  0.00     0.235 C 
BRANCH  26  27
HETATM   27  C   UNL     1      -6.947  -0.541 -33.182  1.00  0.00     0.032 C 
BRANCH  27  28
HETATM   28  C   UNL     1      -6.250  -0.872 -34.502  1.00  0.00     0.040 C 
BRANCH  28  29
HETATM   29  C   UNL     1      -5.804  -2.311 -34.521  1.00  0.00    -0.058 A 
HETATM   30  C   UNL     1      -6.705  -3.330 -34.861  1.00  0.00     0.007 A 
HETATM   31  C   UNL     1      -6.302  -4.667 -34.838  1.00  0.00     0.001 A 
HETATM   32  C   UNL     1      -4.999  -4.997 -34.472  1.00  0.00     0.000 A 
HETATM   33  C   UNL     1      -4.096  -3.992 -34.132  1.00  0.00     0.001 A 
HETATM   34  C   UNL     1      -4.496  -2.655 -34.157  1.00  0.00     0.007 A 
ENDBRANCH  28  29
ENDBRANCH  27  28
ENDBRANCH  26  27
ENDBRANCH   6  26
TORSDOF 8
ENDMDL
MODEL 5
REMARK VINA RESULT:      -8.6      2.864     10.123
REMARK  8 active torsions:
REMARK  status: ('A' for Active; 'I' for Inactive)
REMARK    1  A    between atoms: N_2  and  C_3 
REMARK    2  A    between atoms: C_4  and  C_5 
REMARK       I    between atoms: C_5  and  N_6 
REMARK    3  A    between atoms: N_6  and  C_7 
REMARK    4  A    between atoms: C_7  and  C_8 
REMARK    5  A    between atoms: N_13  and  C_15 
REMARK    6  A    between atoms: C_15  and  C_16 
REMARK    7  A    between atoms: C_16  and  C_17 
REMARK    8  A    between atoms: C_17  and  C_18 
ROOT
HETATM    1  C   UNL     1      -3.013   5.084 -31.215  1.00  0.00     0.140 C 
HETATM    2  O   UNL     1      -4.302   4.556 -31.603  1.00  0.00    -0.373 OA
HETATM    3  C   UNL     1      -4.095   3.632 -32.694  1.00  0.00     0.064 C 
HETATM    4  C   UNL     1      -5.083   4.018 -33.801  1.00  0.00     0.066 C 
HETATM    5  C   UNL     1      -6.531   3.769 -33.388  1.00  0.00     0.237 C 
HETATM    6  N   UNL     1      -6.728   2.333 -32.934  1.00  0.00    -0.071 N 
HETATM    7  H   UNL     1      -7.679   2.310 -32.544  1.00  0.00     0.279 HD
HETATM    8  C   UNL     1      -5.810   2.034 -31.768  1.00  0.00     0.237 C 
HETATM    9  C   UNL     1      -4.358   2.214 -32.176  1.00  0.00     0.066 C 
HETATM   10  C   UNL     1      -2.635   3.799 -33.139  1.00  0.00     0.041 C 
HETATM   11  C   UNL     1      -2.222   5.108 -32.511  1.00  0.00     0.036 C 
ENDROOT
BRANCH   1  12
HETATM   12  C   UNL     1      -3.149   6.458 -30.557  1.00  0.00     0.155 C 
BRANCH  12  13
HETATM   13  N   UNL     1      -2.126   6.703 -29.562  1.00  0.00    -0.354 N 
HETATM   14  C   UNL     1      -1.566   7.963 -29.416  1.00  0.00     0.253 C 
HETATM   15  O   UNL     1      -1.856   8.896 -30.154  1.00  0.00    -0.268 OA
HETATM   16  H   UNL     1      -1.931   5.995 -28.864  1.00  0.00     0.162 HD
BRANCH  14  17
HETATM   17  C   UNL     1      -0.597   8.087 -28.290  1.00  0.00     0.053 A 
HETATM   18  C   UNL     1      -1.017   8.067 -26.938  1.00  0.00     0.025 A 
HETATM   19  C   UNL     1      -0.017   8.196 -25.953  1.00  0.00     0.025 A 
HETATM   20  C   UNL     1       1.332   8.346 -26.288  1.00  0.00     0.002 A 
HETATM   21  C   UNL     1       1.723   8.377 -27.621  1.00  0.00     0.001 A 
HETATM   22  C   UNL     1       0.762   8.251 -28.621  1.00  0.00     0.019 A 
BRANCH  18  23
HETATM   23  N   UNL     1      -2.367   7.881 -26.584  1.00  0.00    -0.291 NA
HETATM   24  C   UNL     1      -2.597   6.631 -25.865  1.00  0.00     0.116 C 
HETATM   25  C   UNL     1      -3.055   9.046 -26.026  1.00  0.00     0.116 C 
ENDBRANCH  18  23
ENDBRANCH  14  17
ENDBRANCH  12  13
ENDBRANCH   1  12
BRANCH   6  26
HETATM   26  C   UNL     1      -6.714   1.349 -34.087  1.00  0.00     0.235 C 
BRANCH  26  27
HETATM   27  C   UNL     1      -6.914  -0.103 -33.670  1.00  0.00     0.032 C 
BRANCH  27  28
HETATM   28  C   UNL     1      -7.111  -1.071 -34.838  1.00  0.00     0.040 C 
BRANCH  28  29
HETATM   29  C   UNL     1      -6.281  -2.313 -34.643  1.00  0.00    -0.058 A 
HETATM   30  C   UNL     1      -4.966  -2.223 -34.164  1.00  0.00     0.007 A 
HETATM   31  C   UNL     1      -4.184  -3.370 -34.023  1.00  0.00     0.001 A 
HETATM   32  C   UNL     1      -4.706  -4.617 -34.362  1.00  0.00     0.000 A 
HETATM   33  C   UNL     1      -6.012  -4.719 -34.838  1.00  0.00     0.001 A 
HETATM   34  C   UNL     1      -6.796  -3.573 -34.978  1.00  0.00     0.007 A 
ENDBRANCH  28  29
ENDBRANCH  27  28
ENDBRANCH  26  27
ENDBRANCH   6  26
TORSDOF 8
ENDMDL
MODEL 6
REMARK VINA RESULT:      -8.4      2.968      9.592
REMARK  8 active torsions:
REMARK  status: ('A' for Active; 'I' for Inactive)
REMARK    1  A    between atoms: N_2  and  C_3 
REMARK    2  A    between atoms: C_4  and  C_5 
REMARK       I    between atoms: C_5  and  N_6 
REMARK    3  A    between atoms: N_6  and  C_7 
REMARK    4  A    between atoms: C_7  and  C_8 
REMARK    5  A    between atoms: N_13  and  C_15 
REMARK    6  A    between atoms: C_15  and  C_16 
REMARK    7  A    between atoms: C_16  and  C_17 
REMARK    8  A    between atoms: C_17  and  C_18 
ROOT
HETATM    1  C   UNL     1      -1.159   4.837 -32.138  1.00  0.00     0.140 C 
HETATM    2  O   UNL     1      -2.188   4.106 -31.434  1.00  0.00    -0.373 OA
HETATM    3  C   UNL     1      -3.211   3.747 -32.388  1.00  0.00     0.064 C 
HETATM    4  C   UNL     1      -4.555   4.170 -31.785  1.00  0.00     0.066 C 
HETATM    5  C   UNL     1      -4.912   3.349 -30.549  1.00  0.00     0.237 C 
HETATM    6  N   UNL     1      -4.876   1.862 -30.855  1.00  0.00    -0.071 N 
HETATM    7  H   UNL     1      -4.982   1.404 -29.940  1.00  0.00     0.279 HD
HETATM    8  C   UNL     1      -3.497   1.472 -31.342  1.00  0.00     0.237 C 
HETATM    9  C   UNL     1      -3.147   2.232 -32.609  1.00  0.00     0.066 C 
HETATM   10  C   UNL     1      -2.892   4.510 -33.682  1.00  0.00     0.041 C 
HETATM   11  C   UNL     1      -1.912   5.568 -33.234  1.00  0.00     0.036 C 
ENDROOT
BRANCH   1  12
HETATM   12  C   UNL     1      -0.395   5.769 -31.196  1.00  0.00     0.155 C 
BRANCH  12  13
HETATM   13  N   UNL     1      -1.122   6.045 -29.974  1.00  0.00    -0.354 N 
HETATM   14  C   UNL     1      -1.818   7.234 -29.817  1.00  0.00     0.253 C 
HETATM   15  O   UNL     1      -1.796   8.120 -30.662  1.00  0.00    -0.268 OA
HETATM   16  H   UNL     1      -1.255   5.305 -29.297  1.00  0.00     0.162 HD
BRANCH  14  17
HETATM   17  C   UNL     1      -2.596   7.337 -28.550  1.00  0.00     0.053 A 
HETATM   18  C   UNL     1      -1.969   7.594 -27.307  1.00  0.00     0.025 A 
HETATM   19  C   UNL     1      -2.799   7.667 -26.171  1.00  0.00     0.025 A 
HETATM   20  C   UNL     1      -4.183   7.486 -26.257  1.00  0.00     0.002 A 
HETATM   21  C   UNL     1      -4.779   7.221 -27.484  1.00  0.00     0.001 A 
HETATM   22  C   UNL     1      -3.989   7.143 -28.628  1.00  0.00     0.019 A 
BRANCH  18  23
HETATM   23  N   UNL     1      -0.581   7.813 -27.209  1.00  0.00    -0.291 NA
HETATM   24  C   UNL     1      -0.245   9.214 -26.965  1.00  0.00     0.116 C 
HETATM   25  C   UNL     1       0.170   6.852 -26.401  1.00  0.00     0.116 C 
ENDBRANCH  18  23
ENDBRANCH  14  17
ENDBRANCH  12  13
ENDBRANCH   1  12
BRANCH   6  26
HETATM   26  C   UNL     1      -6.054   1.411 -31.697  1.00  0.00     0.235 C 
BRANCH  26  27
HETATM   27  C   UNL     1      -5.970  -0.038 -32.161  1.00  0.00     0.032 C 
BRANCH  27  28
HETATM   28  C   UNL     1      -5.820  -0.206 -33.673  1.00  0.00     0.040 C 
BRANCH  28  29
HETATM   29  C   UNL     1      -5.750  -1.666 -34.041  1.00  0.00    -0.058 A 
HETATM   30  C   UNL     1      -4.520  -2.339 -34.049  1.00  0.00     0.007 A 
HETATM   31  C   UNL     1      -4.450  -3.681 -34.429  1.00  0.00     0.001 A 
HETATM   32  C   UNL     1      -5.606  -4.360 -34.808  1.00  0.00     0.000 A 
HETATM   33  C   UNL     1      -6.834  -3.701 -34.804  1.00  0.00     0.001 A 
HETATM   34  C   UNL     1      -6.906  -2.360 -34.422  1.00  0.00     0.007 A 
ENDBRANCH  28  29
ENDBRANCH  27  28
ENDBRANCH  26  27
ENDBRANCH   6  26
TORSDOF 8
ENDMDL
MODEL 7
REMARK VINA RESULT:      -8.4      2.298      9.134
REMARK  8 active torsions:
REMARK  status: ('A' for Active; 'I' for Inactive)
REMARK    1  A    between atoms: N_2  and  C_3 
REMARK    2  A    between atoms: C_4  and  C_5 
REMARK       I    between atoms: C_5  and  N_6 
REMARK    3  A    between atoms: N_6  and  C_7 
REMARK    4  A    between atoms: C_7  and  C_8 
REMARK    5  A    between atoms: N_13  and  C_15 
REMARK    6  A    between atoms: C_15  and  C_16 
REMARK    7  A    between atoms: C_16  and  C_17 
REMARK    8  A    between atoms: C_17  and  C_18 
ROOT
HETATM    1  C   UNL     1      -6.364   5.101 -29.911  1.00  0.00     0.140 C 
HETATM    2  O   UNL     1      -5.759   3.852 -30.316  1.00  0.00    -0.373 OA
HETATM    3  C   UNL     1      -6.820   2.912 -30.593  1.00  0.00     0.064 C 
HETATM    4  C   UNL     1      -6.488   1.624 -29.829  1.00  0.00     0.066 C 
HETATM    5  C   UNL     1      -5.244   0.936 -30.382  1.00  0.00     0.237 C 
HETATM    6  N   UNL     1      -5.377   0.686 -31.873  1.00  0.00    -0.071 N 
HETATM    7  H   UNL     1      -4.447   0.362 -32.169  1.00  0.00     0.279 HD
HETATM    8  C   UNL     1      -5.592   1.998 -32.596  1.00  0.00     0.237 C 
HETATM    9  C   UNL     1      -6.862   2.672 -32.106  1.00  0.00     0.066 C 
HETATM   10  C   UNL     1      -8.120   3.560 -30.097  1.00  0.00     0.041 C 
HETATM   11  C   UNL     1      -7.639   4.679 -29.204  1.00  0.00     0.036 C 
ENDROOT
BRANCH   1  12
HETATM   12  C   UNL     1      -5.418   5.918 -29.029  1.00  0.00     0.155 C 
BRANCH  12  13
HETATM   13  N   UNL     1      -4.064   5.947 -29.541  1.00  0.00    -0.354 N 
HETATM   14  C   UNL     1      -3.506   7.129 -30.002  1.00  0.00     0.253 C 
HETATM   15  O   UNL     1      -4.143   8.173 -30.060  1.00  0.00    -0.268 OA
HETATM   16  H   UNL     1      -3.467   5.138 -29.416  1.00  0.00     0.162 HD
BRANCH  14  17
HETATM   17  C   UNL     1      -2.075   7.026 -30.408  1.00  0.00     0.053 A 
HETATM   18  C   UNL     1      -1.024   7.087 -29.462  1.00  0.00     0.025 A 
HETATM   19  C   UNL     1       0.292   6.982 -29.955  1.00  0.00     0.025 A 
HETATM   20  C   UNL     1       0.557   6.832 -31.320  1.00  0.00     0.002 A 
HETATM   21  C   UNL     1      -0.487   6.788 -32.235  1.00  0.00     0.001 A 
HETATM   22  C   UNL     1      -1.801   6.887 -31.783  1.00  0.00     0.019 A 
BRANCH  18  23
HETATM   23  N   UNL     1      -1.275   7.202 -28.081  1.00  0.00    -0.291 NA
HETATM   24  C   UNL     1      -0.426   6.327 -27.276  1.00  0.00     0.116 C 
HETATM   25  C   UNL     1      -1.424   8.562 -27.561  1.00  0.00     0.116 C 
ENDBRANCH  18  23
ENDBRANCH  14  17
ENDBRANCH  12  13
ENDBRANCH   1  12
BRANCH   6  26
HETATM   26  C   UNL     1      -6.343  -0.439 -32.192  1.00  0.00     0.235 C 
BRANCH  26  27
HETATM   27  C   UNL     1      -6.968  -0.349 -33.580  1.00  0.00     0.032 C 
BRANCH  27  28
HETATM   28  C   UNL     1      -6.044  -0.793 -34.715  1.00  0.00     0.040 C 
BRANCH  28  29
HETATM   29  C   UNL     1      -5.722  -2.260 -34.595  1.00  0.00    -0.058 A 
HETATM   30  C   UNL     1      -4.440  -2.677 -34.210  1.00  0.00     0.007 A 
HETATM   31  C   UNL     1      -4.130  -4.036 -34.138  1.00  0.00     0.001 A 
HETATM   32  C   UNL     1      -5.096  -4.990 -34.454  1.00  0.00     0.000 A 
HETATM   33  C   UNL     1      -6.373  -4.586 -34.837  1.00  0.00     0.001 A 
HETATM   34  C   UNL     1      -6.685  -3.227 -34.907  1.00  0.00     0.007 A 
ENDBRANCH  28  29
ENDBRANCH  27  28
ENDBRANCH  26  27
ENDBRANCH   6  26
TORSDOF 8
ENDMDL
MODEL 8
REMARK VINA RESULT:      -8.1      3.149      9.903
REMARK  8 active torsions:
REMARK  status: ('A' for Active; 'I' for Inactive)
REMARK    1  A    between atoms: N_2  and  C_3 
REMARK    2  A    between atoms: C_4  and  C_5 
REMARK       I    between atoms: C_5  and  N_6 
REMARK    3  A    between atoms: N_6  and  C_7 
REMARK    4  A    between atoms: C_7  and  C_8 
REMARK    5  A    between atoms: N_13  and  C_15 
REMARK    6  A    between atoms: C_15  and  C_16 
REMARK    7  A    between atoms: C_16  and  C_17 
REMARK    8  A    between atoms: C_17  and  C_18 
ROOT
HETATM    1  C   UNL     1      -0.535   5.159 -31.280  1.00  0.00     0.140 C 
HETATM    2  O   UNL     1      -1.751   4.399 -31.100  1.00  0.00    -0.373 OA
HETATM    3  C   UNL     1      -2.632   4.701 -32.204  1.00  0.00     0.064 C 
HETATM    4  C   UNL     1      -3.998   5.055 -31.603  1.00  0.00     0.066 C 
HETATM    5  C   UNL     1      -4.658   3.854 -30.934  1.00  0.00     0.237 C 
HETATM    6  N   UNL     1      -4.754   2.681 -31.893  1.00  0.00    -0.071 N 
HETATM    7  H   UNL     1      -5.069   1.892 -31.312  1.00  0.00     0.279 HD
HETATM    8  C   UNL     1      -3.370   2.296 -32.373  1.00  0.00     0.237 C 
HETATM    9  C   UNL     1      -2.719   3.460 -33.099  1.00  0.00     0.066 C 
HETATM   10  C   UNL     1      -2.006   5.885 -32.954  1.00  0.00     0.041 C 
HETATM   11  C   UNL     1      -0.995   6.429 -31.974  1.00  0.00     0.036 C 
ENDROOT
BRANCH   1  12
HETATM   12  C   UNL     1       0.166   5.413 -29.944  1.00  0.00     0.155 C 
BRANCH  12  13
HETATM   13  N   UNL     1      -0.679   6.110 -28.996  1.00  0.00    -0.354 N 
HETATM   14  C   UNL     1      -0.250   7.282 -28.392  1.00  0.00     0.253 C 
HETATM   15  O   UNL     1       0.871   7.740 -28.577  1.00  0.00    -0.268 OA
HETATM   16  H   UNL     1      -1.646   5.830 -28.891  1.00  0.00     0.162 HD
BRANCH  14  17
HETATM   17  C   UNL     1      -1.261   7.937 -27.514  1.00  0.00     0.053 A 
HETATM   18  C   UNL     1      -2.318   8.715 -28.044  1.00  0.00     0.025 A 
HETATM   19  C   UNL     1      -3.216   9.292 -27.124  1.00  0.00     0.025 A 
HETATM   20  C   UNL     1      -3.071   9.114 -25.744  1.00  0.00     0.002 A 
HETATM   21  C   UNL     1      -2.020   8.358 -25.242  1.00  0.00     0.001 A 
HETATM   22  C   UNL     1      -1.114   7.772 -26.123  1.00  0.00     0.019 A 
BRANCH  18  23
HETATM   23  N   UNL     1      -2.498   8.874 -29.432  1.00  0.00    -0.291 NA
HETATM   24  C   UNL     1      -3.671   8.166 -29.936  1.00  0.00     0.116 C 
HETATM   25  C   UNL     1      -2.327  10.230 -29.955  1.00  0.00     0.116 C 
ENDBRANCH  18  23
ENDBRANCH  14  17
ENDBRANCH  12  13
ENDBRANCH   1  12
BRANCH   6  26
HETATM   26  C   UNL     1      -5.816   2.881 -32.956  1.00  0.00     0.235 C 
BRANCH  26  27
HETATM   27  C   UNL     1      -6.323   1.587 -33.583  1.00  0.00     0.032 C 
BRANCH  27  28
HETATM   28  C   UNL     1      -6.365   0.398 -32.623  1.00  0.00     0.040 C 
BRANCH  28  29
HETATM   29  C   UNL     1      -6.051  -0.883 -33.351  1.00  0.00    -0.058 A 
HETATM   30  C   UNL     1      -4.724  -1.310 -33.500  1.00  0.00     0.007 A 
HETATM   31  C   UNL     1      -4.431  -2.476 -34.210  1.00  0.00     0.001 A 
HETATM   32  C   UNL     1      -5.460  -3.223 -34.781  1.00  0.00     0.000 A 
HETATM   33  C   UNL     1      -6.783  -2.808 -34.639  1.00  0.00     0.001 A 
HETATM   34  C   UNL     1      -7.077  -1.644 -33.927  1.00  0.00     0.007 A 
ENDBRANCH  28  29
ENDBRANCH  27  28
ENDBRANCH  26  27
ENDBRANCH   6  26
TORSDOF 8
ENDMDL
MODEL 9
REMARK VINA RESULT:      -8.0      2.526      8.976
REMARK  8 active torsions:
REMARK  status: ('A' for Active; 'I' for Inactive)
REMARK    1  A    between atoms: N_2  and  C_3 
REMARK    2  A    between atoms: C_4  and  C_5 
REMARK       I    between atoms: C_5  and  N_6 
REMARK    3  A    between atoms: N_6  and  C_7 
REMARK    4  A    between atoms: C_7  and  C_8 
REMARK    5  A    between atoms: N_13  and  C_15 
REMARK    6  A    between atoms: C_15  and  C_16 
REMARK    7  A    between atoms: C_16  and  C_17 
REMARK    8  A    between atoms: C_17  and  C_18 
ROOT
HETATM    1  C   UNL     1      -6.188   4.665 -30.042  1.00  0.00     0.140 C 
HETATM    2  O   UNL     1      -5.408   3.510 -30.425  1.00  0.00    -0.373 OA
HETATM    3  C   UNL     1      -6.324   2.441 -30.747  1.00  0.00     0.064 C 
HETATM    4  C   UNL     1      -5.858   1.202 -29.974  1.00  0.00     0.066 C 
HETATM    5  C   UNL     1      -4.513   0.687 -30.477  1.00  0.00     0.237 C 
HETATM    6  N   UNL     1      -4.552   0.433 -31.974  1.00  0.00    -0.071 N 
HETATM    7  H   UNL     1      -3.576   0.236 -32.232  1.00  0.00     0.279 HD
HETATM    8  C   UNL     1      -4.908   1.712 -32.701  1.00  0.00     0.237 C 
HETATM    9  C   UNL     1      -6.274   2.209 -32.261  1.00  0.00     0.066 C 
HETATM   10  C   UNL     1      -7.718   2.909 -30.303  1.00  0.00     0.041 C 
HETATM   11  C   UNL     1      -7.424   4.074 -29.389  1.00  0.00     0.036 C 
ENDROOT
BRANCH   1  12
HETATM   12  C   UNL     1      -5.394   5.592 -29.120  1.00  0.00     0.155 C 
BRANCH  12  13
HETATM   13  N   UNL     1      -4.008   5.722 -29.519  1.00  0.00    -0.354 N 
HETATM   14  C   UNL     1      -3.526   6.917 -30.030  1.00  0.00     0.253 C 
HETATM   15  O   UNL     1      -4.253   7.883 -30.228  1.00  0.00    -0.268 OA
HETATM   16  H   UNL     1      -3.350   4.991 -29.278  1.00  0.00     0.162 HD
BRANCH  14  17
HETATM   17  C   UNL     1      -2.061   6.931 -30.306  1.00  0.00     0.053 A 
HETATM   18  C   UNL     1      -1.107   7.087 -29.272  1.00  0.00     0.025 A 
HETATM   19  C   UNL     1       0.251   7.090 -29.646  1.00  0.00     0.025 A 
HETATM   20  C   UNL     1       0.649   6.953 -30.979  1.00  0.00     0.002 A 
HETATM   21  C   UNL     1      -0.303   6.816 -31.982  1.00  0.00     0.001 A 
HETATM   22  C   UNL     1      -1.655   6.807 -31.649  1.00  0.00     0.019 A 
BRANCH  18  23
HETATM   23  N   UNL     1      -1.490   7.190 -27.920  1.00  0.00    -0.291 NA
HETATM   24  C   UNL     1      -0.641   6.403 -27.030  1.00  0.00     0.116 C 
HETATM   25  C   UNL     1      -1.805   8.535 -27.438  1.00  0.00     0.116 C 
ENDBRANCH  18  23
ENDBRANCH  14  17
ENDBRANCH  12  13
ENDBRANCH   1  12
BRANCH   6  26
HETATM   26  C   UNL     1      -5.348  -0.805 -32.335  1.00  0.00     0.235 C 
BRANCH  26  27
HETATM   27  C   UNL     1      -5.465  -1.056 -33.834  1.00  0.00     0.032 C 
BRANCH  27  28
HETATM   28  C   UNL     1      -6.846  -1.532 -34.286  1.00  0.00     0.040 C 
BRANCH  28  29
HETATM   29  C   UNL     1      -7.893  -0.491 -33.981  1.00  0.00    -0.058 A 
HETATM   30  C   UNL     1      -8.692  -0.602 -32.835  1.00  0.00     0.007 A 
HETATM   31  C   UNL     1      -9.689   0.341 -32.574  1.00  0.00     0.001 A 
HETATM   32  C   UNL     1      -9.898   1.398 -33.457  1.00  0.00     0.000 A 
HETATM   33  C   UNL     1      -9.108   1.518 -34.599  1.00  0.00     0.001 A 
HETATM   34  C   UNL     1      -8.110   0.578 -34.860  1.00  0.00     0.007 A 
ENDBRANCH  28  29
ENDBRANCH  27  28
ENDBRANCH  26  27
ENDBRANCH   6  26
TORSDOF 8
ENDMDL
MODEL 10
REMARK VINA RESULT:      -8.0      2.756      9.710
REMARK  8 active torsions:
REMARK  status: ('A' for Active; 'I' for Inactive)
REMARK    1  A    between atoms: N_2  and  C_3 
REMARK    2  A    between atoms: C_4  and  C_5 
REMARK       I    between atoms: C_5  and  N_6 
REMARK    3  A    between atoms: N_6  and  C_7 
REMARK    4  A    between atoms: C_7  and  C_8 
REMARK    5  A    between atoms: N_13  and  C_15 
REMARK    6  A    between atoms: C_15  and  C_16 
REMARK    7  A    between atoms: C_16  and  C_17 
REMARK    8  A    between atoms: C_17  and  C_18 
ROOT
HETATM    1  C   UNL     1      -3.259   4.754 -31.704  1.00  0.00     0.140 C 
HETATM    2  O   UNL     1      -4.696   4.607 -31.749  1.00  0.00    -0.373 OA
HETATM    3  C   UNL     1      -4.997   3.198 -31.845  1.00  0.00     0.064 C 
HETATM    4  C   UNL     1      -5.988   3.029 -33.003  1.00  0.00     0.066 C 
HETATM    5  C   UNL     1      -7.339   3.666 -32.697  1.00  0.00     0.237 C 
HETATM    6  N   UNL     1      -7.907   3.139 -31.391  1.00  0.00    -0.071 N 
HETATM    7  H   UNL     1      -8.729   3.728 -31.206  1.00  0.00     0.279 HD
HETATM    8  C   UNL     1      -6.944   3.428 -30.260  1.00  0.00     0.237 C 
HETATM    9  C   UNL     1      -5.609   2.749 -30.513  1.00  0.00     0.066 C 
HETATM   10  C   UNL     1      -3.666   2.482 -32.113  1.00  0.00     0.041 C 
HETATM   11  C   UNL     1      -2.746   3.599 -32.545  1.00  0.00     0.036 C 
ENDROOT
BRANCH   1  12
HETATM   12  C   UNL     1      -2.823   6.126 -32.222  1.00  0.00     0.155 C 
BRANCH  12  13
HETATM   13  N   UNL     1      -2.627   7.087 -31.156  1.00  0.00    -0.354 N 
HETATM   14  C   UNL     1      -2.104   8.343 -31.421  1.00  0.00     0.253 C 
HETATM   15  O   UNL     1      -1.726   8.670 -32.538  1.00  0.00    -0.268 OA
HETATM   16  H   UNL     1      -3.020   6.902 -30.241  1.00  0.00     0.162 HD
BRANCH  14  17
HETATM   17  C   UNL     1      -2.051   9.257 -30.244  1.00  0.00     0.053 A 
HETATM   18  C   UNL     1      -1.444   8.870 -29.025  1.00  0.00     0.025 A 
HETATM   19  C   UNL     1      -1.453   9.810 -27.975  1.00  0.00     0.025 A 
HETATM   20  C   UNL     1      -2.042  11.069 -28.120  1.00  0.00     0.002 A 
HETATM   21  C   UNL     1      -2.647  11.426 -29.319  1.00  0.00     0.001 A 
HETATM   22  C   UNL     1      -2.655  10.522 -30.379  1.00  0.00     0.019 A 
BRANCH  18  23
HETATM   23  N   UNL     1      -0.814   7.619 -28.875  1.00  0.00    -0.291 NA
HETATM   24  C   UNL     1       0.640   7.699 -28.984  1.00  0.00     0.116 C 
HETATM   25  C   UNL     1      -1.302   6.776 -27.783  1.00  0.00     0.116 C 
ENDBRANCH  18  23
ENDBRANCH  14  17
ENDBRANCH  12  13
ENDBRANCH   1  12
BRANCH   6  26
HETATM   26  C   UNL     1      -8.418   1.716 -31.510  1.00  0.00     0.235 C 
BRANCH  26  27
HETATM   27  C   UNL     1      -8.622   1.244 -32.945  1.00  0.00     0.032 C 
BRANCH  27  28
HETATM   28  C   UNL     1      -8.656  -0.276 -33.107  1.00  0.00     0.040 C 
BRANCH  28  29
HETATM   29  C   UNL     1      -7.277  -0.809 -33.400  1.00  0.00    -0.058 A 
HETATM   30  C   UNL     1      -7.049  -1.610 -34.528  1.00  0.00     0.007 A 
HETATM   31  C   UNL     1      -5.781  -2.137 -34.777  1.00  0.00     0.001 A 
HETATM   32  C   UNL     1      -4.731  -1.873 -33.900  1.00  0.00     0.000 A 
HETATM   33  C   UNL     1      -4.946  -1.078 -32.776  1.00  0.00     0.001 A 
HETATM   34  C   UNL     1      -6.213  -0.548 -32.527  1.00  0.00     0.007 A 
ENDBRANCH  28  29
ENDBRANCH  27  28
ENDBRANCH  26  27
ENDBRANCH   6  26
TORSDOF 8
ENDMDL
