MODEL 1
REMARK VINA RESULT:      -7.8      0.000      0.000
REMARK  4 active torsions:
REMARK  status: ('A' for Active; 'I' for Inactive)
REMARK    1  A    between atoms: O_2  and  C_3 
REMARK    2  A    between atoms: C_4  and  O_5 
REMARK    3  A    between atoms: C_6  and  C_7 
REMARK    4  A    between atoms: C_7  and  N_8 
ROOT
HETATM    1  N   UNL     1      -7.814   0.723 -33.378  1.00  0.00    -0.066 N 
HETATM    2  H   UNL     1      -8.184  -0.236 -33.513  1.00  0.00     0.280 HD
HETATM    3  C   UNL     1      -7.667   0.851 -31.877  1.00  0.00     0.246 C 
HETATM    4  C   UNL     1      -7.654   2.310 -31.383  1.00  0.00     0.062 C 
HETATM    5  C   UNL     1      -8.900   3.029 -31.886  1.00  0.00     0.020 C 
HETATM    6  C   UNL     1      -8.827   3.062 -33.406  1.00  0.00     0.031 C 
HETATM    7  C   UNL     1      -7.614   3.893 -33.832  1.00  0.00     0.138 C 
HETATM    8  N   UNL     1      -6.396   3.718 -33.038  1.00  0.00    -0.317 N 
HETATM    9  C   UNL     1      -6.397   3.033 -31.821  1.00  0.00     0.020 A 
HETATM   10  C   UNL     1      -5.283   3.005 -31.067  1.00  0.00     0.026 A 
HETATM   11  C   UNL     1      -5.257   4.381 -33.521  1.00  0.00     0.247 A 
HETATM   12  O   UNL     1      -5.213   4.961 -34.600  1.00  0.00    -0.268 OA
HETATM   13  C   UNL     1      -4.046   4.321 -32.667  1.00  0.00     0.074 A 
HETATM   14  C   UNL     1      -4.080   3.665 -31.503  1.00  0.00     0.007 A 
HETATM   15  C   UNL     1      -8.838   1.641 -33.986  1.00  0.00     0.241 C 
ENDROOT
BRANCH   1  16
HETATM   16  C   UNL     1      -6.526   0.609 -34.175  1.00  0.00     0.276 C 
BRANCH  16  17
HETATM   17  C   UNL     1      -5.855  -0.734 -34.077  1.00  0.00     0.005 A 
HETATM   18  C   UNL     1      -4.731  -0.929 -33.269  1.00  0.00     0.107 A 
HETATM   19  C   UNL     1      -4.111  -2.179 -33.139  1.00  0.00     0.103 A 
HETATM   20  C   UNL     1      -4.629  -3.265 -33.840  1.00  0.00     0.058 A 
HETATM   21  C   UNL     1      -5.753  -3.088 -34.650  1.00  0.00     0.014 A 
HETATM   22  C   UNL     1      -6.370  -1.838 -34.768  1.00  0.00     0.030 A 
HETATM   23 BR   UNL     1      -6.456  -4.558 -35.608  1.00  0.00    -0.051 Br
BRANCH  18  24
HETATM   24  O   UNL     1      -4.206   0.156 -32.603  1.00  0.00    -0.357 OA
HETATM   25  H   UNL     1      -4.812   0.281 -31.835  1.00  0.00     0.218 HD
ENDBRANCH  18  24
BRANCH  19  26
HETATM   26  O   UNL     1      -3.018  -2.189 -32.315  1.00  0.00    -0.353 OA
HETATM   27  C   UNL     1      -2.740  -3.414 -31.637  1.00  0.00     0.210 C 
ENDBRANCH  19  26
ENDBRANCH  16  17
ENDBRANCH   1  16
TORSDOF 4
ENDMDL
MODEL 2
REMARK VINA RESULT:      -7.7      2.226      2.715
REMARK  4 active torsions:
REMARK  status: ('A' for Active; 'I' for Inactive)
REMARK    1  A    between atoms: O_2  and  C_3 
REMARK    2  A    between atoms: C_4  and  O_5 
REMARK    3  A    between atoms: C_6  and  C_7 
REMARK    4  A    between atoms: C_7  and  N_8 
ROOT
HETATM    1  N   UNL     1      -7.573   2.410 -33.156  1.00  0.00    -0.066 N 
HETATM    2  H   UNL     1      -8.281   1.654 -33.198  1.00  0.00     0.280 HD
HETATM    3  C   UNL     1      -7.075   2.365 -31.726  1.00  0.00     0.246 C 
HETATM    4  C   UNL     1      -6.436   3.685 -31.257  1.00  0.00     0.062 C 
HETATM    5  C   UNL     1      -7.417   4.831 -31.472  1.00  0.00     0.020 C 
HETATM    6  C   UNL     1      -7.660   4.950 -32.969  1.00  0.00     0.031 C 
HETATM    7  C   UNL     1      -6.349   5.332 -33.662  1.00  0.00     0.138 C 
HETATM    8  N   UNL     1      -5.136   4.682 -33.160  1.00  0.00    -0.317 N 
HETATM    9  C   UNL     1      -5.126   3.951 -31.969  1.00  0.00     0.020 A 
HETATM   10  C   UNL     1      -3.964   3.478 -31.484  1.00  0.00     0.026 A 
HETATM   11  C   UNL     1      -3.965   4.936 -33.889  1.00  0.00     0.247 A 
HETATM   12  O   UNL     1      -3.945   5.543 -34.955  1.00  0.00    -0.268 OA
HETATM   13  C   UNL     1      -2.705   4.391 -33.328  1.00  0.00     0.074 A 
HETATM   14  C   UNL     1      -2.726   3.704 -32.182  1.00  0.00     0.007 A 
HETATM   15  C   UNL     1      -8.302   3.671 -33.524  1.00  0.00     0.241 C 
ENDROOT
BRANCH   1  16
HETATM   16  C   UNL     1      -6.611   1.910 -34.220  1.00  0.00     0.276 C 
BRANCH  16  17
HETATM   17  C   UNL     1      -6.069   0.531 -33.965  1.00  0.00     0.005 A 
HETATM   18  C   UNL     1      -6.674  -0.603 -34.516  1.00  0.00     0.107 A 
HETATM   19  C   UNL     1      -6.166  -1.894 -34.317  1.00  0.00     0.103 A 
HETATM   20  C   UNL     1      -5.020  -2.055 -33.543  1.00  0.00     0.058 A 
HETATM   21  C   UNL     1      -4.402  -0.933 -32.987  1.00  0.00     0.014 A 
HETATM   22  C   UNL     1      -4.912   0.352 -33.197  1.00  0.00     0.030 A 
HETATM   23 BR   UNL     1      -2.849  -1.149 -31.929  1.00  0.00    -0.051 Br
BRANCH  18  24
HETATM   24  O   UNL     1      -7.824  -0.438 -35.256  1.00  0.00    -0.357 OA
HETATM   25  H   UNL     1      -8.519  -0.254 -34.582  1.00  0.00     0.218 HD
ENDBRANCH  18  24
BRANCH  19  26
HETATM   26  O   UNL     1      -6.887  -2.888 -34.922  1.00  0.00    -0.353 OA
HETATM   27  C   UNL     1      -6.235  -4.149 -35.072  1.00  0.00     0.210 C 
ENDBRANCH  19  26
ENDBRANCH  16  17
ENDBRANCH   1  16
TORSDOF 4
ENDMDL
MODEL 3
REMARK VINA RESULT:      -7.6      3.959      6.259
REMARK  4 active torsions:
REMARK  status: ('A' for Active; 'I' for Inactive)
REMARK    1  A    between atoms: O_2  and  C_3 
REMARK    2  A    between atoms: C_4  and  O_5 
REMARK    3  A    between atoms: C_6  and  C_7 
REMARK    4  A    between atoms: C_7  and  N_8 
ROOT
HETATM    1  N   UNL     1      -3.853   6.072 -32.271  1.00  0.00    -0.066 N 
HETATM    2  H   UNL     1      -4.850   6.057 -32.556  1.00  0.00     0.280 HD
HETATM    3  C   UNL     1      -3.573   7.535 -31.996  1.00  0.00     0.246 C 
HETATM    4  C   UNL     1      -2.079   7.900 -32.081  1.00  0.00     0.062 C 
HETATM    5  C   UNL     1      -1.525   7.470 -33.434  1.00  0.00     0.020 C 
HETATM    6  C   UNL     1      -1.628   5.953 -33.508  1.00  0.00     0.031 C 
HETATM    7  C   UNL     1      -0.734   5.336 -32.429  1.00  0.00     0.138 C 
HETATM    8  N   UNL     1      -0.724   6.013 -31.130  1.00  0.00    -0.317 N 
HETATM    9  C   UNL     1      -1.290   7.277 -30.949  1.00  0.00     0.020 A 
HETATM   10  C   UNL     1      -1.148   7.912 -29.771  1.00  0.00     0.026 A 
HETATM   11  C   UNL     1      -0.010   5.362 -30.112  1.00  0.00     0.247 A 
HETATM   12  O   UNL     1       0.469   4.239 -30.228  1.00  0.00    -0.268 OA
HETATM   13  C   UNL     1       0.119   6.088 -28.826  1.00  0.00     0.074 A 
HETATM   14  C   UNL     1      -0.426   7.301 -28.686  1.00  0.00     0.007 A 
HETATM   15  C   UNL     1      -3.091   5.499 -33.434  1.00  0.00     0.241 C 
ENDROOT
BRANCH   1  16
HETATM   16  C   UNL     1      -3.925   5.160 -31.059  1.00  0.00     0.276 C 
BRANCH  16  17
HETATM   17  C   UNL     1      -4.419   3.771 -31.359  1.00  0.00     0.005 A 
HETATM   18  C   UNL     1      -3.583   2.658 -31.232  1.00  0.00     0.107 A 
HETATM   19  C   UNL     1      -4.033   1.353 -31.475  1.00  0.00     0.103 A 
HETATM   20  C   UNL     1      -5.357   1.157 -31.859  1.00  0.00     0.058 A 
HETATM   21  C   UNL     1      -6.206   2.258 -31.989  1.00  0.00     0.014 A 
HETATM   22  C   UNL     1      -5.750   3.556 -31.737  1.00  0.00     0.030 A 
HETATM   23 BR   UNL     1      -8.003   1.997 -32.516  1.00  0.00    -0.051 Br
BRANCH  18  24
HETATM   24  O   UNL     1      -2.268   2.863 -30.881  1.00  0.00    -0.357 OA
HETATM   25  H   UNL     1      -2.318   3.233 -29.968  1.00  0.00     0.218 HD
ENDBRANCH  18  24
BRANCH  19  26
HETATM   26  O   UNL     1      -3.080   0.383 -31.311  1.00  0.00    -0.353 OA
HETATM   27  C   UNL     1      -3.302  -0.850 -31.993  1.00  0.00     0.210 C 
ENDBRANCH  19  26
ENDBRANCH  16  17
ENDBRANCH   1  16
TORSDOF 4
ENDMDL
MODEL 4
REMARK VINA RESULT:      -7.5      3.872      6.359
REMARK  4 active torsions:
REMARK  status: ('A' for Active; 'I' for Inactive)
REMARK    1  A    between atoms: O_2  and  C_3 
REMARK    2  A    between atoms: C_4  and  O_5 
REMARK    3  A    between atoms: C_6  and  C_7 
REMARK    4  A    between atoms: C_7  and  N_8 
ROOT
HETATM    1  N   UNL     1      -3.915   5.709 -32.354  1.00  0.00    -0.066 N 
HETATM    2  H   UNL     1      -4.918   5.585 -32.587  1.00  0.00     0.280 HD
HETATM    3  C   UNL     1      -3.783   7.193 -32.083  1.00  0.00     0.246 C 
HETATM    4  C   UNL     1      -2.345   7.720 -32.242  1.00  0.00     0.062 C 
HETATM    5  C   UNL     1      -1.818   7.356 -33.625  1.00  0.00     0.020 C 
HETATM    6  C   UNL     1      -1.758   5.837 -33.705  1.00  0.00     0.031 C 
HETATM    7  C   UNL     1      -0.747   5.320 -32.677  1.00  0.00     0.138 C 
HETATM    8  N   UNL     1      -0.744   5.992 -31.376  1.00  0.00    -0.317 N 
HETATM    9  C   UNL     1      -1.435   7.186 -31.156  1.00  0.00     0.020 A 
HETATM   10  C   UNL     1      -1.302   7.831 -29.983  1.00  0.00     0.026 A 
HETATM   11  C   UNL     1       0.089   5.421 -30.401  1.00  0.00     0.247 A 
HETATM   12  O   UNL     1       0.681   4.358 -30.549  1.00  0.00    -0.268 OA
HETATM   13  C   UNL     1       0.204   6.156 -29.118  1.00  0.00     0.074 A 
HETATM   14  C   UNL     1      -0.462   7.301 -28.941  1.00  0.00     0.007 A 
HETATM   15  C   UNL     1      -3.157   5.224 -33.558  1.00  0.00     0.241 C 
ENDROOT
BRANCH   1  16
HETATM   16  C   UNL     1      -3.824   4.793 -31.147  1.00  0.00     0.276 C 
BRANCH  16  17
HETATM   17  C   UNL     1      -4.401   3.421 -31.366  1.00  0.00     0.005 A 
HETATM   18  C   UNL     1      -5.764   3.236 -31.618  1.00  0.00     0.107 A 
HETATM   19  C   UNL     1      -6.316   1.970 -31.857  1.00  0.00     0.103 A 
HETATM   20  C   UNL     1      -5.480   0.857 -31.839  1.00  0.00     0.058 A 
HETATM   21  C   UNL     1      -4.116   1.024 -31.591  1.00  0.00     0.014 A 
HETATM   22  C   UNL     1      -3.573   2.292 -31.361  1.00  0.00     0.030 A 
HETATM   23 BR   UNL     1      -2.979  -0.487 -31.560  1.00  0.00    -0.051 Br
BRANCH  18  24
HETATM   24  O   UNL     1      -6.589   4.339 -31.604  1.00  0.00    -0.357 OA
HETATM   25  H   UNL     1      -7.411   4.029 -32.051  1.00  0.00     0.218 HD
ENDBRANCH  18  24
BRANCH  19  26
HETATM   26  O   UNL     1      -7.667   1.971 -32.078  1.00  0.00    -0.353 OA
HETATM   27  C   UNL     1      -8.374   0.786 -31.714  1.00  0.00     0.210 C 
ENDBRANCH  19  26
ENDBRANCH  16  17
ENDBRANCH   1  16
TORSDOF 4
ENDMDL
MODEL 5
REMARK VINA RESULT:      -7.4      3.616      5.656
REMARK  4 active torsions:
REMARK  status: ('A' for Active; 'I' for Inactive)
REMARK    1  A    between atoms: O_2  and  C_3 
REMARK    2  A    between atoms: C_4  and  O_5 
REMARK    3  A    between atoms: C_6  and  C_7 
REMARK    4  A    between atoms: C_7  and  N_8 
ROOT
HETATM    1  N   UNL     1     -10.729   1.526 -34.581  1.00  0.00    -0.066 N 
HETATM    2  H   UNL     1     -10.380   0.720 -35.131  1.00  0.00     0.280 HD
HETATM    3  C   UNL     1     -12.141   1.731 -35.088  1.00  0.00     0.246 C 
HETATM    4  C   UNL     1     -12.682   3.152 -34.841  1.00  0.00     0.062 C 
HETATM    5  C   UNL     1     -11.721   4.174 -35.435  1.00  0.00     0.020 C 
HETATM    6  C   UNL     1     -10.403   4.052 -34.685  1.00  0.00     0.031 C 
HETATM    7  C   UNL     1     -10.624   4.429 -33.217  1.00  0.00     0.138 C 
HETATM    8  N   UNL     1     -11.868   3.956 -32.606  1.00  0.00    -0.317 N 
HETATM    9  C   UNL     1     -12.906   3.411 -33.366  1.00  0.00     0.020 A 
HETATM   10  C   UNL     1     -14.077   3.106 -32.778  1.00  0.00     0.026 A 
HETATM   11  C   UNL     1     -11.994   4.190 -31.228  1.00  0.00     0.247 A 
HETATM   12  O   UNL     1     -11.091   4.633 -30.527  1.00  0.00    -0.268 OA
HETATM   13  C   UNL     1     -13.296   3.833 -30.614  1.00  0.00     0.074 A 
HETATM   14  C   UNL     1     -14.274   3.322 -31.368  1.00  0.00     0.007 A 
HETATM   15  C   UNL     1      -9.788   2.659 -34.880  1.00  0.00     0.241 C 
ENDROOT
BRANCH   1  16
HETATM   16  C   UNL     1     -10.592   0.952 -33.182  1.00  0.00     0.276 C 
BRANCH  16  17
HETATM   17  C   UNL     1      -9.184   0.593 -32.795  1.00  0.00     0.005 A 
HETATM   18  C   UNL     1      -8.594   1.107 -31.637  1.00  0.00     0.107 A 
HETATM   19  C   UNL     1      -7.294   0.759 -31.242  1.00  0.00     0.103 A 
HETATM   20  C   UNL     1      -6.563  -0.124 -32.031  1.00  0.00     0.058 A 
HETATM   21  C   UNL     1      -7.139  -0.648 -33.191  1.00  0.00     0.014 A 
HETATM   22  C   UNL     1      -8.439  -0.302 -33.573  1.00  0.00     0.030 A 
HETATM   23 BR   UNL     1      -6.147  -1.844 -34.270  1.00  0.00    -0.051 Br
BRANCH  18  24
HETATM   24  O   UNL     1      -9.311   2.003 -30.877  1.00  0.00    -0.357 OA
HETATM   25  H   UNL     1      -9.612   1.474 -30.102  1.00  0.00     0.218 HD
ENDBRANCH  18  24
BRANCH  19  26
HETATM   26  O   UNL     1      -6.871   1.360 -30.087  1.00  0.00    -0.353 OA
HETATM   27  C   UNL     1      -5.808   2.304 -30.211  1.00  0.00     0.210 C 
ENDBRANCH  19  26
ENDBRANCH  16  17
ENDBRANCH   1  16
TORSDOF 4
ENDMDL
MODEL 6
REMARK VINA RESULT:      -7.4      2.673      6.294
REMARK  4 active torsions:
REMARK  status: ('A' for Active; 'I' for Inactive)
REMARK    1  A    between atoms: O_2  and  C_3 
REMARK    2  A    between atoms: C_4  and  O_5 
REMARK    3  A    between atoms: C_6  and  C_7 
REMARK    4  A    between atoms: C_7  and  N_8 
ROOT
HETATM    1  N   UNL     1      -8.150   2.451 -33.669  1.00  0.00    -0.066 N 
HETATM    2  H   UNL     1      -8.598   3.308 -34.045  1.00  0.00     0.280 HD
HETATM    3  C   UNL     1      -8.945   1.321 -34.287  1.00  0.00     0.246 C 
HETATM    4  C   UNL     1      -8.846  -0.000 -33.501  1.00  0.00     0.062 C 
HETATM    5  C   UNL     1      -9.247   0.237 -32.051  1.00  0.00     0.020 C 
HETATM    6  C   UNL     1      -8.235   1.202 -31.449  1.00  0.00     0.031 C 
HETATM    7  C   UNL     1      -6.854   0.540 -31.440  1.00  0.00     0.138 C 
HETATM    8  N   UNL     1      -6.507  -0.252 -32.623  1.00  0.00    -0.317 N 
HETATM    9  C   UNL     1      -7.456  -0.595 -33.589  1.00  0.00     0.020 A 
HETATM   10  C   UNL     1      -7.119  -1.427 -34.591  1.00  0.00     0.026 A 
HETATM   11  C   UNL     1      -5.191  -0.738 -32.662  1.00  0.00     0.247 A 
HETATM   12  O   UNL     1      -4.327  -0.428 -31.850  1.00  0.00    -0.268 OA
HETATM   13  C   UNL     1      -4.855  -1.645 -33.786  1.00  0.00     0.074 A 
HETATM   14  C   UNL     1      -5.787  -1.963 -34.690  1.00  0.00     0.007 A 
HETATM   15  C   UNL     1      -8.269   2.554 -32.174  1.00  0.00     0.241 C 
ENDROOT
BRANCH   1  16
HETATM   16  C   UNL     1      -6.741   2.654 -34.199  1.00  0.00     0.276 C 
BRANCH  16  17
HETATM   17  C   UNL     1      -5.973   3.749 -33.513  1.00  0.00     0.005 A 
HETATM   18  C   UNL     1      -6.484   5.046 -33.415  1.00  0.00     0.107 A 
HETATM   19  C   UNL     1      -5.798   6.073 -32.751  1.00  0.00     0.103 A 
HETATM   20  C   UNL     1      -4.563   5.794 -32.172  1.00  0.00     0.058 A 
HETATM   21  C   UNL     1      -4.038   4.502 -32.260  1.00  0.00     0.014 A 
HETATM   22  C   UNL     1      -4.733   3.482 -32.917  1.00  0.00     0.030 A 
HETATM   23 BR   UNL     1      -2.358   4.121 -31.481  1.00  0.00    -0.051 Br
BRANCH  18  24
HETATM   24  O   UNL     1      -7.692   5.322 -34.015  1.00  0.00    -0.357 OA
HETATM   25  H   UNL     1      -7.972   4.458 -34.399  1.00  0.00     0.218 HD
ENDBRANCH  18  24
BRANCH  19  26
HETATM   26  O   UNL     1      -6.440   7.282 -32.757  1.00  0.00    -0.353 OA
HETATM   27  C   UNL     1      -6.592   7.930 -31.495  1.00  0.00     0.210 C 
ENDBRANCH  19  26
ENDBRANCH  16  17
ENDBRANCH   1  16
TORSDOF 4
ENDMDL
MODEL 7
REMARK VINA RESULT:      -7.4      2.252      2.620
REMARK  4 active torsions:
REMARK  status: ('A' for Active; 'I' for Inactive)
REMARK    1  A    between atoms: O_2  and  C_3 
REMARK    2  A    between atoms: C_4  and  O_5 
REMARK    3  A    between atoms: C_6  and  C_7 
REMARK    4  A    between atoms: C_7  and  N_8 
ROOT
HETATM    1  N   UNL     1      -8.604   1.401 -33.853  1.00  0.00    -0.066 N 
HETATM    2  H   UNL     1      -8.896   0.619 -34.470  1.00  0.00     0.280 HD
HETATM    3  C   UNL     1      -8.820   0.864 -32.454  1.00  0.00     0.246 C 
HETATM    4  C   UNL     1      -8.976   1.967 -31.391  1.00  0.00     0.062 C 
HETATM    5  C   UNL     1     -10.093   2.918 -31.803  1.00  0.00     0.020 C 
HETATM    6  C   UNL     1      -9.665   3.591 -33.099  1.00  0.00     0.031 C 
HETATM    7  C   UNL     1      -8.416   4.438 -32.835  1.00  0.00     0.138 C 
HETATM    8  N   UNL     1      -7.414   3.854 -31.940  1.00  0.00    -0.317 N 
HETATM    9  C   UNL     1      -7.678   2.716 -31.174  1.00  0.00     0.020 A 
HETATM   10  C   UNL     1      -6.773   2.290 -30.274  1.00  0.00     0.026 A 
HETATM   11  C   UNL     1      -6.218   4.577 -31.815  1.00  0.00     0.247 A 
HETATM   12  O   UNL     1      -5.941   5.558 -32.497  1.00  0.00    -0.268 OA
HETATM   13  C   UNL     1      -5.241   4.073 -30.820  1.00  0.00     0.074 A 
HETATM   14  C   UNL     1      -5.526   2.986 -30.095  1.00  0.00     0.007 A 
HETATM   15  C   UNL     1      -9.487   2.560 -34.221  1.00  0.00     0.241 C 
ENDROOT
BRANCH   1  16
HETATM   16  C   UNL     1      -7.161   1.547 -34.304  1.00  0.00     0.276 C 
BRANCH  16  17
HETATM   17  C   UNL     1      -6.260   0.424 -33.868  1.00  0.00     0.005 A 
HETATM   18  C   UNL     1      -6.403  -0.867 -34.384  1.00  0.00     0.107 A 
HETATM   19  C   UNL     1      -5.552  -1.919 -34.015  1.00  0.00     0.103 A 
HETATM   20  C   UNL     1      -4.532  -1.671 -33.100  1.00  0.00     0.058 A 
HETATM   21  C   UNL     1      -4.374  -0.386 -32.577  1.00  0.00     0.014 A 
HETATM   22  C   UNL     1      -5.222   0.659 -32.957  1.00  0.00     0.030 A 
HETATM   23 BR   UNL     1      -2.994  -0.048 -31.330  1.00  0.00    -0.051 Br
BRANCH  18  24
HETATM   24  O   UNL     1      -7.432  -1.111 -35.265  1.00  0.00    -0.357 OA
HETATM   25  H   UNL     1      -7.829  -0.222 -35.422  1.00  0.00     0.218 HD
ENDBRANCH  18  24
BRANCH  19  26
HETATM   26  O   UNL     1      -5.840  -3.118 -34.610  1.00  0.00    -0.353 OA
HETATM   27  C   UNL     1      -4.806  -4.101 -34.596  1.00  0.00     0.210 C 
ENDBRANCH  19  26
ENDBRANCH  16  17
ENDBRANCH   1  16
TORSDOF 4
ENDMDL
MODEL 8
REMARK VINA RESULT:      -7.4      3.032      5.910
REMARK  4 active torsions:
REMARK  status: ('A' for Active; 'I' for Inactive)
REMARK    1  A    between atoms: O_2  and  C_3 
REMARK    2  A    between atoms: C_4  and  O_5 
REMARK    3  A    between atoms: C_6  and  C_7 
REMARK    4  A    between atoms: C_7  and  N_8 
ROOT
HETATM    1  N   UNL     1      -8.086   2.467 -33.579  1.00  0.00    -0.066 N 
HETATM    2  H   UNL     1      -8.464   3.359 -33.948  1.00  0.00     0.280 HD
HETATM    3  C   UNL     1      -8.826   1.404 -34.364  1.00  0.00     0.246 C 
HETATM    4  C   UNL     1      -8.856   0.033 -33.663  1.00  0.00     0.062 C 
HETATM    5  C   UNL     1      -9.427   0.190 -32.259  1.00  0.00     0.020 C 
HETATM    6  C   UNL     1      -8.474   1.081 -31.475  1.00  0.00     0.031 C 
HETATM    7  C   UNL     1      -7.121   0.376 -31.344  1.00  0.00     0.138 C 
HETATM    8  N   UNL     1      -6.650  -0.349 -32.526  1.00  0.00    -0.317 N 
HETATM    9  C   UNL     1      -7.481  -0.599 -33.621  1.00  0.00     0.020 A 
HETATM   10  C   UNL     1      -7.043  -1.376 -34.629  1.00  0.00     0.026 A 
HETATM   11  C   UNL     1      -5.352  -0.874 -32.438  1.00  0.00     0.247 A 
HETATM   12  O   UNL     1      -4.586  -0.644 -31.508  1.00  0.00    -0.268 OA
HETATM   13  C   UNL     1      -4.901  -1.717 -33.571  1.00  0.00     0.074 A 
HETATM   14  C   UNL     1      -5.722  -1.947 -34.601  1.00  0.00     0.007 A 
HETATM   15  C   UNL     1      -8.386   2.478 -32.106  1.00  0.00     0.241 C 
ENDROOT
BRANCH   1  16
HETATM   16  C   UNL     1      -6.619   2.657 -33.920  1.00  0.00     0.276 C 
BRANCH  16  17
HETATM   17  C   UNL     1      -5.925   3.712 -33.102  1.00  0.00     0.005 A 
HETATM   18  C   UNL     1      -4.673   3.479 -32.524  1.00  0.00     0.107 A 
HETATM   19  C   UNL     1      -3.996   4.459 -31.786  1.00  0.00     0.103 A 
HETATM   20  C   UNL     1      -4.590   5.707 -31.618  1.00  0.00     0.058 A 
HETATM   21  C   UNL     1      -5.840   5.957 -32.190  1.00  0.00     0.014 A 
HETATM   22  C   UNL     1      -6.505   4.975 -32.932  1.00  0.00     0.030 A 
HETATM   23 BR   UNL     1      -6.653   7.648 -31.959  1.00  0.00    -0.051 Br
BRANCH  18  24
HETATM   24  O   UNL     1      -4.106   2.233 -32.670  1.00  0.00    -0.357 OA
HETATM   25  H   UNL     1      -3.165   2.366 -32.407  1.00  0.00     0.218 HD
ENDBRANCH  18  24
BRANCH  19  26
HETATM   26  O   UNL     1      -2.786   4.059 -31.285  1.00  0.00    -0.353 OA
HETATM   27  C   UNL     1      -1.643   4.802 -31.709  1.00  0.00     0.210 C 
ENDBRANCH  19  26
ENDBRANCH  16  17
ENDBRANCH   1  16
TORSDOF 4
ENDMDL
MODEL 9
REMARK VINA RESULT:      -7.3      3.634      6.039
REMARK  4 active torsions:
REMARK  status: ('A' for Active; 'I' for Inactive)
REMARK    1  A    between atoms: O_2  and  C_3 
REMARK    2  A    between atoms: C_4  and  O_5 
REMARK    3  A    between atoms: C_6  and  C_7 
REMARK    4  A    between atoms: C_7  and  N_8 
ROOT
HETATM    1  N   UNL     1      -7.878   0.443 -32.119  1.00  0.00    -0.066 N 
HETATM    2  H   UNL     1      -8.602  -0.295 -32.202  1.00  0.00     0.280 HD
HETATM    3  C   UNL     1      -7.262   0.509 -33.501  1.00  0.00     0.246 C 
HETATM    4  C   UNL     1      -5.846   1.114 -33.513  1.00  0.00     0.062 C 
HETATM    5  C   UNL     1      -4.956   0.351 -32.541  1.00  0.00     0.020 C 
HETATM    6  C   UNL     1      -5.526   0.553 -31.144  1.00  0.00     0.031 C 
HETATM    7  C   UNL     1      -5.438   2.037 -30.777  1.00  0.00     0.138 C 
HETATM    8  N   UNL     1      -5.748   2.989 -31.846  1.00  0.00    -0.317 N 
HETATM    9  C   UNL     1      -5.872   2.591 -33.180  1.00  0.00     0.020 A 
HETATM   10  C   UNL     1      -6.033   3.518 -34.142  1.00  0.00     0.026 A 
HETATM   11  C   UNL     1      -5.797   4.338 -31.461  1.00  0.00     0.247 A 
HETATM   12  O   UNL     1      -5.727   4.717 -30.297  1.00  0.00    -0.268 OA
HETATM   13  C   UNL     1      -5.984   5.329 -32.549  1.00  0.00     0.074 A 
HETATM   14  C   UNL     1      -6.090   4.919 -33.817  1.00  0.00     0.007 A 
HETATM   15  C   UNL     1      -6.942  -0.027 -31.040  1.00  0.00     0.241 C 
ENDROOT
BRANCH   1  16
HETATM   16  C   UNL     1      -8.759   1.612 -31.717  1.00  0.00     0.276 C 
BRANCH  16  17
HETATM   17  C   UNL     1      -9.653   2.120 -32.814  1.00  0.00     0.005 A 
HETATM   18  C   UNL     1     -10.695   1.339 -33.324  1.00  0.00     0.107 A 
HETATM   19  C   UNL     1     -11.560   1.806 -34.324  1.00  0.00     0.103 A 
HETATM   20  C   UNL     1     -11.374   3.089 -34.830  1.00  0.00     0.058 A 
HETATM   21  C   UNL     1     -10.339   3.883 -34.331  1.00  0.00     0.014 A 
HETATM   22  C   UNL     1      -9.486   3.412 -33.328  1.00  0.00     0.030 A 
HETATM   23 BR   UNL     1     -10.079   5.624 -35.021  1.00  0.00    -0.051 Br
BRANCH  18  24
HETATM   24  O   UNL     1     -10.854   0.060 -32.838  1.00  0.00    -0.357 OA
HETATM   25  H   UNL     1     -10.451  -0.512 -33.533  1.00  0.00     0.218 HD
ENDBRANCH  18  24
BRANCH  19  26
HETATM   26  O   UNL     1     -12.519   0.908 -34.711  1.00  0.00    -0.353 OA
HETATM   27  C   UNL     1     -13.870   1.242 -34.395  1.00  0.00     0.210 C 
ENDBRANCH  19  26
ENDBRANCH  16  17
ENDBRANCH   1  16
TORSDOF 4
ENDMDL
MODEL 10
REMARK VINA RESULT:      -7.0      3.653      6.420
REMARK  4 active torsions:
REMARK  status: ('A' for Active; 'I' for Inactive)
REMARK    1  A    between atoms: O_2  and  C_3 
REMARK    2  A    between atoms: C_4  and  O_5 
REMARK    3  A    between atoms: C_6  and  C_7 
REMARK    4  A    between atoms: C_7  and  N_8 
ROOT
HETATM    1  N   UNL     1      -7.191   2.501 -31.084  1.00  0.00    -0.066 N 
HETATM    2  H   UNL     1      -7.583   2.912 -30.216  1.00  0.00     0.280 HD
HETATM    3  C   UNL     1      -5.891   1.869 -30.634  1.00  0.00     0.246 C 
HETATM    4  C   UNL     1      -4.878   1.669 -31.777  1.00  0.00     0.062 C 
HETATM    5  C   UNL     1      -4.639   2.996 -32.485  1.00  0.00     0.020 C 
HETATM    6  C   UNL     1      -5.957   3.423 -33.114  1.00  0.00     0.031 C 
HETATM    7  C   UNL     1      -6.359   2.400 -34.181  1.00  0.00     0.138 C 
HETATM    8  N   UNL     1      -6.118   0.993 -33.854  1.00  0.00    -0.317 N 
HETATM    9  C   UNL     1      -5.346   0.610 -32.754  1.00  0.00     0.020 A 
HETATM   10  C   UNL     1      -5.049  -0.688 -32.565  1.00  0.00     0.026 A 
HETATM   11  C   UNL     1      -6.613   0.062 -34.779  1.00  0.00     0.247 A 
HETATM   12  O   UNL     1      -7.322   0.362 -35.734  1.00  0.00    -0.268 OA
HETATM   13  C   UNL     1      -6.272  -1.360 -34.534  1.00  0.00     0.074 A 
HETATM   14  C   UNL     1      -5.524  -1.695 -33.477  1.00  0.00     0.007 A 
HETATM   15  C   UNL     1      -7.030   3.649 -32.040  1.00  0.00     0.241 C 
ENDROOT
BRANCH   1  16
HETATM   16  C   UNL     1      -8.318   1.546 -31.438  1.00  0.00     0.276 C 
BRANCH  16  17
HETATM   17  C   UNL     1      -9.559   2.218 -31.957  1.00  0.00     0.005 A 
HETATM   18  C   UNL     1     -10.202   1.767 -33.113  1.00  0.00     0.107 A 
HETATM   19  C   UNL     1     -11.378   2.360 -33.595  1.00  0.00     0.103 A 
HETATM   20  C   UNL     1     -11.923   3.437 -32.901  1.00  0.00     0.058 A 
HETATM   21  C   UNL     1     -11.294   3.899 -31.743  1.00  0.00     0.014 A 
HETATM   22  C   UNL     1     -10.125   3.297 -31.265  1.00  0.00     0.030 A 
HETATM   23 BR   UNL     1     -12.027   5.366 -30.801  1.00  0.00    -0.051 Br
BRANCH  18  24
HETATM   24  O   UNL     1      -9.641   0.721 -33.810  1.00  0.00    -0.357 OA
HETATM   25  H   UNL     1      -9.904  -0.078 -33.296  1.00  0.00     0.218 HD
ENDBRANCH  18  24
BRANCH  19  26
HETATM   26  O   UNL     1     -11.870   1.798 -34.742  1.00  0.00    -0.353 OA
HETATM   27  C   UNL     1     -13.091   1.070 -34.624  1.00  0.00     0.210 C 
ENDBRANCH  19  26
ENDBRANCH  16  17
ENDBRANCH   1  16
TORSDOF 4
ENDMDL
