MODEL 1
REMARK VINA RESULT:     -10.3      0.000      0.000
REMARK  5 active torsions:
REMARK  status: ('A' for Active; 'I' for Inactive)
REMARK    1  A    between atoms: C_4  and  C_5 
REMARK    2  A    between atoms: C_5  and  N_6 
REMARK    3  A    between atoms: C_8  and  C_9 
REMARK       I    between atoms: C_9  and  N_10 
REMARK    4  A    between atoms: N_10  and  N_11 
REMARK       I    between atoms: N_11  and  C_12 
REMARK    5  A    between atoms: C_12  and  C_13 
ROOT
HETATM    1  N   UNL     1      -5.084   1.225 -32.561  1.00  0.00    -0.229 N 
HETATM    2  N   UNL     1      -6.421   1.270 -32.893  1.00  0.00    -0.163 NA
HETATM    3  C   UNL     1      -6.961   0.234 -33.464  1.00  0.00     0.157 A 
HETATM    4  C   UNL     1      -6.222  -0.990 -33.809  1.00  0.00     0.016 A 
HETATM    5  C   UNL     1      -4.873  -1.026 -33.474  1.00  0.00     0.046 A 
HETATM    6  C   UNL     1      -4.254   0.133 -32.803  1.00  0.00     0.275 A 
HETATM    7  O   UNL     1      -3.061   0.092 -32.510  1.00  0.00    -0.266 OA
HETATM    8  C   UNL     1      -6.801  -2.080 -34.472  1.00  0.00     0.015 A 
HETATM    9  C   UNL     1      -6.026  -3.203 -34.782  1.00  0.00     0.001 A 
HETATM   10  C   UNL     1      -4.676  -3.239 -34.439  1.00  0.00     0.001 A 
HETATM   11  C   UNL     1      -4.097  -2.151 -33.785  1.00  0.00     0.018 A 
ENDROOT
BRANCH   3  12
HETATM   12  C   UNL     1      -8.436   0.364 -33.814  1.00  0.00     0.291 C 
HETATM   13  N   UNL     1      -9.248   0.416 -32.705  1.00  0.00    -0.262 N 
HETATM   14  H   UNL     1      -8.899   0.172 -31.776  1.00  0.00     0.190 HD
HETATM   15  O   UNL     1      -8.816   0.423 -34.974  1.00  0.00    -0.264 OA
BRANCH  13  16
HETATM   16  N   UNL     1     -10.634   0.470 -32.874  1.00  0.00    -0.263 N 
HETATM   17  C   UNL     1     -11.213   1.711 -33.051  1.00  0.00     0.270 C 
HETATM   18  O   UNL     1     -10.554   2.749 -33.078  1.00  0.00    -0.266 OA
HETATM   19  H   UNL     1     -11.156  -0.377 -32.660  1.00  0.00     0.190 HD
BRANCH  17  20
HETATM   20  C   UNL     1     -12.695   1.749 -33.189  1.00  0.00     0.036 A 
HETATM   21  C   UNL     1     -13.486   2.592 -32.392  1.00  0.00     0.051 A 
HETATM   22  C   UNL     1     -14.878   2.555 -32.559  1.00  0.00     0.085 A 
HETATM   23  C   UNL     1     -15.436   1.691 -33.495  1.00  0.00     0.062 A 
HETATM   24  N   UNL     1     -15.853   3.269 -31.907  1.00  0.00    -0.242 NA
HETATM   25  N   UNL     1     -16.788   1.907 -33.388  1.00  0.00    -0.349 N 
HETATM   26  C   UNL     1     -14.681   0.836 -34.296  1.00  0.00     0.033 A 
HETATM   27  H   UNL     1     -17.509   1.442 -33.921  1.00  0.00     0.167 HD
HETATM   28  C   UNL     1     -16.987   2.857 -32.426  1.00  0.00     0.208 A 
HETATM   29  C   UNL     1     -13.293   0.881 -34.118  1.00  0.00     0.019 A 
ENDBRANCH  17  20
ENDBRANCH  13  16
ENDBRANCH   3  12
BRANCH   1  30
HETATM   30  C   UNL     1      -4.545   2.395 -31.874  1.00  0.00     0.193 C 
BRANCH  30  31
HETATM   31  C   UNL     1      -4.039   3.445 -32.838  1.00  0.00    -0.038 A 
HETATM   32  C   UNL     1      -4.934   4.150 -33.655  1.00  0.00     0.009 A 
HETATM   33  C   UNL     1      -4.467   5.115 -34.550  1.00  0.00     0.001 A 
HETATM   34  C   UNL     1      -3.102   5.378 -34.641  1.00  0.00     0.000 A 
HETATM   35  C   UNL     1      -2.201   4.674 -33.842  1.00  0.00     0.001 A 
HETATM   36  C   UNL     1      -2.667   3.708 -32.949  1.00  0.00     0.009 A 
ENDBRANCH  30  31
ENDBRANCH   1  30
TORSDOF 5
ENDMDL
MODEL 2
REMARK VINA RESULT:     -10.0      4.065      9.315
REMARK  5 active torsions:
REMARK  status: ('A' for Active; 'I' for Inactive)
REMARK    1  A    between atoms: C_4  and  C_5 
REMARK    2  A    between atoms: C_5  and  N_6 
REMARK    3  A    between atoms: C_8  and  C_9 
REMARK       I    between atoms: C_9  and  N_10 
REMARK    4  A    between atoms: N_10  and  N_11 
REMARK       I    between atoms: N_11  and  C_12 
REMARK    5  A    between atoms: C_12  and  C_13 
ROOT
HETATM    1  N   UNL     1      -5.885  -0.368 -34.281  1.00  0.00    -0.229 N 
HETATM    2  N   UNL     1      -5.163   0.446 -33.435  1.00  0.00    -0.163 NA
HETATM    3  C   UNL     1      -4.222  -0.081 -32.708  1.00  0.00     0.157 A 
HETATM    4  C   UNL     1      -3.892  -1.514 -32.708  1.00  0.00     0.016 A 
HETATM    5  C   UNL     1      -4.628  -2.329 -33.561  1.00  0.00     0.046 A 
HETATM    6  C   UNL     1      -5.681  -1.739 -34.409  1.00  0.00     0.275 A 
HETATM    7  O   UNL     1      -6.325  -2.468 -35.161  1.00  0.00    -0.266 OA
HETATM    8  C   UNL     1      -2.912  -2.080 -31.882  1.00  0.00     0.015 A 
HETATM    9  C   UNL     1      -2.669  -3.457 -31.927  1.00  0.00     0.001 A 
HETATM   10  C   UNL     1      -3.403  -4.270 -32.787  1.00  0.00     0.001 A 
HETATM   11  C   UNL     1      -4.383  -3.709 -33.605  1.00  0.00     0.018 A 
ENDROOT
BRANCH   3  12
HETATM   12  C   UNL     1      -3.479   0.878 -31.789  1.00  0.00     0.291 C 
HETATM   13  N   UNL     1      -3.806   2.196 -32.011  1.00  0.00    -0.262 N 
HETATM   14  H   UNL     1      -4.319   2.484 -32.847  1.00  0.00     0.190 HD
HETATM   15  O   UNL     1      -2.690   0.476 -30.947  1.00  0.00    -0.264 OA
BRANCH  13  16
HETATM   16  N   UNL     1      -3.152   3.194 -31.285  1.00  0.00    -0.263 N 
HETATM   17  C   UNL     1      -2.379   4.098 -31.986  1.00  0.00     0.270 C 
HETATM   18  O   UNL     1      -2.265   4.060 -33.209  1.00  0.00    -0.266 OA
HETATM   19  H   UNL     1      -3.120   3.080 -30.274  1.00  0.00     0.190 HD
BRANCH  17  20
HETATM   20  C   UNL     1      -1.660   5.130 -31.189  1.00  0.00     0.036 A 
HETATM   21  C   UNL     1      -2.348   6.034 -30.364  1.00  0.00     0.051 A 
HETATM   22  C   UNL     1      -1.606   6.996 -29.664  1.00  0.00     0.085 A 
HETATM   23  C   UNL     1      -0.224   7.036 -29.805  1.00  0.00     0.062 A 
HETATM   24  N   UNL     1      -2.041   7.978 -28.809  1.00  0.00    -0.242 NA
HETATM   25  N   UNL     1       0.166   8.080 -29.004  1.00  0.00    -0.349 N 
HETATM   26  C   UNL     1       0.490   6.160 -30.623  1.00  0.00     0.033 A 
HETATM   27  H   UNL     1       1.113   8.403 -28.866  1.00  0.00     0.167 HD
HETATM   28  C   UNL     1      -0.954   8.612 -28.431  1.00  0.00     0.208 A 
HETATM   29  C   UNL     1      -0.263   5.206 -31.317  1.00  0.00     0.019 A 
ENDBRANCH  17  20
ENDBRANCH  13  16
ENDBRANCH   3  12
BRANCH   1  30
HETATM   30  C   UNL     1      -6.892   0.287 -35.111  1.00  0.00     0.193 C 
BRANCH  30  31
HETATM   31  C   UNL     1      -8.140   0.636 -34.334  1.00  0.00    -0.038 A 
HETATM   32  C   UNL     1      -8.746  -0.311 -33.496  1.00  0.00     0.009 A 
HETATM   33  C   UNL     1      -9.902   0.009 -32.784  1.00  0.00     0.001 A 
HETATM   34  C   UNL     1     -10.468   1.277 -32.907  1.00  0.00     0.000 A 
HETATM   35  C   UNL     1      -9.882   2.223 -33.746  1.00  0.00     0.001 A 
HETATM   36  C   UNL     1      -8.727   1.903 -34.460  1.00  0.00     0.009 A 
ENDBRANCH  30  31
ENDBRANCH   1  30
TORSDOF 5
ENDMDL
MODEL 3
REMARK VINA RESULT:      -9.6      2.663      3.044
REMARK  5 active torsions:
REMARK  status: ('A' for Active; 'I' for Inactive)
REMARK    1  A    between atoms: C_4  and  C_5 
REMARK    2  A    between atoms: C_5  and  N_6 
REMARK    3  A    between atoms: C_8  and  C_9 
REMARK       I    between atoms: C_9  and  N_10 
REMARK    4  A    between atoms: N_10  and  N_11 
REMARK       I    between atoms: N_11  and  C_12 
REMARK    5  A    between atoms: C_12  and  C_13 
ROOT
HETATM    1  N   UNL     1      -4.404   0.150 -32.007  1.00  0.00    -0.229 N 
HETATM    2  N   UNL     1      -5.679   0.583 -32.300  1.00  0.00    -0.163 NA
HETATM    3  C   UNL     1      -6.444  -0.167 -33.037  1.00  0.00     0.157 A 
HETATM    4  C   UNL     1      -6.021  -1.454 -33.611  1.00  0.00     0.016 A 
HETATM    5  C   UNL     1      -4.732  -1.882 -33.313  1.00  0.00     0.046 A 
HETATM    6  C   UNL     1      -3.864  -1.052 -32.457  1.00  0.00     0.275 A 
HETATM    7  O   UNL     1      -2.727  -1.439 -32.200  1.00  0.00    -0.266 OA
HETATM    8  C   UNL     1      -6.835  -2.231 -34.447  1.00  0.00     0.015 A 
HETATM    9  C   UNL     1      -6.353  -3.436 -34.968  1.00  0.00     0.001 A 
HETATM   10  C   UNL     1      -5.063  -3.866 -34.664  1.00  0.00     0.001 A 
HETATM   11  C   UNL     1      -4.251  -3.090 -33.836  1.00  0.00     0.018 A 
ENDROOT
BRANCH   3  12
HETATM   12  C   UNL     1      -7.832   0.385 -33.330  1.00  0.00     0.291 C 
HETATM   13  N   UNL     1      -7.837   1.314 -34.344  1.00  0.00    -0.262 N 
HETATM   14  H   UNL     1      -6.970   1.728 -34.692  1.00  0.00     0.190 HD
HETATM   15  O   UNL     1      -8.815   0.007 -32.709  1.00  0.00    -0.264 OA
BRANCH  13  16
HETATM   16  N   UNL     1      -9.032   1.955 -34.678  1.00  0.00    -0.263 N 
HETATM   17  C   UNL     1      -9.139   3.303 -34.401  1.00  0.00     0.270 C 
HETATM   18  O   UNL     1      -8.222   3.946 -33.892  1.00  0.00    -0.266 OA
HETATM   19  H   UNL     1      -9.821   1.359 -34.918  1.00  0.00     0.190 HD
BRANCH  17  20
HETATM   20  C   UNL     1     -10.435   3.958 -34.728  1.00  0.00     0.036 A 
HETATM   21  C   UNL     1     -10.506   5.321 -35.060  1.00  0.00     0.051 A 
HETATM   22  C   UNL     1     -11.765   5.876 -35.330  1.00  0.00     0.085 A 
HETATM   23  C   UNL     1     -12.901   5.077 -35.257  1.00  0.00     0.062 A 
HETATM   24  N   UNL     1     -12.094   7.165 -35.670  1.00  0.00    -0.242 NA
HETATM   25  N   UNL     1     -13.932   5.928 -35.566  1.00  0.00    -0.349 N 
HETATM   26  C   UNL     1     -12.866   3.724 -34.921  1.00  0.00     0.033 A 
HETATM   27  H   UNL     1     -14.912   5.687 -35.604  1.00  0.00     0.167 HD
HETATM   28  C   UNL     1     -13.401   7.164 -35.803  1.00  0.00     0.208 A 
HETATM   29  C   UNL     1     -11.603   3.182 -34.653  1.00  0.00     0.019 A 
ENDBRANCH  17  20
ENDBRANCH  13  16
ENDBRANCH   3  12
BRANCH   1  30
HETATM   30  C   UNL     1      -3.611   1.008 -31.132  1.00  0.00     0.193 C 
BRANCH  30  31
HETATM   31  C   UNL     1      -3.761   2.473 -31.473  1.00  0.00    -0.038 A 
HETATM   32  C   UNL     1      -4.626   3.291 -30.732  1.00  0.00     0.009 A 
HETATM   33  C   UNL     1      -4.770   4.642 -31.051  1.00  0.00     0.001 A 
HETATM   34  C   UNL     1      -4.057   5.187 -32.118  1.00  0.00     0.000 A 
HETATM   35  C   UNL     1      -3.204   4.380 -32.870  1.00  0.00     0.001 A 
HETATM   36  C   UNL     1      -3.061   3.029 -32.553  1.00  0.00     0.009 A 
ENDBRANCH  30  31
ENDBRANCH   1  30
TORSDOF 5
ENDMDL
MODEL 4
REMARK VINA RESULT:      -9.4      5.174      8.387
REMARK  5 active torsions:
REMARK  status: ('A' for Active; 'I' for Inactive)
REMARK    1  A    between atoms: C_4  and  C_5 
REMARK    2  A    between atoms: C_5  and  N_6 
REMARK    3  A    between atoms: C_8  and  C_9 
REMARK       I    between atoms: C_9  and  N_10 
REMARK    4  A    between atoms: N_10  and  N_11 
REMARK       I    between atoms: N_11  and  C_12 
REMARK    5  A    between atoms: C_12  and  C_13 
ROOT
HETATM    1  N   UNL     1      -3.858   6.438 -31.547  1.00  0.00    -0.229 N 
HETATM    2  N   UNL     1      -3.578   5.106 -31.763  1.00  0.00    -0.163 NA
HETATM    3  C   UNL     1      -4.461   4.214 -31.420  1.00  0.00     0.157 A 
HETATM    4  C   UNL     1      -5.746   4.537 -30.783  1.00  0.00     0.016 A 
HETATM    5  C   UNL     1      -6.020   5.883 -30.565  1.00  0.00     0.046 A 
HETATM    6  C   UNL     1      -5.037   6.905 -30.972  1.00  0.00     0.275 A 
HETATM    7  O   UNL     1      -5.289   8.092 -30.776  1.00  0.00    -0.266 OA
HETATM    8  C   UNL     1      -6.668   3.566 -30.370  1.00  0.00     0.015 A 
HETATM    9  C   UNL     1      -7.862   3.953 -29.753  1.00  0.00     0.001 A 
HETATM   10  C   UNL     1      -8.137   5.302 -29.542  1.00  0.00     0.001 A 
HETATM   11  C   UNL     1      -7.217   6.269 -29.947  1.00  0.00     0.018 A 
ENDROOT
BRANCH   3  12
HETATM   12  C   UNL     1      -4.073   2.765 -31.676  1.00  0.00     0.291 C 
HETATM   13  N   UNL     1      -4.899   2.140 -32.581  1.00  0.00    -0.262 N 
HETATM   14  H   UNL     1      -5.789   2.553 -32.864  1.00  0.00     0.190 HD
HETATM   15  O   UNL     1      -3.112   2.251 -31.120  1.00  0.00    -0.264 OA
BRANCH  13  16
HETATM   16  N   UNL     1      -4.703   0.786 -32.864  1.00  0.00    -0.263 N 
HETATM   17  C   UNL     1      -5.671   0.136 -33.602  1.00  0.00     0.270 C 
HETATM   18  O   UNL     1      -6.675   0.708 -34.022  1.00  0.00    -0.266 OA
HETATM   19  H   UNL     1      -3.966   0.311 -32.346  1.00  0.00     0.190 HD
BRANCH  17  20
HETATM   20  C   UNL     1      -5.462  -1.316 -33.858  1.00  0.00     0.036 A 
HETATM   21  C   UNL     1      -4.373  -2.011 -33.307  1.00  0.00     0.051 A 
HETATM   22  C   UNL     1      -4.225  -3.370 -33.614  1.00  0.00     0.085 A 
HETATM   23  C   UNL     1      -5.144  -3.991 -34.453  1.00  0.00     0.062 A 
HETATM   24  N   UNL     1      -3.256  -4.255 -33.208  1.00  0.00    -0.242 NA
HETATM   25  N   UNL     1      -4.699  -5.287 -34.540  1.00  0.00    -0.349 N 
HETATM   26  C   UNL     1      -6.231  -3.329 -35.024  1.00  0.00     0.033 A 
HETATM   27  H   UNL     1      -5.126  -6.028 -35.077  1.00  0.00     0.167 HD
HETATM   28  C   UNL     1      -3.568  -5.395 -33.782  1.00  0.00     0.208 A 
HETATM   29  C   UNL     1      -6.366  -1.971 -34.710  1.00  0.00     0.019 A 
ENDBRANCH  17  20
ENDBRANCH  13  16
ENDBRANCH   3  12
BRANCH   1  30
HETATM   30  C   UNL     1      -2.854   7.395 -32.000  1.00  0.00     0.193 C 
BRANCH  30  31
HETATM   31  C   UNL     1      -1.621   7.392 -31.125  1.00  0.00    -0.038 A 
HETATM   32  C   UNL     1      -1.651   7.975 -29.850  1.00  0.00     0.009 A 
HETATM   33  C   UNL     1      -0.511   7.979 -29.046  1.00  0.00     0.001 A 
HETATM   34  C   UNL     1       0.672   7.406 -29.510  1.00  0.00     0.000 A 
HETATM   35  C   UNL     1       0.718   6.834 -30.781  1.00  0.00     0.001 A 
HETATM   36  C   UNL     1      -0.422   6.832 -31.587  1.00  0.00     0.009 A 
ENDBRANCH  30  31
ENDBRANCH   1  30
TORSDOF 5
ENDMDL
MODEL 5
REMARK VINA RESULT:      -9.4      1.495      4.517
REMARK  5 active torsions:
REMARK  status: ('A' for Active; 'I' for Inactive)
REMARK    1  A    between atoms: C_4  and  C_5 
REMARK    2  A    between atoms: C_5  and  N_6 
REMARK    3  A    between atoms: C_8  and  C_9 
REMARK       I    between atoms: C_9  and  N_10 
REMARK    4  A    between atoms: N_10  and  N_11 
REMARK       I    between atoms: N_11  and  C_12 
REMARK    5  A    between atoms: C_12  and  C_13 
ROOT
HETATM    1  N   UNL     1      -5.324   1.090 -31.814  1.00  0.00    -0.229 N 
HETATM    2  N   UNL     1      -6.668   1.278 -31.571  1.00  0.00    -0.163 NA
HETATM    3  C   UNL     1      -7.187   2.451 -31.785  1.00  0.00     0.157 A 
HETATM    4  C   UNL     1      -6.417   3.615 -32.249  1.00  0.00     0.016 A 
HETATM    5  C   UNL     1      -5.062   3.418 -32.488  1.00  0.00     0.046 A 
HETATM    6  C   UNL     1      -4.466   2.086 -32.273  1.00  0.00     0.275 A 
HETATM    7  O   UNL     1      -3.267   1.922 -32.487  1.00  0.00    -0.266 OA
HETATM    8  C   UNL     1      -6.975   4.888 -32.426  1.00  0.00     0.015 A 
HETATM    9  C   UNL     1      -6.172   5.951 -32.853  1.00  0.00     0.001 A 
HETATM   10  C   UNL     1      -4.816   5.750 -33.098  1.00  0.00     0.001 A 
HETATM   11  C   UNL     1      -4.258   4.484 -32.916  1.00  0.00     0.018 A 
ENDROOT
BRANCH   3  12
HETATM   12  C   UNL     1      -8.672   2.584 -31.480  1.00  0.00     0.291 C 
HETATM   13  N   UNL     1      -9.472   2.239 -32.545  1.00  0.00    -0.262 N 
HETATM   14  H   UNL     1      -9.087   2.124 -33.485  1.00  0.00     0.190 HD
HETATM   15  O   UNL     1      -9.070   2.953 -30.385  1.00  0.00    -0.264 OA
BRANCH  13  16
HETATM   16  N   UNL     1     -10.857   2.375 -32.432  1.00  0.00    -0.263 N 
HETATM   17  C   UNL     1     -11.646   1.727 -33.361  1.00  0.00     0.270 C 
HETATM   18  O   UNL     1     -11.172   1.033 -34.260  1.00  0.00    -0.266 OA
HETATM   19  H   UNL     1     -11.197   3.098 -31.801  1.00  0.00     0.190 HD
BRANCH  17  20
HETATM   20  C   UNL     1     -13.118   1.917 -33.246  1.00  0.00     0.036 A 
HETATM   21  C   UNL     1     -13.667   2.990 -32.525  1.00  0.00     0.051 A 
HETATM   22  C   UNL     1     -15.062   3.090 -32.437  1.00  0.00     0.085 A 
HETATM   23  C   UNL     1     -15.861   2.133 -33.053  1.00  0.00     0.062 A 
HETATM   24  N   UNL     1     -15.829   4.032 -31.797  1.00  0.00    -0.242 NA
HETATM   25  N   UNL     1     -17.144   2.528 -32.763  1.00  0.00    -0.349 N 
HETATM   26  C   UNL     1     -15.349   1.050 -33.768  1.00  0.00     0.033 A 
HETATM   27  H   UNL     1     -17.990   2.058 -33.049  1.00  0.00     0.167 HD
HETATM   28  C   UNL     1     -17.073   3.666 -32.010  1.00  0.00     0.208 A 
HETATM   29  C   UNL     1     -13.955   0.961 -33.847  1.00  0.00     0.019 A 
ENDBRANCH  17  20
ENDBRANCH  13  16
ENDBRANCH   3  12
BRANCH   1  30
HETATM   30  C   UNL     1      -4.808  -0.260 -31.607  1.00  0.00     0.193 C 
BRANCH  30  31
HETATM   31  C   UNL     1      -5.099  -1.172 -32.776  1.00  0.00    -0.038 A 
HETATM   32  C   UNL     1      -6.373  -1.193 -33.363  1.00  0.00     0.009 A 
HETATM   33  C   UNL     1      -6.645  -2.040 -34.438  1.00  0.00     0.001 A 
HETATM   34  C   UNL     1      -5.648  -2.880 -34.932  1.00  0.00     0.000 A 
HETATM   35  C   UNL     1      -4.382  -2.878 -34.350  1.00  0.00     0.001 A 
HETATM   36  C   UNL     1      -4.110  -2.032 -33.273  1.00  0.00     0.009 A 
ENDBRANCH  30  31
ENDBRANCH   1  30
TORSDOF 5
ENDMDL
MODEL 6
REMARK VINA RESULT:      -9.3      5.358      8.623
REMARK  5 active torsions:
REMARK  status: ('A' for Active; 'I' for Inactive)
REMARK    1  A    between atoms: C_4  and  C_5 
REMARK    2  A    between atoms: C_5  and  N_6 
REMARK    3  A    between atoms: C_8  and  C_9 
REMARK       I    between atoms: C_9  and  N_10 
REMARK    4  A    between atoms: N_10  and  N_11 
REMARK       I    between atoms: N_11  and  C_12 
REMARK    5  A    between atoms: C_12  and  C_13 
ROOT
HETATM    1  N   UNL     1      -2.626   7.259 -32.180  1.00  0.00    -0.229 N 
HETATM    2  N   UNL     1      -3.146   6.154 -32.819  1.00  0.00    -0.163 NA
HETATM    3  C   UNL     1      -4.436   5.988 -32.836  1.00  0.00     0.157 A 
HETATM    4  C   UNL     1      -5.388   6.901 -32.185  1.00  0.00     0.016 A 
HETATM    5  C   UNL     1      -4.854   8.011 -31.540  1.00  0.00     0.046 A 
HETATM    6  C   UNL     1      -3.395   8.224 -31.535  1.00  0.00     0.275 A 
HETATM    7  O   UNL     1      -2.933   9.208 -30.963  1.00  0.00    -0.266 OA
HETATM    8  C   UNL     1      -6.772   6.685 -32.164  1.00  0.00     0.015 A 
HETATM    9  C   UNL     1      -7.612   7.590 -31.507  1.00  0.00     0.001 A 
HETATM   10  C   UNL     1      -7.075   8.705 -30.867  1.00  0.00     0.001 A 
HETATM   11  C   UNL     1      -5.697   8.918 -30.882  1.00  0.00     0.018 A 
ENDROOT
BRANCH   3  12
HETATM   12  C   UNL     1      -4.933   4.738 -33.547  1.00  0.00     0.291 C 
HETATM   13  N   UNL     1      -4.753   3.592 -32.807  1.00  0.00    -0.262 N 
HETATM   14  H   UNL     1      -4.154   3.581 -31.979  1.00  0.00     0.190 HD
HETATM   15  O   UNL     1      -5.444   4.792 -34.656  1.00  0.00    -0.264 OA
BRANCH  13  16
HETATM   16  N   UNL     1      -5.103   2.358 -33.361  1.00  0.00    -0.263 N 
HETATM   17  C   UNL     1      -4.812   1.221 -32.635  1.00  0.00     0.270 C 
HETATM   18  O   UNL     1      -4.277   1.264 -31.528  1.00  0.00    -0.266 OA
HETATM   19  H   UNL     1      -5.367   2.355 -34.344  1.00  0.00     0.190 HD
BRANCH  17  20
HETATM   20  C   UNL     1      -5.158  -0.085 -33.260  1.00  0.00     0.036 A 
HETATM   21  C   UNL     1      -4.326  -1.208 -33.124  1.00  0.00     0.051 A 
HETATM   22  C   UNL     1      -4.702  -2.398 -33.764  1.00  0.00     0.085 A 
HETATM   23  C   UNL     1      -5.871  -2.436 -34.514  1.00  0.00     0.062 A 
HETATM   24  N   UNL     1      -4.065  -3.614 -33.784  1.00  0.00    -0.242 NA
HETATM   25  N   UNL     1      -5.923  -3.722 -34.992  1.00  0.00    -0.349 N 
HETATM   26  C   UNL     1      -6.714  -1.337 -34.678  1.00  0.00     0.033 A 
HETATM   27  H   UNL     1      -6.643  -4.108 -35.586  1.00  0.00     0.167 HD
HETATM   28  C   UNL     1      -4.822  -4.387 -34.530  1.00  0.00     0.208 A 
HETATM   29  C   UNL     1      -6.327  -0.155 -34.035  1.00  0.00     0.019 A 
ENDBRANCH  17  20
ENDBRANCH  13  16
ENDBRANCH   3  12
BRANCH   1  30
HETATM   30  C   UNL     1      -1.176   7.422 -32.239  1.00  0.00     0.193 C 
BRANCH  30  31
HETATM   31  C   UNL     1      -0.470   6.703 -31.112  1.00  0.00    -0.038 A 
HETATM   32  C   UNL     1       0.062   5.421 -31.309  1.00  0.00     0.009 A 
HETATM   33  C   UNL     1       0.708   4.754 -30.266  1.00  0.00     0.001 A 
HETATM   34  C   UNL     1       0.820   5.359 -29.016  1.00  0.00     0.000 A 
HETATM   35  C   UNL     1       0.284   6.628 -28.805  1.00  0.00     0.001 A 
HETATM   36  C   UNL     1      -0.363   7.295 -29.846  1.00  0.00     0.009 A 
ENDBRANCH  30  31
ENDBRANCH   1  30
TORSDOF 5
ENDMDL
MODEL 7
REMARK VINA RESULT:      -9.3      5.319      8.510
REMARK  5 active torsions:
REMARK  status: ('A' for Active; 'I' for Inactive)
REMARK    1  A    between atoms: C_4  and  C_5 
REMARK    2  A    between atoms: C_5  and  N_6 
REMARK    3  A    between atoms: C_8  and  C_9 
REMARK       I    between atoms: C_9  and  N_10 
REMARK    4  A    between atoms: N_10  and  N_11 
REMARK       I    between atoms: N_11  and  C_12 
REMARK    5  A    between atoms: C_12  and  C_13 
ROOT
HETATM    1  N   UNL     1      -5.076   7.045 -31.412  1.00  0.00    -0.229 N 
HETATM    2  N   UNL     1      -5.526   5.866 -31.966  1.00  0.00    -0.163 NA
HETATM    3  C   UNL     1      -4.752   5.225 -32.793  1.00  0.00     0.157 A 
HETATM    4  C   UNL     1      -3.420   5.698 -33.201  1.00  0.00     0.016 A 
HETATM    5  C   UNL     1      -2.976   6.890 -32.640  1.00  0.00     0.046 A 
HETATM    6  C   UNL     1      -3.834   7.612 -31.682  1.00  0.00     0.275 A 
HETATM    7  O   UNL     1      -3.433   8.665 -31.191  1.00  0.00    -0.266 OA
HETATM    8  C   UNL     1      -2.616   5.027 -34.132  1.00  0.00     0.015 A 
HETATM    9  C   UNL     1      -1.367   5.551 -34.484  1.00  0.00     0.001 A 
HETATM   10  C   UNL     1      -0.922   6.742 -33.915  1.00  0.00     0.001 A 
HETATM   11  C   UNL     1      -1.725   7.413 -32.993  1.00  0.00     0.018 A 
ENDROOT
BRANCH   3  12
HETATM   12  C   UNL     1      -5.323   3.941 -33.375  1.00  0.00     0.291 C 
HETATM   13  N   UNL     1      -5.074   2.838 -32.590  1.00  0.00    -0.262 N 
HETATM   14  H   UNL     1      -4.396   2.870 -31.827  1.00  0.00     0.190 HD
HETATM   15  O   UNL     1      -5.941   3.935 -34.430  1.00  0.00    -0.264 OA
BRANCH  13  16
HETATM   16  N   UNL     1      -5.483   1.578 -33.033  1.00  0.00    -0.263 N 
HETATM   17  C   UNL     1      -4.567   0.547 -32.975  1.00  0.00     0.270 C 
HETATM   18  O   UNL     1      -3.427   0.701 -32.539  1.00  0.00    -0.266 OA
HETATM   19  H   UNL     1      -6.357   1.536 -33.554  1.00  0.00     0.190 HD
BRANCH  17  20
HETATM   20  C   UNL     1      -5.010  -0.778 -33.488  1.00  0.00     0.036 A 
HETATM   21  C   UNL     1      -4.175  -1.906 -33.431  1.00  0.00     0.051 A 
HETATM   22  C   UNL     1      -4.649  -3.114 -33.958  1.00  0.00     0.085 A 
HETATM   23  C   UNL     1      -5.918  -3.168 -34.525  1.00  0.00     0.062 A 
HETATM   24  N   UNL     1      -4.031  -4.339 -34.024  1.00  0.00    -0.242 NA
HETATM   25  N   UNL     1      -6.048  -4.471 -34.936  1.00  0.00    -0.349 N 
HETATM   26  C   UNL     1      -6.769  -2.066 -34.606  1.00  0.00     0.033 A 
HETATM   27  H   UNL     1      -6.851  -4.872 -35.400  1.00  0.00     0.167 HD
HETATM   28  C   UNL     1      -4.895  -5.131 -34.616  1.00  0.00     0.208 A 
HETATM   29  C   UNL     1      -6.283  -0.865 -34.077  1.00  0.00     0.019 A 
ENDBRANCH  17  20
ENDBRANCH  13  16
ENDBRANCH   3  12
BRANCH   1  30
HETATM   30  C   UNL     1      -5.966   7.692 -30.451  1.00  0.00     0.193 C 
BRANCH  30  31
HETATM   31  C   UNL     1      -5.482   7.541 -29.027  1.00  0.00    -0.038 A 
HETATM   32  C   UNL     1      -5.423   6.276 -28.426  1.00  0.00     0.009 A 
HETATM   33  C   UNL     1      -4.983   6.137 -27.108  1.00  0.00     0.001 A 
HETATM   34  C   UNL     1      -4.604   7.263 -26.378  1.00  0.00     0.000 A 
HETATM   35  C   UNL     1      -4.670   8.527 -26.962  1.00  0.00     0.001 A 
HETATM   36  C   UNL     1      -5.112   8.667 -28.278  1.00  0.00     0.009 A 
ENDBRANCH  30  31
ENDBRANCH   1  30
TORSDOF 5
ENDMDL
MODEL 8
REMARK VINA RESULT:      -9.2     15.451     17.627
REMARK  5 active torsions:
REMARK  status: ('A' for Active; 'I' for Inactive)
REMARK    1  A    between atoms: C_4  and  C_5 
REMARK    2  A    between atoms: C_5  and  N_6 
REMARK    3  A    between atoms: C_8  and  C_9 
REMARK       I    between atoms: C_9  and  N_10 
REMARK    4  A    between atoms: N_10  and  N_11 
REMARK       I    between atoms: N_11  and  C_12 
REMARK    5  A    between atoms: C_12  and  C_13 
ROOT
HETATM    1  N   UNL     1      -4.894 -12.426 -38.449  1.00  0.00    -0.229 N 
HETATM    2  N   UNL     1      -5.214 -13.229 -37.375  1.00  0.00    -0.163 NA
HETATM    3  C   UNL     1      -6.423 -13.701 -37.282  1.00  0.00     0.157 A 
HETATM    4  C   UNL     1      -7.494 -13.407 -38.248  1.00  0.00     0.016 A 
HETATM    5  C   UNL     1      -7.162 -12.594 -39.326  1.00  0.00     0.046 A 
HETATM    6  C   UNL     1      -5.788 -12.073 -39.455  1.00  0.00     0.275 A 
HETATM    7  O   UNL     1      -5.506 -11.355 -40.412  1.00  0.00    -0.266 OA
HETATM    8  C   UNL     1      -8.806 -13.877 -38.111  1.00  0.00     0.015 A 
HETATM    9  C   UNL     1      -9.773 -13.538 -39.062  1.00  0.00     0.001 A 
HETATM   10  C   UNL     1      -9.438 -12.729 -40.145  1.00  0.00     0.001 A 
HETATM   11  C   UNL     1      -8.133 -12.255 -40.279  1.00  0.00     0.018 A 
ENDROOT
BRANCH   3  12
HETATM   12  C   UNL     1      -6.705 -14.566 -36.062  1.00  0.00     0.291 C 
HETATM   13  N   UNL     1      -6.541 -13.889 -34.876  1.00  0.00    -0.262 N 
HETATM   14  H   UNL     1      -6.071 -12.983 -34.840  1.00  0.00     0.190 HD
HETATM   15  O   UNL     1      -7.049 -15.733 -36.171  1.00  0.00    -0.264 OA
BRANCH  13  16
HETATM   16  N   UNL     1      -6.702 -14.576 -33.670  1.00  0.00    -0.263 N 
HETATM   17  C   UNL     1      -5.579 -15.130 -33.090  1.00  0.00     0.270 C 
HETATM   18  O   UNL     1      -4.459 -15.025 -33.587  1.00  0.00    -0.266 OA
HETATM   19  H   UNL     1      -7.656 -14.800 -33.393  1.00  0.00     0.190 HD
BRANCH  17  20
HETATM   20  C   UNL     1      -5.779 -15.891 -31.826  1.00  0.00     0.036 A 
HETATM   21  C   UNL     1      -5.045 -15.595 -30.665  1.00  0.00     0.051 A 
HETATM   22  C   UNL     1      -5.268 -16.372 -29.520  1.00  0.00     0.085 A 
HETATM   23  C   UNL     1      -6.193 -17.409 -29.560  1.00  0.00     0.062 A 
HETATM   24  N   UNL     1      -4.682 -16.284 -28.281  1.00  0.00    -0.242 NA
HETATM   25  N   UNL     1      -6.149 -17.948 -28.298  1.00  0.00    -0.349 N 
HETATM   26  C   UNL     1      -6.931 -17.736 -30.697  1.00  0.00     0.033 A 
HETATM   27  H   UNL     1      -6.693 -18.732 -27.966  1.00  0.00     0.167 HD
HETATM   28  C   UNL     1      -5.231 -17.244 -27.571  1.00  0.00     0.208 A 
HETATM   29  C   UNL     1      -6.699 -16.953 -31.835  1.00  0.00     0.019 A 
ENDBRANCH  17  20
ENDBRANCH  13  16
ENDBRANCH   3  12
BRANCH   1  30
HETATM   30  C   UNL     1      -3.509 -11.970 -38.529  1.00  0.00     0.193 C 
BRANCH  30  31
HETATM   31  C   UNL     1      -2.537 -13.111 -38.721  1.00  0.00    -0.038 A 
HETATM   32  C   UNL     1      -2.650 -13.963 -39.829  1.00  0.00     0.009 A 
HETATM   33  C   UNL     1      -1.757 -15.021 -40.004  1.00  0.00     0.001 A 
HETATM   34  C   UNL     1      -0.748 -15.243 -39.068  1.00  0.00     0.000 A 
HETATM   35  C   UNL     1      -0.633 -14.410 -37.956  1.00  0.00     0.001 A 
HETATM   36  C   UNL     1      -1.527 -13.353 -37.780  1.00  0.00     0.009 A 
ENDBRANCH  30  31
ENDBRANCH   1  30
TORSDOF 5
ENDMDL
MODEL 9
REMARK VINA RESULT:      -9.2      3.399      9.851
REMARK  5 active torsions:
REMARK  status: ('A' for Active; 'I' for Inactive)
REMARK    1  A    between atoms: C_4  and  C_5 
REMARK    2  A    between atoms: C_5  and  N_6 
REMARK    3  A    between atoms: C_8  and  C_9 
REMARK       I    between atoms: C_9  and  N_10 
REMARK    4  A    between atoms: N_10  and  N_11 
REMARK       I    between atoms: N_11  and  C_12 
REMARK    5  A    between atoms: C_12  and  C_13 
ROOT
HETATM    1  N   UNL     1     -10.055   2.145 -33.980  1.00  0.00    -0.229 N 
HETATM    2  N   UNL     1      -8.978   2.920 -33.605  1.00  0.00    -0.163 NA
HETATM    3  C   UNL     1      -9.024   4.203 -33.817  1.00  0.00     0.157 A 
HETATM    4  C   UNL     1     -10.154   4.887 -34.463  1.00  0.00     0.016 A 
HETATM    5  C   UNL     1     -11.235   4.097 -34.841  1.00  0.00     0.046 A 
HETATM    6  C   UNL     1     -11.205   2.645 -34.584  1.00  0.00     0.275 A 
HETATM    7  O   UNL     1     -12.165   1.955 -34.921  1.00  0.00    -0.266 OA
HETATM    8  C   UNL     1     -10.172   6.261 -34.734  1.00  0.00     0.015 A 
HETATM    9  C   UNL     1     -11.277   6.835 -35.370  1.00  0.00     0.001 A 
HETATM   10  C   UNL     1     -12.361   6.043 -35.741  1.00  0.00     0.001 A 
HETATM   11  C   UNL     1     -12.342   4.674 -35.478  1.00  0.00     0.018 A 
ENDROOT
BRANCH   3  12
HETATM   12  C   UNL     1      -7.792   4.989 -33.391  1.00  0.00     0.291 C 
HETATM   13  N   UNL     1      -6.661   4.633 -34.087  1.00  0.00    -0.262 N 
HETATM   14  H   UNL     1      -6.631   3.786 -34.659  1.00  0.00     0.190 HD
HETATM   15  O   UNL     1      -7.849   5.847 -32.522  1.00  0.00    -0.264 OA
BRANCH  13  16
HETATM   16  N   UNL     1      -5.440   5.226 -33.757  1.00  0.00    -0.263 N 
HETATM   17  C   UNL     1      -4.520   4.463 -33.066  1.00  0.00     0.270 C 
HETATM   18  O   UNL     1      -4.735   3.293 -32.753  1.00  0.00    -0.266 OA
HETATM   19  H   UNL     1      -5.376   6.236 -33.865  1.00  0.00     0.190 HD
BRANCH  17  20
HETATM   20  C   UNL     1      -3.242   5.126 -32.689  1.00  0.00     0.036 A 
HETATM   21  C   UNL     1      -2.295   4.488 -31.871  1.00  0.00     0.051 A 
HETATM   22  C   UNL     1      -1.126   5.184 -31.535  1.00  0.00     0.085 A 
HETATM   23  C   UNL     1      -0.935   6.477 -32.009  1.00  0.00     0.062 A 
HETATM   24  N   UNL     1      -0.067   4.785 -30.758  1.00  0.00    -0.242 NA
HETATM   25  N   UNL     1       0.281   6.849 -31.491  1.00  0.00    -0.349 N 
HETATM   26  C   UNL     1      -1.857   7.144 -32.815  1.00  0.00     0.033 A 
HETATM   27  H   UNL     1       0.739   7.739 -31.627  1.00  0.00     0.167 HD
HETATM   28  C   UNL     1       0.760   5.805 -30.751  1.00  0.00     0.208 A 
HETATM   29  C   UNL     1      -3.021   6.438 -33.142  1.00  0.00     0.019 A 
ENDBRANCH  17  20
ENDBRANCH  13  16
ENDBRANCH   3  12
BRANCH   1  30
HETATM   30  C   UNL     1      -9.969   0.721 -33.670  1.00  0.00     0.193 C 
BRANCH  30  31
HETATM   31  C   UNL     1      -8.559   0.190 -33.789  1.00  0.00    -0.038 A 
HETATM   32  C   UNL     1      -7.794  -0.063 -32.641  1.00  0.00     0.009 A 
HETATM   33  C   UNL     1      -6.490  -0.546 -32.751  1.00  0.00     0.001 A 
HETATM   34  C   UNL     1      -5.935  -0.776 -34.009  1.00  0.00     0.000 A 
HETATM   35  C   UNL     1      -6.682  -0.516 -35.158  1.00  0.00     0.001 A 
HETATM   36  C   UNL     1      -7.985  -0.031 -35.049  1.00  0.00     0.009 A 
ENDBRANCH  30  31
ENDBRANCH   1  30
TORSDOF 5
ENDMDL
MODEL 10
REMARK VINA RESULT:      -9.0      3.197      9.383
REMARK  5 active torsions:
REMARK  status: ('A' for Active; 'I' for Inactive)
REMARK    1  A    between atoms: C_4  and  C_5 
REMARK    2  A    between atoms: C_5  and  N_6 
REMARK    3  A    between atoms: C_8  and  C_9 
REMARK       I    between atoms: C_9  and  N_10 
REMARK    4  A    between atoms: N_10  and  N_11 
REMARK       I    between atoms: N_11  and  C_12 
REMARK    5  A    between atoms: C_12  and  C_13 
ROOT
HETATM    1  N   UNL     1     -11.322   4.500 -32.841  1.00  0.00    -0.229 N 
HETATM    2  N   UNL     1     -10.540   3.367 -32.774  1.00  0.00    -0.163 NA
HETATM    3  C   UNL     1      -9.598   3.305 -31.879  1.00  0.00     0.157 A 
HETATM    4  C   UNL     1      -9.290   4.392 -30.938  1.00  0.00     0.016 A 
HETATM    5  C   UNL     1     -10.082   5.533 -31.014  1.00  0.00     0.046 A 
HETATM    6  C   UNL     1     -11.169   5.605 -32.008  1.00  0.00     0.275 A 
HETATM    7  O   UNL     1     -11.863   6.617 -32.068  1.00  0.00    -0.266 OA
HETATM    8  C   UNL     1      -8.240   4.337 -30.012  1.00  0.00     0.015 A 
HETATM    9  C   UNL     1      -7.999   5.421 -29.162  1.00  0.00     0.001 A 
HETATM   10  C   UNL     1      -8.798   6.561 -29.236  1.00  0.00     0.001 A 
HETATM   11  C   UNL     1      -9.839   6.619 -30.161  1.00  0.00     0.018 A 
ENDROOT
BRANCH   3  12
HETATM   12  C   UNL     1      -8.768   2.029 -31.877  1.00  0.00     0.291 C 
HETATM   13  N   UNL     1      -7.678   2.098 -32.713  1.00  0.00    -0.262 N 
HETATM   14  H   UNL     1      -7.584   2.842 -33.407  1.00  0.00     0.190 HD
HETATM   15  O   UNL     1      -9.069   1.070 -31.182  1.00  0.00    -0.264 OA
BRANCH  13  16
HETATM   16  N   UNL     1      -6.860   0.975 -32.863  1.00  0.00    -0.263 N 
HETATM   17  C   UNL     1      -7.110   0.135 -33.930  1.00  0.00     0.270 C 
HETATM   18  O   UNL     1      -8.006   0.351 -34.744  1.00  0.00    -0.266 OA
HETATM   19  H   UNL     1      -6.263   0.733 -32.075  1.00  0.00     0.190 HD
BRANCH  17  20
HETATM   20  C   UNL     1      -6.254  -1.077 -34.049  1.00  0.00     0.036 A 
HETATM   21  C   UNL     1      -6.779  -2.312 -34.463  1.00  0.00     0.051 A 
HETATM   22  C   UNL     1      -5.918  -3.416 -34.525  1.00  0.00     0.085 A 
HETATM   23  C   UNL     1      -4.581  -3.267 -34.175  1.00  0.00     0.062 A 
HETATM   24  N   UNL     1      -6.188  -4.711 -34.892  1.00  0.00    -0.242 NA
HETATM   25  N   UNL     1      -4.047  -4.521 -34.342  1.00  0.00    -0.349 N 
HETATM   26  C   UNL     1      -4.029  -2.059 -33.751  1.00  0.00     0.033 A 
HETATM   27  H   UNL     1      -3.088  -4.787 -34.172  1.00  0.00     0.167 HD
HETATM   28  C   UNL     1      -5.046  -5.349 -34.770  1.00  0.00     0.208 A 
HETATM   29  C   UNL     1      -4.900  -0.964 -33.691  1.00  0.00     0.019 A 
ENDBRANCH  17  20
ENDBRANCH  13  16
ENDBRANCH   3  12
BRANCH   1  30
HETATM   30  C   UNL     1     -12.396   4.491 -33.829  1.00  0.00     0.193 C 
BRANCH  30  31
HETATM   31  C   UNL     1     -13.328   3.314 -33.655  1.00  0.00    -0.038 A 
HETATM   32  C   UNL     1     -13.334   2.266 -34.588  1.00  0.00     0.009 A 
HETATM   33  C   UNL     1     -14.199   1.183 -34.431  1.00  0.00     0.001 A 
HETATM   34  C   UNL     1     -15.072   1.139 -33.345  1.00  0.00     0.000 A 
HETATM   35  C   UNL     1     -15.084   2.180 -32.419  1.00  0.00     0.001 A 
HETATM   36  C   UNL     1     -14.221   3.265 -32.575  1.00  0.00     0.009 A 
ENDBRANCH  30  31
ENDBRANCH   1  30
TORSDOF 5
ENDMDL
