MODEL 1
REMARK VINA RESULT:     -10.0      0.000      0.000
REMARK  5 active torsions:
REMARK  status: ('A' for Active; 'I' for Inactive)
REMARK    1  A    between atoms: C_5  and  C_6 
REMARK    2  A    between atoms: C_6  and  C_7 
REMARK       I    between atoms: C_7  and  N_8 
REMARK    3  A    between atoms: N_8  and  C_9 
REMARK    4  A    between atoms: N_10  and  C_11 
REMARK    5  A    between atoms: C_23  and  C_24 
ROOT
HETATM    1  C   UNL     1      -4.711   4.358 -31.592  1.00  0.00     0.152 C 
HETATM    2  N   UNL     1      -4.031   3.184 -31.908  1.00  0.00    -0.044 N 
HETATM    3  N   UNL     1      -2.672   3.343 -31.755  1.00  0.00    -0.148 NA
HETATM    4  C   UNL     1      -2.523   4.645 -31.482  1.00  0.00     0.115 C 
HETATM    5  C   UNL     1      -3.751   5.334 -31.456  1.00  0.00     0.087 C 
ENDROOT
BRANCH   1   6
HETATM    6  N   UNL     1      -6.083   4.506 -31.443  1.00  0.00    -0.311 N 
HETATM    7  C   UNL     1      -6.836   4.929 -32.533  1.00  0.00     0.227 C 
HETATM    8  O   UNL     1      -6.366   5.194 -33.641  1.00  0.00    -0.273 OA
HETATM    9  H   UNL     1      -6.548   3.870 -30.803  1.00  0.00     0.170 HD
BRANCH   7  10
HETATM   10  C   UNL     1      -8.333   5.042 -32.286  1.00  0.00     0.142 C 
BRANCH  10  11
HETATM   11  C   UNL     1      -9.218   4.173 -33.163  1.00  0.00    -0.038 A 
HETATM   12  C   UNL     1      -9.402   2.781 -32.923  1.00  0.00    -0.019 A 
HETATM   13  C   UNL     1     -10.289   2.059 -33.761  1.00  0.00    -0.025 A 
HETATM   14  C   UNL     1      -8.761   2.067 -31.882  1.00  0.00     0.013 A 
HETATM   15  C   UNL     1     -10.524   0.694 -33.529  1.00  0.00     0.012 A 
HETATM   16  C   UNL     1     -10.935   2.708 -34.822  1.00  0.00     0.012 A 
HETATM   17  C   UNL     1      -9.895   0.025 -32.481  1.00  0.00     0.001 A 
HETATM   18  C   UNL     1      -9.012   0.710 -31.659  1.00  0.00     0.001 A 
HETATM   19  C   UNL     1     -10.727   4.063 -35.064  1.00  0.00     0.001 A 
HETATM   20  C   UNL     1      -9.879   4.791 -34.239  1.00  0.00     0.008 A 
ENDBRANCH  10  11
ENDBRANCH   7  10
ENDBRANCH   1   6
BRANCH   2  21
HETATM   21  C   UNL     1      -4.511   1.969 -32.447  1.00  0.00     0.732 A 
HETATM   22  N   UNL     1      -5.436   1.874 -33.348  1.00  0.00    -0.067 NA
HETATM   23  C   UNL     1      -5.806   0.601 -33.718  1.00  0.00     0.065 A 
HETATM   24  C   UNL     1      -5.207  -0.521 -33.275  1.00  0.00     0.036 A 
HETATM   25  C   UNL     1      -6.987   0.534 -34.661  1.00  0.00     0.060 C 
HETATM   26  C   UNL     1      -5.638  -1.910 -33.635  1.00  0.00     0.046 C 
HETATM   27  C   UNL     1      -4.075  -0.372 -32.331  1.00  0.00     0.268 A 
HETATM   28  C   UNL     1      -7.042  -1.950 -34.241  1.00  0.00     0.005 C 
HETATM   29  C   UNL     1      -7.219  -0.847 -35.277  1.00  0.00     0.006 C 
HETATM   30  O   UNL     1      -3.410  -1.328 -31.947  1.00  0.00    -0.267 OA
HETATM   31  N   UNL     1      -3.834   0.900 -31.922  1.00  0.00    -0.152 N 
HETATM   32  H   UNL     1      -3.076   1.074 -31.271  1.00  0.00     0.188 HD
ENDBRANCH   2  21
BRANCH   4  33
HETATM   33  C   UNL     1      -1.196   5.264 -31.193  1.00  0.00     0.105 A 
HETATM   34  O   UNL     1      -0.160   4.617 -30.578  1.00  0.00    -0.320 OA
HETATM   35  C   UNL     1       0.885   5.483 -30.530  1.00  0.00     0.142 A 
HETATM   36  C   UNL     1       0.540   6.686 -31.097  1.00  0.00     0.027 A 
HETATM   37  C   UNL     1      -0.804   6.547 -31.521  1.00  0.00     0.041 A 
ENDBRANCH   4  33
TORSDOF 5
ENDMDL
MODEL 2
REMARK VINA RESULT:     -10.0      3.177      8.574
REMARK  5 active torsions:
REMARK  status: ('A' for Active; 'I' for Inactive)
REMARK    1  A    between atoms: C_5  and  C_6 
REMARK    2  A    between atoms: C_6  and  C_7 
REMARK       I    between atoms: C_7  and  N_8 
REMARK    3  A    between atoms: N_8  and  C_9 
REMARK    4  A    between atoms: N_10  and  C_11 
REMARK    5  A    between atoms: C_23  and  C_24 
ROOT
HETATM    1  C   UNL     1     -10.183   2.102 -34.234  1.00  0.00     0.152 C 
HETATM    2  N   UNL     1      -9.951   3.183 -33.386  1.00  0.00    -0.044 N 
HETATM    3  N   UNL     1     -11.099   3.540 -32.715  1.00  0.00    -0.148 NA
HETATM    4  C   UNL     1     -12.049   2.769 -33.257  1.00  0.00     0.115 C 
HETATM    5  C   UNL     1     -11.546   1.923 -34.264  1.00  0.00     0.087 C 
ENDROOT
BRANCH   1   6
HETATM    6  N   UNL     1      -9.225   1.359 -34.909  1.00  0.00    -0.311 N 
HETATM    7  C   UNL     1      -8.613   0.296 -34.254  1.00  0.00     0.227 C 
HETATM    8  O   UNL     1      -8.860  -0.039 -33.093  1.00  0.00    -0.273 OA
HETATM    9  H   UNL     1      -9.348   1.250 -35.911  1.00  0.00     0.170 HD
BRANCH   7  10
HETATM   10  C   UNL     1      -7.593  -0.477 -35.076  1.00  0.00     0.142 C 
BRANCH  10  11
HETATM   11  C   UNL     1      -6.317  -0.869 -34.352  1.00  0.00    -0.038 A 
HETATM   12  C   UNL     1      -5.818  -2.204 -34.348  1.00  0.00    -0.019 A 
HETATM   13  C   UNL     1      -4.590  -2.468 -33.690  1.00  0.00    -0.025 A 
HETATM   14  C   UNL     1      -6.470  -3.293 -34.975  1.00  0.00     0.013 A 
HETATM   15  C   UNL     1      -4.051  -3.765 -33.699  1.00  0.00     0.012 A 
HETATM   16  C   UNL     1      -3.911  -1.434 -33.032  1.00  0.00     0.012 A 
HETATM   17  C   UNL     1      -4.705  -4.810 -34.347  1.00  0.00     0.001 A 
HETATM   18  C   UNL     1      -5.916  -4.575 -34.982  1.00  0.00     0.001 A 
HETATM   19  C   UNL     1      -4.420  -0.138 -33.020  1.00  0.00     0.001 A 
HETATM   20  C   UNL     1      -5.611   0.144 -33.678  1.00  0.00     0.008 A 
ENDBRANCH  10  11
ENDBRANCH   7  10
ENDBRANCH   1   6
BRANCH   2  21
HETATM   21  C   UNL     1      -8.799   3.986 -33.226  1.00  0.00     0.732 A 
HETATM   22  N   UNL     1      -7.691   3.827 -33.878  1.00  0.00    -0.067 NA
HETATM   23  C   UNL     1      -6.660   4.680 -33.553  1.00  0.00     0.065 A 
HETATM   24  C   UNL     1      -6.767   5.703 -32.685  1.00  0.00     0.036 A 
HETATM   25  C   UNL     1      -5.344   4.366 -34.229  1.00  0.00     0.060 C 
HETATM   26  C   UNL     1      -5.635   6.602 -32.290  1.00  0.00     0.046 C 
HETATM   27  C   UNL     1      -8.083   5.928 -32.042  1.00  0.00     0.268 A 
HETATM   28  C   UNL     1      -4.269   6.023 -32.664  1.00  0.00     0.005 C 
HETATM   29  C   UNL     1      -4.286   5.462 -34.080  1.00  0.00     0.006 C 
HETATM   30  O   UNL     1      -8.302   6.887 -31.312  1.00  0.00    -0.267 OA
HETATM   31  N   UNL     1      -9.024   4.988 -32.320  1.00  0.00    -0.152 N 
HETATM   32  H   UNL     1      -9.947   5.077 -31.909  1.00  0.00     0.188 HD
ENDBRANCH   2  21
BRANCH   4  33
HETATM   33  C   UNL     1     -13.468   2.788 -32.794  1.00  0.00     0.105 A 
HETATM   34  O   UNL     1     -14.263   1.679 -32.698  1.00  0.00    -0.320 OA
HETATM   35  C   UNL     1     -15.462   2.084 -32.204  1.00  0.00     0.142 A 
HETATM   36  C   UNL     1     -15.459   3.440 -31.985  1.00  0.00     0.027 A 
HETATM   37  C   UNL     1     -14.175   3.896 -32.370  1.00  0.00     0.041 A 
ENDBRANCH   4  33
TORSDOF 5
ENDMDL
MODEL 3
REMARK VINA RESULT:      -9.8      2.600      7.519
REMARK  5 active torsions:
REMARK  status: ('A' for Active; 'I' for Inactive)
REMARK    1  A    between atoms: C_5  and  C_6 
REMARK    2  A    between atoms: C_6  and  C_7 
REMARK       I    between atoms: C_7  and  N_8 
REMARK    3  A    between atoms: N_8  and  C_9 
REMARK    4  A    between atoms: N_10  and  C_11 
REMARK    5  A    between atoms: C_23  and  C_24 
ROOT
HETATM    1  C   UNL     1      -9.312   3.105 -33.901  1.00  0.00     0.152 C 
HETATM    2  N   UNL     1      -8.467   4.213 -33.921  1.00  0.00    -0.044 N 
HETATM    3  N   UNL     1      -9.116   5.322 -34.416  1.00  0.00    -0.148 NA
HETATM    4  C   UNL     1     -10.303   4.853 -34.820  1.00  0.00     0.115 C 
HETATM    5  C   UNL     1     -10.438   3.468 -34.602  1.00  0.00     0.087 C 
ENDROOT
BRANCH   1   6
HETATM    6  N   UNL     1      -9.061   1.883 -33.292  1.00  0.00    -0.311 N 
HETATM    7  C   UNL     1      -8.326   0.926 -33.982  1.00  0.00     0.227 C 
HETATM    8  O   UNL     1      -7.876   1.082 -35.119  1.00  0.00    -0.273 OA
HETATM    9  H   UNL     1      -8.949   1.886 -32.283  1.00  0.00     0.170 HD
BRANCH   7  10
HETATM   10  C   UNL     1      -8.081  -0.374 -33.230  1.00  0.00     0.142 C 
BRANCH  10  11
HETATM   11  C   UNL     1      -6.761  -1.067 -33.516  1.00  0.00    -0.038 A 
HETATM   12  C   UNL     1      -5.569  -0.776 -32.791  1.00  0.00    -0.019 A 
HETATM   13  C   UNL     1      -4.395  -1.511 -33.091  1.00  0.00    -0.025 A 
HETATM   14  C   UNL     1      -5.485   0.201 -31.771  1.00  0.00     0.013 A 
HETATM   15  C   UNL     1      -3.213  -1.276 -32.369  1.00  0.00     0.012 A 
HETATM   16  C   UNL     1      -4.412  -2.476 -34.107  1.00  0.00     0.012 A 
HETATM   17  C   UNL     1      -3.169  -0.323 -31.353  1.00  0.00     0.001 A 
HETATM   18  C   UNL     1      -4.304   0.417 -31.056  1.00  0.00     0.001 A 
HETATM   19  C   UNL     1      -5.574  -2.735 -34.828  1.00  0.00     0.001 A 
HETATM   20  C   UNL     1      -6.741  -2.039 -34.533  1.00  0.00     0.008 A 
ENDBRANCH  10  11
ENDBRANCH   7  10
ENDBRANCH   1   6
BRANCH   2  21
HETATM   21  C   UNL     1      -7.086   4.312 -33.635  1.00  0.00     0.732 A 
HETATM   22  N   UNL     1      -6.191   4.757 -34.458  1.00  0.00    -0.067 NA
HETATM   23  C   UNL     1      -4.887   4.736 -34.018  1.00  0.00     0.065 A 
HETATM   24  C   UNL     1      -4.512   4.377 -32.776  1.00  0.00     0.036 A 
HETATM   25  C   UNL     1      -3.861   5.124 -35.060  1.00  0.00     0.060 C 
HETATM   26  C   UNL     1      -3.090   4.303 -32.307  1.00  0.00     0.046 C 
HETATM   27  C   UNL     1      -5.574   3.982 -31.821  1.00  0.00     0.268 A 
HETATM   28  C   UNL     1      -2.091   4.304 -33.465  1.00  0.00     0.005 C 
HETATM   29  C   UNL     1      -2.458   5.361 -34.499  1.00  0.00     0.006 C 
HETATM   30  O   UNL     1      -5.340   3.730 -30.645  1.00  0.00    -0.267 OA
HETATM   31  N   UNL     1      -6.824   3.918 -32.350  1.00  0.00    -0.152 N 
HETATM   32  H   UNL     1      -7.599   3.649 -31.753  1.00  0.00     0.188 HD
ENDBRANCH   2  21
BRANCH   4  33
HETATM   33  C   UNL     1     -11.367   5.730 -35.390  1.00  0.00     0.105 A 
HETATM   34  O   UNL     1     -12.646   5.321 -35.653  1.00  0.00    -0.320 OA
HETATM   35  C   UNL     1     -13.326   6.400 -36.120  1.00  0.00     0.142 A 
HETATM   36  C   UNL     1     -12.507   7.501 -36.172  1.00  0.00     0.027 A 
HETATM   37  C   UNL     1     -11.241   7.069 -35.706  1.00  0.00     0.041 A 
ENDBRANCH   4  33
TORSDOF 5
ENDMDL
MODEL 4
REMARK VINA RESULT:      -9.7      2.458      7.527
REMARK  5 active torsions:
REMARK  status: ('A' for Active; 'I' for Inactive)
REMARK    1  A    between atoms: C_5  and  C_6 
REMARK    2  A    between atoms: C_6  and  C_7 
REMARK       I    between atoms: C_7  and  N_8 
REMARK    3  A    between atoms: N_8  and  C_9 
REMARK    4  A    between atoms: N_10  and  C_11 
REMARK    5  A    between atoms: C_23  and  C_24 
ROOT
HETATM    1  C   UNL     1      -9.062   2.944 -33.966  1.00  0.00     0.152 C 
HETATM    2  N   UNL     1      -8.159   4.001 -33.876  1.00  0.00    -0.044 N 
HETATM    3  N   UNL     1      -8.742   5.184 -34.271  1.00  0.00    -0.148 NA
HETATM    4  C   UNL     1      -9.946   4.820 -34.726  1.00  0.00     0.115 C 
HETATM    5  C   UNL     1     -10.158   3.430 -34.639  1.00  0.00     0.087 C 
ENDROOT
BRANCH   1   6
HETATM    6  N   UNL     1      -8.885   1.659 -33.471  1.00  0.00    -0.311 N 
HETATM    7  C   UNL     1      -8.171   0.738 -34.230  1.00  0.00     0.227 C 
HETATM    8  O   UNL     1      -7.680   0.981 -35.334  1.00  0.00    -0.273 OA
HETATM    9  H   UNL     1      -8.804   1.561 -32.464  1.00  0.00     0.170 HD
BRANCH   7  10
HETATM   10  C   UNL     1      -8.007  -0.637 -33.601  1.00  0.00     0.142 C 
BRANCH  10  11
HETATM   11  C   UNL     1      -6.578  -1.121 -33.425  1.00  0.00    -0.038 A 
HETATM   12  C   UNL     1      -6.124  -2.371 -33.935  1.00  0.00    -0.019 A 
HETATM   13  C   UNL     1      -4.759  -2.716 -33.770  1.00  0.00    -0.025 A 
HETATM   14  C   UNL     1      -6.953  -3.294 -34.617  1.00  0.00     0.013 A 
HETATM   15  C   UNL     1      -4.269  -3.924 -34.295  1.00  0.00     0.012 A 
HETATM   16  C   UNL     1      -3.895  -1.852 -33.083  1.00  0.00     0.012 A 
HETATM   17  C   UNL     1      -5.107  -4.800 -34.982  1.00  0.00     0.001 A 
HETATM   18  C   UNL     1      -6.448  -4.486 -35.141  1.00  0.00     0.001 A 
HETATM   19  C   UNL     1      -4.355  -0.645 -32.565  1.00  0.00     0.001 A 
HETATM   20  C   UNL     1      -5.685  -0.279 -32.737  1.00  0.00     0.008 A 
ENDBRANCH  10  11
ENDBRANCH   7  10
ENDBRANCH   1   6
BRANCH   2  21
HETATM   21  C   UNL     1      -6.779   3.998 -33.570  1.00  0.00     0.732 A 
HETATM   22  N   UNL     1      -6.237   3.328 -32.604  1.00  0.00    -0.067 NA
HETATM   23  C   UNL     1      -4.880   3.487 -32.431  1.00  0.00     0.065 A 
HETATM   24  C   UNL     1      -4.092   4.208 -33.249  1.00  0.00     0.036 A 
HETATM   25  C   UNL     1      -4.316   2.804 -31.204  1.00  0.00     0.060 C 
HETATM   26  C   UNL     1      -2.624   4.426 -33.036  1.00  0.00     0.046 C 
HETATM   27  C   UNL     1      -4.726   4.871 -34.412  1.00  0.00     0.268 A 
HETATM   28  C   UNL     1      -2.180   4.077 -31.614  1.00  0.00     0.005 C 
HETATM   29  C   UNL     1      -2.787   2.754 -31.164  1.00  0.00     0.006 C 
HETATM   30  O   UNL     1      -4.076   5.469 -35.262  1.00  0.00    -0.267 OA
HETATM   31  N   UNL     1      -6.079   4.766 -34.463  1.00  0.00    -0.152 N 
HETATM   32  H   UNL     1      -6.579   5.200 -35.231  1.00  0.00     0.188 HD
ENDBRANCH   2  21
BRANCH   4  33
HETATM   33  C   UNL     1     -10.954   5.803 -35.222  1.00  0.00     0.105 A 
HETATM   34  O   UNL     1     -10.673   7.102 -35.545  1.00  0.00    -0.320 OA
HETATM   35  C   UNL     1     -11.824   7.665 -35.994  1.00  0.00     0.142 A 
HETATM   36  C   UNL     1     -12.852   6.753 -35.959  1.00  0.00     0.027 A 
HETATM   37  C   UNL     1     -12.293   5.553 -35.457  1.00  0.00     0.041 A 
ENDBRANCH   4  33
TORSDOF 5
ENDMDL
MODEL 5
REMARK VINA RESULT:      -9.6      2.506      7.336
REMARK  5 active torsions:
REMARK  status: ('A' for Active; 'I' for Inactive)
REMARK    1  A    between atoms: C_5  and  C_6 
REMARK    2  A    between atoms: C_6  and  C_7 
REMARK       I    between atoms: C_7  and  N_8 
REMARK    3  A    between atoms: N_8  and  C_9 
REMARK    4  A    between atoms: N_10  and  C_11 
REMARK    5  A    between atoms: C_23  and  C_24 
ROOT
HETATM    1  C   UNL     1      -8.779   3.245 -33.903  1.00  0.00     0.152 C 
HETATM    2  N   UNL     1      -8.019   4.412 -33.868  1.00  0.00    -0.044 N 
HETATM    3  N   UNL     1      -8.755   5.495 -34.293  1.00  0.00    -0.148 NA
HETATM    4  C   UNL     1      -9.909   4.963 -34.712  1.00  0.00     0.115 C 
HETATM    5  C   UNL     1      -9.939   3.561 -34.572  1.00  0.00     0.087 C 
ENDROOT
BRANCH   1   6
HETATM    6  N   UNL     1      -8.431   2.013 -33.366  1.00  0.00    -0.311 N 
HETATM    7  C   UNL     1      -8.722   1.754 -32.031  1.00  0.00     0.227 C 
HETATM    8  O   UNL     1      -9.272   2.556 -31.272  1.00  0.00    -0.273 OA
HETATM    9  H   UNL     1      -8.465   1.213 -33.991  1.00  0.00     0.170 HD
BRANCH   7  10
HETATM   10  C   UNL     1      -8.326   0.373 -31.534  1.00  0.00     0.142 C 
BRANCH  10  11
HETATM   11  C   UNL     1      -6.853   0.023 -31.649  1.00  0.00    -0.038 A 
HETATM   12  C   UNL     1      -6.345  -0.832 -32.669  1.00  0.00    -0.019 A 
HETATM   13  C   UNL     1      -4.947  -1.060 -32.731  1.00  0.00    -0.025 A 
HETATM   14  C   UNL     1      -7.153  -1.463 -33.645  1.00  0.00     0.013 A 
HETATM   15  C   UNL     1      -4.409  -1.867 -33.748  1.00  0.00     0.012 A 
HETATM   16  C   UNL     1      -4.099  -0.480 -31.778  1.00  0.00     0.012 A 
HETATM   17  C   UNL     1      -5.230  -2.455 -34.708  1.00  0.00     0.001 A 
HETATM   18  C   UNL     1      -6.602  -2.255 -34.655  1.00  0.00     0.001 A 
HETATM   19  C   UNL     1      -4.608   0.332 -30.768  1.00  0.00     0.001 A 
HETATM   20  C   UNL     1      -5.973   0.585 -30.706  1.00  0.00     0.008 A 
ENDBRANCH  10  11
ENDBRANCH   7  10
ENDBRANCH   1   6
BRANCH   2  21
HETATM   21  C   UNL     1      -6.646   4.597 -33.590  1.00  0.00     0.732 A 
HETATM   22  N   UNL     1      -5.752   4.931 -34.466  1.00  0.00    -0.067 NA
HETATM   23  C   UNL     1      -4.454   5.021 -34.017  1.00  0.00     0.065 A 
HETATM   24  C   UNL     1      -4.086   4.877 -32.730  1.00  0.00     0.036 A 
HETATM   25  C   UNL     1      -3.426   5.267 -35.099  1.00  0.00     0.060 C 
HETATM   26  C   UNL     1      -2.669   4.922 -32.244  1.00  0.00     0.046 C 
HETATM   27  C   UNL     1      -5.150   4.608 -31.734  1.00  0.00     0.268 A 
HETATM   28  C   UNL     1      -1.655   4.768 -33.378  1.00  0.00     0.005 C 
HETATM   29  C   UNL     1      -2.037   5.633 -34.572  1.00  0.00     0.006 C 
HETATM   30  O   UNL     1      -4.924   4.555 -30.530  1.00  0.00    -0.267 OA
HETATM   31  N   UNL     1      -6.390   4.423 -32.256  1.00  0.00    -0.152 N 
HETATM   32  H   UNL     1      -7.165   4.230 -31.631  1.00  0.00     0.188 HD
ENDBRANCH   2  21
BRANCH   4  33
HETATM   33  C   UNL     1     -11.043   5.789 -35.222  1.00  0.00     0.105 A 
HETATM   34  O   UNL     1     -12.295   5.304 -35.483  1.00  0.00    -0.320 OA
HETATM   35  C   UNL     1     -13.058   6.353 -35.886  1.00  0.00     0.142 A 
HETATM   36  C   UNL     1     -12.318   7.510 -35.899  1.00  0.00     0.027 A 
HETATM   37  C   UNL     1     -11.016   7.147 -35.476  1.00  0.00     0.041 A 
ENDBRANCH   4  33
TORSDOF 5
ENDMDL
MODEL 6
REMARK VINA RESULT:      -9.4      2.999      8.407
REMARK  5 active torsions:
REMARK  status: ('A' for Active; 'I' for Inactive)
REMARK    1  A    between atoms: C_5  and  C_6 
REMARK    2  A    between atoms: C_6  and  C_7 
REMARK       I    between atoms: C_7  and  N_8 
REMARK    3  A    between atoms: N_8  and  C_9 
REMARK    4  A    between atoms: N_10  and  C_11 
REMARK    5  A    between atoms: C_23  and  C_24 
ROOT
HETATM    1  C   UNL     1      -9.869   1.801 -34.185  1.00  0.00     0.152 C 
HETATM    2  N   UNL     1      -9.719   2.690 -33.123  1.00  0.00    -0.044 N 
HETATM    3  N   UNL     1     -10.928   2.941 -32.514  1.00  0.00    -0.148 NA
HETATM    4  C   UNL     1     -11.822   2.315 -33.289  1.00  0.00     0.115 C 
HETATM    5  C   UNL     1     -11.223   1.667 -34.387  1.00  0.00     0.087 C 
ENDROOT
BRANCH   1   6
HETATM    6  N   UNL     1      -8.851   1.178 -34.893  1.00  0.00    -0.311 N 
HETATM    7  C   UNL     1      -8.231   0.063 -34.339  1.00  0.00     0.227 C 
HETATM    8  O   UNL     1      -8.521  -0.420 -33.243  1.00  0.00    -0.273 OA
HETATM    9  H   UNL     1      -8.920   1.190 -35.906  1.00  0.00     0.170 HD
BRANCH   7  10
HETATM   10  C   UNL     1      -7.143  -0.569 -35.193  1.00  0.00     0.142 C 
BRANCH  10  11
HETATM   11  C   UNL     1      -5.970  -1.169 -34.438  1.00  0.00    -0.038 A 
HETATM   12  C   UNL     1      -5.166  -0.406 -33.542  1.00  0.00    -0.019 A 
HETATM   13  C   UNL     1      -4.124  -1.062 -32.839  1.00  0.00    -0.025 A 
HETATM   14  C   UNL     1      -5.350   0.975 -33.296  1.00  0.00     0.013 A 
HETATM   15  C   UNL     1      -3.337  -0.349 -31.919  1.00  0.00     0.012 A 
HETATM   16  C   UNL     1      -3.879  -2.424 -33.058  1.00  0.00     0.012 A 
HETATM   17  C   UNL     1      -3.560   1.006 -31.682  1.00  0.00     0.001 A 
HETATM   18  C   UNL     1      -4.564   1.668 -32.371  1.00  0.00     0.001 A 
HETATM   19  C   UNL     1      -4.654  -3.155 -33.956  1.00  0.00     0.001 A 
HETATM   20  C   UNL     1      -5.693  -2.534 -34.637  1.00  0.00     0.008 A 
ENDBRANCH  10  11
ENDBRANCH   7  10
ENDBRANCH   1   6
BRANCH   2  21
HETATM   21  C   UNL     1      -8.585   3.416 -32.694  1.00  0.00     0.732 A 
HETATM   22  N   UNL     1      -7.693   3.926 -33.482  1.00  0.00    -0.067 NA
HETATM   23  C   UNL     1      -6.631   4.561 -32.877  1.00  0.00     0.065 A 
HETATM   24  C   UNL     1      -6.521   4.758 -31.550  1.00  0.00     0.036 A 
HETATM   25  C   UNL     1      -5.541   5.012 -33.825  1.00  0.00     0.060 C 
HETATM   26  C   UNL     1      -5.344   5.403 -30.883  1.00  0.00     0.046 C 
HETATM   27  C   UNL     1      -7.617   4.261 -30.685  1.00  0.00     0.268 A 
HETATM   28  C   UNL     1      -4.119   5.473 -31.797  1.00  0.00     0.005 C 
HETATM   29  C   UNL     1      -4.508   5.946 -33.192  1.00  0.00     0.006 C 
HETATM   30  O   UNL     1      -7.651   4.475 -29.479  1.00  0.00    -0.267 OA
HETATM   31  N   UNL     1      -8.577   3.549 -31.331  1.00  0.00    -0.152 N 
HETATM   32  H   UNL     1      -9.355   3.175 -30.799  1.00  0.00     0.188 HD
ENDBRANCH   2  21
BRANCH   4  33
HETATM   33  C   UNL     1     -13.281   2.282 -32.976  1.00  0.00     0.105 A 
HETATM   34  O   UNL     1     -13.924   3.200 -32.192  1.00  0.00    -0.320 OA
HETATM   35  C   UNL     1     -15.240   2.865 -32.176  1.00  0.00     0.142 A 
HETATM   36  C   UNL     1     -15.460   1.739 -32.931  1.00  0.00     0.027 A 
HETATM   37  C   UNL     1     -14.196   1.359 -33.444  1.00  0.00     0.041 A 
ENDBRANCH   4  33
TORSDOF 5
ENDMDL
MODEL 7
REMARK VINA RESULT:      -9.3      2.651      6.450
REMARK  5 active torsions:
REMARK  status: ('A' for Active; 'I' for Inactive)
REMARK    1  A    between atoms: C_5  and  C_6 
REMARK    2  A    between atoms: C_6  and  C_7 
REMARK       I    between atoms: C_7  and  N_8 
REMARK    3  A    between atoms: N_8  and  C_9 
REMARK    4  A    between atoms: N_10  and  C_11 
REMARK    5  A    between atoms: C_23  and  C_24 
ROOT
HETATM    1  C   UNL     1      -7.373   0.280 -34.503  1.00  0.00     0.152 C 
HETATM    2  N   UNL     1      -6.136   0.628 -33.964  1.00  0.00    -0.044 N 
HETATM    3  N   UNL     1      -5.301  -0.465 -33.898  1.00  0.00    -0.148 NA
HETATM    4  C   UNL     1      -6.075  -1.492 -34.267  1.00  0.00     0.115 C 
HETATM    5  C   UNL     1      -7.392  -1.094 -34.568  1.00  0.00     0.087 C 
ENDROOT
BRANCH   1   6
HETATM    6  N   UNL     1      -8.379   1.152 -34.897  1.00  0.00    -0.311 N 
HETATM    7  C   UNL     1      -9.491   1.310 -34.076  1.00  0.00     0.227 C 
HETATM    8  O   UNL     1      -9.655   0.718 -33.007  1.00  0.00    -0.273 OA
HETATM    9  H   UNL     1      -8.098   1.972 -35.425  1.00  0.00     0.170 HD
BRANCH   7  10
HETATM   10  C   UNL     1     -10.532   2.300 -34.574  1.00  0.00     0.142 C 
BRANCH  10  11
HETATM   11  C   UNL     1     -11.952   2.072 -34.085  1.00  0.00    -0.038 A 
HETATM   12  C   UNL     1     -12.502   2.775 -32.974  1.00  0.00    -0.019 A 
HETATM   13  C   UNL     1     -13.855   2.536 -32.622  1.00  0.00    -0.025 A 
HETATM   14  C   UNL     1     -11.782   3.715 -32.199  1.00  0.00     0.013 A 
HETATM   15  C   UNL     1     -14.440   3.240 -31.556  1.00  0.00     0.012 A 
HETATM   16  C   UNL     1     -14.611   1.599 -33.338  1.00  0.00     0.012 A 
HETATM   17  C   UNL     1     -13.710   4.178 -30.828  1.00  0.00     0.001 A 
HETATM   18  C   UNL     1     -12.381   4.413 -31.148  1.00  0.00     0.001 A 
HETATM   19  C   UNL     1     -14.056   0.899 -34.406  1.00  0.00     0.001 A 
HETATM   20  C   UNL     1     -12.739   1.135 -34.779  1.00  0.00     0.008 A 
ENDBRANCH  10  11
ENDBRANCH   7  10
ENDBRANCH   1   6
BRANCH   2  21
HETATM   21  C   UNL     1      -5.697   1.847 -33.399  1.00  0.00     0.732 A 
HETATM   22  N   UNL     1      -6.309   2.982 -33.524  1.00  0.00    -0.067 NA
HETATM   23  C   UNL     1      -5.705   4.073 -32.941  1.00  0.00     0.065 A 
HETATM   24  C   UNL     1      -4.591   4.009 -32.186  1.00  0.00     0.036 A 
HETATM   25  C   UNL     1      -6.372   5.398 -33.235  1.00  0.00     0.060 C 
HETATM   26  C   UNL     1      -3.901   5.199 -31.592  1.00  0.00     0.046 C 
HETATM   27  C   UNL     1      -3.980   2.676 -31.968  1.00  0.00     0.268 A 
HETATM   28  C   UNL     1      -4.351   6.515 -32.227  1.00  0.00     0.005 C 
HETATM   29  C   UNL     1      -5.867   6.558 -32.375  1.00  0.00     0.006 C 
HETATM   30  O   UNL     1      -3.023   2.507 -31.222  1.00  0.00    -0.267 OA
HETATM   31  N   UNL     1      -4.560   1.661 -32.660  1.00  0.00    -0.152 N 
HETATM   32  H   UNL     1      -4.189   0.722 -32.561  1.00  0.00     0.188 HD
ENDBRANCH   2  21
BRANCH   4  33
HETATM   33  C   UNL     1      -5.564  -2.889 -34.385  1.00  0.00     0.105 A 
HETATM   34  O   UNL     1      -4.337  -3.302 -33.942  1.00  0.00    -0.320 OA
HETATM   35  C   UNL     1      -4.249  -4.636 -34.184  1.00  0.00     0.142 A 
HETATM   36  C   UNL     1      -5.396  -5.093 -34.785  1.00  0.00     0.027 A 
HETATM   37  C   UNL     1      -6.243  -3.966 -34.920  1.00  0.00     0.041 A 
ENDBRANCH   4  33
TORSDOF 5
ENDMDL
MODEL 8
REMARK VINA RESULT:      -9.2      2.738      6.483
REMARK  5 active torsions:
REMARK  status: ('A' for Active; 'I' for Inactive)
REMARK    1  A    between atoms: C_5  and  C_6 
REMARK    2  A    between atoms: C_6  and  C_7 
REMARK       I    between atoms: C_7  and  N_8 
REMARK    3  A    between atoms: N_8  and  C_9 
REMARK    4  A    between atoms: N_10  and  C_11 
REMARK    5  A    between atoms: C_23  and  C_24 
ROOT
HETATM    1  C   UNL     1      -7.515   0.032 -34.539  1.00  0.00     0.152 C 
HETATM    2  N   UNL     1      -6.326   0.503 -33.987  1.00  0.00    -0.044 N 
HETATM    3  N   UNL     1      -5.390  -0.503 -33.895  1.00  0.00    -0.148 NA
HETATM    4  C   UNL     1      -6.056  -1.604 -34.261  1.00  0.00     0.115 C 
HETATM    5  C   UNL     1      -7.401  -1.338 -34.586  1.00  0.00     0.087 C 
ENDROOT
BRANCH   1   6
HETATM    6  N   UNL     1      -8.594   0.797 -34.958  1.00  0.00    -0.311 N 
HETATM    7  C   UNL     1      -9.685   0.944 -34.107  1.00  0.00     0.227 C 
HETATM    8  O   UNL     1      -9.768   0.431 -32.989  1.00  0.00    -0.273 OA
HETATM    9  H   UNL     1      -8.391   1.589 -35.560  1.00  0.00     0.170 HD
BRANCH   7  10
HETATM   10  C   UNL     1     -10.812   1.817 -34.638  1.00  0.00     0.142 C 
BRANCH  10  11
HETATM   11  C   UNL     1     -11.608   2.581 -33.594  1.00  0.00    -0.038 A 
HETATM   12  C   UNL     1     -12.988   2.327 -33.346  1.00  0.00    -0.019 A 
HETATM   13  C   UNL     1     -13.637   3.052 -32.315  1.00  0.00    -0.025 A 
HETATM   14  C   UNL     1     -13.757   1.377 -34.060  1.00  0.00     0.013 A 
HETATM   15  C   UNL     1     -14.986   2.799 -32.018  1.00  0.00     0.012 A 
HETATM   16  C   UNL     1     -12.932   4.022 -31.588  1.00  0.00     0.012 A 
HETATM   17  C   UNL     1     -15.710   1.840 -32.724  1.00  0.00     0.001 A 
HETATM   18  C   UNL     1     -15.096   1.132 -33.746  1.00  0.00     0.001 A 
HETATM   19  C   UNL     1     -11.591   4.281 -31.857  1.00  0.00     0.001 A 
HETATM   20  C   UNL     1     -10.932   3.565 -32.849  1.00  0.00     0.008 A 
ENDBRANCH  10  11
ENDBRANCH   7  10
ENDBRANCH   1   6
BRANCH   2  21
HETATM   21  C   UNL     1      -6.015   1.766 -33.432  1.00  0.00     0.732 A 
HETATM   22  N   UNL     1      -6.696   2.849 -33.634  1.00  0.00    -0.067 NA
HETATM   23  C   UNL     1      -6.213   3.996 -33.045  1.00  0.00     0.065 A 
HETATM   24  C   UNL     1      -5.153   4.034 -32.216  1.00  0.00     0.036 A 
HETATM   25  C   UNL     1      -6.951   5.260 -33.425  1.00  0.00     0.060 C 
HETATM   26  C   UNL     1      -4.592   5.287 -31.614  1.00  0.00     0.046 C 
HETATM   27  C   UNL     1      -4.465   2.756 -31.916  1.00  0.00     0.268 A 
HETATM   28  C   UNL     1      -5.089   6.550 -32.319  1.00  0.00     0.005 C 
HETATM   29  C   UNL     1      -6.590   6.477 -32.570  1.00  0.00     0.006 C 
HETATM   30  O   UNL     1      -3.552   2.677 -31.102  1.00  0.00    -0.267 OA
HETATM   31  N   UNL     1      -4.921   1.683 -32.613  1.00  0.00    -0.152 N 
HETATM   32  H   UNL     1      -4.492   0.777 -32.460  1.00  0.00     0.188 HD
ENDBRANCH   2  21
BRANCH   4  33
HETATM   33  C   UNL     1      -5.410  -2.946 -34.353  1.00  0.00     0.105 A 
HETATM   34  O   UNL     1      -4.160  -3.237 -33.879  1.00  0.00    -0.320 OA
HETATM   35  C   UNL     1      -3.939  -4.557 -34.105  1.00  0.00     0.142 A 
HETATM   36  C   UNL     1      -5.024  -5.128 -34.726  1.00  0.00     0.027 A 
HETATM   37  C   UNL     1      -5.972  -4.089 -34.891  1.00  0.00     0.041 A 
ENDBRANCH   4  33
TORSDOF 5
ENDMDL
MODEL 9
REMARK VINA RESULT:      -9.0      1.948      5.879
REMARK  5 active torsions:
REMARK  status: ('A' for Active; 'I' for Inactive)
REMARK    1  A    between atoms: C_5  and  C_6 
REMARK    2  A    between atoms: C_6  and  C_7 
REMARK       I    between atoms: C_7  and  N_8 
REMARK    3  A    between atoms: N_8  and  C_9 
REMARK    4  A    between atoms: N_10  and  C_11 
REMARK    5  A    between atoms: C_23  and  C_24 
ROOT
HETATM    1  C   UNL     1      -5.381   1.501 -31.920  1.00  0.00     0.152 C 
HETATM    2  N   UNL     1      -4.116   1.828 -32.403  1.00  0.00    -0.044 N 
HETATM    3  N   UNL     1      -3.401   0.695 -32.723  1.00  0.00    -0.148 NA
HETATM    4  C   UNL     1      -4.177  -0.311 -32.305  1.00  0.00     0.115 C 
HETATM    5  C   UNL     1      -5.377   0.140 -31.721  1.00  0.00     0.087 C 
ENDROOT
BRANCH   1   6
HETATM    6  N   UNL     1      -6.431   2.378 -31.688  1.00  0.00    -0.311 N 
HETATM    7  C   UNL     1      -7.181   2.830 -32.769  1.00  0.00     0.227 C 
HETATM    8  O   UNL     1      -6.975   2.507 -33.941  1.00  0.00    -0.273 OA
HETATM    9  H   UNL     1      -6.934   2.274 -30.812  1.00  0.00     0.170 HD
BRANCH   7  10
HETATM   10  C   UNL     1      -8.325   3.770 -32.421  1.00  0.00     0.142 C 
BRANCH  10  11
HETATM   11  C   UNL     1      -9.307   4.065 -33.541  1.00  0.00    -0.038 A 
HETATM   12  C   UNL     1     -10.330   3.149 -33.924  1.00  0.00    -0.019 A 
HETATM   13  C   UNL     1     -11.235   3.532 -34.946  1.00  0.00    -0.025 A 
HETATM   14  C   UNL     1     -10.511   1.875 -33.335  1.00  0.00     0.013 A 
HETATM   15  C   UNL     1     -12.279   2.669 -35.321  1.00  0.00     0.012 A 
HETATM   16  C   UNL     1     -11.092   4.772 -35.582  1.00  0.00     0.012 A 
HETATM   17  C   UNL     1     -12.444   1.431 -34.704  1.00  0.00     0.001 A 
HETATM   18  C   UNL     1     -11.559   1.033 -33.713  1.00  0.00     0.001 A 
HETATM   19  C   UNL     1     -10.072   5.648 -35.219  1.00  0.00     0.001 A 
HETATM   20  C   UNL     1      -9.189   5.300 -34.204  1.00  0.00     0.008 A 
ENDBRANCH  10  11
ENDBRANCH   7  10
ENDBRANCH   1   6
BRANCH   2  21
HETATM   21  C   UNL     1      -3.467   3.081 -32.488  1.00  0.00     0.732 A 
HETATM   22  N   UNL     1      -2.471   3.449 -31.747  1.00  0.00    -0.067 NA
HETATM   23  C   UNL     1      -1.999   4.727 -31.944  1.00  0.00     0.065 A 
HETATM   24  C   UNL     1      -2.442   5.560 -32.904  1.00  0.00     0.036 A 
HETATM   25  C   UNL     1      -0.937   5.167 -30.960  1.00  0.00     0.060 C 
HETATM   26  C   UNL     1      -1.967   6.969 -33.090  1.00  0.00     0.046 C 
HETATM   27  C   UNL     1      -3.505   5.064 -33.810  1.00  0.00     0.268 A 
HETATM   28  C   UNL     1      -1.219   7.501 -31.867  1.00  0.00     0.005 C 
HETATM   29  C   UNL     1      -0.229   6.468 -31.343  1.00  0.00     0.006 C 
HETATM   30  O   UNL     1      -3.905   5.713 -34.770  1.00  0.00    -0.267 OA
HETATM   31  N   UNL     1      -4.003   3.841 -33.494  1.00  0.00    -0.152 N 
HETATM   32  H   UNL     1      -4.737   3.443 -34.069  1.00  0.00     0.188 HD
ENDBRANCH   2  21
BRANCH   4  33
HETATM   33  C   UNL     1      -3.812  -1.746 -32.493  1.00  0.00     0.105 A 
HETATM   34  O   UNL     1      -3.062  -2.474 -31.611  1.00  0.00    -0.320 OA
HETATM   35  C   UNL     1      -2.979  -3.739 -32.099  1.00  0.00     0.142 A 
HETATM   36  C   UNL     1      -3.658  -3.842 -33.289  1.00  0.00     0.027 A 
HETATM   37  C   UNL     1      -4.192  -2.555 -33.547  1.00  0.00     0.041 A 
ENDBRANCH   4  33
TORSDOF 5
ENDMDL
MODEL 10
REMARK VINA RESULT:      -8.9      2.342      7.402
REMARK  5 active torsions:
REMARK  status: ('A' for Active; 'I' for Inactive)
REMARK    1  A    between atoms: C_5  and  C_6 
REMARK    2  A    between atoms: C_6  and  C_7 
REMARK       I    between atoms: C_7  and  N_8 
REMARK    3  A    between atoms: N_8  and  C_9 
REMARK    4  A    between atoms: N_10  and  C_11 
REMARK    5  A    between atoms: C_23  and  C_24 
ROOT
HETATM    1  C   UNL     1      -7.706   1.584 -32.613  1.00  0.00     0.152 C 
HETATM    2  N   UNL     1      -7.823   0.547 -33.535  1.00  0.00    -0.044 N 
HETATM    3  N   UNL     1      -9.026   0.609 -34.201  1.00  0.00    -0.148 NA
HETATM    4  C   UNL     1      -9.690   1.595 -33.586  1.00  0.00     0.115 C 
HETATM    5  C   UNL     1      -8.947   2.173 -32.537  1.00  0.00     0.087 C 
ENDROOT
BRANCH   1   6
HETATM    6  N   UNL     1      -6.563   1.946 -31.913  1.00  0.00    -0.311 N 
HETATM    7  C   UNL     1      -5.673   2.841 -32.497  1.00  0.00     0.227 C 
HETATM    8  O   UNL     1      -5.824   3.342 -33.613  1.00  0.00    -0.273 OA
HETATM    9  H   UNL     1      -6.637   1.990 -30.902  1.00  0.00     0.170 HD
BRANCH   7  10
HETATM   10  C   UNL     1      -4.461   3.199 -31.651  1.00  0.00     0.142 C 
BRANCH  10  11
HETATM   11  C   UNL     1      -4.121   4.677 -31.570  1.00  0.00    -0.038 A 
HETATM   12  C   UNL     1      -3.152   5.288 -32.417  1.00  0.00    -0.019 A 
HETATM   13  C   UNL     1      -2.938   6.685 -32.306  1.00  0.00    -0.025 A 
HETATM   14  C   UNL     1      -2.391   4.586 -33.382  1.00  0.00     0.013 A 
HETATM   15  C   UNL     1      -2.018   7.326 -33.153  1.00  0.00     0.012 A 
HETATM   16  C   UNL     1      -3.646   7.430 -31.354  1.00  0.00     0.012 A 
HETATM   17  C   UNL     1      -1.302   6.610 -34.110  1.00  0.00     0.001 A 
HETATM   18  C   UNL     1      -1.487   5.240 -34.222  1.00  0.00     0.001 A 
HETATM   19  C   UNL     1      -4.571   6.819 -30.512  1.00  0.00     0.001 A 
HETATM   20  C   UNL     1      -4.810   5.454 -30.621  1.00  0.00     0.008 A 
ENDBRANCH  10  11
ENDBRANCH   7  10
ENDBRANCH   1   6
BRANCH   2  21
HETATM   21  C   UNL     1      -6.976  -0.559 -33.776  1.00  0.00     0.732 A 
HETATM   22  N   UNL     1      -7.360  -1.686 -34.286  1.00  0.00    -0.067 NA
HETATM   23  C   UNL     1      -6.399  -2.666 -34.403  1.00  0.00     0.065 A 
HETATM   24  C   UNL     1      -5.097  -2.489 -34.113  1.00  0.00     0.036 A 
HETATM   25  C   UNL     1      -6.920  -4.010 -34.863  1.00  0.00     0.060 C 
HETATM   26  C   UNL     1      -4.057  -3.566 -34.190  1.00  0.00     0.046 C 
HETATM   27  C   UNL     1      -4.670  -1.151 -33.640  1.00  0.00     0.268 A 
HETATM   28  C   UNL     1      -4.668  -4.966 -34.260  1.00  0.00     0.005 C 
HETATM   29  C   UNL     1      -5.825  -5.006 -35.250  1.00  0.00     0.006 C 
HETATM   30  O   UNL     1      -3.495  -0.868 -33.441  1.00  0.00    -0.267 OA
HETATM   31  N   UNL     1      -5.681  -0.265 -33.441  1.00  0.00    -0.152 N 
HETATM   32  H   UNL     1      -5.461   0.669 -33.113  1.00  0.00     0.188 HD
ENDBRANCH   2  21
BRANCH   4  33
HETATM   33  C   UNL     1     -11.046   2.047 -34.014  1.00  0.00     0.105 A 
HETATM   34  O   UNL     1     -11.314   3.269 -34.568  1.00  0.00    -0.320 OA
HETATM   35  C   UNL     1     -12.639   3.297 -34.863  1.00  0.00     0.142 A 
HETATM   36  C   UNL     1     -13.238   2.115 -34.502  1.00  0.00     0.027 A 
HETATM   37  C   UNL     1     -12.213   1.309 -33.950  1.00  0.00     0.041 A 
ENDBRANCH   4  33
TORSDOF 5
ENDMDL
