MODEL 1
REMARK VINA RESULT:      -9.9      0.000      0.000
REMARK  7 active torsions:
REMARK  status: ('A' for Active; 'I' for Inactive)
REMARK    1  A    between atoms: O_2  and  C_3 
REMARK    2  A    between atoms: C_5  and  C_6 
REMARK    3  A    between atoms: C_10  and  C_11 
REMARK    4  A    between atoms: C_10  and  C_15 
REMARK    5  A    between atoms: N_19  and  C_20 
REMARK    6  A    between atoms: C_20  and  C_21 
REMARK    7  A    between atoms: C_21  and  C_22 
ROOT
HETATM    1  C   UNL     1      -5.548  -0.363 -32.835  1.00  0.00     0.114 C 
HETATM    2  N   UNL     1      -4.970   0.764 -32.467  1.00  0.00    -0.327 N 
HETATM    3  C   UNL     1      -5.657   1.950 -32.320  1.00  0.00     0.128 A 
HETATM    4  C   UNL     1      -6.960   1.989 -32.631  1.00  0.00     0.100 A 
HETATM    5  C   UNL     1      -7.729   0.831 -33.218  1.00  0.00     0.264 C 
HETATM    6  N   UNL     1      -4.992   3.075 -31.860  1.00  0.00    -0.284 N 
HETATM    7  C   UNL     1      -5.653   4.283 -31.650  1.00  0.00     0.331 A 
HETATM    8  O   UNL     1      -5.116   5.294 -31.214  1.00  0.00    -0.246 OA
HETATM    9  N   UNL     1      -6.979   4.295 -31.955  1.00  0.00    -0.275 N 
HETATM   10  C   UNL     1      -7.689   3.245 -32.424  1.00  0.00     0.262 A 
HETATM   11  O   UNL     1      -8.882   3.304 -32.663  1.00  0.00    -0.267 OA
HETATM   12  N   UNL     1      -6.825  -0.400 -33.142  1.00  0.00    -0.347 N 
HETATM   13  H   UNL     1      -7.240  -1.307 -33.374  1.00  0.00     0.162 HD
HETATM   14  H   UNL     1      -3.979   0.711 -32.269  1.00  0.00     0.169 HD
HETATM   15  H   UNL     1      -7.468   5.169 -31.798  1.00  0.00     0.173 HD
ENDROOT
BRANCH   1  16
HETATM   16  C   UNL     1      -4.770  -1.612 -32.895  1.00  0.00     0.010 A 
HETATM   17  C   UNL     1      -5.082  -2.588 -33.856  1.00  0.00     0.052 A 
HETATM   18  C   UNL     1      -4.398  -3.806 -33.909  1.00  0.00     0.069 A 
HETATM   19  C   UNL     1      -3.362  -4.045 -33.012  1.00  0.00     0.037 A 
HETATM   20  C   UNL     1      -3.026  -3.078 -32.061  1.00  0.00     0.004 A 
HETATM   21  C   UNL     1      -3.728  -1.872 -31.996  1.00  0.00     0.015 A 
BRANCH  18  22
HETATM   22  O   UNL     1      -4.843  -4.657 -34.879  1.00  0.00    -0.356 OA
HETATM   23  C   UNL     1      -6.201  -4.520 -35.288  1.00  0.00     0.210 C 
ENDBRANCH  18  22
ENDBRANCH   1  16
BRANCH   5  24
HETATM   24  C   UNL     1      -8.067   1.046 -34.696  1.00  0.00     0.426 C 
HETATM   25  F   UNL     1      -6.987   1.599 -35.315  1.00  0.00    -0.168 F 
HETATM   26  F   UNL     1      -8.286  -0.142 -35.309  1.00  0.00    -0.168 F 
HETATM   27  F   UNL     1      -9.111   1.846 -34.936  1.00  0.00    -0.168 F 
ENDBRANCH   5  24
BRANCH   5  28
HETATM   28  C   UNL     1      -9.048   0.456 -32.530  1.00  0.00     0.426 C 
HETATM   29  F   UNL     1      -8.905   0.543 -31.184  1.00  0.00    -0.168 F 
HETATM   30  F   UNL     1     -10.126   1.156 -32.895  1.00  0.00    -0.168 F 
HETATM   31  F   UNL     1      -9.315  -0.854 -32.792  1.00  0.00    -0.168 F 
ENDBRANCH   5  28
BRANCH   6  32
HETATM   32  C   UNL     1      -3.559   3.089 -31.536  1.00  0.00     0.140 C 
BRANCH  32  33
HETATM   33  C   UNL     1      -2.692   3.479 -32.743  1.00  0.00     0.059 C 
BRANCH  33  34
HETATM   34  C   UNL     1      -1.865   4.716 -32.494  1.00  0.00    -0.057 A 
HETATM   35  C   UNL     1      -1.747   5.714 -33.472  1.00  0.00     0.007 A 
HETATM   36  C   UNL     1      -0.991   6.862 -33.230  1.00  0.00     0.001 A 
HETATM   37  C   UNL     1      -0.357   7.033 -32.002  1.00  0.00     0.000 A 
HETATM   38  C   UNL     1      -0.486   6.061 -31.012  1.00  0.00     0.001 A 
HETATM   39  C   UNL     1      -1.239   4.910 -31.254  1.00  0.00     0.007 A 
ENDBRANCH  33  34
ENDBRANCH  32  33
ENDBRANCH   6  32
TORSDOF 7
ENDMDL
MODEL 2
REMARK VINA RESULT:      -9.7      3.142      6.949
REMARK  7 active torsions:
REMARK  status: ('A' for Active; 'I' for Inactive)
REMARK    1  A    between atoms: O_2  and  C_3 
REMARK    2  A    between atoms: C_5  and  C_6 
REMARK    3  A    between atoms: C_10  and  C_11 
REMARK    4  A    between atoms: C_10  and  C_15 
REMARK    5  A    between atoms: N_19  and  C_20 
REMARK    6  A    between atoms: C_20  and  C_21 
REMARK    7  A    between atoms: C_21  and  C_22 
ROOT
HETATM    1  C   UNL     1      -8.035   2.192 -32.601  1.00  0.00     0.114 C 
HETATM    2  N   UNL     1      -7.000   1.391 -32.448  1.00  0.00    -0.327 N 
HETATM    3  C   UNL     1      -5.763   1.829 -32.027  1.00  0.00     0.128 A 
HETATM    4  C   UNL     1      -5.572   3.141 -31.827  1.00  0.00     0.100 A 
HETATM    5  C   UNL     1      -6.606   4.203 -32.113  1.00  0.00     0.264 C 
HETATM    6  N   UNL     1      -4.744   0.914 -31.821  1.00  0.00    -0.284 N 
HETATM    7  C   UNL     1      -3.492   1.303 -31.350  1.00  0.00     0.331 A 
HETATM    8  O   UNL     1      -2.571   0.527 -31.121  1.00  0.00    -0.246 OA
HETATM    9  N   UNL     1      -3.327   2.637 -31.137  1.00  0.00    -0.275 N 
HETATM   10  C   UNL     1      -4.266   3.588 -31.333  1.00  0.00     0.262 A 
HETATM   11  O   UNL     1      -4.071   4.769 -31.108  1.00  0.00    -0.267 OA
HETATM   12  N   UNL     1      -7.923   3.488 -32.410  1.00  0.00    -0.347 N 
HETATM   13  H   UNL     1      -8.767   4.063 -32.492  1.00  0.00     0.162 HD
HETATM   14  H   UNL     1      -7.165   0.409 -32.636  1.00  0.00     0.169 HD
HETATM   15  H   UNL     1      -2.420   2.927 -30.788  1.00  0.00     0.173 HD
ENDROOT
BRANCH   1  16
HETATM   16  C   UNL     1      -9.350   1.645 -32.978  1.00  0.00     0.010 A 
HETATM   17  C   UNL     1     -10.317   2.479 -33.564  1.00  0.00     0.052 A 
HETATM   18  C   UNL     1     -11.591   2.005 -33.887  1.00  0.00     0.069 A 
HETATM   19  C   UNL     1     -11.900   0.669 -33.654  1.00  0.00     0.037 A 
HETATM   20  C   UNL     1     -10.945  -0.180 -33.089  1.00  0.00     0.004 A 
HETATM   21  C   UNL     1      -9.680   0.304 -32.746  1.00  0.00     0.015 A 
BRANCH  18  22
HETATM   22  O   UNL     1     -12.422   2.948 -34.418  1.00  0.00    -0.356 OA
HETATM   23  C   UNL     1     -12.194   3.322 -35.774  1.00  0.00     0.210 C 
ENDBRANCH  18  22
ENDBRANCH   1  16
BRANCH   5  24
HETATM   24  C   UNL     1      -6.260   5.033 -33.353  1.00  0.00     0.426 C 
HETATM   25  F   UNL     1      -5.679   4.218 -34.276  1.00  0.00    -0.168 F 
HETATM   26  F   UNL     1      -7.386   5.514 -33.929  1.00  0.00    -0.168 F 
HETATM   27  F   UNL     1      -5.420   6.054 -33.145  1.00  0.00    -0.168 F 
ENDBRANCH   5  24
BRANCH   5  28
HETATM   28  C   UNL     1      -6.890   5.211 -30.992  1.00  0.00     0.426 C 
HETATM   29  F   UNL     1      -6.792   4.597 -29.786  1.00  0.00    -0.168 F 
HETATM   30  F   UNL     1      -6.132   6.311 -30.978  1.00  0.00    -0.168 F 
HETATM   31  F   UNL     1      -8.185   5.620 -31.097  1.00  0.00    -0.168 F 
ENDBRANCH   5  28
BRANCH   6  32
HETATM   32  C   UNL     1      -4.896  -0.529 -32.055  1.00  0.00     0.140 C 
BRANCH  32  33
HETATM   33  C   UNL     1      -4.348  -0.958 -33.424  1.00  0.00     0.059 C 
BRANCH  33  34
HETATM   34  C   UNL     1      -4.991  -2.220 -33.942  1.00  0.00    -0.057 A 
HETATM   35  C   UNL     1      -4.270  -3.422 -34.008  1.00  0.00     0.007 A 
HETATM   36  C   UNL     1      -4.876  -4.590 -34.476  1.00  0.00     0.001 A 
HETATM   37  C   UNL     1      -6.212  -4.574 -34.868  1.00  0.00     0.000 A 
HETATM   38  C   UNL     1      -6.946  -3.393 -34.784  1.00  0.00     0.001 A 
HETATM   39  C   UNL     1      -6.341  -2.223 -34.320  1.00  0.00     0.007 A 
ENDBRANCH  33  34
ENDBRANCH  32  33
ENDBRANCH   6  32
TORSDOF 7
ENDMDL
MODEL 3
REMARK VINA RESULT:      -9.5      2.771      7.309
REMARK  7 active torsions:
REMARK  status: ('A' for Active; 'I' for Inactive)
REMARK    1  A    between atoms: O_2  and  C_3 
REMARK    2  A    between atoms: C_5  and  C_6 
REMARK    3  A    between atoms: C_10  and  C_11 
REMARK    4  A    between atoms: C_10  and  C_15 
REMARK    5  A    between atoms: N_19  and  C_20 
REMARK    6  A    between atoms: C_20  and  C_21 
REMARK    7  A    between atoms: C_21  and  C_22 
ROOT
HETATM    1  C   UNL     1      -5.226   3.940 -32.613  1.00  0.00     0.114 C 
HETATM    2  N   UNL     1      -5.734   2.793 -33.020  1.00  0.00    -0.327 N 
HETATM    3  C   UNL     1      -6.957   2.319 -32.598  1.00  0.00     0.128 A 
HETATM    4  C   UNL     1      -7.641   3.014 -31.677  1.00  0.00     0.100 A 
HETATM    5  C   UNL     1      -7.125   4.257 -30.996  1.00  0.00     0.264 C 
HETATM    6  N   UNL     1      -7.456   1.139 -33.126  1.00  0.00    -0.284 N 
HETATM    7  C   UNL     1      -8.708   0.646 -32.767  1.00  0.00     0.331 A 
HETATM    8  O   UNL     1      -9.204  -0.374 -33.230  1.00  0.00    -0.246 OA
HETATM    9  N   UNL     1      -9.391   1.376 -31.845  1.00  0.00    -0.275 N 
HETATM   10  C   UNL     1      -8.963   2.523 -31.273  1.00  0.00     0.262 A 
HETATM   11  O   UNL     1      -9.625   3.150 -30.465  1.00  0.00    -0.267 OA
HETATM   12  N   UNL     1      -5.848   4.678 -31.722  1.00  0.00    -0.347 N 
HETATM   13  H   UNL     1      -5.439   5.584 -31.475  1.00  0.00     0.162 HD
HETATM   14  H   UNL     1      -5.181   2.274 -33.691  1.00  0.00     0.169 HD
HETATM   15  H   UNL     1     -10.306   1.026 -31.583  1.00  0.00     0.173 HD
ENDROOT
BRANCH   1  16
HETATM   16  C   UNL     1      -3.949   4.424 -33.165  1.00  0.00     0.010 A 
HETATM   17  C   UNL     1      -2.781   4.371 -32.385  1.00  0.00     0.052 A 
HETATM   18  C   UNL     1      -1.564   4.868 -32.858  1.00  0.00     0.069 A 
HETATM   19  C   UNL     1      -1.497   5.398 -34.143  1.00  0.00     0.037 A 
HETATM   20  C   UNL     1      -2.644   5.442 -34.940  1.00  0.00     0.004 A 
HETATM   21  C   UNL     1      -3.865   4.965 -34.454  1.00  0.00     0.015 A 
BRANCH  18  22
HETATM   22  O   UNL     1      -0.534   4.771 -31.967  1.00  0.00    -0.356 OA
HETATM   23  C   UNL     1      -0.714   5.398 -30.700  1.00  0.00     0.210 C 
ENDBRANCH  18  22
ENDBRANCH   1  16
BRANCH   5  24
HETATM   24  C   UNL     1      -6.744   4.004 -29.534  1.00  0.00     0.426 C 
HETATM   25  F   UNL     1      -6.754   2.661 -29.307  1.00  0.00    -0.168 F 
HETATM   26  F   UNL     1      -5.476   4.417 -29.297  1.00  0.00    -0.168 F 
HETATM   27  F   UNL     1      -7.549   4.563 -28.625  1.00  0.00    -0.168 F 
ENDBRANCH   5  24
BRANCH   5  28
HETATM   28  C   UNL     1      -8.055   5.478 -30.987  1.00  0.00     0.426 C 
HETATM   29  F   UNL     1      -8.673   5.593 -32.189  1.00  0.00    -0.168 F 
HETATM   30  F   UNL     1      -8.978   5.512 -30.022  1.00  0.00    -0.168 F 
HETATM   31  F   UNL     1      -7.293   6.599 -30.851  1.00  0.00    -0.168 F 
ENDBRANCH   5  28
BRANCH   6  32
HETATM   32  C   UNL     1      -6.730   0.327 -34.113  1.00  0.00     0.140 C 
BRANCH  32  33
HETATM   33  C   UNL     1      -5.622  -0.519 -33.470  1.00  0.00     0.059 C 
BRANCH  33  34
HETATM   34  C   UNL     1      -5.629  -1.951 -33.945  1.00  0.00    -0.057 A 
HETATM   35  C   UNL     1      -6.789  -2.525 -34.487  1.00  0.00     0.007 A 
HETATM   36  C   UNL     1      -6.785  -3.846 -34.937  1.00  0.00     0.001 A 
HETATM   37  C   UNL     1      -5.619  -4.604 -34.864  1.00  0.00     0.000 A 
HETATM   38  C   UNL     1      -4.454  -4.039 -34.351  1.00  0.00     0.001 A 
HETATM   39  C   UNL     1      -4.457  -2.719 -33.896  1.00  0.00     0.007 A 
ENDBRANCH  33  34
ENDBRANCH  32  33
ENDBRANCH   6  32
TORSDOF 7
ENDMDL
MODEL 4
REMARK VINA RESULT:      -9.4      3.327      7.600
REMARK  7 active torsions:
REMARK  status: ('A' for Active; 'I' for Inactive)
REMARK    1  A    between atoms: O_2  and  C_3 
REMARK    2  A    between atoms: C_5  and  C_6 
REMARK    3  A    between atoms: C_10  and  C_11 
REMARK    4  A    between atoms: C_10  and  C_15 
REMARK    5  A    between atoms: N_19  and  C_20 
REMARK    6  A    between atoms: C_20  and  C_21 
REMARK    7  A    between atoms: C_21  and  C_22 
ROOT
HETATM    1  C   UNL     1      -7.071   3.608 -33.341  1.00  0.00     0.114 C 
HETATM    2  N   UNL     1      -6.701   2.362 -33.122  1.00  0.00    -0.327 N 
HETATM    3  C   UNL     1      -5.487   2.023 -32.564  1.00  0.00     0.128 A 
HETATM    4  C   UNL     1      -4.604   2.994 -32.292  1.00  0.00     0.100 A 
HETATM    5  C   UNL     1      -4.810   4.450 -32.632  1.00  0.00     0.264 C 
HETATM    6  N   UNL     1      -5.201   0.694 -32.298  1.00  0.00    -0.284 N 
HETATM    7  C   UNL     1      -4.007   0.308 -31.692  1.00  0.00     0.331 A 
HETATM    8  O   UNL     1      -3.724  -0.850 -31.407  1.00  0.00    -0.246 OA
HETATM    9  N   UNL     1      -3.134   1.311 -31.408  1.00  0.00    -0.275 N 
HETATM   10  C   UNL     1      -3.336   2.624 -31.655  1.00  0.00     0.262 A 
HETATM   11  O   UNL     1      -2.526   3.486 -31.362  1.00  0.00    -0.267 OA
HETATM   12  N   UNL     1      -6.261   4.610 -33.086  1.00  0.00    -0.347 N 
HETATM   13  H   UNL     1      -6.611   5.562 -33.225  1.00  0.00     0.162 HD
HETATM   14  H   UNL     1      -7.376   1.647 -33.366  1.00  0.00     0.169 HD
HETATM   15  H   UNL     1      -2.266   1.038 -30.961  1.00  0.00     0.173 HD
ENDROOT
BRANCH   1  16
HETATM   16  C   UNL     1      -8.415   3.902 -33.867  1.00  0.00     0.010 A 
HETATM   17  C   UNL     1      -9.332   2.858 -34.076  1.00  0.00     0.052 A 
HETATM   18  C   UNL     1     -10.597   3.095 -34.621  1.00  0.00     0.069 A 
HETATM   19  C   UNL     1     -10.971   4.398 -34.934  1.00  0.00     0.037 A 
HETATM   20  C   UNL     1     -10.079   5.451 -34.716  1.00  0.00     0.004 A 
HETATM   21  C   UNL     1      -8.806   5.207 -34.193  1.00  0.00     0.015 A 
BRANCH  18  22
HETATM   22  O   UNL     1     -11.354   1.972 -34.790  1.00  0.00    -0.356 OA
HETATM   23  C   UNL     1     -12.722   2.160 -35.142  1.00  0.00     0.210 C 
ENDBRANCH  18  22
ENDBRANCH   1  16
BRANCH   5  24
HETATM   24  C   UNL     1      -3.925   4.906 -33.796  1.00  0.00     0.426 C 
HETATM   25  F   UNL     1      -4.581   4.663 -34.964  1.00  0.00    -0.168 F 
HETATM   26  F   UNL     1      -3.730   6.245 -33.745  1.00  0.00    -0.168 F 
HETATM   27  F   UNL     1      -2.733   4.306 -33.881  1.00  0.00    -0.168 F 
ENDBRANCH   5  24
BRANCH   5  28
HETATM   28  C   UNL     1      -4.583   5.463 -31.503  1.00  0.00     0.426 C 
HETATM   29  F   UNL     1      -4.954   4.919 -30.316  1.00  0.00    -0.168 F 
HETATM   30  F   UNL     1      -3.345   5.951 -31.385  1.00  0.00    -0.168 F 
HETATM   31  F   UNL     1      -5.414   6.524 -31.702  1.00  0.00    -0.168 F 
ENDBRANCH   5  28
BRANCH   6  32
HETATM   32  C   UNL     1      -6.123  -0.408 -32.607  1.00  0.00     0.140 C 
BRANCH  32  33
HETATM   33  C   UNL     1      -6.070  -0.816 -34.086  1.00  0.00     0.059 C 
BRANCH  33  34
HETATM   34  C   UNL     1      -5.795  -2.286 -34.277  1.00  0.00    -0.057 A 
HETATM   35  C   UNL     1      -6.807  -3.160 -34.705  1.00  0.00     0.007 A 
HETATM   36  C   UNL     1      -6.542  -4.518 -34.892  1.00  0.00     0.001 A 
HETATM   37  C   UNL     1      -5.261  -5.015 -34.670  1.00  0.00     0.000 A 
HETATM   38  C   UNL     1      -4.241  -4.155 -34.270  1.00  0.00     0.001 A 
HETATM   39  C   UNL     1      -4.505  -2.797 -34.077  1.00  0.00     0.007 A 
ENDBRANCH  33  34
ENDBRANCH  32  33
ENDBRANCH   6  32
TORSDOF 7
ENDMDL
MODEL 5
REMARK VINA RESULT:      -9.1      3.223      6.940
REMARK  7 active torsions:
REMARK  status: ('A' for Active; 'I' for Inactive)
REMARK    1  A    between atoms: O_2  and  C_3 
REMARK    2  A    between atoms: C_5  and  C_6 
REMARK    3  A    between atoms: C_10  and  C_11 
REMARK    4  A    between atoms: C_10  and  C_15 
REMARK    5  A    between atoms: N_19  and  C_20 
REMARK    6  A    between atoms: C_20  and  C_21 
REMARK    7  A    between atoms: C_21  and  C_22 
ROOT
HETATM    1  C   UNL     1      -5.995   1.327 -33.482  1.00  0.00     0.114 C 
HETATM    2  N   UNL     1      -7.242   1.652 -33.761  1.00  0.00    -0.327 N 
HETATM    3  C   UNL     1      -7.712   2.946 -33.713  1.00  0.00     0.128 A 
HETATM    4  C   UNL     1      -6.890   3.921 -33.298  1.00  0.00     0.100 A 
HETATM    5  C   UNL     1      -5.487   3.692 -32.792  1.00  0.00     0.264 C 
HETATM    6  N   UNL     1      -9.017   3.217 -34.090  1.00  0.00    -0.284 N 
HETATM    7  C   UNL     1      -9.523   4.515 -34.105  1.00  0.00     0.331 A 
HETATM    8  O   UNL     1     -10.658   4.807 -34.461  1.00  0.00    -0.246 OA
HETATM    9  N   UNL     1      -8.666   5.490 -33.697  1.00  0.00    -0.275 N 
HETATM   10  C   UNL     1      -7.389   5.300 -33.299  1.00  0.00     0.262 A 
HETATM   11  O   UNL     1      -6.657   6.214 -32.961  1.00  0.00    -0.267 OA
HETATM   12  N   UNL     1      -5.132   2.234 -33.081  1.00  0.00    -0.347 N 
HETATM   13  H   UNL     1      -4.162   1.942 -32.925  1.00  0.00     0.162 HD
HETATM   14  H   UNL     1      -7.848   0.891 -34.041  1.00  0.00     0.169 HD
HETATM   15  H   UNL     1      -9.025   6.438 -33.711  1.00  0.00     0.173 HD
ENDROOT
BRANCH   1  16
HETATM   16  C   UNL     1      -5.539  -0.066 -33.629  1.00  0.00     0.010 A 
HETATM   17  C   UNL     1      -6.373  -1.017 -34.242  1.00  0.00     0.052 A 
HETATM   18  C   UNL     1      -5.994  -2.357 -34.353  1.00  0.00     0.069 A 
HETATM   19  C   UNL     1      -4.748  -2.755 -33.876  1.00  0.00     0.037 A 
HETATM   20  C   UNL     1      -3.899  -1.819 -33.279  1.00  0.00     0.004 A 
HETATM   21  C   UNL     1      -4.292  -0.485 -33.150  1.00  0.00     0.015 A 
BRANCH  18  22
HETATM   22  O   UNL     1      -6.928  -3.157 -34.944  1.00  0.00    -0.356 OA
HETATM   23  C   UNL     1      -6.536  -4.493 -35.250  1.00  0.00     0.210 C 
ENDBRANCH  18  22
ENDBRANCH   1  16
BRANCH   5  24
HETATM   24  C   UNL     1      -5.377   3.885 -31.276  1.00  0.00     0.426 C 
HETATM   25  F   UNL     1      -6.528   3.448 -30.696  1.00  0.00    -0.168 F 
HETATM   26  F   UNL     1      -4.384   3.115 -30.772  1.00  0.00    -0.168 F 
HETATM   27  F   UNL     1      -5.184   5.145 -30.870  1.00  0.00    -0.168 F 
ENDBRANCH   5  24
BRANCH   5  28
HETATM   28  C   UNL     1      -4.379   4.551 -33.412  1.00  0.00     0.426 C 
HETATM   29  F   UNL     1      -4.642   4.763 -34.726  1.00  0.00    -0.168 F 
HETATM   30  F   UNL     1      -4.142   5.728 -32.824  1.00  0.00    -0.168 F 
HETATM   31  F   UNL     1      -3.214   3.846 -33.375  1.00  0.00    -0.168 F 
ENDBRANCH   5  28
BRANCH   6  32
HETATM   32  C   UNL     1      -9.964   2.179 -34.522  1.00  0.00     0.140 C 
BRANCH  32  33
HETATM   33  C   UNL     1     -10.584   1.426 -33.336  1.00  0.00     0.059 C 
BRANCH  33  34
HETATM   34  C   UNL     1     -12.090   1.375 -33.400  1.00  0.00    -0.057 A 
HETATM   35  C   UNL     1     -12.759   0.185 -33.725  1.00  0.00     0.007 A 
HETATM   36  C   UNL     1     -14.153   0.142 -33.770  1.00  0.00     0.001 A 
HETATM   37  C   UNL     1     -14.896   1.281 -33.474  1.00  0.00     0.000 A 
HETATM   38  C   UNL     1     -14.246   2.463 -33.126  1.00  0.00     0.001 A 
HETATM   39  C   UNL     1     -12.851   2.510 -33.085  1.00  0.00     0.007 A 
ENDBRANCH  33  34
ENDBRANCH  32  33
ENDBRANCH   6  32
TORSDOF 7
ENDMDL
MODEL 6
REMARK VINA RESULT:      -9.0      1.518      2.162
REMARK  7 active torsions:
REMARK  status: ('A' for Active; 'I' for Inactive)
REMARK    1  A    between atoms: O_2  and  C_3 
REMARK    2  A    between atoms: C_5  and  C_6 
REMARK    3  A    between atoms: C_10  and  C_11 
REMARK    4  A    between atoms: C_10  and  C_15 
REMARK    5  A    between atoms: N_19  and  C_20 
REMARK    6  A    between atoms: C_20  and  C_21 
REMARK    7  A    between atoms: C_21  and  C_22 
ROOT
HETATM    1  C   UNL     1      -6.621   0.894 -32.992  1.00  0.00     0.114 C 
HETATM    2  N   UNL     1      -5.673   1.675 -32.513  1.00  0.00    -0.327 N 
HETATM    3  C   UNL     1      -5.926   2.902 -31.938  1.00  0.00     0.128 A 
HETATM    4  C   UNL     1      -7.184   3.365 -31.921  1.00  0.00     0.100 A 
HETATM    5  C   UNL     1      -8.354   2.667 -32.570  1.00  0.00     0.264 C 
HETATM    6  N   UNL     1      -4.883   3.632 -31.392  1.00  0.00    -0.284 N 
HETATM    7  C   UNL     1      -5.095   4.854 -30.757  1.00  0.00     0.331 A 
HETATM    8  O   UNL     1      -4.210   5.519 -30.232  1.00  0.00    -0.246 OA
HETATM    9  N   UNL     1      -6.382   5.295 -30.737  1.00  0.00    -0.275 N 
HETATM   10  C   UNL     1      -7.446   4.648 -31.263  1.00  0.00     0.262 A 
HETATM   11  O   UNL     1      -8.583   5.081 -31.199  1.00  0.00    -0.267 OA
HETATM   12  N   UNL     1      -7.878   1.279 -32.996  1.00  0.00    -0.347 N 
HETATM   13  H   UNL     1      -8.585   0.618 -33.333  1.00  0.00     0.162 HD
HETATM   14  H   UNL     1      -4.729   1.313 -32.568  1.00  0.00     0.169 HD
HETATM   15  H   UNL     1      -6.545   6.181 -30.270  1.00  0.00     0.173 HD
ENDROOT
BRANCH   1  16
HETATM   16  C   UNL     1      -6.289  -0.439 -33.523  1.00  0.00     0.010 A 
HETATM   17  C   UNL     1      -5.131  -1.102 -33.081  1.00  0.00     0.052 A 
HETATM   18  C   UNL     1      -4.758  -2.345 -33.600  1.00  0.00     0.069 A 
HETATM   19  C   UNL     1      -5.569  -2.956 -34.552  1.00  0.00     0.037 A 
HETATM   20  C   UNL     1      -6.733  -2.320 -34.990  1.00  0.00     0.004 A 
HETATM   21  C   UNL     1      -7.089  -1.067 -34.486  1.00  0.00     0.015 A 
BRANCH  18  22
HETATM   22  O   UNL     1      -3.593  -2.839 -33.091  1.00  0.00    -0.356 OA
HETATM   23  C   UNL     1      -3.424  -4.253 -33.113  1.00  0.00     0.210 C 
ENDBRANCH  18  22
ENDBRANCH   1  16
BRANCH   5  24
HETATM   24  C   UNL     1      -8.829   3.385 -33.838  1.00  0.00     0.426 C 
HETATM   25  F   UNL     1      -7.760   3.992 -34.422  1.00  0.00    -0.168 F 
HETATM   26  F   UNL     1      -9.296   2.490 -34.741  1.00  0.00    -0.168 F 
HETATM   27  F   UNL     1      -9.762   4.325 -33.650  1.00  0.00    -0.168 F 
ENDBRANCH   5  24
BRANCH   5  28
HETATM   28  C   UNL     1      -9.604   2.462 -31.704  1.00  0.00     0.426 C 
HETATM   29  F   UNL     1      -9.240   2.261 -30.413  1.00  0.00    -0.168 F 
HETATM   30  F   UNL     1     -10.521   3.432 -31.748  1.00  0.00    -0.168 F 
HETATM   31  F   UNL     1     -10.219   1.313 -32.100  1.00  0.00    -0.168 F 
ENDBRANCH   5  28
BRANCH   6  32
HETATM   32  C   UNL     1      -3.484   3.181 -31.414  1.00  0.00     0.140 C 
BRANCH  32  33
HETATM   33  C   UNL     1      -2.824   3.395 -32.784  1.00  0.00     0.059 C 
BRANCH  33  34
HETATM   34  C   UNL     1      -2.161   4.744 -32.909  1.00  0.00    -0.057 A 
HETATM   35  C   UNL     1      -2.538   5.643 -33.918  1.00  0.00     0.007 A 
HETATM   36  C   UNL     1      -1.928   6.894 -34.020  1.00  0.00     0.001 A 
HETATM   37  C   UNL     1      -0.948   7.269 -33.105  1.00  0.00     0.000 A 
HETATM   38  C   UNL     1      -0.581   6.396 -32.083  1.00  0.00     0.001 A 
HETATM   39  C   UNL     1      -1.186   5.142 -31.982  1.00  0.00     0.007 A 
ENDBRANCH  33  34
ENDBRANCH  32  33
ENDBRANCH   6  32
TORSDOF 7
ENDMDL
MODEL 7
REMARK VINA RESULT:      -9.0      2.739      5.589
REMARK  7 active torsions:
REMARK  status: ('A' for Active; 'I' for Inactive)
REMARK    1  A    between atoms: O_2  and  C_3 
REMARK    2  A    between atoms: C_5  and  C_6 
REMARK    3  A    between atoms: C_10  and  C_11 
REMARK    4  A    between atoms: C_10  and  C_15 
REMARK    5  A    between atoms: N_19  and  C_20 
REMARK    6  A    between atoms: C_20  and  C_21 
REMARK    7  A    between atoms: C_21  and  C_22 
ROOT
HETATM    1  C   UNL     1      -4.830   3.434 -32.629  1.00  0.00     0.114 C 
HETATM    2  N   UNL     1      -5.960   4.003 -32.256  1.00  0.00    -0.327 N 
HETATM    3  C   UNL     1      -7.049   3.290 -31.805  1.00  0.00     0.128 A 
HETATM    4  C   UNL     1      -6.995   1.950 -31.806  1.00  0.00     0.100 A 
HETATM    5  C   UNL     1      -5.840   1.147 -32.351  1.00  0.00     0.264 C 
HETATM    6  N   UNL     1      -8.175   3.964 -31.363  1.00  0.00    -0.284 N 
HETATM    7  C   UNL     1      -9.282   3.289 -30.852  1.00  0.00     0.331 A 
HETATM    8  O   UNL     1     -10.286   3.843 -30.420  1.00  0.00    -0.246 OA
HETATM    9  N   UNL     1      -9.198   1.931 -30.846  1.00  0.00    -0.275 N 
HETATM   10  C   UNL     1      -8.142   1.206 -31.277  1.00  0.00     0.262 A 
HETATM   11  O   UNL     1      -8.111  -0.011 -31.232  1.00  0.00    -0.267 OA
HETATM   12  N   UNL     1      -4.702   2.126 -32.643  1.00  0.00    -0.347 N 
HETATM   13  H   UNL     1      -3.790   1.732 -32.892  1.00  0.00     0.162 HD
HETATM   14  H   UNL     1      -5.983   5.014 -32.295  1.00  0.00     0.169 HD
HETATM   15  H   UNL     1      -9.997   1.434 -30.470  1.00  0.00     0.173 HD
ENDROOT
BRANCH   1  16
HETATM   16  C   UNL     1      -3.678   4.261 -33.027  1.00  0.00     0.010 A 
HETATM   17  C   UNL     1      -2.478   4.190 -32.299  1.00  0.00     0.052 A 
HETATM   18  C   UNL     1      -1.382   4.997 -32.617  1.00  0.00     0.069 A 
HETATM   19  C   UNL     1      -1.468   5.867 -33.699  1.00  0.00     0.037 A 
HETATM   20  C   UNL     1      -2.648   5.939 -34.445  1.00  0.00     0.004 A 
HETATM   21  C   UNL     1      -3.749   5.147 -34.109  1.00  0.00     0.015 A 
BRANCH  18  22
HETATM   22  O   UNL     1      -0.305   4.830 -31.795  1.00  0.00    -0.356 OA
HETATM   23  C   UNL     1      -0.425   5.322 -30.464  1.00  0.00     0.210 C 
ENDBRANCH  18  22
ENDBRANCH   1  16
BRANCH   5  24
HETATM   24  C   UNL     1      -6.184   0.456 -33.674  1.00  0.00     0.426 C 
HETATM   25  F   UNL     1      -6.501   1.409 -34.594  1.00  0.00    -0.168 F 
HETATM   26  F   UNL     1      -5.103  -0.195 -34.163  1.00  0.00    -0.168 F 
HETATM   27  F   UNL     1      -7.210  -0.401 -33.624  1.00  0.00    -0.168 F 
ENDBRANCH   5  24
BRANCH   5  28
HETATM   28  C   UNL     1      -5.264   0.057 -31.439  1.00  0.00     0.426 C 
HETATM   29  F   UNL     1      -5.400   0.424 -30.140  1.00  0.00    -0.168 F 
HETATM   30  F   UNL     1      -5.766  -1.172 -31.595  1.00  0.00    -0.168 F 
HETATM   31  F   UNL     1      -3.922  -0.029 -31.662  1.00  0.00    -0.168 F 
ENDBRANCH   5  28
BRANCH   6  32
HETATM   32  C   UNL     1      -8.294   5.429 -31.371  1.00  0.00     0.140 C 
BRANCH  32  33
HETATM   33  C   UNL     1      -7.669   6.071 -30.123  1.00  0.00     0.059 C 
BRANCH  33  34
HETATM   34  C   UNL     1      -6.252   6.533 -30.352  1.00  0.00    -0.057 A 
HETATM   35  C   UNL     1      -5.938   7.409 -31.403  1.00  0.00     0.007 A 
HETATM   36  C   UNL     1      -4.626   7.843 -31.600  1.00  0.00     0.001 A 
HETATM   37  C   UNL     1      -3.615   7.420 -30.742  1.00  0.00     0.000 A 
HETATM   38  C   UNL     1      -3.916   6.570 -29.679  1.00  0.00     0.001 A 
HETATM   39  C   UNL     1      -5.227   6.131 -29.483  1.00  0.00     0.007 A 
ENDBRANCH  33  34
ENDBRANCH  32  33
ENDBRANCH   6  32
TORSDOF 7
ENDMDL
MODEL 8
REMARK VINA RESULT:      -9.0     15.880     18.178
REMARK  7 active torsions:
REMARK  status: ('A' for Active; 'I' for Inactive)
REMARK    1  A    between atoms: O_2  and  C_3 
REMARK    2  A    between atoms: C_5  and  C_6 
REMARK    3  A    between atoms: C_10  and  C_11 
REMARK    4  A    between atoms: C_10  and  C_15 
REMARK    5  A    between atoms: N_19  and  C_20 
REMARK    6  A    between atoms: C_20  and  C_21 
REMARK    7  A    between atoms: C_21  and  C_22 
ROOT
HETATM    1  C   UNL     1      -4.426 -14.021 -37.793  1.00  0.00     0.114 C 
HETATM    2  N   UNL     1      -4.771 -13.869 -39.056  1.00  0.00    -0.327 N 
HETATM    3  C   UNL     1      -3.933 -14.174 -40.107  1.00  0.00     0.128 A 
HETATM    4  C   UNL     1      -2.683 -14.580 -39.845  1.00  0.00     0.100 A 
HETATM    5  C   UNL     1      -2.085 -14.651 -38.462  1.00  0.00     0.264 C 
HETATM    6  N   UNL     1      -4.394 -14.055 -41.409  1.00  0.00    -0.284 N 
HETATM    7  C   UNL     1      -3.601 -14.398 -42.502  1.00  0.00     0.331 A 
HETATM    8  O   UNL     1      -3.975 -14.341 -43.668  1.00  0.00    -0.246 OA
HETATM    9  N   UNL     1      -2.342 -14.824 -42.211  1.00  0.00    -0.275 N 
HETATM   10  C   UNL     1      -1.819 -14.948 -40.972  1.00  0.00     0.262 A 
HETATM   11  O   UNL     1      -0.689 -15.354 -40.767  1.00  0.00    -0.267 OA
HETATM   12  N   UNL     1      -3.221 -14.427 -37.463  1.00  0.00    -0.347 N 
HETATM   13  H   UNL     1      -3.016 -14.579 -36.471  1.00  0.00     0.162 HD
HETATM   14  H   UNL     1      -5.711 -13.531 -39.224  1.00  0.00     0.169 HD
HETATM   15  H   UNL     1      -1.762 -15.081 -43.002  1.00  0.00     0.173 HD
ENDROOT
BRANCH   1  16
HETATM   16  C   UNL     1      -5.398 -13.750 -36.720  1.00  0.00     0.010 A 
HETATM   17  C   UNL     1      -4.956 -13.577 -35.398  1.00  0.00     0.052 A 
HETATM   18  C   UNL     1      -5.854 -13.369 -34.347  1.00  0.00     0.069 A 
HETATM   19  C   UNL     1      -7.217 -13.299 -34.621  1.00  0.00     0.037 A 
HETATM   20  C   UNL     1      -7.674 -13.451 -35.932  1.00  0.00     0.004 A 
HETATM   21  C   UNL     1      -6.774 -13.682 -36.976  1.00  0.00     0.015 A 
BRANCH  18  22
HETATM   22  O   UNL     1      -5.267 -13.252 -33.121  1.00  0.00    -0.356 OA
HETATM   23  C   UNL     1      -5.591 -14.243 -32.151  1.00  0.00     0.210 C 
ENDBRANCH  18  22
ENDBRANCH   1  16
BRANCH   5  24
HETATM   24  C   UNL     1      -1.052 -13.547 -38.217  1.00  0.00     0.426 C 
HETATM   25  F   UNL     1      -1.351 -12.485 -39.014  1.00  0.00    -0.168 F 
HETATM   26  F   UNL     1      -1.134 -13.097 -36.943  1.00  0.00    -0.168 F 
HETATM   27  F   UNL     1       0.218 -13.883 -38.467  1.00  0.00    -0.168 F 
ENDBRANCH   5  24
BRANCH   5  28
HETATM   28  C   UNL     1      -1.402 -15.967 -38.070  1.00  0.00     0.426 C 
HETATM   29  F   UNL     1      -2.094 -17.015 -38.583  1.00  0.00    -0.168 F 
HETATM   30  F   UNL     1      -0.116 -16.091 -38.411  1.00  0.00    -0.168 F 
HETATM   31  F   UNL     1      -1.471 -16.103 -36.716  1.00  0.00    -0.168 F 
ENDBRANCH   5  28
BRANCH   6  32
HETATM   32  C   UNL     1      -5.745 -13.586 -41.747  1.00  0.00     0.140 C 
BRANCH  32  33
HETATM   33  C   UNL     1      -6.821 -14.636 -41.434  1.00  0.00     0.059 C 
BRANCH  33  34
HETATM   34  C   UNL     1      -8.038 -14.044 -40.766  1.00  0.00    -0.057 A 
HETATM   35  C   UNL     1      -9.176 -14.826 -40.517  1.00  0.00     0.007 A 
HETATM   36  C   UNL     1     -10.293 -14.275 -39.887  1.00  0.00     0.001 A 
HETATM   37  C   UNL     1     -10.281 -12.942 -39.485  1.00  0.00     0.000 A 
HETATM   38  C   UNL     1      -9.148 -12.161 -39.704  1.00  0.00     0.001 A 
HETATM   39  C   UNL     1      -8.031 -12.709 -40.338  1.00  0.00     0.007 A 
ENDBRANCH  33  34
ENDBRANCH  32  33
ENDBRANCH   6  32
TORSDOF 7
ENDMDL
MODEL 9
REMARK VINA RESULT:      -9.0      3.009      5.989
REMARK  7 active torsions:
REMARK  status: ('A' for Active; 'I' for Inactive)
REMARK    1  A    between atoms: O_2  and  C_3 
REMARK    2  A    between atoms: C_5  and  C_6 
REMARK    3  A    between atoms: C_10  and  C_11 
REMARK    4  A    between atoms: C_10  and  C_15 
REMARK    5  A    between atoms: N_19  and  C_20 
REMARK    6  A    between atoms: C_20  and  C_21 
REMARK    7  A    between atoms: C_21  and  C_22 
ROOT
HETATM    1  C   UNL     1      -7.716   1.960 -33.068  1.00  0.00     0.114 C 
HETATM    2  N   UNL     1      -6.975   3.046 -33.164  1.00  0.00    -0.327 N 
HETATM    3  C   UNL     1      -5.638   3.077 -32.834  1.00  0.00     0.128 A 
HETATM    4  C   UNL     1      -5.068   1.975 -32.326  1.00  0.00     0.100 A 
HETATM    5  C   UNL     1      -5.814   0.704 -32.005  1.00  0.00     0.264 C 
HETATM    6  N   UNL     1      -4.909   4.239 -33.031  1.00  0.00    -0.284 N 
HETATM    7  C   UNL     1      -3.544   4.305 -32.758  1.00  0.00     0.331 A 
HETATM    8  O   UNL     1      -2.853   5.299 -32.946  1.00  0.00    -0.246 OA
HETATM    9  N   UNL     1      -2.984   3.170 -32.260  1.00  0.00    -0.275 N 
HETATM   10  C   UNL     1      -3.633   2.008 -32.026  1.00  0.00     0.262 A 
HETATM   11  O   UNL     1      -3.077   1.013 -31.596  1.00  0.00    -0.267 OA
HETATM   12  N   UNL     1      -7.220   0.841 -32.591  1.00  0.00    -0.347 N 
HETATM   13  H   UNL     1      -7.819   0.010 -32.582  1.00  0.00     0.162 HD
HETATM   14  H   UNL     1      -7.440   3.872 -33.521  1.00  0.00     0.169 HD
HETATM   15  H   UNL     1      -1.989   3.208 -32.066  1.00  0.00     0.173 HD
ENDROOT
BRANCH   1  16
HETATM   16  C   UNL     1      -9.120   1.977 -33.512  1.00  0.00     0.010 A 
HETATM   17  C   UNL     1      -9.973   0.907 -33.189  1.00  0.00     0.052 A 
HETATM   18  C   UNL     1     -11.296   0.866 -33.636  1.00  0.00     0.069 A 
HETATM   19  C   UNL     1     -11.792   1.924 -34.392  1.00  0.00     0.037 A 
HETATM   20  C   UNL     1     -10.965   3.005 -34.708  1.00  0.00     0.004 A 
HETATM   21  C   UNL     1      -9.636   3.030 -34.278  1.00  0.00     0.015 A 
BRANCH  18  22
HETATM   22  O   UNL     1     -11.980  -0.254 -33.263  1.00  0.00    -0.356 OA
HETATM   23  C   UNL     1     -13.359  -0.317 -33.614  1.00  0.00     0.210 C 
ENDBRANCH  18  22
ENDBRANCH   1  16
BRANCH   5  24
HETATM   24  C   UNL     1      -5.978   0.491 -30.497  1.00  0.00     0.426 C 
HETATM   25  F   UNL     1      -6.485   1.629 -29.948  1.00  0.00    -0.168 F 
HETATM   26  F   UNL     1      -6.887  -0.483 -30.253  1.00  0.00    -0.168 F 
HETATM   27  F   UNL     1      -4.855   0.199 -29.832  1.00  0.00    -0.168 F 
ENDBRANCH   5  24
BRANCH   5  28
HETATM   28  C   UNL     1      -5.228  -0.601 -32.558  1.00  0.00     0.426 C 
HETATM   29  F   UNL     1      -4.569  -0.354 -33.718  1.00  0.00    -0.168 F 
HETATM   30  F   UNL     1      -4.420  -1.281 -31.739  1.00  0.00    -0.168 F 
HETATM   31  F   UNL     1      -6.257  -1.433 -32.884  1.00  0.00    -0.168 F 
ENDBRANCH   5  28
BRANCH   6  32
HETATM   32  C   UNL     1      -5.496   5.480 -33.556  1.00  0.00     0.140 C 
BRANCH  32  33
HETATM   33  C   UNL     1      -5.944   6.432 -32.437  1.00  0.00     0.059 C 
BRANCH  33  34
HETATM   34  C   UNL     1      -7.277   6.050 -31.844  1.00  0.00    -0.057 A 
HETATM   35  C   UNL     1      -8.468   6.242 -32.561  1.00  0.00     0.007 A 
HETATM   36  C   UNL     1      -9.697   5.874 -32.011  1.00  0.00     0.001 A 
HETATM   37  C   UNL     1      -9.750   5.296 -30.746  1.00  0.00     0.000 A 
HETATM   38  C   UNL     1      -8.573   5.077 -30.032  1.00  0.00     0.001 A 
HETATM   39  C   UNL     1      -7.343   5.448 -30.579  1.00  0.00     0.007 A 
ENDBRANCH  33  34
ENDBRANCH  32  33
ENDBRANCH   6  32
TORSDOF 7
ENDMDL
MODEL 10
REMARK VINA RESULT:      -8.8      3.392      6.831
REMARK  7 active torsions:
REMARK  status: ('A' for Active; 'I' for Inactive)
REMARK    1  A    between atoms: O_2  and  C_3 
REMARK    2  A    between atoms: C_5  and  C_6 
REMARK    3  A    between atoms: C_10  and  C_11 
REMARK    4  A    between atoms: C_10  and  C_15 
REMARK    5  A    between atoms: N_19  and  C_20 
REMARK    6  A    between atoms: C_20  and  C_21 
REMARK    7  A    between atoms: C_21  and  C_22 
ROOT
HETATM    1  C   UNL     1      -5.880   2.453 -33.323  1.00  0.00     0.114 C 
HETATM    2  N   UNL     1      -6.910   3.264 -33.184  1.00  0.00    -0.327 N 
HETATM    3  C   UNL     1      -6.779   4.600 -32.870  1.00  0.00     0.128 A 
HETATM    4  C   UNL     1      -5.557   5.094 -32.625  1.00  0.00     0.100 A 
HETATM    5  C   UNL     1      -4.298   4.263 -32.585  1.00  0.00     0.264 C 
HETATM    6  N   UNL     1      -7.906   5.404 -32.812  1.00  0.00    -0.284 N 
HETATM    7  C   UNL     1      -7.819   6.770 -32.546  1.00  0.00     0.331 A 
HETATM    8  O   UNL     1      -8.783   7.527 -32.517  1.00  0.00    -0.246 OA
HETATM    9  N   UNL     1      -6.568   7.252 -32.319  1.00  0.00    -0.275 N 
HETATM   10  C   UNL     1      -5.428   6.526 -32.340  1.00  0.00     0.262 A 
HETATM   11  O   UNL     1      -4.328   7.013 -32.148  1.00  0.00    -0.267 OA
HETATM   12  N   UNL     1      -4.653   2.872 -33.111  1.00  0.00    -0.347 N 
HETATM   13  H   UNL     1      -3.883   2.219 -33.280  1.00  0.00     0.162 HD
HETATM   14  H   UNL     1      -7.823   2.857 -33.344  1.00  0.00     0.169 HD
HETATM   15  H   UNL     1      -6.497   8.246 -32.131  1.00  0.00     0.173 HD
ENDROOT
BRANCH   1  16
HETATM   16  C   UNL     1      -6.087   1.055 -33.736  1.00  0.00     0.010 A 
HETATM   17  C   UNL     1      -5.232   0.047 -33.260  1.00  0.00     0.052 A 
HETATM   18  C   UNL     1      -5.368  -1.282 -33.671  1.00  0.00     0.069 A 
HETATM   19  C   UNL     1      -6.394  -1.622 -34.548  1.00  0.00     0.037 A 
HETATM   20  C   UNL     1      -7.265  -0.636 -35.018  1.00  0.00     0.004 A 
HETATM   21  C   UNL     1      -7.111   0.695 -34.622  1.00  0.00     0.015 A 
BRANCH  18  22
HETATM   22  O   UNL     1      -4.439  -2.131 -33.143  1.00  0.00    -0.356 OA
HETATM   23  C   UNL     1      -3.639  -1.631 -32.075  1.00  0.00     0.210 C 
ENDBRANCH  18  22
ENDBRANCH   1  16
BRANCH   5  24
HETATM   24  C   UNL     1      -3.766   4.079 -31.160  1.00  0.00     0.426 C 
HETATM   25  F   UNL     1      -4.821   4.074 -30.299  1.00  0.00    -0.168 F 
HETATM   26  F   UNL     1      -3.167   2.872 -31.031  1.00  0.00    -0.168 F 
HETATM   27  F   UNL     1      -2.917   5.022 -30.738  1.00  0.00    -0.168 F 
ENDBRANCH   5  24
BRANCH   5  28
HETATM   28  C   UNL     1      -3.113   4.764 -33.420  1.00  0.00     0.426 C 
HETATM   29  F   UNL     1      -3.549   5.183 -34.634  1.00  0.00    -0.168 F 
HETATM   30  F   UNL     1      -2.369   5.730 -32.873  1.00  0.00    -0.168 F 
HETATM   31  F   UNL     1      -2.282   3.712 -33.666  1.00  0.00    -0.168 F 
ENDBRANCH   5  28
BRANCH   6  32
HETATM   32  C   UNL     1      -9.268   4.904 -33.042  1.00  0.00     0.140 C 
BRANCH  32  33
HETATM   33  C   UNL     1      -9.561   4.679 -34.533  1.00  0.00     0.059 C 
BRANCH  33  34
HETATM   34  C   UNL     1     -10.569   3.582 -34.771  1.00  0.00    -0.057 A 
HETATM   35  C   UNL     1     -10.424   2.324 -34.165  1.00  0.00     0.007 A 
HETATM   36  C   UNL     1     -11.367   1.318 -34.380  1.00  0.00     0.001 A 
HETATM   37  C   UNL     1     -12.474   1.561 -35.189  1.00  0.00     0.000 A 
HETATM   38  C   UNL     1     -12.644   2.813 -35.776  1.00  0.00     0.001 A 
HETATM   39  C   UNL     1     -11.699   3.819 -35.567  1.00  0.00     0.007 A 
ENDBRANCH  33  34
ENDBRANCH  32  33
ENDBRANCH   6  32
TORSDOF 7
ENDMDL
