MODEL 1
REMARK VINA RESULT:      -7.7      0.000      0.000
REMARK  10 active torsions:
REMARK  status: ('A' for Active; 'I' for Inactive)
REMARK    1  A    between atoms: O_2  and  C_3 
REMARK    2  A    between atoms: C_4  and  C_5 
REMARK       I    between atoms: C_5  and  N_6 
REMARK    3  A    between atoms: N_6  and  C_7 
REMARK    4  A    between atoms: C_7  and  N_8 
REMARK    5  A    between atoms: N_8  and  C_9 
REMARK    6  A    between atoms: C_10  and  C_11 
REMARK       I    between atoms: C_11  and  N_12 
REMARK    7  A    between atoms: N_12  and  C_13 
REMARK    8  A    between atoms: C_13  and  C_14 
REMARK    9  A    between atoms: C_14  and  C_15 
REMARK   10  A    between atoms: C_15  and  O_16 
ROOT
HETATM    1  N   UNL     1      -6.715   2.090 -32.533  1.00  0.00    -0.332 N 
HETATM    2  H   UNL     1      -6.715   2.439 -33.488  1.00  0.00     0.168 HD
ENDROOT
BRANCH   1   3
HETATM    3  C   UNL     1      -5.799   1.125 -32.301  1.00  0.00     0.179 C 
HETATM    4  S   UNL     1      -4.317   1.554 -31.654  1.00  0.00    -0.040 SA
BRANCH   3   5
HETATM    5  N   UNL     1      -6.009  -0.175 -32.645  1.00  0.00    -0.299 N 
HETATM    6  C   UNL     1      -6.196  -0.655 -33.938  1.00  0.00     0.260 C 
HETATM    7  O   UNL     1      -6.628   0.006 -34.878  1.00  0.00    -0.267 OA
HETATM    8  H   UNL     1      -5.472  -0.805 -32.059  1.00  0.00     0.171 HD
BRANCH   6   9
HETATM    9  C   UNL     1      -5.860  -2.103 -34.166  1.00  0.00     0.065 A 
HETATM   10  C   UNL     1      -4.603  -2.676 -33.874  1.00  0.00     0.084 A 
HETATM   11  C   UNL     1      -4.384  -4.031 -34.159  1.00  0.00     0.038 A 
HETATM   12  C   UNL     1      -5.391  -4.809 -34.736  1.00  0.00     0.003 A 
HETATM   13  C   UNL     1      -6.627  -4.245 -35.032  1.00  0.00     0.001 A 
HETATM   14  C   UNL     1      -6.859  -2.899 -34.751  1.00  0.00     0.020 A 
BRANCH  10  15
HETATM   15  O   UNL     1      -3.652  -1.864 -33.311  1.00  0.00    -0.355 OA
HETATM   16  C   UNL     1      -3.155  -2.215 -32.022  1.00  0.00     0.210 C 
ENDBRANCH  10  15
ENDBRANCH   6   9
ENDBRANCH   3   5
ENDBRANCH   1   3
BRANCH   1  17
HETATM   17  C   UNL     1      -7.488   2.861 -31.628  1.00  0.00     0.050 A 
HETATM   18  C   UNL     1      -8.863   2.580 -31.472  1.00  0.00     0.058 A 
HETATM   19  C   UNL     1      -9.680   3.428 -30.710  1.00  0.00     0.019 A 
HETATM   20  C   UNL     1      -9.133   4.541 -30.075  1.00  0.00     0.001 A 
HETATM   21  C   UNL     1      -7.772   4.809 -30.199  1.00  0.00     0.002 A 
HETATM   22  C   UNL     1      -6.954   3.979 -30.973  1.00  0.00     0.030 A 
BRANCH  18  23
HETATM   23  C   UNL     1      -9.509   1.375 -32.066  1.00  0.00     0.253 C 
HETATM   24  N   UNL     1     -10.682   1.614 -32.753  1.00  0.00    -0.357 N 
HETATM   25  H   UNL     1     -10.873   2.582 -33.007  1.00  0.00     0.162 HD
HETATM   26  O   UNL     1      -8.997   0.268 -31.949  1.00  0.00    -0.268 OA
BRANCH  24  27
HETATM   27  C   UNL     1     -11.380   0.566 -33.466  1.00  0.00     0.125 C 
BRANCH  27  28
HETATM   28  C   UNL     1     -12.651   1.108 -34.104  1.00  0.00     0.046 C 
BRANCH  28  29
HETATM   29  C   UNL     1     -13.838   0.192 -33.852  1.00  0.00     0.165 C 
BRANCH  29  30
HETATM   30  O   UNL     1     -13.387  -1.038 -33.298  1.00  0.00    -0.401 OA
HETATM   31  H   UNL     1     -12.600  -0.847 -32.759  1.00  0.00     0.209 HD
ENDBRANCH  29  30
ENDBRANCH  28  29
ENDBRANCH  27  28
ENDBRANCH  24  27
ENDBRANCH  18  23
ENDBRANCH   1  17
TORSDOF 10
ENDMDL
MODEL 2
REMARK VINA RESULT:      -7.6      3.458      6.219
REMARK  10 active torsions:
REMARK  status: ('A' for Active; 'I' for Inactive)
REMARK    1  A    between atoms: O_2  and  C_3 
REMARK    2  A    between atoms: C_4  and  C_5 
REMARK       I    between atoms: C_5  and  N_6 
REMARK    3  A    between atoms: N_6  and  C_7 
REMARK    4  A    between atoms: C_7  and  N_8 
REMARK    5  A    between atoms: N_8  and  C_9 
REMARK    6  A    between atoms: C_10  and  C_11 
REMARK       I    between atoms: C_11  and  N_12 
REMARK    7  A    between atoms: N_12  and  C_13 
REMARK    8  A    between atoms: C_13  and  C_14 
REMARK    9  A    between atoms: C_14  and  C_15 
REMARK   10  A    between atoms: C_15  and  O_16 
ROOT
HETATM    1  N   UNL     1      -4.827   1.692 -32.617  1.00  0.00    -0.332 N 
HETATM    2  H   UNL     1      -3.842   1.538 -32.822  1.00  0.00     0.168 HD
ENDROOT
BRANCH   1   3
HETATM    3  C   UNL     1      -5.382   0.737 -31.840  1.00  0.00     0.179 C 
HETATM    4  S   UNL     1      -5.617   1.051 -30.214  1.00  0.00    -0.040 SA
BRANCH   3   5
HETATM    5  N   UNL     1      -5.688  -0.500 -32.317  1.00  0.00    -0.299 N 
HETATM    6  C   UNL     1      -5.873  -0.834 -33.656  1.00  0.00     0.260 C 
HETATM    7  O   UNL     1      -6.220  -0.050 -34.535  1.00  0.00    -0.267 OA
HETATM    8  H   UNL     1      -5.223  -1.228 -31.784  1.00  0.00     0.171 HD
BRANCH   6   9
HETATM    9  C   UNL     1      -5.650  -2.277 -34.019  1.00  0.00     0.065 A 
HETATM   10  C   UNL     1      -4.466  -2.989 -33.729  1.00  0.00     0.084 A 
HETATM   11  C   UNL     1      -4.349  -4.323 -34.145  1.00  0.00     0.038 A 
HETATM   12  C   UNL     1      -5.385  -4.942 -34.849  1.00  0.00     0.003 A 
HETATM   13  C   UNL     1      -6.549  -4.241 -35.143  1.00  0.00     0.001 A 
HETATM   14  C   UNL     1      -6.679  -2.915 -34.732  1.00  0.00     0.020 A 
BRANCH  10  15
HETATM   15  O   UNL     1      -3.482  -2.328 -33.038  1.00  0.00    -0.355 OA
HETATM   16  C   UNL     1      -2.977  -2.938 -31.853  1.00  0.00     0.210 C 
ENDBRANCH  10  15
ENDBRANCH   6   9
ENDBRANCH   3   5
ENDBRANCH   1   3
BRANCH   1  17
HETATM   17  C   UNL     1      -5.305   2.978 -32.979  1.00  0.00     0.050 A 
HETATM   18  C   UNL     1      -4.496   4.112 -32.749  1.00  0.00     0.058 A 
HETATM   19  C   UNL     1      -5.008   5.402 -32.947  1.00  0.00     0.019 A 
HETATM   20  C   UNL     1      -6.313   5.574 -33.402  1.00  0.00     0.001 A 
HETATM   21  C   UNL     1      -7.108   4.461 -33.661  1.00  0.00     0.002 A 
HETATM   22  C   UNL     1      -6.612   3.170 -33.448  1.00  0.00     0.030 A 
BRANCH  18  23
HETATM   23  C   UNL     1      -3.071   4.008 -32.324  1.00  0.00     0.253 C 
HETATM   24  N   UNL     1      -2.221   4.943 -32.880  1.00  0.00    -0.357 N 
HETATM   25  H   UNL     1      -2.657   5.752 -33.319  1.00  0.00     0.162 HD
HETATM   26  O   UNL     1      -2.717   3.154 -31.521  1.00  0.00    -0.268 OA
BRANCH  24  27
HETATM   27  C   UNL     1      -0.828   5.036 -32.498  1.00  0.00     0.125 C 
BRANCH  27  28
HETATM   28  C   UNL     1      -0.636   6.107 -31.434  1.00  0.00     0.046 C 
BRANCH  28  29
HETATM   29  C   UNL     1       0.080   5.556 -30.210  1.00  0.00     0.165 C 
BRANCH  29  30
HETATM   30  O   UNL     1      -0.250   4.185 -30.036  1.00  0.00    -0.401 OA
HETATM   31  H   UNL     1      -1.140   4.047 -30.405  1.00  0.00     0.209 HD
ENDBRANCH  29  30
ENDBRANCH  28  29
ENDBRANCH  27  28
ENDBRANCH  24  27
ENDBRANCH  18  23
ENDBRANCH   1  17
TORSDOF 10
ENDMDL
MODEL 3
REMARK VINA RESULT:      -7.5      5.720      8.649
REMARK  10 active torsions:
REMARK  status: ('A' for Active; 'I' for Inactive)
REMARK    1  A    between atoms: O_2  and  C_3 
REMARK    2  A    between atoms: C_4  and  C_5 
REMARK       I    between atoms: C_5  and  N_6 
REMARK    3  A    between atoms: N_6  and  C_7 
REMARK    4  A    between atoms: C_7  and  N_8 
REMARK    5  A    between atoms: N_8  and  C_9 
REMARK    6  A    between atoms: C_10  and  C_11 
REMARK       I    between atoms: C_11  and  N_12 
REMARK    7  A    between atoms: N_12  and  C_13 
REMARK    8  A    between atoms: C_13  and  C_14 
REMARK    9  A    between atoms: C_14  and  C_15 
REMARK   10  A    between atoms: C_15  and  O_16 
ROOT
HETATM    1  N   UNL     1      -2.681   3.531 -31.411  1.00  0.00    -0.332 N 
HETATM    2  H   UNL     1      -2.222   3.548 -30.503  1.00  0.00     0.168 HD
ENDROOT
BRANCH   1   3
HETATM    3  C   UNL     1      -3.835   2.829 -31.430  1.00  0.00     0.179 C 
HETATM    4  S   UNL     1      -5.037   3.215 -30.333  1.00  0.00    -0.040 SA
BRANCH   3   5
HETATM    5  N   UNL     1      -4.025   1.769 -32.261  1.00  0.00    -0.299 N 
HETATM    6  C   UNL     1      -4.109   0.434 -31.872  1.00  0.00     0.260 C 
HETATM    7  O   UNL     1      -3.609  -0.035 -30.853  1.00  0.00    -0.267 OA
HETATM    8  H   UNL     1      -4.653   2.002 -33.023  1.00  0.00     0.171 HD
BRANCH   6   9
HETATM    9  C   UNL     1      -4.852  -0.485 -32.803  1.00  0.00     0.065 A 
HETATM   10  C   UNL     1      -6.213  -0.330 -33.145  1.00  0.00     0.084 A 
HETATM   11  C   UNL     1      -6.817  -1.267 -33.995  1.00  0.00     0.038 A 
HETATM   12  C   UNL     1      -6.089  -2.350 -34.493  1.00  0.00     0.003 A 
HETATM   13  C   UNL     1      -4.750  -2.509 -34.152  1.00  0.00     0.001 A 
HETATM   14  C   UNL     1      -4.136  -1.583 -33.310  1.00  0.00     0.020 A 
BRANCH  10  15
HETATM   15  O   UNL     1      -6.878   0.750 -32.622  1.00  0.00    -0.355 OA
HETATM   16  C   UNL     1      -7.881   0.502 -31.641  1.00  0.00     0.210 C 
ENDBRANCH  10  15
ENDBRANCH   6   9
ENDBRANCH   3   5
ENDBRANCH   1   3
BRANCH   1  17
HETATM   17  C   UNL     1      -2.142   4.442 -32.355  1.00  0.00     0.050 A 
HETATM   18  C   UNL     1      -1.190   5.398 -31.935  1.00  0.00     0.058 A 
HETATM   19  C   UNL     1      -0.766   6.409 -32.808  1.00  0.00     0.019 A 
HETATM   20  C   UNL     1      -1.258   6.461 -34.111  1.00  0.00     0.001 A 
HETATM   21  C   UNL     1      -2.174   5.504 -34.542  1.00  0.00     0.002 A 
HETATM   22  C   UNL     1      -2.617   4.503 -33.671  1.00  0.00     0.030 A 
BRANCH  18  23
HETATM   23  C   UNL     1      -0.569   5.371 -30.580  1.00  0.00     0.253 C 
HETATM   24  N   UNL     1      -0.741   6.518 -29.831  1.00  0.00    -0.357 N 
HETATM   25  H   UNL     1      -1.462   7.165 -30.146  1.00  0.00     0.162 HD
HETATM   26  O   UNL     1       0.028   4.378 -30.184  1.00  0.00    -0.268 OA
BRANCH  24  27
HETATM   27  C   UNL     1      -0.281   6.616 -28.462  1.00  0.00     0.125 C 
BRANCH  27  28
HETATM   28  C   UNL     1       0.819   7.661 -28.341  1.00  0.00     0.046 C 
BRANCH  28  29
HETATM   29  C   UNL     1       1.393   7.708 -26.934  1.00  0.00     0.165 C 
BRANCH  29  30
HETATM   30  O   UNL     1       2.247   8.837 -26.801  1.00  0.00    -0.401 OA
HETATM   31  H   UNL     1       3.127   8.581 -27.127  1.00  0.00     0.209 HD
ENDBRANCH  29  30
ENDBRANCH  28  29
ENDBRANCH  27  28
ENDBRANCH  24  27
ENDBRANCH  18  23
ENDBRANCH   1  17
TORSDOF 10
ENDMDL
MODEL 4
REMARK VINA RESULT:      -7.3      3.904      7.677
REMARK  10 active torsions:
REMARK  status: ('A' for Active; 'I' for Inactive)
REMARK    1  A    between atoms: O_2  and  C_3 
REMARK    2  A    between atoms: C_4  and  C_5 
REMARK       I    between atoms: C_5  and  N_6 
REMARK    3  A    between atoms: N_6  and  C_7 
REMARK    4  A    between atoms: C_7  and  N_8 
REMARK    5  A    between atoms: N_8  and  C_9 
REMARK    6  A    between atoms: C_10  and  C_11 
REMARK       I    between atoms: C_11  and  N_12 
REMARK    7  A    between atoms: N_12  and  C_13 
REMARK    8  A    between atoms: C_13  and  C_14 
REMARK    9  A    between atoms: C_14  and  C_15 
REMARK   10  A    between atoms: C_15  and  O_16 
ROOT
HETATM    1  N   UNL     1      -4.423   1.226 -32.401  1.00  0.00    -0.332 N 
HETATM    2  H   UNL     1      -3.517   0.965 -32.782  1.00  0.00     0.168 HD
ENDROOT
BRANCH   1   3
HETATM    3  C   UNL     1      -4.354   1.970 -31.276  1.00  0.00     0.179 C 
HETATM    4  S   UNL     1      -5.577   1.840 -30.142  1.00  0.00    -0.040 SA
BRANCH   3   5
HETATM    5  N   UNL     1      -3.362   2.877 -31.065  1.00  0.00    -0.299 N 
HETATM    6  C   UNL     1      -2.791   3.699 -32.034  1.00  0.00     0.260 C 
HETATM    7  O   UNL     1      -2.757   3.451 -33.236  1.00  0.00    -0.267 OA
HETATM    8  H   UNL     1      -3.461   3.332 -30.164  1.00  0.00     0.171 HD
BRANCH   6   9
HETATM    9  C   UNL     1      -2.151   4.967 -31.537  1.00  0.00     0.065 A 
HETATM   10  C   UNL     1      -2.844   5.978 -30.837  1.00  0.00     0.084 A 
HETATM   11  C   UNL     1      -2.158   7.138 -30.451  1.00  0.00     0.038 A 
HETATM   12  C   UNL     1      -0.806   7.302 -30.763  1.00  0.00     0.003 A 
HETATM   13  C   UNL     1      -0.123   6.312 -31.460  1.00  0.00     0.001 A 
HETATM   14  C   UNL     1      -0.793   5.151 -31.847  1.00  0.00     0.020 A 
BRANCH  10  15
HETATM   15  O   UNL     1      -4.170   5.763 -30.562  1.00  0.00    -0.355 OA
HETATM   16  C   UNL     1      -4.688   6.280 -29.338  1.00  0.00     0.210 C 
ENDBRANCH  10  15
ENDBRANCH   6   9
ENDBRANCH   3   5
ENDBRANCH   1   3
BRANCH   1  17
HETATM   17  C   UNL     1      -5.517   0.966 -33.266  1.00  0.00     0.050 A 
HETATM   18  C   UNL     1      -5.708  -0.338 -33.773  1.00  0.00     0.058 A 
HETATM   19  C   UNL     1      -6.680  -0.584 -34.753  1.00  0.00     0.019 A 
HETATM   20  C   UNL     1      -7.488   0.454 -35.213  1.00  0.00     0.001 A 
HETATM   21  C   UNL     1      -7.327   1.737 -34.696  1.00  0.00     0.002 A 
HETATM   22  C   UNL     1      -6.346   1.995 -33.732  1.00  0.00     0.030 A 
BRANCH  18  23
HETATM   23  C   UNL     1      -4.929  -1.512 -33.286  1.00  0.00     0.253 C 
HETATM   24  N   UNL     1      -4.815  -2.556 -34.181  1.00  0.00    -0.357 N 
HETATM   25  H   UNL     1      -5.043  -2.351 -35.153  1.00  0.00     0.162 HD
HETATM   26  O   UNL     1      -4.424  -1.508 -32.170  1.00  0.00    -0.268 OA
BRANCH  24  27
HETATM   27  C   UNL     1      -4.013  -3.727 -33.896  1.00  0.00     0.125 C 
BRANCH  27  28
HETATM   28  C   UNL     1      -4.752  -4.993 -34.303  1.00  0.00     0.046 C 
BRANCH  28  29
HETATM   29  C   UNL     1      -5.908  -4.689 -35.242  1.00  0.00     0.165 C 
BRANCH  29  30
HETATM   30  O   UNL     1      -7.106  -4.527 -34.494  1.00  0.00    -0.401 OA
HETATM   31  H   UNL     1      -6.917  -3.911 -33.764  1.00  0.00     0.209 HD
ENDBRANCH  29  30
ENDBRANCH  28  29
ENDBRANCH  27  28
ENDBRANCH  24  27
ENDBRANCH  18  23
ENDBRANCH   1  17
TORSDOF 10
ENDMDL
MODEL 5
REMARK VINA RESULT:      -7.2      5.395      8.130
REMARK  10 active torsions:
REMARK  status: ('A' for Active; 'I' for Inactive)
REMARK    1  A    between atoms: O_2  and  C_3 
REMARK    2  A    between atoms: C_4  and  C_5 
REMARK       I    between atoms: C_5  and  N_6 
REMARK    3  A    between atoms: N_6  and  C_7 
REMARK    4  A    between atoms: C_7  and  N_8 
REMARK    5  A    between atoms: N_8  and  C_9 
REMARK    6  A    between atoms: C_10  and  C_11 
REMARK       I    between atoms: C_11  and  N_12 
REMARK    7  A    between atoms: N_12  and  C_13 
REMARK    8  A    between atoms: C_13  and  C_14 
REMARK    9  A    between atoms: C_14  and  C_15 
REMARK   10  A    between atoms: C_15  and  O_16 
ROOT
HETATM    1  N   UNL     1      -3.365   4.235 -31.179  1.00  0.00    -0.332 N 
HETATM    2  H   UNL     1      -2.916   4.213 -30.267  1.00  0.00     0.168 HD
ENDROOT
BRANCH   1   3
HETATM    3  C   UNL     1      -4.682   3.934 -31.152  1.00  0.00     0.179 C 
HETATM    4  S   UNL     1      -5.749   5.027 -30.471  1.00  0.00    -0.040 SA
BRANCH   3   5
HETATM    5  N   UNL     1      -5.162   2.739 -31.589  1.00  0.00    -0.299 N 
HETATM    6  C   UNL     1      -5.583   2.455 -32.887  1.00  0.00     0.260 C 
HETATM    7  O   UNL     1      -5.995   3.287 -33.690  1.00  0.00    -0.267 OA
HETATM    8  H   UNL     1      -4.683   1.961 -31.147  1.00  0.00     0.171 HD
BRANCH   6   9
HETATM    9  C   UNL     1      -5.542   1.009 -33.298  1.00  0.00     0.065 A 
HETATM   10  C   UNL     1      -4.457   0.144 -33.035  1.00  0.00     0.084 A 
HETATM   11  C   UNL     1      -4.508  -1.179 -33.497  1.00  0.00     0.038 A 
HETATM   12  C   UNL     1      -5.611  -1.639 -34.219  1.00  0.00     0.003 A 
HETATM   13  C   UNL     1      -6.677  -0.787 -34.487  1.00  0.00     0.001 A 
HETATM   14  C   UNL     1      -6.641   0.531 -34.031  1.00  0.00     0.020 A 
BRANCH  10  15
HETATM   15  O   UNL     1      -3.400   0.652 -32.325  1.00  0.00    -0.355 OA
HETATM   16  C   UNL     1      -2.991  -0.045 -31.151  1.00  0.00     0.210 C 
ENDBRANCH  10  15
ENDBRANCH   6   9
ENDBRANCH   3   5
ENDBRANCH   1   3
BRANCH   1  17
HETATM   17  C   UNL     1      -2.575   4.813 -32.205  1.00  0.00     0.050 A 
HETATM   18  C   UNL     1      -1.917   6.040 -31.969  1.00  0.00     0.058 A 
HETATM   19  C   UNL     1      -1.266   6.710 -33.015  1.00  0.00     0.019 A 
HETATM   20  C   UNL     1      -1.237   6.153 -34.292  1.00  0.00     0.001 A 
HETATM   21  C   UNL     1      -1.858   4.929 -34.526  1.00  0.00     0.002 A 
HETATM   22  C   UNL     1      -2.526   4.264 -33.493  1.00  0.00     0.030 A 
BRANCH  18  23
HETATM   23  C   UNL     1      -1.847   6.667 -30.619  1.00  0.00     0.253 C 
HETATM   24  N   UNL     1      -0.663   7.316 -30.331  1.00  0.00    -0.357 N 
HETATM   25  H   UNL     1      -0.054   7.526 -31.120  1.00  0.00     0.162 HD
HETATM   26  O   UNL     1      -2.800   6.608 -29.851  1.00  0.00    -0.268 OA
BRANCH  24  27
HETATM   27  C   UNL     1      -0.473   8.055 -29.101  1.00  0.00     0.125 C 
BRANCH  27  28
HETATM   28  C   UNL     1       0.803   7.610 -28.402  1.00  0.00     0.046 C 
BRANCH  28  29
HETATM   29  C   UNL     1       0.512   6.621 -27.284  1.00  0.00     0.165 C 
BRANCH  29  30
HETATM   30  O   UNL     1      -0.676   5.897 -27.579  1.00  0.00    -0.401 OA
HETATM   31  H   UNL     1      -0.702   5.755 -28.541  1.00  0.00     0.209 HD
ENDBRANCH  29  30
ENDBRANCH  28  29
ENDBRANCH  27  28
ENDBRANCH  24  27
ENDBRANCH  18  23
ENDBRANCH   1  17
TORSDOF 10
ENDMDL
MODEL 6
REMARK VINA RESULT:      -7.1      3.852      6.510
REMARK  10 active torsions:
REMARK  status: ('A' for Active; 'I' for Inactive)
REMARK    1  A    between atoms: O_2  and  C_3 
REMARK    2  A    between atoms: C_4  and  C_5 
REMARK       I    between atoms: C_5  and  N_6 
REMARK    3  A    between atoms: N_6  and  C_7 
REMARK    4  A    between atoms: C_7  and  N_8 
REMARK    5  A    between atoms: N_8  and  C_9 
REMARK    6  A    between atoms: C_10  and  C_11 
REMARK       I    between atoms: C_11  and  N_12 
REMARK    7  A    between atoms: N_12  and  C_13 
REMARK    8  A    between atoms: C_13  and  C_14 
REMARK    9  A    between atoms: C_14  and  C_15 
REMARK   10  A    between atoms: C_15  and  O_16 
ROOT
HETATM    1  N   UNL     1      -5.948   2.446 -32.844  1.00  0.00    -0.332 N 
HETATM    2  H   UNL     1      -6.339   3.201 -33.402  1.00  0.00     0.168 HD
ENDROOT
BRANCH   1   3
HETATM    3  C   UNL     1      -5.429   2.847 -31.663  1.00  0.00     0.179 C 
HETATM    4  S   UNL     1      -5.980   2.135 -30.253  1.00  0.00    -0.040 SA
BRANCH   3   5
HETATM    5  N   UNL     1      -4.530   3.863 -31.573  1.00  0.00    -0.299 N 
HETATM    6  C   UNL     1      -3.144   3.731 -31.620  1.00  0.00     0.260 C 
HETATM    7  O   UNL     1      -2.523   2.717 -31.313  1.00  0.00    -0.267 OA
HETATM    8  H   UNL     1      -4.867   4.699 -32.039  1.00  0.00     0.171 HD
BRANCH   6   9
HETATM    9  C   UNL     1      -2.374   4.947 -32.058  1.00  0.00     0.065 A 
HETATM   10  C   UNL     1      -2.757   5.778 -33.133  1.00  0.00     0.084 A 
HETATM   11  C   UNL     1      -1.945   6.867 -33.480  1.00  0.00     0.038 A 
HETATM   12  C   UNL     1      -0.764   7.126 -32.782  1.00  0.00     0.003 A 
HETATM   13  C   UNL     1      -0.380   6.304 -31.727  1.00  0.00     0.001 A 
HETATM   14  C   UNL     1      -1.180   5.219 -31.370  1.00  0.00     0.020 A 
BRANCH  10  15
HETATM   15  O   UNL     1      -3.925   5.473 -33.784  1.00  0.00    -0.355 OA
HETATM   16  C   UNL     1      -3.851   5.173 -35.176  1.00  0.00     0.210 C 
ENDBRANCH  10  15
ENDBRANCH   6   9
ENDBRANCH   3   5
ENDBRANCH   1   3
BRANCH   1  17
HETATM   17  C   UNL     1      -6.263   1.146 -33.317  1.00  0.00     0.050 A 
HETATM   18  C   UNL     1      -7.615   0.770 -33.472  1.00  0.00     0.058 A 
HETATM   19  C   UNL     1      -7.953  -0.555 -33.781  1.00  0.00     0.019 A 
HETATM   20  C   UNL     1      -6.953  -1.507 -33.968  1.00  0.00     0.001 A 
HETATM   21  C   UNL     1      -5.616  -1.138 -33.847  1.00  0.00     0.002 A 
HETATM   22  C   UNL     1      -5.270   0.178 -33.520  1.00  0.00     0.030 A 
BRANCH  18  23
HETATM   23  C   UNL     1      -8.738   1.743 -33.351  1.00  0.00     0.253 C 
HETATM   24  N   UNL     1      -9.487   1.923 -34.497  1.00  0.00    -0.357 N 
HETATM   25  H   UNL     1      -9.379   1.221 -35.228  1.00  0.00     0.162 HD
HETATM   26  O   UNL     1      -8.963   2.311 -32.290  1.00  0.00    -0.268 OA
BRANCH  24  27
HETATM   27  C   UNL     1     -10.667   2.760 -34.519  1.00  0.00     0.125 C 
BRANCH  27  28
HETATM   28  C   UNL     1     -11.864   2.012 -33.951  1.00  0.00     0.046 C 
BRANCH  28  29
HETATM   29  C   UNL     1     -12.739   1.439 -35.055  1.00  0.00     0.165 C 
BRANCH  29  30
HETATM   30  O   UNL     1     -12.209   1.798 -36.324  1.00  0.00    -0.401 OA
HETATM   31  H   UNL     1     -12.767   1.383 -37.005  1.00  0.00     0.209 HD
ENDBRANCH  29  30
ENDBRANCH  28  29
ENDBRANCH  27  28
ENDBRANCH  24  27
ENDBRANCH  18  23
ENDBRANCH   1  17
TORSDOF 10
ENDMDL
MODEL 7
REMARK VINA RESULT:      -7.1      2.501      4.605
REMARK  10 active torsions:
REMARK  status: ('A' for Active; 'I' for Inactive)
REMARK    1  A    between atoms: O_2  and  C_3 
REMARK    2  A    between atoms: C_4  and  C_5 
REMARK       I    between atoms: C_5  and  N_6 
REMARK    3  A    between atoms: N_6  and  C_7 
REMARK    4  A    between atoms: C_7  and  N_8 
REMARK    5  A    between atoms: N_8  and  C_9 
REMARK    6  A    between atoms: C_10  and  C_11 
REMARK       I    between atoms: C_11  and  N_12 
REMARK    7  A    between atoms: N_12  and  C_13 
REMARK    8  A    between atoms: C_13  and  C_14 
REMARK    9  A    between atoms: C_14  and  C_15 
REMARK   10  A    between atoms: C_15  and  O_16 
ROOT
HETATM    1  N   UNL     1     -10.099   1.268 -33.950  1.00  0.00    -0.332 N 
HETATM    2  H   UNL     1      -9.687   1.755 -34.742  1.00  0.00     0.168 HD
ENDROOT
BRANCH   1   3
HETATM    3  C   UNL     1      -9.202   0.866 -33.024  1.00  0.00     0.179 C 
HETATM    4  S   UNL     1      -8.991   1.789 -31.645  1.00  0.00    -0.040 SA
BRANCH   3   5
HETATM    5  N   UNL     1      -8.407  -0.223 -33.208  1.00  0.00    -0.299 N 
HETATM    6  C   UNL     1      -7.677  -0.514 -34.358  1.00  0.00     0.260 C 
HETATM    7  O   UNL     1      -7.954  -0.118 -35.486  1.00  0.00    -0.267 OA
HETATM    8  H   UNL     1      -7.923  -0.478 -32.353  1.00  0.00     0.171 HD
BRANCH   6   9
HETATM    9  C   UNL     1      -6.478  -1.405 -34.177  1.00  0.00     0.065 A 
HETATM   10  C   UNL     1      -5.317  -1.031 -33.467  1.00  0.00     0.084 A 
HETATM   11  C   UNL     1      -4.241  -1.926 -33.391  1.00  0.00     0.038 A 
HETATM   12  C   UNL     1      -4.308  -3.173 -34.017  1.00  0.00     0.003 A 
HETATM   13  C   UNL     1      -5.447  -3.542 -34.723  1.00  0.00     0.001 A 
HETATM   14  C   UNL     1      -6.526  -2.661 -34.805  1.00  0.00     0.020 A 
BRANCH  10  15
HETATM   15  O   UNL     1      -5.307   0.207 -32.876  1.00  0.00    -0.355 OA
HETATM   16  C   UNL     1      -5.217   0.265 -31.455  1.00  0.00     0.210 C 
ENDBRANCH  10  15
ENDBRANCH   6   9
ENDBRANCH   3   5
ENDBRANCH   1   3
BRANCH   1  17
HETATM   17  C   UNL     1     -11.514   1.349 -33.886  1.00  0.00     0.050 A 
HETATM   18  C   UNL     1     -12.138   2.615 -33.854  1.00  0.00     0.058 A 
HETATM   19  C   UNL     1     -13.517   2.723 -33.628  1.00  0.00     0.019 A 
HETATM   20  C   UNL     1     -14.290   1.575 -33.463  1.00  0.00     0.001 A 
HETATM   21  C   UNL     1     -13.688   0.321 -33.522  1.00  0.00     0.002 A 
HETATM   22  C   UNL     1     -12.309   0.206 -33.728  1.00  0.00     0.030 A 
BRANCH  18  23
HETATM   23  C   UNL     1     -11.391   3.884 -34.087  1.00  0.00     0.253 C 
HETATM   24  N   UNL     1     -11.264   4.704 -32.983  1.00  0.00    -0.357 N 
HETATM   25  H   UNL     1     -11.460   4.282 -32.077  1.00  0.00     0.162 HD
HETATM   26  O   UNL     1     -10.920   4.141 -35.188  1.00  0.00    -0.268 OA
BRANCH  24  27
HETATM   27  C   UNL     1     -10.488   5.925 -33.019  1.00  0.00     0.125 C 
BRANCH  27  28
HETATM   28  C   UNL     1      -9.181   5.751 -32.260  1.00  0.00     0.046 C 
BRANCH  28  29
HETATM   29  C   UNL     1      -8.011   5.529 -33.206  1.00  0.00     0.165 C 
BRANCH  29  30
HETATM   30  O   UNL     1      -8.459   5.612 -34.553  1.00  0.00    -0.401 OA
HETATM   31  H   UNL     1      -7.806   5.154 -35.109  1.00  0.00     0.209 HD
ENDBRANCH  29  30
ENDBRANCH  28  29
ENDBRANCH  27  28
ENDBRANCH  24  27
ENDBRANCH  18  23
ENDBRANCH   1  17
TORSDOF 10
ENDMDL
MODEL 8
REMARK VINA RESULT:      -7.0      3.847      6.366
REMARK  10 active torsions:
REMARK  status: ('A' for Active; 'I' for Inactive)
REMARK    1  A    between atoms: O_2  and  C_3 
REMARK    2  A    between atoms: C_4  and  C_5 
REMARK       I    between atoms: C_5  and  N_6 
REMARK    3  A    between atoms: N_6  and  C_7 
REMARK    4  A    between atoms: C_7  and  N_8 
REMARK    5  A    between atoms: N_8  and  C_9 
REMARK    6  A    between atoms: C_10  and  C_11 
REMARK       I    between atoms: C_11  and  N_12 
REMARK    7  A    between atoms: N_12  and  C_13 
REMARK    8  A    between atoms: C_13  and  C_14 
REMARK    9  A    between atoms: C_14  and  C_15 
REMARK   10  A    between atoms: C_15  and  O_16 
ROOT
HETATM    1  N   UNL     1      -6.076   1.433 -32.628  1.00  0.00    -0.332 N 
HETATM    2  H   UNL     1      -7.013   1.735 -32.886  1.00  0.00     0.168 HD
ENDROOT
BRANCH   1   3
HETATM    3  C   UNL     1      -5.530   2.141 -31.616  1.00  0.00     0.179 C 
HETATM    4  S   UNL     1      -6.006   1.811 -30.046  1.00  0.00    -0.040 SA
BRANCH   3   5
HETATM    5  N   UNL     1      -4.662   3.166 -31.833  1.00  0.00    -0.299 N 
HETATM    6  C   UNL     1      -3.272   3.073 -31.825  1.00  0.00     0.260 C 
HETATM    7  O   UNL     1      -2.628   2.221 -31.218  1.00  0.00    -0.267 OA
HETATM    8  H   UNL     1      -5.014   3.809 -32.534  1.00  0.00     0.171 HD
BRANCH   6   9
HETATM    9  C   UNL     1      -2.530   4.122 -32.607  1.00  0.00     0.065 A 
HETATM   10  C   UNL     1      -1.455   4.878 -32.091  1.00  0.00     0.084 A 
HETATM   11  C   UNL     1      -0.857   5.858 -32.895  1.00  0.00     0.038 A 
HETATM   12  C   UNL     1      -1.323   6.097 -34.190  1.00  0.00     0.003 A 
HETATM   13  C   UNL     1      -2.387   5.360 -34.699  1.00  0.00     0.001 A 
HETATM   14  C   UNL     1      -2.989   4.380 -33.910  1.00  0.00     0.020 A 
BRANCH  10  15
HETATM   15  O   UNL     1      -1.044   4.602 -30.811  1.00  0.00    -0.355 OA
HETATM   16  C   UNL     1       0.183   5.177 -30.369  1.00  0.00     0.210 C 
ENDBRANCH  10  15
ENDBRANCH   6   9
ENDBRANCH   3   5
ENDBRANCH   1   3
BRANCH   1  17
HETATM   17  C   UNL     1      -5.678   0.203 -33.211  1.00  0.00     0.050 A 
HETATM   18  C   UNL     1      -6.634  -0.592 -33.879  1.00  0.00     0.058 A 
HETATM   19  C   UNL     1      -6.303  -1.881 -34.321  1.00  0.00     0.019 A 
HETATM   20  C   UNL     1      -5.015  -2.376 -34.130  1.00  0.00     0.001 A 
HETATM   21  C   UNL     1      -4.057  -1.587 -33.498  1.00  0.00     0.002 A 
HETATM   22  C   UNL     1      -4.384  -0.307 -33.038  1.00  0.00     0.030 A 
BRANCH  18  23
HETATM   23  C   UNL     1      -8.012  -0.110 -34.179  1.00  0.00     0.253 C 
HETATM   24  N   UNL     1      -8.879  -0.100 -33.105  1.00  0.00    -0.357 N 
HETATM   25  H   UNL     1      -8.460  -0.177 -32.179  1.00  0.00     0.162 HD
HETATM   26  O   UNL     1      -8.315   0.262 -35.306  1.00  0.00    -0.268 OA
BRANCH  24  27
HETATM   27  C   UNL     1     -10.223   0.428 -33.208  1.00  0.00     0.125 C 
BRANCH  27  28
HETATM   28  C   UNL     1     -10.262   1.883 -32.764  1.00  0.00     0.046 C 
BRANCH  28  29
HETATM   29  C   UNL     1     -10.382   2.826 -33.950  1.00  0.00     0.165 C 
BRANCH  29  30
HETATM   30  O   UNL     1     -10.556   2.076 -35.146  1.00  0.00    -0.401 OA
HETATM   31  H   UNL     1     -11.261   1.426 -34.985  1.00  0.00     0.209 HD
ENDBRANCH  29  30
ENDBRANCH  28  29
ENDBRANCH  27  28
ENDBRANCH  24  27
ENDBRANCH  18  23
ENDBRANCH   1  17
TORSDOF 10
ENDMDL
MODEL 9
REMARK VINA RESULT:      -6.9      2.918      4.101
REMARK  10 active torsions:
REMARK  status: ('A' for Active; 'I' for Inactive)
REMARK    1  A    between atoms: O_2  and  C_3 
REMARK    2  A    between atoms: C_4  and  C_5 
REMARK       I    between atoms: C_5  and  N_6 
REMARK    3  A    between atoms: N_6  and  C_7 
REMARK    4  A    between atoms: C_7  and  N_8 
REMARK    5  A    between atoms: N_8  and  C_9 
REMARK    6  A    between atoms: C_10  and  C_11 
REMARK       I    between atoms: C_11  and  N_12 
REMARK    7  A    between atoms: N_12  and  C_13 
REMARK    8  A    between atoms: C_13  and  C_14 
REMARK    9  A    between atoms: C_14  and  C_15 
REMARK   10  A    between atoms: C_15  and  O_16 
ROOT
HETATM    1  N   UNL     1      -6.221   1.980 -33.303  1.00  0.00    -0.332 N 
HETATM    2  H   UNL     1      -6.153   1.963 -34.317  1.00  0.00     0.168 HD
ENDROOT
BRANCH   1   3
HETATM    3  C   UNL     1      -7.065   1.056 -32.794  1.00  0.00     0.179 C 
HETATM    4  S   UNL     1      -8.274   1.552 -31.748  1.00  0.00    -0.040 SA
BRANCH   3   5
HETATM    5  N   UNL     1      -6.922  -0.274 -33.041  1.00  0.00    -0.299 N 
HETATM    6  C   UNL     1      -6.746  -0.855 -34.294  1.00  0.00     0.260 C 
HETATM    7  O   UNL     1      -7.119  -0.364 -35.356  1.00  0.00    -0.267 OA
HETATM    8  H   UNL     1      -6.386  -0.731 -32.311  1.00  0.00     0.171 HD
BRANCH   6   9
HETATM    9  C   UNL     1      -6.069  -2.198 -34.316  1.00  0.00     0.065 A 
HETATM   10  C   UNL     1      -4.730  -2.413 -33.925  1.00  0.00     0.084 A 
HETATM   11  C   UNL     1      -4.187  -3.702 -34.019  1.00  0.00     0.038 A 
HETATM   12  C   UNL     1      -4.953  -4.764 -34.505  1.00  0.00     0.003 A 
HETATM   13  C   UNL     1      -6.270  -4.554 -34.898  1.00  0.00     0.001 A 
HETATM   14  C   UNL     1      -6.824  -3.277 -34.806  1.00  0.00     0.020 A 
BRANCH  10  15
HETATM   15  O   UNL     1      -4.025  -1.332 -33.460  1.00  0.00    -0.355 OA
HETATM   16  C   UNL     1      -3.378  -1.454 -32.196  1.00  0.00     0.210 C 
ENDBRANCH  10  15
ENDBRANCH   6   9
ENDBRANCH   3   5
ENDBRANCH   1   3
BRANCH   1  17
HETATM   17  C   UNL     1      -5.241   2.782 -32.664  1.00  0.00     0.050 A 
HETATM   18  C   UNL     1      -5.401   4.185 -32.636  1.00  0.00     0.058 A 
HETATM   19  C   UNL     1      -4.373   5.008 -32.157  1.00  0.00     0.019 A 
HETATM   20  C   UNL     1      -3.194   4.445 -31.674  1.00  0.00     0.001 A 
HETATM   21  C   UNL     1      -3.040   3.061 -31.669  1.00  0.00     0.002 A 
HETATM   22  C   UNL     1      -4.054   2.233 -32.164  1.00  0.00     0.030 A 
BRANCH  18  23
HETATM   23  C   UNL     1      -6.656   4.859 -33.074  1.00  0.00     0.253 C 
HETATM   24  N   UNL     1      -7.362   5.498 -32.075  1.00  0.00    -0.357 N 
HETATM   25  H   UNL     1      -6.864   5.670 -31.203  1.00  0.00     0.162 HD
HETATM   26  O   UNL     1      -6.999   4.843 -34.250  1.00  0.00    -0.268 OA
BRANCH  24  27
HETATM   27  C   UNL     1      -8.550   6.277 -32.351  1.00  0.00     0.125 C 
BRANCH  27  28
HETATM   28  C   UNL     1      -9.722   5.781 -31.517  1.00  0.00     0.046 C 
BRANCH  28  29
HETATM   29  C   UNL     1      -9.255   5.169 -30.206  1.00  0.00     0.165 C 
BRANCH  29  30
HETATM   30  O   UNL     1      -9.556   6.049 -29.130  1.00  0.00    -0.401 OA
HETATM   31  H   UNL     1      -8.714   6.318 -28.725  1.00  0.00     0.209 HD
ENDBRANCH  29  30
ENDBRANCH  28  29
ENDBRANCH  27  28
ENDBRANCH  24  27
ENDBRANCH  18  23
ENDBRANCH   1  17
TORSDOF 10
ENDMDL
MODEL 10
REMARK VINA RESULT:      -6.9      3.766      7.024
REMARK  10 active torsions:
REMARK  status: ('A' for Active; 'I' for Inactive)
REMARK    1  A    between atoms: O_2  and  C_3 
REMARK    2  A    between atoms: C_4  and  C_5 
REMARK       I    between atoms: C_5  and  N_6 
REMARK    3  A    between atoms: N_6  and  C_7 
REMARK    4  A    between atoms: C_7  and  N_8 
REMARK    5  A    between atoms: N_8  and  C_9 
REMARK    6  A    between atoms: C_10  and  C_11 
REMARK       I    between atoms: C_11  and  N_12 
REMARK    7  A    between atoms: N_12  and  C_13 
REMARK    8  A    between atoms: C_13  and  C_14 
REMARK    9  A    between atoms: C_14  and  C_15 
REMARK   10  A    between atoms: C_15  and  O_16 
ROOT
HETATM    1  N   UNL     1      -5.185   2.098 -32.848  1.00  0.00    -0.332 N 
HETATM    2  H   UNL     1      -5.628   2.537 -33.652  1.00  0.00     0.168 HD
ENDROOT
BRANCH   1   3
HETATM    3  C   UNL     1      -5.246   2.833 -31.717  1.00  0.00     0.179 C 
HETATM    4  S   UNL     1      -6.376   2.433 -30.550  1.00  0.00    -0.040 SA
BRANCH   3   5
HETATM    5  N   UNL     1      -4.473   3.936 -31.525  1.00  0.00    -0.299 N 
HETATM    6  C   UNL     1      -3.080   3.969 -31.548  1.00  0.00     0.260 C 
HETATM    7  O   UNL     1      -2.350   3.012 -31.308  1.00  0.00    -0.267 OA
HETATM    8  H   UNL     1      -4.898   4.763 -31.931  1.00  0.00     0.171 HD
BRANCH   6   9
HETATM    9  C   UNL     1      -2.452   5.297 -31.870  1.00  0.00     0.065 A 
HETATM   10  C   UNL     1      -2.864   6.128 -32.934  1.00  0.00     0.084 A 
HETATM   11  C   UNL     1      -2.183   7.331 -33.168  1.00  0.00     0.038 A 
HETATM   12  C   UNL     1      -1.101   7.704 -32.367  1.00  0.00     0.003 A 
HETATM   13  C   UNL     1      -0.688   6.884 -31.323  1.00  0.00     0.001 A 
HETATM   14  C   UNL     1      -1.358   5.685 -31.078  1.00  0.00     0.020 A 
BRANCH  10  15
HETATM   15  O   UNL     1      -3.930   5.709 -33.689  1.00  0.00    -0.355 OA
HETATM   16  C   UNL     1      -3.672   5.274 -35.021  1.00  0.00     0.210 C 
ENDBRANCH  10  15
ENDBRANCH   6   9
ENDBRANCH   3   5
ENDBRANCH   1   3
BRANCH   1  17
HETATM   17  C   UNL     1      -4.839   0.736 -33.043  1.00  0.00     0.050 A 
HETATM   18  C   UNL     1      -5.715  -0.109 -33.759  1.00  0.00     0.058 A 
HETATM   19  C   UNL     1      -5.476  -1.489 -33.826  1.00  0.00     0.019 A 
HETATM   20  C   UNL     1      -4.352  -2.034 -33.209  1.00  0.00     0.001 A 
HETATM   21  C   UNL     1      -3.467  -1.204 -32.525  1.00  0.00     0.002 A 
HETATM   22  C   UNL     1      -3.709   0.171 -32.438  1.00  0.00     0.030 A 
BRANCH  18  23
HETATM   23  C   UNL     1      -6.902   0.407 -34.499  1.00  0.00     0.253 C 
HETATM   24  N   UNL     1      -7.935   0.867 -33.708  1.00  0.00    -0.357 N 
HETATM   25  H   UNL     1      -7.716   1.047 -32.730  1.00  0.00     0.162 HD
HETATM   26  O   UNL     1      -6.918   0.425 -35.724  1.00  0.00    -0.268 OA
BRANCH  24  27
HETATM   27  C   UNL     1      -9.117   1.485 -34.272  1.00  0.00     0.125 C 
BRANCH  27  28
HETATM   28  C   UNL     1     -10.360   1.062 -33.503  1.00  0.00     0.046 C 
BRANCH  28  29
HETATM   29  C   UNL     1     -10.068  -0.095 -32.561  1.00  0.00     0.165 C 
BRANCH  29  30
HETATM   30  O   UNL     1      -9.546   0.402 -31.335  1.00  0.00    -0.401 OA
HETATM   31  H   UNL     1     -10.090   1.164 -31.071  1.00  0.00     0.209 HD
ENDBRANCH  29  30
ENDBRANCH  28  29
ENDBRANCH  27  28
ENDBRANCH  24  27
ENDBRANCH  18  23
ENDBRANCH   1  17
TORSDOF 10
ENDMDL
