MODEL 1
REMARK VINA RESULT:      -8.2      0.000      0.000
REMARK  5 active torsions:
REMARK  status: ('A' for Active; 'I' for Inactive)
REMARK    1  A    between atoms: C_2  and  O_3 
REMARK    2  A    between atoms: O_3  and  C_4 
REMARK    3  A    between atoms: C_5  and  C_6 
REMARK       I    between atoms: C_6  and  N_7 
REMARK    4  A    between atoms: N_7  and  N_8 
REMARK    5  A    between atoms: C_9  and  C_10 
ROOT
HETATM    1  C   UNL     1      -9.805   0.542 -33.318  1.00  0.00     0.274 C 
HETATM    2  N   UNL     1      -8.629   0.496 -34.048  1.00  0.00    -0.243 N 
HETATM    3  O   UNL     1     -10.008  -0.087 -32.282  1.00  0.00    -0.266 OA
HETATM    4  H   UNL     1      -8.533   1.061 -34.887  1.00  0.00     0.192 HD
ENDROOT
BRANCH   2   5
HETATM    5  N   UNL     1      -7.662  -0.402 -33.703  1.00  0.00    -0.183 NA
HETATM    6  C   UNL     1      -6.460  -0.133 -34.098  1.00  0.00     0.152 C 
BRANCH   6   7
HETATM    7  C   UNL     1      -5.401  -1.079 -33.818  1.00  0.00     0.011 A 
HETATM    8  C   UNL     1      -5.354  -2.474 -34.144  1.00  0.00     0.004 A 
HETATM    9  C   UNL     1      -4.153  -2.980 -33.642  1.00  0.00     0.043 A 
HETATM   10  C   UNL     1      -6.225  -3.362 -34.812  1.00  0.00     0.014 A 
HETATM   11  C   UNL     1      -3.781  -4.323 -33.769  1.00  0.00     0.030 A 
HETATM   12  N   UNL     1      -3.488  -1.935 -33.044  1.00  0.00    -0.364 N 
HETATM   13  C   UNL     1      -4.663  -5.180 -34.433  1.00  0.00     0.002 A 
HETATM   14  C   UNL     1      -5.867  -4.709 -34.949  1.00  0.00     0.001 A 
HETATM   15  H   UNL     1      -2.589  -2.007 -32.590  1.00  0.00     0.165 HD
HETATM   16  C   UNL     1      -4.228  -0.790 -33.144  1.00  0.00     0.102 A 
ENDBRANCH   6   7
ENDBRANCH   2   5
BRANCH   1  17
HETATM   17  C   UNL     1     -10.911   1.375 -33.886  1.00  0.00     0.068 A 
HETATM   18  C   UNL     1     -10.734   2.640 -34.478  1.00  0.00     0.084 A 
HETATM   19  C   UNL     1     -11.841   3.298 -35.036  1.00  0.00     0.039 A 
HETATM   20  C   UNL     1     -13.116   2.728 -34.973  1.00  0.00     0.022 A 
HETATM   21  C   UNL     1     -13.291   1.495 -34.356  1.00  0.00     0.012 A 
HETATM   22  C   UNL     1     -12.202   0.819 -33.817  1.00  0.00     0.039 A 
HETATM   23 BR   UNL     1     -15.015   0.725 -34.272  1.00  0.00    -0.051 Br
BRANCH  18  24
HETATM   24  O   UNL     1      -9.468   3.172 -34.520  1.00  0.00    -0.350 OA
BRANCH  24  25
HETATM   25  C   UNL     1      -9.321   4.470 -33.930  1.00  0.00     0.171 C 
HETATM   26  C   UNL     1      -9.309   4.304 -32.421  1.00  0.00     0.034 C 
ENDBRANCH  24  25
ENDBRANCH  18  24
ENDBRANCH   1  17
TORSDOF 5
ENDMDL
MODEL 2
REMARK VINA RESULT:      -8.2      2.028      2.953
REMARK  5 active torsions:
REMARK  status: ('A' for Active; 'I' for Inactive)
REMARK    1  A    between atoms: C_2  and  O_3 
REMARK    2  A    between atoms: O_3  and  C_4 
REMARK    3  A    between atoms: C_5  and  C_6 
REMARK       I    between atoms: C_6  and  N_7 
REMARK    4  A    between atoms: N_7  and  N_8 
REMARK    5  A    between atoms: C_9  and  C_10 
ROOT
HETATM    1  C   UNL     1      -9.227   2.281 -34.127  1.00  0.00     0.274 C 
HETATM    2  N   UNL     1      -8.988   1.084 -34.781  1.00  0.00    -0.243 N 
HETATM    3  O   UNL     1      -8.579   2.693 -33.168  1.00  0.00    -0.266 OA
HETATM    4  H   UNL     1      -9.560   0.823 -35.580  1.00  0.00     0.192 HD
ENDROOT
BRANCH   2   5
HETATM    5  N   UNL     1      -8.072   0.212 -34.270  1.00  0.00    -0.183 NA
HETATM    6  C   UNL     1      -6.910   0.202 -34.837  1.00  0.00     0.152 C 
BRANCH   6   7
HETATM    7  C   UNL     1      -5.915  -0.747 -34.380  1.00  0.00     0.011 A 
HETATM    8  C   UNL     1      -5.892  -2.165 -34.580  1.00  0.00     0.004 A 
HETATM    9  C   UNL     1      -4.759  -2.659 -33.928  1.00  0.00     0.043 A 
HETATM   10  C   UNL     1      -6.731  -3.084 -35.246  1.00  0.00     0.014 A 
HETATM   11  C   UNL     1      -4.427  -4.019 -33.905  1.00  0.00     0.030 A 
HETATM   12  N   UNL     1      -4.112  -1.585 -33.363  1.00  0.00    -0.364 N 
HETATM   13  C   UNL     1      -5.278  -4.906 -34.571  1.00  0.00     0.002 A 
HETATM   14  C   UNL     1      -6.412  -4.447 -35.234  1.00  0.00     0.001 A 
HETATM   15  H   UNL     1      -3.260  -1.643 -32.824  1.00  0.00     0.165 HD
HETATM   16  C   UNL     1      -4.797  -0.433 -33.629  1.00  0.00     0.102 A 
ENDBRANCH   6   7
ENDBRANCH   2   5
BRANCH   1  17
HETATM   17  C   UNL     1     -10.401   3.078 -34.601  1.00  0.00     0.068 A 
HETATM   18  C   UNL     1     -11.695   2.556 -34.796  1.00  0.00     0.084 A 
HETATM   19  C   UNL     1     -12.732   3.418 -35.181  1.00  0.00     0.039 A 
HETATM   20  C   UNL     1     -12.485   4.774 -35.411  1.00  0.00     0.022 A 
HETATM   21  C   UNL     1     -11.199   5.279 -35.252  1.00  0.00     0.012 A 
HETATM   22  C   UNL     1     -10.163   4.443 -34.850  1.00  0.00     0.039 A 
HETATM   23 BR   UNL     1     -10.866   7.113 -35.562  1.00  0.00    -0.051 Br
BRANCH  18  24
HETATM   24  O   UNL     1     -11.902   1.218 -34.565  1.00  0.00    -0.350 OA
BRANCH  24  25
HETATM   25  C   UNL     1     -13.271   0.816 -34.430  1.00  0.00     0.171 C 
HETATM   26  C   UNL     1     -13.311  -0.458 -33.606  1.00  0.00     0.034 C 
ENDBRANCH  24  25
ENDBRANCH  18  24
ENDBRANCH   1  17
TORSDOF 5
ENDMDL
MODEL 3
REMARK VINA RESULT:      -7.8      6.814      8.811
REMARK  5 active torsions:
REMARK  status: ('A' for Active; 'I' for Inactive)
REMARK    1  A    between atoms: C_2  and  O_3 
REMARK    2  A    between atoms: O_3  and  C_4 
REMARK    3  A    between atoms: C_5  and  C_6 
REMARK       I    between atoms: C_6  and  N_7 
REMARK    4  A    between atoms: N_7  and  N_8 
REMARK    5  A    between atoms: C_9  and  C_10 
ROOT
HETATM    1  C   UNL     1      -3.225   5.293 -31.191  1.00  0.00     0.274 C 
HETATM    2  N   UNL     1      -3.233   3.908 -31.228  1.00  0.00    -0.243 N 
HETATM    3  O   UNL     1      -4.194   6.003 -31.450  1.00  0.00    -0.266 OA
HETATM    4  H   UNL     1      -2.393   3.392 -30.982  1.00  0.00     0.192 HD
ENDROOT
BRANCH   2   5
HETATM    5  N   UNL     1      -4.329   3.258 -31.714  1.00  0.00    -0.183 NA
HETATM    6  C   UNL     1      -4.127   2.076 -32.200  1.00  0.00     0.152 C 
BRANCH   6   7
HETATM    7  C   UNL     1      -5.241   1.361 -32.788  1.00  0.00     0.011 A 
HETATM    8  C   UNL     1      -5.250   0.034 -33.329  1.00  0.00     0.004 A 
HETATM    9  C   UNL     1      -6.538  -0.210 -33.813  1.00  0.00     0.043 A 
HETATM   10  C   UNL     1      -4.282  -0.984 -33.464  1.00  0.00     0.014 A 
HETATM   11  C   UNL     1      -6.904  -1.414 -34.426  1.00  0.00     0.030 A 
HETATM   12  N   UNL     1      -7.286   0.916 -33.567  1.00  0.00    -0.364 N 
HETATM   13  C   UNL     1      -5.925  -2.404 -34.549  1.00  0.00     0.002 A 
HETATM   14  C   UNL     1      -4.633  -2.196 -34.074  1.00  0.00     0.001 A 
HETATM   15  H   UNL     1      -8.259   1.028 -33.814  1.00  0.00     0.165 HD
HETATM   16  C   UNL     1      -6.519   1.865 -32.952  1.00  0.00     0.102 A 
ENDBRANCH   6   7
ENDBRANCH   2   5
BRANCH   1  17
HETATM   17  C   UNL     1      -1.917   5.945 -30.873  1.00  0.00     0.068 A 
HETATM   18  C   UNL     1      -0.777   5.891 -31.698  1.00  0.00     0.084 A 
HETATM   19  C   UNL     1       0.375   6.599 -31.324  1.00  0.00     0.039 A 
HETATM   20  C   UNL     1       0.414   7.318 -30.127  1.00  0.00     0.022 A 
HETATM   21  C   UNL     1      -0.702   7.339 -29.297  1.00  0.00     0.012 A 
HETATM   22  C   UNL     1      -1.860   6.661 -29.663  1.00  0.00     0.039 A 
HETATM   23 BR   UNL     1      -0.650   8.312 -27.679  1.00  0.00    -0.051 Br
BRANCH  18  24
HETATM   24  O   UNL     1      -0.848   5.172 -32.867  1.00  0.00    -0.350 OA
BRANCH  24  25
HETATM   25  C   UNL     1      -1.194   5.923 -34.037  1.00  0.00     0.171 C 
HETATM   26  C   UNL     1      -2.219   5.127 -34.824  1.00  0.00     0.034 C 
ENDBRANCH  24  25
ENDBRANCH  18  24
ENDBRANCH   1  17
TORSDOF 5
ENDMDL
MODEL 4
REMARK VINA RESULT:      -7.7      5.753      8.303
REMARK  5 active torsions:
REMARK  status: ('A' for Active; 'I' for Inactive)
REMARK    1  A    between atoms: C_2  and  O_3 
REMARK    2  A    between atoms: O_3  and  C_4 
REMARK    3  A    between atoms: C_5  and  C_6 
REMARK       I    between atoms: C_6  and  N_7 
REMARK    4  A    between atoms: N_7  and  N_8 
REMARK    5  A    between atoms: C_9  and  C_10 
ROOT
HETATM    1  C   UNL     1      -4.722   0.361 -32.023  1.00  0.00     0.274 C 
HETATM    2  N   UNL     1      -4.602   1.657 -32.495  1.00  0.00    -0.243 N 
HETATM    3  O   UNL     1      -4.489   0.016 -30.867  1.00  0.00    -0.266 OA
HETATM    4  H   UNL     1      -4.831   1.864 -33.464  1.00  0.00     0.192 HD
ENDROOT
BRANCH   2   5
HETATM    5  N   UNL     1      -4.060   2.616 -31.691  1.00  0.00    -0.183 NA
HETATM    6  C   UNL     1      -4.281   3.844 -32.031  1.00  0.00     0.152 C 
BRANCH   6   7
HETATM    7  C   UNL     1      -3.679   4.906 -31.252  1.00  0.00     0.011 A 
HETATM    8  C   UNL     1      -2.322   5.365 -31.286  1.00  0.00     0.004 A 
HETATM    9  C   UNL     1      -2.201   6.382 -30.336  1.00  0.00     0.043 A 
HETATM   10  C   UNL     1      -1.176   5.006 -32.028  1.00  0.00     0.014 A 
HETATM   11  C   UNL     1      -0.998   7.053 -30.087  1.00  0.00     0.030 A 
HETATM   12  N   UNL     1      -3.437   6.545 -29.754  1.00  0.00    -0.364 N 
HETATM   13  C   UNL     1       0.121   6.675 -30.835  1.00  0.00     0.002 A 
HETATM   14  C   UNL     1       0.035   5.669 -31.793  1.00  0.00     0.001 A 
HETATM   15  H   UNL     1      -3.648   7.213 -29.026  1.00  0.00     0.165 HD
HETATM   16  C   UNL     1      -4.331   5.666 -30.297  1.00  0.00     0.102 A 
ENDBRANCH   6   7
ENDBRANCH   2   5
BRANCH   1  17
HETATM   17  C   UNL     1      -5.100  -0.683 -33.026  1.00  0.00     0.068 A 
HETATM   18  C   UNL     1      -6.116  -0.533 -33.990  1.00  0.00     0.084 A 
HETATM   19  C   UNL     1      -6.335  -1.559 -34.922  1.00  0.00     0.039 A 
HETATM   20  C   UNL     1      -5.585  -2.737 -34.875  1.00  0.00     0.022 A 
HETATM   21  C   UNL     1      -4.608  -2.896 -33.899  1.00  0.00     0.012 A 
HETATM   22  C   UNL     1      -4.362  -1.881 -32.981  1.00  0.00     0.039 A 
HETATM   23 BR   UNL     1      -3.595  -4.490 -33.837  1.00  0.00    -0.051 Br
BRANCH  18  24
HETATM   24  O   UNL     1      -6.835   0.637 -34.006  1.00  0.00    -0.350 OA
BRANCH  24  25
HETATM   25  C   UNL     1      -8.237   0.500 -34.273  1.00  0.00     0.171 C 
HETATM   26  C   UNL     1      -8.930   0.121 -32.977  1.00  0.00     0.034 C 
ENDBRANCH  24  25
ENDBRANCH  18  24
ENDBRANCH   1  17
TORSDOF 5
ENDMDL
MODEL 5
REMARK VINA RESULT:      -7.7      2.289      3.603
REMARK  5 active torsions:
REMARK  status: ('A' for Active; 'I' for Inactive)
REMARK    1  A    between atoms: C_2  and  O_3 
REMARK    2  A    between atoms: O_3  and  C_4 
REMARK    3  A    between atoms: C_5  and  C_6 
REMARK       I    between atoms: C_6  and  N_7 
REMARK    4  A    between atoms: N_7  and  N_8 
REMARK    5  A    between atoms: C_9  and  C_10 
ROOT
HETATM    1  C   UNL     1      -9.400   2.280 -34.120  1.00  0.00     0.274 C 
HETATM    2  N   UNL     1      -9.081   1.149 -34.853  1.00  0.00    -0.243 N 
HETATM    3  O   UNL     1      -8.871   2.593 -33.055  1.00  0.00    -0.266 OA
HETATM    4  H   UNL     1      -9.553   0.970 -35.735  1.00  0.00     0.192 HD
ENDROOT
BRANCH   2   5
HETATM    5  N   UNL     1      -8.227   0.226 -34.323  1.00  0.00    -0.183 NA
HETATM    6  C   UNL     1      -7.164  -0.035 -35.011  1.00  0.00     0.152 C 
BRANCH   6   7
HETATM    7  C   UNL     1      -6.251  -1.053 -34.532  1.00  0.00     0.011 A 
HETATM    8  C   UNL     1      -5.203  -0.912 -33.566  1.00  0.00     0.004 A 
HETATM    9  C   UNL     1      -4.570  -2.153 -33.455  1.00  0.00     0.043 A 
HETATM   10  C   UNL     1      -4.721   0.155 -32.779  1.00  0.00     0.014 A 
HETATM   11  C   UNL     1      -3.482  -2.378 -32.603  1.00  0.00     0.030 A 
HETATM   12  N   UNL     1      -5.213  -3.017 -34.309  1.00  0.00    -0.364 N 
HETATM   13  C   UNL     1      -3.024  -1.303 -31.837  1.00  0.00     0.002 A 
HETATM   14  C   UNL     1      -3.634  -0.054 -31.921  1.00  0.00     0.001 A 
HETATM   15  H   UNL     1      -4.968  -3.988 -34.441  1.00  0.00     0.165 HD
HETATM   16  C   UNL     1      -6.224  -2.368 -34.960  1.00  0.00     0.102 A 
ENDBRANCH   6   7
ENDBRANCH   2   5
BRANCH   1  17
HETATM   17  C   UNL     1     -10.514   3.127 -34.650  1.00  0.00     0.068 A 
HETATM   18  C   UNL     1     -11.798   2.647 -34.972  1.00  0.00     0.084 A 
HETATM   19  C   UNL     1     -12.781   3.552 -35.400  1.00  0.00     0.039 A 
HETATM   20  C   UNL     1     -12.486   4.910 -35.546  1.00  0.00     0.022 A 
HETATM   21  C   UNL     1     -11.207   5.374 -35.261  1.00  0.00     0.012 A 
HETATM   22  C   UNL     1     -10.225   4.494 -34.815  1.00  0.00     0.039 A 
HETATM   23 BR   UNL     1     -10.809   7.210 -35.458  1.00  0.00    -0.051 Br
BRANCH  18  24
HETATM   24  O   UNL     1     -12.052   1.306 -34.820  1.00  0.00    -0.350 OA
BRANCH  24  25
HETATM   25  C   UNL     1     -13.402   0.966 -34.477  1.00  0.00     0.171 C 
HETATM   26  C   UNL     1     -13.371  -0.298 -33.638  1.00  0.00     0.034 C 
ENDBRANCH  24  25
ENDBRANCH  18  24
ENDBRANCH   1  17
TORSDOF 5
ENDMDL
MODEL 6
REMARK VINA RESULT:      -7.6      3.373      8.037
REMARK  5 active torsions:
REMARK  status: ('A' for Active; 'I' for Inactive)
REMARK    1  A    between atoms: C_2  and  O_3 
REMARK    2  A    between atoms: O_3  and  C_4 
REMARK    3  A    between atoms: C_5  and  C_6 
REMARK       I    between atoms: C_6  and  N_7 
REMARK    4  A    between atoms: N_7  and  N_8 
REMARK    5  A    between atoms: C_9  and  C_10 
ROOT
HETATM    1  C   UNL     1      -6.345  -0.233 -34.202  1.00  0.00     0.274 C 
HETATM    2  N   UNL     1      -7.023   0.749 -33.499  1.00  0.00    -0.243 N 
HETATM    3  O   UNL     1      -6.637  -0.605 -35.337  1.00  0.00    -0.266 OA
HETATM    4  H   UNL     1      -6.707   1.012 -32.569  1.00  0.00     0.192 HD
ENDROOT
BRANCH   2   5
HETATM    5  N   UNL     1      -8.179   1.262 -34.009  1.00  0.00    -0.183 NA
HETATM    6  C   UNL     1      -9.157   1.412 -33.177  1.00  0.00     0.152 C 
BRANCH   6   7
HETATM    7  C   UNL     1     -10.431   1.893 -33.672  1.00  0.00     0.011 A 
HETATM    8  C   UNL     1     -11.676   1.187 -33.736  1.00  0.00     0.004 A 
HETATM    9  C   UNL     1     -12.612   2.045 -34.319  1.00  0.00     0.043 A 
HETATM   10  C   UNL     1     -12.098  -0.107 -33.364  1.00  0.00     0.014 A 
HETATM   11  C   UNL     1     -13.942   1.674 -34.551  1.00  0.00     0.030 A 
HETATM   12  N   UNL     1     -11.968   3.229 -34.589  1.00  0.00    -0.364 N 
HETATM   13  C   UNL     1     -14.332   0.386 -34.174  1.00  0.00     0.002 A 
HETATM   14  C   UNL     1     -13.426  -0.493 -33.587  1.00  0.00     0.001 A 
HETATM   15  H   UNL     1     -12.399   4.036 -35.017  1.00  0.00     0.165 HD
HETATM   16  C   UNL     1     -10.659   3.149 -34.204  1.00  0.00     0.102 A 
ENDBRANCH   6   7
ENDBRANCH   2   5
BRANCH   1  17
HETATM   17  C   UNL     1      -5.225  -0.916 -33.484  1.00  0.00     0.068 A 
HETATM   18  C   UNL     1      -4.428  -0.314 -32.491  1.00  0.00     0.084 A 
HETATM   19  C   UNL     1      -3.448  -1.078 -31.841  1.00  0.00     0.039 A 
HETATM   20  C   UNL     1      -3.229  -2.412 -32.198  1.00  0.00     0.022 A 
HETATM   21  C   UNL     1      -3.993  -2.991 -33.204  1.00  0.00     0.012 A 
HETATM   22  C   UNL     1      -4.984  -2.255 -33.844  1.00  0.00     0.039 A 
HETATM   23 BR   UNL     1      -3.697  -4.794 -33.686  1.00  0.00    -0.051 Br
BRANCH  18  24
HETATM   24  O   UNL     1      -4.668   0.999 -32.166  1.00  0.00    -0.350 OA
BRANCH  24  25
HETATM   25  C   UNL     1      -3.560   1.711 -31.602  1.00  0.00     0.171 C 
HETATM   26  C   UNL     1      -3.339   2.968 -32.424  1.00  0.00     0.034 C 
ENDBRANCH  24  25
ENDBRANCH  18  24
ENDBRANCH   1  17
TORSDOF 5
ENDMDL
MODEL 7
REMARK VINA RESULT:      -7.5      5.882      7.912
REMARK  5 active torsions:
REMARK  status: ('A' for Active; 'I' for Inactive)
REMARK    1  A    between atoms: C_2  and  O_3 
REMARK    2  A    between atoms: O_3  and  C_4 
REMARK    3  A    between atoms: C_5  and  C_6 
REMARK       I    between atoms: C_6  and  N_7 
REMARK    4  A    between atoms: N_7  and  N_8 
REMARK    5  A    between atoms: C_9  and  C_10 
ROOT
HETATM    1  C   UNL     1      -4.994   1.784 -32.439  1.00  0.00     0.274 C 
HETATM    2  N   UNL     1      -5.179   3.001 -33.073  1.00  0.00    -0.243 N 
HETATM    3  O   UNL     1      -4.209   1.592 -31.514  1.00  0.00    -0.266 OA
HETATM    4  H   UNL     1      -5.863   3.081 -33.821  1.00  0.00     0.192 HD
ENDROOT
BRANCH   2   5
HETATM    5  N   UNL     1      -4.355   4.045 -32.772  1.00  0.00    -0.183 NA
HETATM    6  C   UNL     1      -3.478   4.362 -33.668  1.00  0.00     0.152 C 
BRANCH   6   7
HETATM    7  C   UNL     1      -2.533   5.421 -33.381  1.00  0.00     0.011 A 
HETATM    8  C   UNL     1      -1.593   5.496 -32.303  1.00  0.00     0.004 A 
HETATM    9  C   UNL     1      -0.924   6.717 -32.417  1.00  0.00     0.043 A 
HETATM   10  C   UNL     1      -1.251   4.646 -31.229  1.00  0.00     0.014 A 
HETATM   11  C   UNL     1       0.063   7.131 -31.514  1.00  0.00     0.030 A 
HETATM   12  N   UNL     1      -1.426   7.356 -33.526  1.00  0.00    -0.364 N 
HETATM   13  C   UNL     1       0.380   6.270 -30.460  1.00  0.00     0.002 A 
HETATM   14  C   UNL     1      -0.264   5.044 -30.318  1.00  0.00     0.001 A 
HETATM   15  H   UNL     1      -1.130   8.264 -33.853  1.00  0.00     0.165 HD
HETATM   16  C   UNL     1      -2.392   6.587 -34.112  1.00  0.00     0.102 A 
ENDBRANCH   6   7
ENDBRANCH   2   5
BRANCH   1  17
HETATM   17  C   UNL     1      -5.770   0.624 -32.980  1.00  0.00     0.068 A 
HETATM   18  C   UNL     1      -7.172   0.590 -33.103  1.00  0.00     0.084 A 
HETATM   19  C   UNL     1      -7.783  -0.530 -33.687  1.00  0.00     0.039 A 
HETATM   20  C   UNL     1      -7.018  -1.622 -34.109  1.00  0.00     0.022 A 
HETATM   21  C   UNL     1      -5.636  -1.598 -33.953  1.00  0.00     0.012 A 
HETATM   22  C   UNL     1      -5.012  -0.487 -33.395  1.00  0.00     0.039 A 
HETATM   23 BR   UNL     1      -4.603  -3.073 -34.523  1.00  0.00    -0.051 Br
BRANCH  18  24
HETATM   24  O   UNL     1      -7.894   1.678 -32.675  1.00  0.00    -0.350 OA
BRANCH  24  25
HETATM   25  C   UNL     1      -8.765   2.266 -33.649  1.00  0.00     0.171 C 
HETATM   26  C   UNL     1     -10.166   2.306 -33.067  1.00  0.00     0.034 C 
ENDBRANCH  24  25
ENDBRANCH  18  24
ENDBRANCH   1  17
TORSDOF 5
ENDMDL
MODEL 8
REMARK VINA RESULT:      -7.4      2.992      8.224
REMARK  5 active torsions:
REMARK  status: ('A' for Active; 'I' for Inactive)
REMARK    1  A    between atoms: C_2  and  O_3 
REMARK    2  A    between atoms: O_3  and  C_4 
REMARK    3  A    between atoms: C_5  and  C_6 
REMARK       I    between atoms: C_6  and  N_7 
REMARK    4  A    between atoms: N_7  and  N_8 
REMARK    5  A    between atoms: C_9  and  C_10 
ROOT
HETATM    1  C   UNL     1      -7.221   0.532 -33.907  1.00  0.00     0.274 C 
HETATM    2  N   UNL     1      -8.342   0.370 -33.111  1.00  0.00    -0.243 N 
HETATM    3  O   UNL     1      -7.016   1.499 -34.636  1.00  0.00    -0.266 OA
HETATM    4  H   UNL     1      -8.428  -0.453 -32.521  1.00  0.00     0.192 HD
ENDROOT
BRANCH   2   5
HETATM    5  N   UNL     1      -9.375   1.255 -33.221  1.00  0.00    -0.183 NA
HETATM    6  C   UNL     1     -10.297   0.958 -34.078  1.00  0.00     0.152 C 
BRANCH   6   7
HETATM    7  C   UNL     1     -11.387   1.889 -34.286  1.00  0.00     0.011 A 
HETATM    8  C   UNL     1     -11.309   3.265 -34.678  1.00  0.00     0.004 A 
HETATM    9  C   UNL     1     -12.614   3.762 -34.715  1.00  0.00     0.043 A 
HETATM   10  C   UNL     1     -10.251   4.143 -34.995  1.00  0.00     0.014 A 
HETATM   11  C   UNL     1     -12.914   5.088 -35.048  1.00  0.00     0.030 A 
HETATM   12  N   UNL     1     -13.454   2.729 -34.372  1.00  0.00    -0.364 N 
HETATM   13  C   UNL     1     -11.846   5.936 -35.356  1.00  0.00     0.002 A 
HETATM   14  C   UNL     1     -10.534   5.473 -35.333  1.00  0.00     0.001 A 
HETATM   15  H   UNL     1     -14.460   2.799 -34.312  1.00  0.00     0.165 HD
HETATM   16  C   UNL     1     -12.729   1.601 -34.113  1.00  0.00     0.102 A 
ENDBRANCH   6   7
ENDBRANCH   2   5
BRANCH   1  17
HETATM   17  C   UNL     1      -6.236  -0.595 -33.909  1.00  0.00     0.068 A 
HETATM   18  C   UNL     1      -4.965  -0.545 -33.304  1.00  0.00     0.084 A 
HETATM   19  C   UNL     1      -4.154  -1.689 -33.315  1.00  0.00     0.039 A 
HETATM   20  C   UNL     1      -4.578  -2.858 -33.953  1.00  0.00     0.022 A 
HETATM   21  C   UNL     1      -5.818  -2.892 -34.580  1.00  0.00     0.012 A 
HETATM   22  C   UNL     1      -6.645  -1.773 -34.560  1.00  0.00     0.039 A 
HETATM   23 BR   UNL     1      -6.391  -4.473 -35.442  1.00  0.00    -0.051 Br
BRANCH  18  24
HETATM   24  O   UNL     1      -4.579   0.621 -32.688  1.00  0.00    -0.350 OA
BRANCH  24  25
HETATM   25  C   UNL     1      -4.195   0.499 -31.313  1.00  0.00     0.171 C 
HETATM   26  C   UNL     1      -5.459   0.409 -30.477  1.00  0.00     0.034 C 
ENDBRANCH  24  25
ENDBRANCH  18  24
ENDBRANCH   1  17
TORSDOF 5
ENDMDL
MODEL 9
REMARK VINA RESULT:      -7.4      6.604      9.008
REMARK  5 active torsions:
REMARK  status: ('A' for Active; 'I' for Inactive)
REMARK    1  A    between atoms: C_2  and  O_3 
REMARK    2  A    between atoms: O_3  and  C_4 
REMARK    3  A    between atoms: C_5  and  C_6 
REMARK       I    between atoms: C_6  and  N_7 
REMARK    4  A    between atoms: N_7  and  N_8 
REMARK    5  A    between atoms: C_9  and  C_10 
ROOT
HETATM    1  C   UNL     1      -3.589   1.372 -31.878  1.00  0.00     0.274 C 
HETATM    2  N   UNL     1      -3.432   2.736 -32.059  1.00  0.00    -0.243 N 
HETATM    3  O   UNL     1      -2.920   0.690 -31.105  1.00  0.00    -0.266 OA
HETATM    4  H   UNL     1      -4.039   3.232 -32.707  1.00  0.00     0.192 HD
ENDROOT
BRANCH   2   5
HETATM    5  N   UNL     1      -2.387   3.376 -31.462  1.00  0.00    -0.183 NA
HETATM    6  C   UNL     1      -2.340   4.660 -31.605  1.00  0.00     0.152 C 
BRANCH   6   7
HETATM    7  C   UNL     1      -1.220   5.388 -31.047  1.00  0.00     0.011 A 
HETATM    8  C   UNL     1      -1.246   6.422 -30.055  1.00  0.00     0.004 A 
HETATM    9  C   UNL     1       0.072   6.847 -29.862  1.00  0.00     0.043 A 
HETATM   10  C   UNL     1      -2.265   7.048 -29.307  1.00  0.00     0.014 A 
HETATM   11  C   UNL     1       0.418   7.865 -28.965  1.00  0.00     0.030 A 
HETATM   12  N   UNL     1       0.869   6.096 -30.693  1.00  0.00    -0.364 N 
HETATM   13  C   UNL     1      -0.612   8.468 -28.240  1.00  0.00     0.002 A 
HETATM   14  C   UNL     1      -1.935   8.067 -28.404  1.00  0.00     0.001 A 
HETATM   15  H   UNL     1       1.872   6.187 -30.768  1.00  0.00     0.165 HD
HETATM   16  C   UNL     1       0.105   5.217 -31.408  1.00  0.00     0.102 A 
ENDBRANCH   6   7
ENDBRANCH   2   5
BRANCH   1  17
HETATM   17  C   UNL     1      -4.606   0.696 -32.743  1.00  0.00     0.068 A 
HETATM   18  C   UNL     1      -5.824   1.276 -33.145  1.00  0.00     0.084 A 
HETATM   19  C   UNL     1      -6.669   0.567 -34.012  1.00  0.00     0.039 A 
HETATM   20  C   UNL     1      -6.331  -0.718 -34.446  1.00  0.00     0.022 A 
HETATM   21  C   UNL     1      -5.143  -1.301 -34.018  1.00  0.00     0.012 A 
HETATM   22  C   UNL     1      -4.284  -0.604 -33.175  1.00  0.00     0.039 A 
HETATM   23 BR   UNL     1      -4.687  -3.038 -34.604  1.00  0.00    -0.051 Br
BRANCH  18  24
HETATM   24  O   UNL     1      -6.127   2.539 -32.698  1.00  0.00    -0.350 OA
BRANCH  24  25
HETATM   25  C   UNL     1      -6.708   3.418 -33.669  1.00  0.00     0.171 C 
HETATM   26  C   UNL     1      -5.593   4.247 -34.281  1.00  0.00     0.034 C 
ENDBRANCH  24  25
ENDBRANCH  18  24
ENDBRANCH   1  17
TORSDOF 5
ENDMDL
MODEL 10
REMARK VINA RESULT:      -7.3      2.191      3.011
REMARK  5 active torsions:
REMARK  status: ('A' for Active; 'I' for Inactive)
REMARK    1  A    between atoms: C_2  and  O_3 
REMARK    2  A    between atoms: O_3  and  C_4 
REMARK    3  A    between atoms: C_5  and  C_6 
REMARK       I    between atoms: C_6  and  N_7 
REMARK    4  A    between atoms: N_7  and  N_8 
REMARK    5  A    between atoms: C_9  and  C_10 
ROOT
HETATM    1  C   UNL     1      -9.089   2.427 -32.129  1.00  0.00     0.274 C 
HETATM    2  N   UNL     1      -8.464   1.898 -33.246  1.00  0.00    -0.243 N 
HETATM    3  O   UNL     1      -8.674   2.311 -30.978  1.00  0.00    -0.266 OA
HETATM    4  H   UNL     1      -8.862   2.054 -34.168  1.00  0.00     0.192 HD
ENDROOT
BRANCH   2   5
HETATM    5  N   UNL     1      -7.392   1.071 -33.085  1.00  0.00    -0.183 NA
HETATM    6  C   UNL     1      -7.090   0.319 -34.093  1.00  0.00     0.152 C 
BRANCH   6   7
HETATM    7  C   UNL     1      -6.000  -0.626 -33.961  1.00  0.00     0.011 A 
HETATM    8  C   UNL     1      -6.001  -2.023 -34.280  1.00  0.00     0.004 A 
HETATM    9  C   UNL     1      -4.739  -2.527 -33.953  1.00  0.00     0.043 A 
HETATM   10  C   UNL     1      -6.959  -2.916 -34.806  1.00  0.00     0.014 A 
HETATM   11  C   UNL     1      -4.390  -3.872 -34.121  1.00  0.00     0.030 A 
HETATM   12  N   UNL     1      -3.996  -1.478 -33.466  1.00  0.00    -0.364 N 
HETATM   13  C   UNL     1      -5.359  -4.733 -34.643  1.00  0.00     0.002 A 
HETATM   14  C   UNL     1      -6.625  -4.264 -34.983  1.00  0.00     0.001 A 
HETATM   15  H   UNL     1      -3.040  -1.547 -33.147  1.00  0.00     0.165 HD
HETATM   16  C   UNL     1      -4.742  -0.333 -33.467  1.00  0.00     0.102 A 
ENDBRANCH   6   7
ENDBRANCH   2   5
BRANCH   1  17
HETATM   17  C   UNL     1     -10.390   3.129 -32.361  1.00  0.00     0.068 A 
HETATM   18  C   UNL     1     -11.502   2.555 -33.008  1.00  0.00     0.084 A 
HETATM   19  C   UNL     1     -12.692   3.290 -33.108  1.00  0.00     0.039 A 
HETATM   20  C   UNL     1     -12.770   4.594 -32.610  1.00  0.00     0.022 A 
HETATM   21  C   UNL     1     -11.658   5.169 -32.004  1.00  0.00     0.012 A 
HETATM   22  C   UNL     1     -10.477   4.447 -31.877  1.00  0.00     0.039 A 
HETATM   23 BR   UNL     1     -11.765   6.932 -31.331  1.00  0.00    -0.051 Br
BRANCH  18  24
HETATM   24  O   UNL     1     -11.390   1.273 -33.489  1.00  0.00    -0.350 OA
BRANCH  24  25
HETATM   25  C   UNL     1     -12.483   0.815 -34.294  1.00  0.00     0.171 C 
HETATM   26  C   UNL     1     -13.131  -0.361 -33.586  1.00  0.00     0.034 C 
ENDBRANCH  24  25
ENDBRANCH  18  24
ENDBRANCH   1  17
TORSDOF 5
ENDMDL
