MODEL 1
REMARK VINA RESULT:      -9.0      0.000      0.000
REMARK  6 active torsions:
REMARK  status: ('A' for Active; 'I' for Inactive)
REMARK    1  A    between atoms: C_7  and  C_8 
REMARK    2  A    between atoms: N_9  and  N_10 
REMARK       I    between atoms: N_10  and  C_11 
REMARK    3  A    between atoms: C_11  and  C_12 
REMARK    4  A    between atoms: C_12  and  N_13 
REMARK       I    between atoms: N_13  and  C_14 
REMARK    5  A    between atoms: C_14  and  C_15 
REMARK    6  A    between atoms: C_16  and  O_17 
ROOT
HETATM    1  N   UNL     1      -8.186   1.333 -32.675  1.00  0.00    -0.246 N 
HETATM    2  C   UNL     1      -9.507   1.013 -32.939  1.00  0.00     0.255 C 
HETATM    3  O   UNL     1      -9.935  -0.134 -33.085  1.00  0.00    -0.270 OA
HETATM    4  H   UNL     1      -7.886   2.302 -32.609  1.00  0.00     0.192 HD
ENDROOT
BRANCH   1   5
HETATM    5  N   UNL     1      -7.268   0.328 -32.594  1.00  0.00    -0.184 NA
HETATM    6  C   UNL     1      -6.466   0.193 -33.599  1.00  0.00     0.153 C 
BRANCH   6   7
HETATM    7  C   UNL     1      -5.489  -0.883 -33.594  1.00  0.00     0.018 A 
HETATM    8  C   UNL     1      -4.192  -0.828 -33.095  1.00  0.00     0.018 A 
HETATM    9  C   UNL     1      -3.432   0.284 -32.459  1.00  0.00     0.069 C 
HETATM   10  N   UNL     1      -3.623  -2.064 -33.269  1.00  0.00    -0.358 N 
HETATM   11  H   UNL     1      -2.685  -2.314 -32.992  1.00  0.00     0.166 HD
HETATM   12  C   UNL     1      -4.512  -2.928 -33.861  1.00  0.00     0.043 A 
HETATM   13  C   UNL     1      -5.691  -2.216 -34.084  1.00  0.00     0.004 A 
HETATM   14  C   UNL     1      -4.360  -4.277 -34.203  1.00  0.00     0.030 A 
HETATM   15  C   UNL     1      -6.776  -2.894 -34.681  1.00  0.00     0.014 A 
HETATM   16  C   UNL     1      -6.642  -4.245 -35.028  1.00  0.00     0.001 A 
HETATM   17  C   UNL     1      -5.450  -4.924 -34.791  1.00  0.00     0.002 A 
ENDBRANCH   6   7
ENDBRANCH   1   5
BRANCH   2  18
HETATM   18  C   UNL     1     -10.403   2.211 -33.253  1.00  0.00     0.227 C 
BRANCH  18  19
HETATM   19  N   UNL     1     -10.992   2.256 -34.586  1.00  0.00    -0.348 N 
HETATM   20  C   UNL     1     -12.277   2.515 -34.981  1.00  0.00     0.254 C 
HETATM   21  O   UNL     1     -12.549   2.594 -36.174  1.00  0.00    -0.268 OA
HETATM   22  H   UNL     1     -10.358   2.133 -35.369  1.00  0.00     0.163 HD
BRANCH  20  23
HETATM   23  C   UNL     1     -13.346   2.646 -33.974  1.00  0.00     0.065 A 
HETATM   24  C   UNL     1     -14.222   1.576 -33.758  1.00  0.00     0.084 A 
HETATM   25  C   UNL     1     -15.233   1.675 -32.803  1.00  0.00     0.038 A 
HETATM   26  C   UNL     1     -15.393   2.866 -32.091  1.00  0.00     0.003 A 
HETATM   27  C   UNL     1     -14.545   3.949 -32.333  1.00  0.00     0.001 A 
HETATM   28  C   UNL     1     -13.525   3.845 -33.280  1.00  0.00     0.020 A 
BRANCH  24  29
HETATM   29  O   UNL     1     -14.047   0.382 -34.411  1.00  0.00    -0.355 OA
HETATM   30  C   UNL     1     -13.364  -0.540 -33.552  1.00  0.00     0.210 C 
ENDBRANCH  24  29
ENDBRANCH  20  23
ENDBRANCH  18  19
ENDBRANCH   2  18
TORSDOF 6
ENDMDL
MODEL 2
REMARK VINA RESULT:      -8.7      5.636      9.153
REMARK  6 active torsions:
REMARK  status: ('A' for Active; 'I' for Inactive)
REMARK    1  A    between atoms: C_7  and  C_8 
REMARK    2  A    between atoms: N_9  and  N_10 
REMARK       I    between atoms: N_10  and  C_11 
REMARK    3  A    between atoms: C_11  and  C_12 
REMARK    4  A    between atoms: C_12  and  N_13 
REMARK       I    between atoms: N_13  and  C_14 
REMARK    5  A    between atoms: C_14  and  C_15 
REMARK    6  A    between atoms: C_16  and  O_17 
ROOT
HETATM    1  N   UNL     1      -3.661   1.787 -32.162  1.00  0.00    -0.246 N 
HETATM    2  C   UNL     1      -3.810   3.119 -32.509  1.00  0.00     0.255 C 
HETATM    3  O   UNL     1      -4.743   3.570 -33.175  1.00  0.00    -0.270 OA
HETATM    4  H   UNL     1      -2.844   1.468 -31.646  1.00  0.00     0.192 HD
ENDROOT
BRANCH   1   5
HETATM    5  N   UNL     1      -4.584   0.885 -32.601  1.00  0.00    -0.184 NA
HETATM    6  C   UNL     1      -4.161  -0.028 -33.414  1.00  0.00     0.153 C 
BRANCH   6   7
HETATM    7  C   UNL     1      -5.101  -0.998 -33.950  1.00  0.00     0.018 A 
HETATM    8  C   UNL     1      -6.346  -0.731 -34.509  1.00  0.00     0.018 A 
HETATM    9  C   UNL     1      -7.076   0.551 -34.710  1.00  0.00     0.069 C 
HETATM   10  N   UNL     1      -6.892  -1.925 -34.907  1.00  0.00    -0.358 N 
HETATM   11  H   UNL     1      -7.792  -2.030 -35.352  1.00  0.00     0.166 HD
HETATM   12  C   UNL     1      -6.037  -2.965 -34.632  1.00  0.00     0.043 A 
HETATM   13  C   UNL     1      -4.906  -2.417 -34.025  1.00  0.00     0.004 A 
HETATM   14  C   UNL     1      -6.180  -4.334 -34.883  1.00  0.00     0.030 A 
HETATM   15  C   UNL     1      -3.862  -3.292 -33.651  1.00  0.00     0.014 A 
HETATM   16  C   UNL     1      -3.987  -4.665 -33.896  1.00  0.00     0.001 A 
HETATM   17  C   UNL     1      -5.132  -5.176 -34.503  1.00  0.00     0.002 A 
ENDBRANCH   6   7
ENDBRANCH   1   5
BRANCH   2  18
HETATM   18  C   UNL     1      -2.605   4.001 -32.180  1.00  0.00     0.227 C 
BRANCH  18  19
HETATM   19  N   UNL     1      -2.098   4.843 -33.257  1.00  0.00    -0.348 N 
HETATM   20  C   UNL     1      -1.327   5.973 -33.213  1.00  0.00     0.254 C 
HETATM   21  O   UNL     1      -0.929   6.487 -34.253  1.00  0.00    -0.268 OA
HETATM   22  H   UNL     1      -2.285   4.532 -34.205  1.00  0.00     0.163 HD
BRANCH  20  23
HETATM   23  C   UNL     1      -1.021   6.608 -31.918  1.00  0.00     0.065 A 
HETATM   24  C   UNL     1      -1.951   7.483 -31.344  1.00  0.00     0.084 A 
HETATM   25  C   UNL     1      -1.685   8.084 -30.114  1.00  0.00     0.038 A 
HETATM   26  C   UNL     1      -0.466   7.842 -29.478  1.00  0.00     0.003 A 
HETATM   27  C   UNL     1       0.480   7.000 -30.068  1.00  0.00     0.001 A 
HETATM   28  C   UNL     1       0.209   6.387 -31.293  1.00  0.00     0.020 A 
BRANCH  24  29
HETATM   29  O   UNL     1      -3.174   7.692 -31.930  1.00  0.00    -0.355 OA
HETATM   30  C   UNL     1      -3.950   8.583 -31.117  1.00  0.00     0.210 C 
ENDBRANCH  24  29
ENDBRANCH  20  23
ENDBRANCH  18  19
ENDBRANCH   2  18
TORSDOF 6
ENDMDL
MODEL 3
REMARK VINA RESULT:      -8.7      5.773      9.349
REMARK  6 active torsions:
REMARK  status: ('A' for Active; 'I' for Inactive)
REMARK    1  A    between atoms: C_7  and  C_8 
REMARK    2  A    between atoms: N_9  and  N_10 
REMARK       I    between atoms: N_10  and  C_11 
REMARK    3  A    between atoms: C_11  and  C_12 
REMARK    4  A    between atoms: C_12  and  N_13 
REMARK       I    between atoms: N_13  and  C_14 
REMARK    5  A    between atoms: C_14  and  C_15 
REMARK    6  A    between atoms: C_16  and  O_17 
ROOT
HETATM    1  N   UNL     1      -4.877   3.448 -32.886  1.00  0.00    -0.246 N 
HETATM    2  C   UNL     1      -4.968   4.691 -33.490  1.00  0.00     0.255 C 
HETATM    3  O   UNL     1      -5.667   4.944 -34.472  1.00  0.00    -0.270 OA
HETATM    4  H   UNL     1      -4.247   3.290 -32.103  1.00  0.00     0.192 HD
ENDROOT
BRANCH   1   5
HETATM    5  N   UNL     1      -5.581   2.406 -33.415  1.00  0.00    -0.184 NA
HETATM    6  C   UNL     1      -5.860   1.430 -32.615  1.00  0.00     0.153 C 
BRANCH   6   7
HETATM    7  C   UNL     1      -6.575   0.272 -33.123  1.00  0.00     0.018 A 
HETATM    8  C   UNL     1      -7.954   0.128 -33.238  1.00  0.00     0.018 A 
HETATM    9  C   UNL     1      -9.069   1.050 -32.886  1.00  0.00     0.069 C 
HETATM   10  N   UNL     1      -8.202  -1.107 -33.783  1.00  0.00    -0.358 N 
HETATM   11  H   UNL     1      -9.120  -1.476 -33.985  1.00  0.00     0.166 HD
HETATM   12  C   UNL     1      -7.026  -1.771 -34.035  1.00  0.00     0.043 A 
HETATM   13  C   UNL     1      -5.987  -0.936 -33.626  1.00  0.00     0.004 A 
HETATM   14  C   UNL     1      -6.813  -3.035 -34.598  1.00  0.00     0.030 A 
HETATM   15  C   UNL     1      -4.661  -1.394 -33.791  1.00  0.00     0.014 A 
HETATM   16  C   UNL     1      -4.429  -2.654 -34.355  1.00  0.00     0.001 A 
HETATM   17  C   UNL     1      -5.492  -3.462 -34.751  1.00  0.00     0.002 A 
ENDBRANCH   6   7
ENDBRANCH   1   5
BRANCH   2  18
HETATM   18  C   UNL     1      -3.962   5.722 -32.978  1.00  0.00     0.227 C 
BRANCH  18  19
HETATM   19  N   UNL     1      -2.908   6.122 -33.902  1.00  0.00    -0.348 N 
HETATM   20  C   UNL     1      -1.585   6.394 -33.678  1.00  0.00     0.254 C 
HETATM   21  O   UNL     1      -0.838   6.630 -34.621  1.00  0.00    -0.268 OA
HETATM   22  H   UNL     1      -3.155   6.161 -34.886  1.00  0.00     0.163 HD
BRANCH  20  23
HETATM   23  C   UNL     1      -1.068   6.457 -32.299  1.00  0.00     0.065 A 
HETATM   24  C   UNL     1      -1.201   7.644 -31.568  1.00  0.00     0.084 A 
HETATM   25  C   UNL     1      -0.728   7.721 -30.259  1.00  0.00     0.038 A 
HETATM   26  C   UNL     1      -0.084   6.619 -29.693  1.00  0.00     0.003 A 
HETATM   27  C   UNL     1       0.084   5.446 -30.433  1.00  0.00     0.001 A 
HETATM   28  C   UNL     1      -0.400   5.365 -31.740  1.00  0.00     0.020 A 
BRANCH  24  29
HETATM   29  O   UNL     1      -1.876   8.719 -32.090  1.00  0.00    -0.355 OA
HETATM   30  C   UNL     1      -2.672   9.329 -31.066  1.00  0.00     0.210 C 
ENDBRANCH  24  29
ENDBRANCH  20  23
ENDBRANCH  18  19
ENDBRANCH   2  18
TORSDOF 6
ENDMDL
MODEL 4
REMARK VINA RESULT:      -8.5      5.792      9.267
REMARK  6 active torsions:
REMARK  status: ('A' for Active; 'I' for Inactive)
REMARK    1  A    between atoms: C_7  and  C_8 
REMARK    2  A    between atoms: N_9  and  N_10 
REMARK       I    between atoms: N_10  and  C_11 
REMARK    3  A    between atoms: C_11  and  C_12 
REMARK    4  A    between atoms: C_12  and  N_13 
REMARK       I    between atoms: N_13  and  C_14 
REMARK    5  A    between atoms: C_14  and  C_15 
REMARK    6  A    between atoms: C_16  and  O_17 
ROOT
HETATM    1  N   UNL     1      -3.665   2.009 -31.991  1.00  0.00    -0.246 N 
HETATM    2  C   UNL     1      -3.667   3.291 -32.515  1.00  0.00     0.255 C 
HETATM    3  O   UNL     1      -4.488   3.715 -33.330  1.00  0.00    -0.270 OA
HETATM    4  H   UNL     1      -2.934   1.705 -31.354  1.00  0.00     0.192 HD
ENDROOT
BRANCH   1   5
HETATM    5  N   UNL     1      -4.613   1.125 -32.413  1.00  0.00    -0.184 NA
HETATM    6  C   UNL     1      -4.255   0.286 -33.330  1.00  0.00     0.153 C 
BRANCH   6   7
HETATM    7  C   UNL     1      -5.227  -0.659 -33.852  1.00  0.00     0.018 A 
HETATM    8  C   UNL     1      -6.489  -0.364 -34.356  1.00  0.00     0.018 A 
HETATM    9  C   UNL     1      -7.210   0.931 -34.499  1.00  0.00     0.069 C 
HETATM   10  N   UNL     1      -7.065  -1.542 -34.761  1.00  0.00    -0.358 N 
HETATM   11  H   UNL     1      -7.982  -1.626 -35.173  1.00  0.00     0.166 HD
HETATM   12  C   UNL     1      -6.213  -2.598 -34.543  1.00  0.00     0.043 A 
HETATM   13  C   UNL     1      -5.053  -2.079 -33.968  1.00  0.00     0.004 A 
HETATM   14  C   UNL     1      -6.384  -3.959 -34.821  1.00  0.00     0.030 A 
HETATM   15  C   UNL     1      -4.007  -2.975 -33.655  1.00  0.00     0.014 A 
HETATM   16  C   UNL     1      -4.159  -4.340 -33.928  1.00  0.00     0.001 A 
HETATM   17  C   UNL     1      -5.332  -4.823 -34.502  1.00  0.00     0.002 A 
ENDBRANCH   6   7
ENDBRANCH   1   5
BRANCH   2  18
HETATM   18  C   UNL     1      -2.431   4.122 -32.169  1.00  0.00     0.227 C 
BRANCH  18  19
HETATM   19  N   UNL     1      -1.875   4.943 -33.237  1.00  0.00    -0.348 N 
HETATM   20  C   UNL     1      -1.338   6.202 -33.202  1.00  0.00     0.254 C 
HETATM   21  O   UNL     1      -0.837   6.685 -34.212  1.00  0.00    -0.268 OA
HETATM   22  H   UNL     1      -1.814   4.517 -34.156  1.00  0.00     0.163 HD
BRANCH  20  23
HETATM   23  C   UNL     1      -1.409   7.000 -31.965  1.00  0.00     0.065 A 
HETATM   24  C   UNL     1      -0.499   6.750 -30.932  1.00  0.00     0.084 A 
HETATM   25  C   UNL     1      -0.542   7.502 -29.758  1.00  0.00     0.038 A 
HETATM   26  C   UNL     1      -1.527   8.479 -29.602  1.00  0.00     0.003 A 
HETATM   27  C   UNL     1      -2.462   8.704 -30.615  1.00  0.00     0.001 A 
HETATM   28  C   UNL     1      -2.410   7.960 -31.796  1.00  0.00     0.020 A 
BRANCH  24  29
HETATM   29  O   UNL     1       0.507   5.830 -31.088  1.00  0.00    -0.355 OA
HETATM   30  C   UNL     1       0.539   4.955 -29.953  1.00  0.00     0.210 C 
ENDBRANCH  24  29
ENDBRANCH  20  23
ENDBRANCH  18  19
ENDBRANCH   2  18
TORSDOF 6
ENDMDL
MODEL 5
REMARK VINA RESULT:      -8.3      5.871      9.472
REMARK  6 active torsions:
REMARK  status: ('A' for Active; 'I' for Inactive)
REMARK    1  A    between atoms: C_7  and  C_8 
REMARK    2  A    between atoms: N_9  and  N_10 
REMARK       I    between atoms: N_10  and  C_11 
REMARK    3  A    between atoms: C_11  and  C_12 
REMARK    4  A    between atoms: C_12  and  N_13 
REMARK       I    between atoms: N_13  and  C_14 
REMARK    5  A    between atoms: C_14  and  C_15 
REMARK    6  A    between atoms: C_16  and  O_17 
ROOT
HETATM    1  N   UNL     1      -4.194   4.421 -30.895  1.00  0.00    -0.246 N 
HETATM    2  C   UNL     1      -4.686   5.671 -31.235  1.00  0.00     0.255 C 
HETATM    3  O   UNL     1      -5.266   5.932 -32.291  1.00  0.00    -0.270 OA
HETATM    4  H   UNL     1      -3.685   4.278 -30.027  1.00  0.00     0.192 HD
ENDROOT
BRANCH   1   5
HETATM    5  N   UNL     1      -4.324   3.398 -31.787  1.00  0.00    -0.184 NA
HETATM    6  C   UNL     1      -4.770   2.277 -31.321  1.00  0.00     0.153 C 
BRANCH   6   7
HETATM    7  C   UNL     1      -4.896   1.134 -32.209  1.00  0.00     0.018 A 
HETATM    8  C   UNL     1      -4.075   0.012 -32.246  1.00  0.00     0.018 A 
HETATM    9  C   UNL     1      -2.870  -0.348 -31.448  1.00  0.00     0.069 C 
HETATM   10  N   UNL     1      -4.560  -0.831 -33.214  1.00  0.00    -0.358 N 
HETATM   11  H   UNL     1      -4.161  -1.726 -33.454  1.00  0.00     0.166 HD
HETATM   12  C   UNL     1      -5.678  -0.297 -33.806  1.00  0.00     0.043 A 
HETATM   13  C   UNL     1      -5.912   0.939 -33.203  1.00  0.00     0.004 A 
HETATM   14  C   UNL     1      -6.494  -0.819 -34.816  1.00  0.00     0.030 A 
HETATM   15  C   UNL     1      -7.027   1.691 -33.636  1.00  0.00     0.014 A 
HETATM   16  C   UNL     1      -7.856   1.182 -34.643  1.00  0.00     0.001 A 
HETATM   17  C   UNL     1      -7.591  -0.055 -35.224  1.00  0.00     0.002 A 
ENDBRANCH   6   7
ENDBRANCH   1   5
BRANCH   2  18
HETATM   18  C   UNL     1      -4.277   6.796 -30.285  1.00  0.00     0.227 C 
BRANCH  18  19
HETATM   19  N   UNL     1      -3.729   8.001 -30.896  1.00  0.00    -0.348 N 
HETATM   20  C   UNL     1      -2.471   8.263 -31.370  1.00  0.00     0.254 C 
HETATM   21  O   UNL     1      -2.237   9.325 -31.936  1.00  0.00    -0.268 OA
HETATM   22  H   UNL     1      -4.376   8.766 -31.058  1.00  0.00     0.163 HD
BRANCH  20  23
HETATM   23  C   UNL     1      -1.384   7.292 -31.153  1.00  0.00     0.065 A 
HETATM   24  C   UNL     1      -1.203   6.246 -32.066  1.00  0.00     0.084 A 
HETATM   25  C   UNL     1      -0.173   5.323 -31.884  1.00  0.00     0.038 A 
HETATM   26  C   UNL     1       0.653   5.424 -30.763  1.00  0.00     0.003 A 
HETATM   27  C   UNL     1       0.449   6.444 -29.829  1.00  0.00     0.001 A 
HETATM   28  C   UNL     1      -0.574   7.375 -30.018  1.00  0.00     0.020 A 
BRANCH  24  29
HETATM   29  O   UNL     1      -1.971   6.162 -33.200  1.00  0.00    -0.355 OA
HETATM   30  C   UNL     1      -1.732   4.907 -33.850  1.00  0.00     0.210 C 
ENDBRANCH  24  29
ENDBRANCH  20  23
ENDBRANCH  18  19
ENDBRANCH   2  18
TORSDOF 6
ENDMDL
MODEL 6
REMARK VINA RESULT:      -8.2      6.532      9.881
REMARK  6 active torsions:
REMARK  status: ('A' for Active; 'I' for Inactive)
REMARK    1  A    between atoms: C_7  and  C_8 
REMARK    2  A    between atoms: N_9  and  N_10 
REMARK       I    between atoms: N_10  and  C_11 
REMARK    3  A    between atoms: C_11  and  C_12 
REMARK    4  A    between atoms: C_12  and  N_13 
REMARK       I    between atoms: N_13  and  C_14 
REMARK    5  A    between atoms: C_14  and  C_15 
REMARK    6  A    between atoms: C_16  and  O_17 
ROOT
HETATM    1  N   UNL     1      -3.957   3.622 -32.047  1.00  0.00    -0.246 N 
HETATM    2  C   UNL     1      -2.841   4.435 -31.947  1.00  0.00     0.255 C 
HETATM    3  O   UNL     1      -1.707   4.117 -32.312  1.00  0.00    -0.270 OA
HETATM    4  H   UNL     1      -4.859   3.924 -31.687  1.00  0.00     0.192 HD
ENDROOT
BRANCH   1   5
HETATM    5  N   UNL     1      -3.813   2.365 -32.555  1.00  0.00    -0.184 NA
HETATM    6  C   UNL     1      -4.625   1.463 -32.109  1.00  0.00     0.153 C 
BRANCH   6   7
HETATM    7  C   UNL     1      -4.501   0.094 -32.581  1.00  0.00     0.018 A 
HETATM    8  C   UNL     1      -3.497  -0.812 -32.256  1.00  0.00     0.018 A 
HETATM    9  C   UNL     1      -2.295  -0.674 -31.388  1.00  0.00     0.069 C 
HETATM   10  N   UNL     1      -3.773  -1.992 -32.899  1.00  0.00    -0.358 N 
HETATM   11  H   UNL     1      -3.212  -2.829 -32.839  1.00  0.00     0.166 HD
HETATM   12  C   UNL     1      -4.933  -1.887 -33.629  1.00  0.00     0.043 A 
HETATM   13  C   UNL     1      -5.411  -0.588 -33.456  1.00  0.00     0.004 A 
HETATM   14  C   UNL     1      -5.588  -2.843 -34.413  1.00  0.00     0.030 A 
HETATM   15  C   UNL     1      -6.613  -0.229 -34.104  1.00  0.00     0.014 A 
HETATM   16  C   UNL     1      -7.283  -1.174 -34.892  1.00  0.00     0.001 A 
HETATM   17  C   UNL     1      -6.775  -2.461 -35.043  1.00  0.00     0.002 A 
ENDBRANCH   6   7
ENDBRANCH   1   5
BRANCH   2  18
HETATM   18  C   UNL     1      -3.057   5.718 -31.146  1.00  0.00     0.227 C 
BRANCH  18  19
HETATM   19  N   UNL     1      -2.834   6.975 -31.850  1.00  0.00    -0.348 N 
HETATM   20  C   UNL     1      -1.999   8.020 -31.559  1.00  0.00     0.254 C 
HETATM   21  O   UNL     1      -1.894   8.959 -32.341  1.00  0.00    -0.268 OA
HETATM   22  H   UNL     1      -3.322   7.097 -32.732  1.00  0.00     0.163 HD
BRANCH  20  23
HETATM   23  C   UNL     1      -1.267   8.046 -30.280  1.00  0.00     0.065 A 
HETATM   24  C   UNL     1      -0.117   7.262 -30.129  1.00  0.00     0.084 A 
HETATM   25  C   UNL     1       0.595   7.281 -28.931  1.00  0.00     0.038 A 
HETATM   26  C   UNL     1       0.132   8.055 -27.866  1.00  0.00     0.003 A 
HETATM   27  C   UNL     1      -1.037   8.808 -28.000  1.00  0.00     0.001 A 
HETATM   28  C   UNL     1      -1.744   8.800 -29.204  1.00  0.00     0.020 A 
BRANCH  24  29
HETATM   29  O   UNL     1       0.380   6.535 -31.181  1.00  0.00    -0.355 OA
HETATM   30  C   UNL     1       0.871   5.275 -30.705  1.00  0.00     0.210 C 
ENDBRANCH  24  29
ENDBRANCH  20  23
ENDBRANCH  18  19
ENDBRANCH   2  18
TORSDOF 6
ENDMDL
MODEL 7
REMARK VINA RESULT:      -8.1      6.888     10.415
REMARK  6 active torsions:
REMARK  status: ('A' for Active; 'I' for Inactive)
REMARK    1  A    between atoms: C_7  and  C_8 
REMARK    2  A    between atoms: N_9  and  N_10 
REMARK       I    between atoms: N_10  and  C_11 
REMARK    3  A    between atoms: C_11  and  C_12 
REMARK    4  A    between atoms: C_12  and  N_13 
REMARK       I    between atoms: N_13  and  C_14 
REMARK    5  A    between atoms: C_14  and  C_15 
REMARK    6  A    between atoms: C_16  and  O_17 
ROOT
HETATM    1  N   UNL     1      -3.011   3.818 -31.405  1.00  0.00    -0.246 N 
HETATM    2  C   UNL     1      -2.055   4.699 -31.883  1.00  0.00     0.255 C 
HETATM    3  O   UNL     1      -1.593   4.680 -33.025  1.00  0.00    -0.270 OA
HETATM    4  H   UNL     1      -3.321   3.856 -30.438  1.00  0.00     0.192 HD
ENDROOT
BRANCH   1   5
HETATM    5  N   UNL     1      -3.469   2.833 -32.230  1.00  0.00    -0.184 NA
HETATM    6  C   UNL     1      -3.916   1.762 -31.659  1.00  0.00     0.153 C 
BRANCH   6   7
HETATM    7  C   UNL     1      -4.384   0.658 -32.480  1.00  0.00     0.018 A 
HETATM    8  C   UNL     1      -3.837  -0.619 -32.549  1.00  0.00     0.018 A 
HETATM    9  C   UNL     1      -2.664  -1.223 -31.858  1.00  0.00     0.069 C 
HETATM   10  N   UNL     1      -4.595  -1.353 -33.426  1.00  0.00    -0.358 N 
HETATM   11  H   UNL     1      -4.431  -2.320 -33.665  1.00  0.00     0.166 HD
HETATM   12  C   UNL     1      -5.626  -0.595 -33.928  1.00  0.00     0.043 A 
HETATM   13  C   UNL     1      -5.517   0.674 -33.359  1.00  0.00     0.004 A 
HETATM   14  C   UNL     1      -6.639  -0.943 -34.829  1.00  0.00     0.030 A 
HETATM   15  C   UNL     1      -6.479   1.646 -33.713  1.00  0.00     0.014 A 
HETATM   16  C   UNL     1      -7.501   1.315 -34.610  1.00  0.00     0.001 A 
HETATM   17  C   UNL     1      -7.577   0.037 -35.160  1.00  0.00     0.002 A 
ENDBRANCH   6   7
ENDBRANCH   1   5
BRANCH   2  18
HETATM   18  C   UNL     1      -1.433   5.602 -30.818  1.00  0.00     0.227 C 
BRANCH  18  19
HETATM   19  N   UNL     1      -1.873   6.992 -30.801  1.00  0.00    -0.348 N 
HETATM   20  C   UNL     1      -1.559   8.012 -29.943  1.00  0.00     0.254 C 
HETATM   21  O   UNL     1      -1.973   9.146 -30.161  1.00  0.00    -0.268 OA
HETATM   22  H   UNL     1      -2.464   7.293 -31.569  1.00  0.00     0.163 HD
BRANCH  20  23
HETATM   23  C   UNL     1      -0.771   7.739 -28.728  1.00  0.00     0.065 A 
HETATM   24  C   UNL     1      -1.417   7.261 -27.582  1.00  0.00     0.084 A 
HETATM   25  C   UNL     1      -0.688   6.986 -26.426  1.00  0.00     0.038 A 
HETATM   26  C   UNL     1       0.687   7.230 -26.404  1.00  0.00     0.003 A 
HETATM   27  C   UNL     1       1.328   7.745 -27.534  1.00  0.00     0.001 A 
HETATM   28  C   UNL     1       0.599   8.008 -28.696  1.00  0.00     0.020 A 
BRANCH  24  29
HETATM   29  O   UNL     1      -2.757   6.966 -27.602  1.00  0.00    -0.355 OA
HETATM   30  C   UNL     1      -3.302   7.116 -26.284  1.00  0.00     0.210 C 
ENDBRANCH  24  29
ENDBRANCH  20  23
ENDBRANCH  18  19
ENDBRANCH   2  18
TORSDOF 6
ENDMDL
MODEL 8
REMARK VINA RESULT:      -7.9      5.893      9.394
REMARK  6 active torsions:
REMARK  status: ('A' for Active; 'I' for Inactive)
REMARK    1  A    between atoms: C_7  and  C_8 
REMARK    2  A    between atoms: N_9  and  N_10 
REMARK       I    between atoms: N_10  and  C_11 
REMARK    3  A    between atoms: C_11  and  C_12 
REMARK    4  A    between atoms: C_12  and  N_13 
REMARK       I    between atoms: N_13  and  C_14 
REMARK    5  A    between atoms: C_14  and  C_15 
REMARK    6  A    between atoms: C_16  and  O_17 
ROOT
HETATM    1  N   UNL     1      -5.348   3.567 -31.461  1.00  0.00    -0.246 N 
HETATM    2  C   UNL     1      -4.986   4.772 -32.040  1.00  0.00     0.255 C 
HETATM    3  O   UNL     1      -5.242   5.096 -33.201  1.00  0.00    -0.270 OA
HETATM    4  H   UNL     1      -5.070   3.339 -30.510  1.00  0.00     0.192 HD
ENDROOT
BRANCH   1   5
HETATM    5  N   UNL     1      -6.010   2.645 -32.218  1.00  0.00    -0.184 NA
HETATM    6  C   UNL     1      -6.027   1.432 -31.769  1.00  0.00     0.153 C 
BRANCH   6   7
HETATM    7  C   UNL     1      -6.682   0.393 -32.545  1.00  0.00     0.018 A 
HETATM    8  C   UNL     1      -8.042   0.290 -32.820  1.00  0.00     0.018 A 
HETATM    9  C   UNL     1      -9.191   1.148 -32.420  1.00  0.00     0.069 C 
HETATM   10  N   UNL     1      -8.228  -0.824 -33.600  1.00  0.00    -0.358 N 
HETATM   11  H   UNL     1      -9.119  -1.139 -33.954  1.00  0.00     0.166 HD
HETATM   12  C   UNL     1      -7.030  -1.447 -33.850  1.00  0.00     0.043 A 
HETATM   13  C   UNL     1      -6.040  -0.712 -33.196  1.00  0.00     0.004 A 
HETATM   14  C   UNL     1      -6.756  -2.592 -34.606  1.00  0.00     0.030 A 
HETATM   15  C   UNL     1      -4.702  -1.150 -33.310  1.00  0.00     0.014 A 
HETATM   16  C   UNL     1      -4.409  -2.292 -34.066  1.00  0.00     0.001 A 
HETATM   17  C   UNL     1      -5.423  -3.001 -34.703  1.00  0.00     0.002 A 
ENDBRANCH   6   7
ENDBRANCH   1   5
BRANCH   2  18
HETATM   18  C   UNL     1      -4.044   5.627 -31.194  1.00  0.00     0.227 C 
BRANCH  18  19
HETATM   19  N   UNL     1      -4.148   7.072 -31.357  1.00  0.00    -0.348 N 
HETATM   20  C   UNL     1      -3.191   8.047 -31.267  1.00  0.00     0.254 C 
HETATM   21  O   UNL     1      -3.474   9.211 -31.531  1.00  0.00    -0.268 OA
HETATM   22  H   UNL     1      -5.054   7.435 -31.636  1.00  0.00     0.163 HD
BRANCH  20  23
HETATM   23  C   UNL     1      -1.835   7.710 -30.800  1.00  0.00     0.065 A 
HETATM   24  C   UNL     1      -0.900   7.202 -31.710  1.00  0.00     0.084 A 
HETATM   25  C   UNL     1       0.392   6.887 -31.291  1.00  0.00     0.038 A 
HETATM   26  C   UNL     1       0.737   7.041 -29.947  1.00  0.00     0.003 A 
HETATM   27  C   UNL     1      -0.206   7.511 -29.028  1.00  0.00     0.001 A 
HETATM   28  C   UNL     1      -1.496   7.838 -29.451  1.00  0.00     0.020 A 
BRANCH  24  29
HETATM   29  O   UNL     1      -1.206   7.092 -33.043  1.00  0.00    -0.355 OA
HETATM   30  C   UNL     1      -1.236   5.708 -33.417  1.00  0.00     0.210 C 
ENDBRANCH  24  29
ENDBRANCH  20  23
ENDBRANCH  18  19
ENDBRANCH   2  18
TORSDOF 6
ENDMDL
MODEL 9
REMARK VINA RESULT:      -7.7      4.798      8.642
REMARK  6 active torsions:
REMARK  status: ('A' for Active; 'I' for Inactive)
REMARK    1  A    between atoms: C_7  and  C_8 
REMARK    2  A    between atoms: N_9  and  N_10 
REMARK       I    between atoms: N_10  and  C_11 
REMARK    3  A    between atoms: C_11  and  C_12 
REMARK    4  A    between atoms: C_12  and  N_13 
REMARK       I    between atoms: N_13  and  C_14 
REMARK    5  A    between atoms: C_14  and  C_15 
REMARK    6  A    between atoms: C_16  and  O_17 
ROOT
HETATM    1  N   UNL     1      -6.643   2.205 -31.702  1.00  0.00    -0.246 N 
HETATM    2  C   UNL     1      -6.659   0.911 -31.209  1.00  0.00     0.255 C 
HETATM    3  O   UNL     1      -6.095   0.547 -30.176  1.00  0.00    -0.270 OA
HETATM    4  H   UNL     1      -7.091   2.435 -32.586  1.00  0.00     0.192 HD
ENDROOT
BRANCH   1   5
HETATM    5  N   UNL     1      -5.936   3.157 -31.028  1.00  0.00    -0.184 NA
HETATM    6  C   UNL     1      -5.092   3.851 -31.721  1.00  0.00     0.153 C 
BRANCH   6   7
HETATM    7  C   UNL     1      -4.280   4.856 -31.058  1.00  0.00     0.018 A 
HETATM    8  C   UNL     1      -4.659   5.664 -29.991  1.00  0.00     0.018 A 
HETATM    9  C   UNL     1      -5.943   5.762 -29.244  1.00  0.00     0.069 C 
HETATM   10  N   UNL     1      -3.586   6.453 -29.661  1.00  0.00    -0.358 N 
HETATM   11  H   UNL     1      -3.577   7.133 -28.915  1.00  0.00     0.166 HD
HETATM   12  C   UNL     1      -2.514   6.180 -30.475  1.00  0.00     0.043 A 
HETATM   13  C   UNL     1      -2.918   5.187 -31.367  1.00  0.00     0.004 A 
HETATM   14  C   UNL     1      -1.227   6.730 -30.478  1.00  0.00     0.030 A 
HETATM   15  C   UNL     1      -1.979   4.719 -32.313  1.00  0.00     0.014 A 
HETATM   16  C   UNL     1      -0.686   5.257 -32.329  1.00  0.00     0.001 A 
HETATM   17  C   UNL     1      -0.318   6.248 -31.423  1.00  0.00     0.002 A 
ENDBRANCH   6   7
ENDBRANCH   1   5
BRANCH   2  18
HETATM   18  C   UNL     1      -7.266  -0.124 -32.157  1.00  0.00     0.227 C 
BRANCH  18  19
HETATM   19  N   UNL     1      -7.308   0.230 -33.571  1.00  0.00    -0.348 N 
HETATM   20  C   UNL     1      -6.906  -0.474 -34.674  1.00  0.00     0.254 C 
HETATM   21  O   UNL     1      -7.114  -0.027 -35.797  1.00  0.00    -0.268 OA
HETATM   22  H   UNL     1      -7.751   1.111 -33.808  1.00  0.00     0.163 HD
BRANCH  20  23
HETATM   23  C   UNL     1      -6.175  -1.744 -34.514  1.00  0.00     0.065 A 
HETATM   24  C   UNL     1      -4.892  -1.732 -33.954  1.00  0.00     0.084 A 
HETATM   25  C   UNL     1      -4.187  -2.924 -33.784  1.00  0.00     0.038 A 
HETATM   26  C   UNL     1      -4.753  -4.126 -34.214  1.00  0.00     0.003 A 
HETATM   27  C   UNL     1      -6.017  -4.135 -34.809  1.00  0.00     0.001 A 
HETATM   28  C   UNL     1      -6.728  -2.944 -34.968  1.00  0.00     0.020 A 
BRANCH  24  29
HETATM   29  O   UNL     1      -4.342  -0.568 -33.480  1.00  0.00    -0.355 OA
HETATM   30  C   UNL     1      -3.341  -0.874 -32.501  1.00  0.00     0.210 C 
ENDBRANCH  24  29
ENDBRANCH  20  23
ENDBRANCH  18  19
ENDBRANCH   2  18
TORSDOF 6
ENDMDL
MODEL 10
REMARK VINA RESULT:      -7.5      6.015      9.559
REMARK  6 active torsions:
REMARK  status: ('A' for Active; 'I' for Inactive)
REMARK    1  A    between atoms: C_7  and  C_8 
REMARK    2  A    between atoms: N_9  and  N_10 
REMARK       I    between atoms: N_10  and  C_11 
REMARK    3  A    between atoms: C_11  and  C_12 
REMARK    4  A    between atoms: C_12  and  N_13 
REMARK       I    between atoms: N_13  and  C_14 
REMARK    5  A    between atoms: C_14  and  C_15 
REMARK    6  A    between atoms: C_16  and  O_17 
ROOT
HETATM    1  N   UNL     1      -4.859   3.925 -29.891  1.00  0.00    -0.246 N 
HETATM    2  C   UNL     1      -5.210   5.211 -30.266  1.00  0.00     0.255 C 
HETATM    3  O   UNL     1      -5.925   5.490 -31.229  1.00  0.00    -0.270 OA
HETATM    4  H   UNL     1      -4.229   3.760 -29.110  1.00  0.00     0.192 HD
ENDROOT
BRANCH   1   5
HETATM    5  N   UNL     1      -5.300   2.877 -30.644  1.00  0.00    -0.184 NA
HETATM    6  C   UNL     1      -4.513   2.469 -31.586  1.00  0.00     0.153 C 
BRANCH   6   7
HETATM    7  C   UNL     1      -4.938   1.381 -32.450  1.00  0.00     0.018 A 
HETATM    8  C   UNL     1      -5.896   1.441 -33.457  1.00  0.00     0.018 A 
HETATM    9  C   UNL     1      -6.750   2.565 -33.932  1.00  0.00     0.069 C 
HETATM   10  N   UNL     1      -5.972   0.200 -34.038  1.00  0.00    -0.358 N 
HETATM   11  H   UNL     1      -6.584  -0.043 -34.803  1.00  0.00     0.166 HD
HETATM   12  C   UNL     1      -5.087  -0.668 -33.446  1.00  0.00     0.043 A 
HETATM   13  C   UNL     1      -4.427   0.040 -32.441  1.00  0.00     0.004 A 
HETATM   14  C   UNL     1      -4.822  -2.012 -33.732  1.00  0.00     0.030 A 
HETATM   15  C   UNL     1      -3.447  -0.638 -31.683  1.00  0.00     0.014 A 
HETATM   16  C   UNL     1      -3.166  -1.982 -31.958  1.00  0.00     0.001 A 
HETATM   17  C   UNL     1      -3.846  -2.657 -32.968  1.00  0.00     0.002 A 
ENDBRANCH   6   7
ENDBRANCH   1   5
BRANCH   2  18
HETATM   18  C   UNL     1      -4.472   6.317 -29.511  1.00  0.00     0.227 C 
BRANCH  18  19
HETATM   19  N   UNL     1      -4.211   7.548 -30.247  1.00  0.00    -0.348 N 
HETATM   20  C   UNL     1      -3.124   7.926 -30.989  1.00  0.00     0.254 C 
HETATM   21  O   UNL     1      -3.142   8.984 -31.610  1.00  0.00    -0.268 OA
HETATM   22  H   UNL     1      -4.963   8.230 -30.277  1.00  0.00     0.163 HD
BRANCH  20  23
HETATM   23  C   UNL     1      -1.910   7.091 -30.997  1.00  0.00     0.065 A 
HETATM   24  C   UNL     1      -0.977   7.223 -29.962  1.00  0.00     0.084 A 
HETATM   25  C   UNL     1       0.173   6.434 -29.946  1.00  0.00     0.038 A 
HETATM   26  C   UNL     1       0.409   5.539 -30.992  1.00  0.00     0.003 A 
HETATM   27  C   UNL     1      -0.501   5.434 -32.046  1.00  0.00     0.001 A 
HETATM   28  C   UNL     1      -1.658   6.215 -32.056  1.00  0.00     0.020 A 
BRANCH  24  29
HETATM   29  O   UNL     1      -1.217   8.059 -28.901  1.00  0.00    -0.355 OA
HETATM   30  C   UNL     1      -1.148   7.315 -27.678  1.00  0.00     0.210 C 
ENDBRANCH  24  29
ENDBRANCH  20  23
ENDBRANCH  18  19
ENDBRANCH   2  18
TORSDOF 6
ENDMDL
