MODEL 1
REMARK VINA RESULT:      -8.6      0.000      0.000
REMARK  3 active torsions:
REMARK  status: ('A' for Active; 'I' for Inactive)
REMARK    1  A    between atoms: C_3  and  N_4 
REMARK    2  A    between atoms: C_10  and  O_11 
REMARK    3  A    between atoms: C_14  and  C_15 
ROOT
HETATM    1  N   UNL     1      -6.519  -0.788 -34.415  1.00  0.00    -0.212 N 
HETATM    2  N   UNL     1      -6.761  -0.168 -35.601  1.00  0.00    -0.177 NA
HETATM    3  C   UNL     1      -7.293   1.000 -35.265  1.00  0.00     0.152 C 
HETATM    4  C   UNL     1      -7.366   1.209 -33.866  1.00  0.00     0.027 C 
HETATM    5  C   UNL     1      -6.762   0.073 -33.330  1.00  0.00     0.163 C 
HETATM    6  N   UNL     1      -6.331  -0.234 -32.078  1.00  0.00    -0.208 NA
HETATM    7  C   UNL     1      -7.097   0.046 -31.082  1.00  0.00     0.149 C 
HETATM    8  C   UNL     1      -8.433   0.724 -31.084  1.00  0.00     0.161 C 
HETATM    9  S   UNL     1      -8.181   2.486 -31.417  1.00  0.00    -0.146 SA
HETATM   10  C   UNL     1      -7.866   2.482 -33.230  1.00  0.00     0.124 C 
ENDROOT
BRANCH  10  11
HETATM   11  C   UNL     1      -9.115   3.013 -33.913  1.00  0.00     0.028 A 
HETATM   12  C   UNL     1      -9.062   4.437 -34.381  1.00  0.00     0.253 A 
HETATM   13  O   UNL     1      -8.059   5.132 -34.259  1.00  0.00    -0.268 OA
HETATM   14  N   UNL     1     -10.198   4.925 -34.983  1.00  0.00    -0.333 N 
HETATM   15  C   UNL     1     -11.334   4.191 -35.194  1.00  0.00     0.091 A 
HETATM   16  H   UNL     1     -10.152   5.890 -35.287  1.00  0.00     0.168 HD
HETATM   17  C   UNL     1     -11.385   2.913 -34.807  1.00  0.00     0.018 A 
HETATM   18  C   UNL     1     -10.243   2.313 -34.156  1.00  0.00     0.015 A 
ENDBRANCH  10  11
BRANCH   1  19
HETATM   19  C   UNL     1      -6.049  -2.131 -34.426  1.00  0.00     0.099 A 
HETATM   20  C   UNL     1      -6.964  -3.169 -34.679  1.00  0.00     0.035 A 
HETATM   21  C   UNL     1      -6.537  -4.499 -34.717  1.00  0.00     0.002 A 
HETATM   22  C   UNL     1      -5.200  -4.810 -34.482  1.00  0.00     0.003 A 
HETATM   23  C   UNL     1      -4.295  -3.791 -34.193  1.00  0.00     0.045 A 
HETATM   24  C   UNL     1      -4.720  -2.461 -34.158  1.00  0.00     0.145 A 
HETATM   25  F   UNL     1      -3.825  -1.552 -33.748  1.00  0.00    -0.204 F 
ENDBRANCH   1  19
BRANCH   7  26
HETATM   26  O   UNL     1      -6.653  -0.299 -29.862  1.00  0.00    -0.347 OA
HETATM   27  H   UNL     1      -5.754  -0.652 -29.975  1.00  0.00     0.219 HD
ENDBRANCH   7  26
TORSDOF 3
ENDMDL
MODEL 2
REMARK VINA RESULT:      -8.5      3.281      4.312
REMARK  3 active torsions:
REMARK  status: ('A' for Active; 'I' for Inactive)
REMARK    1  A    between atoms: C_3  and  N_4 
REMARK    2  A    between atoms: C_10  and  O_11 
REMARK    3  A    between atoms: C_14  and  C_15 
ROOT
HETATM    1  N   UNL     1      -4.723  -0.958 -33.327  1.00  0.00    -0.212 N 
HETATM    2  N   UNL     1      -3.458  -0.534 -33.587  1.00  0.00    -0.177 NA
HETATM    3  C   UNL     1      -3.408   0.695 -33.089  1.00  0.00     0.152 C 
HETATM    4  C   UNL     1      -4.604   1.095 -32.443  1.00  0.00     0.027 C 
HETATM    5  C   UNL     1      -5.414  -0.036 -32.520  1.00  0.00     0.163 C 
HETATM    6  N   UNL     1      -6.583  -0.371 -31.912  1.00  0.00    -0.208 NA
HETATM    7  C   UNL     1      -7.517   0.513 -31.854  1.00  0.00     0.149 C 
HETATM    8  C   UNL     1      -7.502   1.931 -32.337  1.00  0.00     0.161 C 
HETATM    9  S   UNL     1      -6.472   2.909 -31.214  1.00  0.00    -0.146 SA
HETATM   10  C   UNL     1      -4.777   2.416 -31.737  1.00  0.00     0.124 C 
ENDROOT
BRANCH  10  11
HETATM   11  C   UNL     1      -4.188   3.572 -32.528  1.00  0.00     0.028 A 
HETATM   12  C   UNL     1      -2.816   4.021 -32.125  1.00  0.00     0.253 A 
HETATM   13  O   UNL     1      -2.178   3.469 -31.235  1.00  0.00    -0.268 OA
HETATM   14  N   UNL     1      -2.288   5.079 -32.829  1.00  0.00    -0.333 N 
HETATM   15  C   UNL     1      -2.924   5.709 -33.864  1.00  0.00     0.091 A 
HETATM   16  H   UNL     1      -1.364   5.378 -32.541  1.00  0.00     0.168 HD
HETATM   17  C   UNL     1      -4.136   5.301 -34.251  1.00  0.00     0.018 A 
HETATM   18  C   UNL     1      -4.777   4.202 -33.567  1.00  0.00     0.015 A 
ENDBRANCH  10  11
BRANCH   1  19
HETATM   19  C   UNL     1      -5.146  -2.214 -33.844  1.00  0.00     0.099 A 
HETATM   20  C   UNL     1      -4.288  -3.322 -33.724  1.00  0.00     0.035 A 
HETATM   21  C   UNL     1      -4.676  -4.576 -34.203  1.00  0.00     0.002 A 
HETATM   22  C   UNL     1      -5.912  -4.734 -34.824  1.00  0.00     0.003 A 
HETATM   23  C   UNL     1      -6.752  -3.634 -34.981  1.00  0.00     0.045 A 
HETATM   24  C   UNL     1      -6.367  -2.381 -34.500  1.00  0.00     0.145 A 
HETATM   25  F   UNL     1      -7.165  -1.347 -34.800  1.00  0.00    -0.204 F 
ENDBRANCH   1  19
BRANCH   7  26
HETATM   26  O   UNL     1      -8.669   0.138 -31.273  1.00  0.00    -0.347 OA
HETATM   27  H   UNL     1      -9.274   0.898 -31.323  1.00  0.00     0.219 HD
ENDBRANCH   7  26
TORSDOF 3
ENDMDL
MODEL 3
REMARK VINA RESULT:      -8.4      3.138      4.709
REMARK  3 active torsions:
REMARK  status: ('A' for Active; 'I' for Inactive)
REMARK    1  A    between atoms: C_3  and  N_4 
REMARK    2  A    between atoms: C_10  and  O_11 
REMARK    3  A    between atoms: C_14  and  C_15 
ROOT
HETATM    1  N   UNL     1      -8.911   0.606 -32.964  1.00  0.00    -0.212 N 
HETATM    2  N   UNL     1      -9.939  -0.280 -32.878  1.00  0.00    -0.177 NA
HETATM    3  C   UNL     1     -11.005   0.408 -33.263  1.00  0.00     0.152 C 
HETATM    4  C   UNL     1     -10.712   1.735 -33.663  1.00  0.00     0.027 C 
HETATM    5  C   UNL     1      -9.325   1.812 -33.557  1.00  0.00     0.163 C 
HETATM    6  N   UNL     1      -8.420   2.728 -33.992  1.00  0.00    -0.208 NA
HETATM    7  C   UNL     1      -8.681   3.977 -33.814  1.00  0.00     0.149 C 
HETATM    8  C   UNL     1      -9.899   4.607 -33.211  1.00  0.00     0.161 C 
HETATM    9  S   UNL     1     -11.263   4.465 -34.394  1.00  0.00    -0.146 SA
HETATM   10  C   UNL     1     -11.739   2.697 -34.206  1.00  0.00     0.124 C 
ENDROOT
BRANCH  10  11
HETATM   11  C   UNL     1     -13.038   2.654 -33.421  1.00  0.00     0.028 A 
HETATM   12  C   UNL     1     -14.142   1.824 -34.006  1.00  0.00     0.253 A 
HETATM   13  O   UNL     1     -14.001   1.180 -35.040  1.00  0.00    -0.268 OA
HETATM   14  N   UNL     1     -15.324   1.799 -33.305  1.00  0.00    -0.333 N 
HETATM   15  C   UNL     1     -15.533   2.454 -32.121  1.00  0.00     0.091 A 
HETATM   16  H   UNL     1     -16.064   1.241 -33.715  1.00  0.00     0.168 HD
HETATM   17  C   UNL     1     -14.549   3.175 -31.574  1.00  0.00     0.018 A 
HETATM   18  C   UNL     1     -13.272   3.269 -32.242  1.00  0.00     0.015 A 
ENDBRANCH  10  11
BRANCH   1  19
HETATM   19  C   UNL     1      -7.624   0.211 -32.502  1.00  0.00     0.099 A 
HETATM   20  C   UNL     1      -7.200   0.634 -31.230  1.00  0.00     0.035 A 
HETATM   21  C   UNL     1      -5.950   0.251 -30.734  1.00  0.00     0.002 A 
HETATM   22  C   UNL     1      -5.104  -0.538 -31.508  1.00  0.00     0.003 A 
HETATM   23  C   UNL     1      -5.502  -0.930 -32.785  1.00  0.00     0.045 A 
HETATM   24  C   UNL     1      -6.751  -0.551 -33.280  1.00  0.00     0.145 A 
HETATM   25  F   UNL     1      -7.011  -0.854 -34.559  1.00  0.00    -0.204 F 
ENDBRANCH   1  19
BRANCH   7  26
HETATM   26  O   UNL     1      -7.751   4.854 -34.228  1.00  0.00    -0.347 OA
HETATM   27  H   UNL     1      -7.100   4.354 -34.749  1.00  0.00     0.219 HD
ENDBRANCH   7  26
TORSDOF 3
ENDMDL
MODEL 4
REMARK VINA RESULT:      -8.0      3.127      4.021
REMARK  3 active torsions:
REMARK  status: ('A' for Active; 'I' for Inactive)
REMARK    1  A    between atoms: C_3  and  N_4 
REMARK    2  A    between atoms: C_10  and  O_11 
REMARK    3  A    between atoms: C_14  and  C_15 
ROOT
HETATM    1  N   UNL     1      -4.407  -0.806 -32.861  1.00  0.00    -0.212 N 
HETATM    2  N   UNL     1      -3.240  -0.154 -32.612  1.00  0.00    -0.177 NA
HETATM    3  C   UNL     1      -3.602   1.101 -32.381  1.00  0.00     0.152 C 
HETATM    4  C   UNL     1      -5.003   1.305 -32.415  1.00  0.00     0.027 C 
HETATM    5  C   UNL     1      -5.517   0.027 -32.629  1.00  0.00     0.163 C 
HETATM    6  N   UNL     1      -6.774  -0.484 -32.548  1.00  0.00    -0.208 NA
HETATM    7  C   UNL     1      -7.741   0.186 -33.072  1.00  0.00     0.149 C 
HETATM    8  C   UNL     1      -7.700   1.519 -33.754  1.00  0.00     0.161 C 
HETATM    9  S   UNL     1      -7.463   2.800 -32.496  1.00  0.00    -0.146 SA
HETATM   10  C   UNL     1      -5.670   2.624 -32.117  1.00  0.00     0.124 C 
ENDROOT
BRANCH  10  11
HETATM   11  C   UNL     1      -4.949   3.792 -32.767  1.00  0.00     0.028 A 
HETATM   12  C   UNL     1      -4.267   4.752 -31.839  1.00  0.00     0.253 A 
HETATM   13  O   UNL     1      -4.253   4.593 -30.623  1.00  0.00    -0.268 OA
HETATM   14  N   UNL     1      -3.628   5.820 -32.425  1.00  0.00    -0.333 N 
HETATM   15  C   UNL     1      -3.563   6.032 -33.776  1.00  0.00     0.091 A 
HETATM   16  H   UNL     1      -3.179   6.465 -31.787  1.00  0.00     0.168 HD
HETATM   17  C   UNL     1      -4.143   5.169 -34.616  1.00  0.00     0.018 A 
HETATM   18  C   UNL     1      -4.846   4.020 -34.094  1.00  0.00     0.015 A 
ENDBRANCH  10  11
BRANCH   1  19
HETATM   19  C   UNL     1      -4.358  -2.169 -33.268  1.00  0.00     0.099 A 
HETATM   20  C   UNL     1      -5.152  -2.583 -34.352  1.00  0.00     0.035 A 
HETATM   21  C   UNL     1      -5.117  -3.909 -34.793  1.00  0.00     0.002 A 
HETATM   22  C   UNL     1      -4.308  -4.839 -34.144  1.00  0.00     0.003 A 
HETATM   23  C   UNL     1      -3.548  -4.444 -33.045  1.00  0.00     0.045 A 
HETATM   24  C   UNL     1      -3.580  -3.119 -32.606  1.00  0.00     0.145 A 
HETATM   25  F   UNL     1      -2.926  -2.844 -31.469  1.00  0.00    -0.204 F 
ENDBRANCH   1  19
BRANCH   7  26
HETATM   26  O   UNL     1      -8.965  -0.362 -33.000  1.00  0.00    -0.347 OA
HETATM   27  H   UNL     1      -9.604   0.339 -33.213  1.00  0.00     0.219 HD
ENDBRANCH   7  26
TORSDOF 3
ENDMDL
MODEL 5
REMARK VINA RESULT:      -7.8      4.602      6.169
REMARK  3 active torsions:
REMARK  status: ('A' for Active; 'I' for Inactive)
REMARK    1  A    between atoms: C_3  and  N_4 
REMARK    2  A    between atoms: C_10  and  O_11 
REMARK    3  A    between atoms: C_14  and  C_15 
ROOT
HETATM    1  N   UNL     1      -4.397   4.314 -32.417  1.00  0.00    -0.212 N 
HETATM    2  N   UNL     1      -5.579   4.964 -32.585  1.00  0.00    -0.177 NA
HETATM    3  C   UNL     1      -6.501   4.074 -32.244  1.00  0.00     0.152 C 
HETATM    4  C   UNL     1      -5.964   2.844 -31.792  1.00  0.00     0.027 C 
HETATM    5  C   UNL     1      -4.587   3.056 -31.816  1.00  0.00     0.163 C 
HETATM    6  N   UNL     1      -3.540   2.355 -31.306  1.00  0.00    -0.208 NA
HETATM    7  C   UNL     1      -3.525   1.077 -31.466  1.00  0.00     0.149 C 
HETATM    8  C   UNL     1      -4.546   0.199 -32.121  1.00  0.00     0.161 C 
HETATM    9  S   UNL     1      -5.980   0.069 -31.022  1.00  0.00    -0.146 SA
HETATM   10  C   UNL     1      -6.800   1.696 -31.284  1.00  0.00     0.124 C 
ENDROOT
BRANCH  10  11
HETATM   11  C   UNL     1      -8.029   1.456 -32.143  1.00  0.00     0.028 A 
HETATM   12  C   UNL     1      -9.324   2.002 -31.620  1.00  0.00     0.253 A 
HETATM   13  O   UNL     1      -9.392   2.644 -30.577  1.00  0.00    -0.268 OA
HETATM   14  N   UNL     1     -10.440   1.770 -32.389  1.00  0.00    -0.333 N 
HETATM   15  C   UNL     1     -10.428   1.106 -33.585  1.00  0.00     0.091 A 
HETATM   16  H   UNL     1     -11.309   2.138 -32.020  1.00  0.00     0.168 HD
HETATM   17  C   UNL     1      -9.277   0.637 -34.077  1.00  0.00     0.018 A 
HETATM   18  C   UNL     1      -8.050   0.824 -33.336  1.00  0.00     0.015 A 
ENDBRANCH  10  11
BRANCH   1  19
HETATM   19  C   UNL     1      -3.194   4.962 -32.814  1.00  0.00     0.099 A 
HETATM   20  C   UNL     1      -2.732   4.788 -34.131  1.00  0.00     0.035 A 
HETATM   21  C   UNL     1      -1.565   5.423 -34.564  1.00  0.00     0.002 A 
HETATM   22  C   UNL     1      -0.836   6.220 -33.685  1.00  0.00     0.003 A 
HETATM   23  C   UNL     1      -1.268   6.368 -32.368  1.00  0.00     0.045 A 
HETATM   24  C   UNL     1      -2.435   5.736 -31.935  1.00  0.00     0.145 A 
HETATM   25  F   UNL     1      -2.716   5.817 -30.627  1.00  0.00    -0.204 F 
ENDBRANCH   1  19
BRANCH   7  26
HETATM   26  O   UNL     1      -2.461   0.420 -30.976  1.00  0.00    -0.347 OA
HETATM   27  H   UNL     1      -2.786  -0.428 -30.626  1.00  0.00     0.219 HD
ENDBRANCH   7  26
TORSDOF 3
ENDMDL
MODEL 6
REMARK VINA RESULT:      -7.6      3.121      6.926
REMARK  3 active torsions:
REMARK  status: ('A' for Active; 'I' for Inactive)
REMARK    1  A    between atoms: C_3  and  N_4 
REMARK    2  A    between atoms: C_10  and  O_11 
REMARK    3  A    between atoms: C_14  and  C_15 
ROOT
HETATM    1  N   UNL     1      -9.549   1.665 -32.815  1.00  0.00    -0.212 N 
HETATM    2  N   UNL     1      -9.413   0.468 -32.183  1.00  0.00    -0.177 NA
HETATM    3  C   UNL     1      -8.122   0.389 -31.892  1.00  0.00     0.152 C 
HETATM    4  C   UNL     1      -7.383   1.539 -32.266  1.00  0.00     0.027 C 
HETATM    5  C   UNL     1      -8.352   2.402 -32.774  1.00  0.00     0.163 C 
HETATM    6  N   UNL     1      -8.328   3.723 -33.095  1.00  0.00    -0.208 NA
HETATM    7  C   UNL     1      -7.322   4.172 -33.762  1.00  0.00     0.149 C 
HETATM    8  C   UNL     1      -6.100   3.442 -34.227  1.00  0.00     0.161 C 
HETATM    9  S   UNL     1      -5.040   3.127 -32.793  1.00  0.00    -0.146 SA
HETATM   10  C   UNL     1      -5.914   1.724 -31.982  1.00  0.00     0.124 C 
ENDROOT
BRANCH  10  11
HETATM   11  C   UNL     1      -5.112   0.464 -32.260  1.00  0.00     0.028 A 
HETATM   12  C   UNL     1      -4.333  -0.095 -31.107  1.00  0.00     0.253 A 
HETATM   13  O   UNL     1      -4.365   0.406 -29.988  1.00  0.00    -0.268 OA
HETATM   14  N   UNL     1      -3.592  -1.226 -31.361  1.00  0.00    -0.333 N 
HETATM   15  C   UNL     1      -3.550  -1.863 -32.571  1.00  0.00     0.091 A 
HETATM   16  H   UNL     1      -3.064  -1.588 -30.576  1.00  0.00     0.168 HD
HETATM   17  C   UNL     1      -4.261  -1.391 -33.600  1.00  0.00     0.018 A 
HETATM   18  C   UNL     1      -5.063  -0.202 -33.433  1.00  0.00     0.015 A 
ENDBRANCH  10  11
BRANCH   1  19
HETATM   19  C   UNL     1     -10.813   2.008 -33.371  1.00  0.00     0.099 A 
HETATM   20  C   UNL     1     -11.197   1.430 -34.594  1.00  0.00     0.035 A 
HETATM   21  C   UNL     1     -12.439   1.728 -35.162  1.00  0.00     0.002 A 
HETATM   22  C   UNL     1     -13.300   2.620 -34.529  1.00  0.00     0.003 A 
HETATM   23  C   UNL     1     -12.911   3.226 -33.335  1.00  0.00     0.045 A 
HETATM   24  C   UNL     1     -11.672   2.927 -32.765  1.00  0.00     0.145 A 
HETATM   25  F   UNL     1     -11.313   3.642 -31.691  1.00  0.00    -0.204 F 
ENDBRANCH   1  19
BRANCH   7  26
HETATM   26  O   UNL     1      -7.346   5.475 -34.087  1.00  0.00    -0.347 OA
HETATM   27  H   UNL     1      -7.984   5.905 -33.493  1.00  0.00     0.219 HD
ENDBRANCH   7  26
TORSDOF 3
ENDMDL
MODEL 7
REMARK VINA RESULT:      -7.6      5.723      7.652
REMARK  3 active torsions:
REMARK  status: ('A' for Active; 'I' for Inactive)
REMARK    1  A    between atoms: C_3  and  N_4 
REMARK    2  A    between atoms: C_10  and  O_11 
REMARK    3  A    between atoms: C_14  and  C_15 
ROOT
HETATM    1  N   UNL     1      -5.481   3.578 -32.361  1.00  0.00    -0.212 N 
HETATM    2  N   UNL     1      -5.407   3.632 -31.004  1.00  0.00    -0.177 NA
HETATM    3  C   UNL     1      -4.488   4.555 -30.756  1.00  0.00     0.152 C 
HETATM    4  C   UNL     1      -3.972   5.172 -31.922  1.00  0.00     0.027 C 
HETATM    5  C   UNL     1      -4.707   4.592 -32.954  1.00  0.00     0.163 C 
HETATM    6  N   UNL     1      -4.844   4.902 -34.271  1.00  0.00    -0.208 NA
HETATM    7  C   UNL     1      -3.784   5.186 -34.945  1.00  0.00     0.149 C 
HETATM    8  C   UNL     1      -2.364   5.271 -34.475  1.00  0.00     0.161 C 
HETATM    9  S   UNL     1      -2.175   6.781 -33.494  1.00  0.00    -0.146 SA
HETATM   10  C   UNL     1      -2.967   6.297 -31.905  1.00  0.00     0.124 C 
ENDROOT
BRANCH  10  11
HETATM   11  C   UNL     1      -1.859   6.062 -30.893  1.00  0.00     0.028 A 
HETATM   12  C   UNL     1      -1.982   6.796 -29.591  1.00  0.00     0.253 A 
HETATM   13  O   UNL     1      -2.939   7.517 -29.331  1.00  0.00    -0.268 OA
HETATM   14  N   UNL     1      -0.970   6.598 -28.681  1.00  0.00    -0.333 N 
HETATM   15  C   UNL     1       0.101   5.771 -28.887  1.00  0.00     0.091 A 
HETATM   16  H   UNL     1      -1.061   7.106 -27.809  1.00  0.00     0.168 HD
HETATM   17  C   UNL     1       0.209   5.090 -30.032  1.00  0.00     0.018 A 
HETATM   18  C   UNL     1      -0.801   5.239 -31.054  1.00  0.00     0.015 A 
ENDBRANCH  10  11
BRANCH   1  19
HETATM   19  C   UNL     1      -6.304   2.587 -32.965  1.00  0.00     0.099 A 
HETATM   20  C   UNL     1      -7.664   2.873 -33.180  1.00  0.00     0.035 A 
HETATM   21  C   UNL     1      -8.501   1.933 -33.788  1.00  0.00     0.002 A 
HETATM   22  C   UNL     1      -7.995   0.692 -34.167  1.00  0.00     0.003 A 
HETATM   23  C   UNL     1      -6.658   0.387 -33.923  1.00  0.00     0.045 A 
HETATM   24  C   UNL     1      -5.821   1.327 -33.319  1.00  0.00     0.145 A 
HETATM   25  F   UNL     1      -4.585   0.918 -32.999  1.00  0.00    -0.204 F 
ENDBRANCH   1  19
BRANCH   7  26
HETATM   26  O   UNL     1      -3.953   5.457 -36.250  1.00  0.00    -0.347 OA
HETATM   27  H   UNL     1      -4.710   4.929 -36.555  1.00  0.00     0.219 HD
ENDBRANCH   7  26
TORSDOF 3
ENDMDL
MODEL 8
REMARK VINA RESULT:      -7.6      2.732      3.657
REMARK  3 active torsions:
REMARK  status: ('A' for Active; 'I' for Inactive)
REMARK    1  A    between atoms: C_3  and  N_4 
REMARK    2  A    between atoms: C_10  and  O_11 
REMARK    3  A    between atoms: C_14  and  C_15 
ROOT
HETATM    1  N   UNL     1      -7.673   0.349 -33.350  1.00  0.00    -0.212 N 
HETATM    2  N   UNL     1      -8.876  -0.224 -33.077  1.00  0.00    -0.177 NA
HETATM    3  C   UNL     1      -9.746   0.774 -33.154  1.00  0.00     0.152 C 
HETATM    4  C   UNL     1      -9.164   2.009 -33.530  1.00  0.00     0.027 C 
HETATM    5  C   UNL     1      -7.826   1.688 -33.753  1.00  0.00     0.163 C 
HETATM    6  N   UNL     1      -6.802   2.369 -34.333  1.00  0.00    -0.208 NA
HETATM    7  C   UNL     1      -6.638   3.608 -34.021  1.00  0.00     0.149 C 
HETATM    8  C   UNL     1      -7.460   4.465 -33.108  1.00  0.00     0.161 C 
HETATM    9  S   UNL     1      -9.021   4.856 -33.939  1.00  0.00    -0.146 SA
HETATM   10  C   UNL     1      -9.949   3.277 -33.752  1.00  0.00     0.124 C 
ENDROOT
BRANCH  10  11
HETATM   11  C   UNL     1     -11.008   3.492 -32.684  1.00  0.00     0.028 A 
HETATM   12  C   UNL     1     -12.400   3.055 -33.031  1.00  0.00     0.253 A 
HETATM   13  O   UNL     1     -12.673   2.517 -34.098  1.00  0.00    -0.268 OA
HETATM   14  N   UNL     1     -13.362   3.265 -32.072  1.00  0.00    -0.333 N 
HETATM   15  C   UNL     1     -13.118   3.815 -30.842  1.00  0.00     0.091 A 
HETATM   16  H   UNL     1     -14.300   2.973 -32.321  1.00  0.00     0.168 HD
HETATM   17  C   UNL     1     -11.878   4.183 -30.510  1.00  0.00     0.018 A 
HETATM   18  C   UNL     1     -10.799   4.010 -31.455  1.00  0.00     0.015 A 
ENDBRANCH  10  11
BRANCH   1  19
HETATM   19  C   UNL     1      -6.494  -0.439 -33.233  1.00  0.00     0.099 A 
HETATM   20  C   UNL     1      -6.188  -1.360 -34.251  1.00  0.00     0.035 A 
HETATM   21  C   UNL     1      -5.030  -2.138 -34.181  1.00  0.00     0.002 A 
HETATM   22  C   UNL     1      -4.177  -2.023 -33.086  1.00  0.00     0.003 A 
HETATM   23  C   UNL     1      -4.493  -1.141 -32.054  1.00  0.00     0.045 A 
HETATM   24  C   UNL     1      -5.649  -0.360 -32.125  1.00  0.00     0.145 A 
HETATM   25  F   UNL     1      -5.954   0.367 -31.042  1.00  0.00    -0.204 F 
ENDBRANCH   1  19
BRANCH   7  26
HETATM   26  O   UNL     1      -5.599   4.242 -34.589  1.00  0.00    -0.347 OA
HETATM   27  H   UNL     1      -4.923   3.569 -34.777  1.00  0.00     0.219 HD
ENDBRANCH   7  26
TORSDOF 3
ENDMDL
MODEL 9
REMARK VINA RESULT:      -7.6      3.913      6.113
REMARK  3 active torsions:
REMARK  status: ('A' for Active; 'I' for Inactive)
REMARK    1  A    between atoms: C_3  and  N_4 
REMARK    2  A    between atoms: C_10  and  O_11 
REMARK    3  A    between atoms: C_14  and  C_15 
ROOT
HETATM    1  N   UNL     1      -8.740   2.127 -33.611  1.00  0.00    -0.212 N 
HETATM    2  N   UNL     1      -7.789   1.574 -34.411  1.00  0.00    -0.177 NA
HETATM    3  C   UNL     1      -6.644   2.065 -33.956  1.00  0.00     0.152 C 
HETATM    4  C   UNL     1      -6.794   2.902 -32.824  1.00  0.00     0.027 C 
HETATM    5  C   UNL     1      -8.160   2.848 -32.552  1.00  0.00     0.163 C 
HETATM    6  N   UNL     1      -8.901   3.250 -31.486  1.00  0.00    -0.208 NA
HETATM    7  C   UNL     1      -8.665   4.411 -30.981  1.00  0.00     0.149 C 
HETATM    8  C   UNL     1      -7.629   5.417 -31.378  1.00  0.00     0.161 C 
HETATM    9  S   UNL     1      -6.011   4.821 -30.825  1.00  0.00    -0.146 SA
HETATM   10  C   UNL     1      -5.640   3.526 -32.080  1.00  0.00     0.124 C 
ENDROOT
BRANCH  10  11
HETATM   11  C   UNL     1      -4.588   4.088 -33.020  1.00  0.00     0.028 A 
HETATM   12  C   UNL     1      -3.164   3.734 -32.711  1.00  0.00     0.253 A 
HETATM   13  O   UNL     1      -2.857   3.000 -31.777  1.00  0.00    -0.268 OA
HETATM   14  N   UNL     1      -2.208   4.256 -33.551  1.00  0.00    -0.333 N 
HETATM   15  C   UNL     1      -2.484   5.041 -34.638  1.00  0.00     0.091 A 
HETATM   16  H   UNL     1      -1.250   4.016 -33.326  1.00  0.00     0.168 HD
HETATM   17  C   UNL     1      -3.750   5.342 -34.940  1.00  0.00     0.018 A 
HETATM   18  C   UNL     1      -4.824   4.847 -34.111  1.00  0.00     0.015 A 
ENDBRANCH  10  11
BRANCH   1  19
HETATM   19  C   UNL     1     -10.111   1.893 -33.912  1.00  0.00     0.099 A 
HETATM   20  C   UNL     1     -10.802   2.828 -34.703  1.00  0.00     0.035 A 
HETATM   21  C   UNL     1     -12.145   2.623 -35.035  1.00  0.00     0.002 A 
HETATM   22  C   UNL     1     -12.816   1.497 -34.566  1.00  0.00     0.003 A 
HETATM   23  C   UNL     1     -12.148   0.585 -33.750  1.00  0.00     0.045 A 
HETATM   24  C   UNL     1     -10.806   0.787 -33.420  1.00  0.00     0.145 A 
HETATM   25  F   UNL     1     -10.269  -0.059 -32.531  1.00  0.00    -0.204 F 
ENDBRANCH   1  19
BRANCH   7  26
HETATM   26  O   UNL     1      -9.437   4.789 -29.948  1.00  0.00    -0.347 OA
HETATM   27  H   UNL     1      -9.208   5.712 -29.744  1.00  0.00     0.219 HD
ENDBRANCH   7  26
TORSDOF 3
ENDMDL
MODEL 10
REMARK VINA RESULT:      -7.5      3.393      4.303
REMARK  3 active torsions:
REMARK  status: ('A' for Active; 'I' for Inactive)
REMARK    1  A    between atoms: C_3  and  N_4 
REMARK    2  A    between atoms: C_10  and  O_11 
REMARK    3  A    between atoms: C_14  and  C_15 
ROOT
HETATM    1  N   UNL     1      -4.968   0.279 -32.443  1.00  0.00    -0.212 N 
HETATM    2  N   UNL     1      -3.789   0.950 -32.343  1.00  0.00    -0.177 NA
HETATM    3  C   UNL     1      -4.091   2.059 -31.681  1.00  0.00     0.152 C 
HETATM    4  C   UNL     1      -5.448   2.130 -31.280  1.00  0.00     0.027 C 
HETATM    5  C   UNL     1      -5.980   0.912 -31.698  1.00  0.00     0.163 C 
HETATM    6  N   UNL     1      -7.153   0.281 -31.430  1.00  0.00    -0.208 NA
HETATM    7  C   UNL     1      -8.240   0.971 -31.467  1.00  0.00     0.149 C 
HETATM    8  C   UNL     1      -8.417   2.435 -31.733  1.00  0.00     0.161 C 
HETATM    9  S   UNL     1      -7.854   3.354 -30.278  1.00  0.00    -0.146 SA
HETATM   10  C   UNL     1      -6.025   3.255 -30.458  1.00  0.00     0.124 C 
ENDROOT
BRANCH  10  11
HETATM   11  C   UNL     1      -5.537   4.616 -30.923  1.00  0.00     0.028 A 
HETATM   12  C   UNL     1      -5.212   5.609 -29.848  1.00  0.00     0.253 A 
HETATM   13  O   UNL     1      -5.294   5.336 -28.655  1.00  0.00    -0.268 OA
HETATM   14  N   UNL     1      -4.786   6.848 -30.268  1.00  0.00    -0.333 N 
HETATM   15  C   UNL     1      -4.625   7.203 -31.580  1.00  0.00     0.091 A 
HETATM   16  H   UNL     1      -4.578   7.512 -29.532  1.00  0.00     0.168 HD
HETATM   17  C   UNL     1      -4.885   6.319 -32.548  1.00  0.00     0.018 A 
HETATM   18  C   UNL     1      -5.346   4.994 -32.205  1.00  0.00     0.015 A 
ENDBRANCH  10  11
BRANCH   1  19
HETATM   19  C   UNL     1      -5.014  -0.917 -33.213  1.00  0.00     0.099 A 
HETATM   20  C   UNL     1      -4.080  -1.933 -32.944  1.00  0.00     0.035 A 
HETATM   21  C   UNL     1      -4.105  -3.130 -33.666  1.00  0.00     0.002 A 
HETATM   22  C   UNL     1      -5.046  -3.316 -34.676  1.00  0.00     0.003 A 
HETATM   23  C   UNL     1      -5.951  -2.298 -34.973  1.00  0.00     0.045 A 
HETATM   24  C   UNL     1      -5.928  -1.104 -34.250  1.00  0.00     0.145 A 
HETATM   25  F   UNL     1      -6.738  -0.125 -34.676  1.00  0.00    -0.204 F 
ENDBRANCH   1  19
BRANCH   7  26
HETATM   26  O   UNL     1      -9.385   0.310 -31.226  1.00  0.00    -0.347 OA
HETATM   27  H   UNL     1      -9.282  -0.582 -31.600  1.00  0.00     0.219 HD
ENDBRANCH   7  26
TORSDOF 3
ENDMDL
