MODEL 1
REMARK VINA RESULT:      -8.0      0.000      0.000
REMARK  3 active torsions:
REMARK  status: ('A' for Active; 'I' for Inactive)
REMARK    1  A    between atoms: C_5  and  N_6 
REMARK       I    between atoms: N_6  and  C_7 
REMARK    2  A    between atoms: C_7  and  C_8 
REMARK    3  A    between atoms: C_8  and  C_9 
ROOT
HETATM    1  C   UNL     1      -8.848   2.602 -32.072  1.00  0.00     0.286 C 
HETATM    2  N   UNL     1      -9.391   3.128 -33.400  1.00  0.00    -0.056 N 
HETATM    3  H   UNL     1      -9.291   4.163 -33.368  1.00  0.00     0.278 HD
HETATM    4  H   UNL     1      -8.806   2.805 -34.181  1.00  0.00     0.278 HD
HETATM    5  C   UNL     1     -10.824   2.731 -33.579  1.00  0.00     0.209 C 
HETATM    6  C   UNL     1     -10.898   1.186 -33.599  1.00  0.00     0.115 C 
HETATM    7  N   UNL     1     -10.241   0.580 -32.443  1.00  0.00    -0.353 N 
HETATM    8  C   UNL     1      -9.061   1.079 -31.928  1.00  0.00     0.249 C 
HETATM    9  O   UNL     1      -8.287   0.347 -31.324  1.00  0.00    -0.271 OA
HETATM   10  C   UNL     1     -11.386   3.322 -34.864  1.00  0.00     0.035 C 
HETATM   11  C   UNL     1     -12.840   2.880 -35.045  1.00  0.00     0.002 C 
HETATM   12  C   UNL     1     -12.999   1.359 -34.981  1.00  0.00     0.002 C 
HETATM   13  C   UNL     1     -12.357   0.747 -33.733  1.00  0.00     0.027 C 
HETATM   14  H   UNL     1     -10.311  -0.431 -32.336  1.00  0.00     0.163 HD
ENDROOT
BRANCH   1  15
HETATM   15  C   UNL     1      -7.382   3.004 -31.875  1.00  0.00     0.146 C 
BRANCH  15  16
HETATM   16  C   UNL     1      -6.791   3.421 -33.197  1.00  0.00     0.224 C 
HETATM   17  N   UNL     1      -6.313   2.531 -34.100  1.00  0.00    -0.327 N 
HETATM   18  H   UNL     1      -5.832   2.993 -34.868  1.00  0.00     0.169 HD
HETATM   19  O   UNL     1      -6.736   4.630 -33.464  1.00  0.00    -0.273 OA
BRANCH  17  20
HETATM   20  C   UNL     1      -6.328   1.126 -34.180  1.00  0.00     0.034 A 
HETATM   21  C   UNL     1      -5.489   0.267 -33.471  1.00  0.00     0.030 A 
HETATM   22  C   UNL     1      -5.602  -1.122 -33.620  1.00  0.00     0.009 A 
HETATM   23  C   UNL     1      -6.555  -1.674 -34.480  1.00  0.00    -0.062 A 
HETATM   24  C   UNL     1      -6.698  -3.161 -34.625  1.00  0.00     0.048 C 
HETATM   25  C   UNL     1      -7.416  -0.819 -35.168  1.00  0.00     0.009 A 
HETATM   26  C   UNL     1      -7.305   0.566 -35.013  1.00  0.00     0.030 A 
ENDBRANCH  17  20
ENDBRANCH  15  16
ENDBRANCH   1  15
TORSDOF 3
ENDMDL
MODEL 2
REMARK VINA RESULT:      -7.8      3.814      6.244
REMARK  3 active torsions:
REMARK  status: ('A' for Active; 'I' for Inactive)
REMARK    1  A    between atoms: C_5  and  N_6 
REMARK       I    between atoms: N_6  and  C_7 
REMARK    2  A    between atoms: C_7  and  C_8 
REMARK    3  A    between atoms: C_8  and  C_9 
ROOT
HETATM    1  C   UNL     1      -5.027   0.390 -31.229  1.00  0.00     0.286 C 
HETATM    2  N   UNL     1      -5.912   0.263 -32.469  1.00  0.00    -0.056 N 
HETATM    3  H   UNL     1      -6.874   0.525 -32.171  1.00  0.00     0.278 HD
HETATM    4  H   UNL     1      -5.633   0.950 -33.181  1.00  0.00     0.278 HD
HETATM    5  C   UNL     1      -5.875  -1.135 -33.003  1.00  0.00     0.209 C 
HETATM    6  C   UNL     1      -4.418  -1.460 -33.408  1.00  0.00     0.115 C 
HETATM    7  N   UNL     1      -3.467  -1.197 -32.329  1.00  0.00    -0.353 N 
HETATM    8  C   UNL     1      -3.588  -0.101 -31.498  1.00  0.00     0.249 C 
HETATM    9  O   UNL     1      -2.602   0.380 -30.955  1.00  0.00    -0.271 OA
HETATM   10  C   UNL     1      -6.817  -1.279 -34.190  1.00  0.00     0.035 C 
HETATM   11  C   UNL     1      -6.742  -2.706 -34.741  1.00  0.00     0.002 C 
HETATM   12  C   UNL     1      -5.309  -3.127 -35.075  1.00  0.00     0.002 C 
HETATM   13  C   UNL     1      -4.337  -2.900 -33.914  1.00  0.00     0.027 C 
HETATM   14  H   UNL     1      -2.494  -1.457 -32.484  1.00  0.00     0.163 HD
ENDROOT
BRANCH   1  15
HETATM   15  C   UNL     1      -5.059   1.817 -30.670  1.00  0.00     0.146 C 
BRANCH  15  16
HETATM   16  C   UNL     1      -6.117   2.617 -31.387  1.00  0.00     0.224 C 
HETATM   17  N   UNL     1      -5.821   3.599 -32.272  1.00  0.00    -0.327 N 
HETATM   18  H   UNL     1      -6.650   4.117 -32.552  1.00  0.00     0.169 HD
HETATM   19  O   UNL     1      -7.308   2.366 -31.149  1.00  0.00    -0.273 OA
BRANCH  17  20
HETATM   20  C   UNL     1      -4.622   4.051 -32.855  1.00  0.00     0.034 A 
HETATM   21  C   UNL     1      -3.345   3.852 -32.334  1.00  0.00     0.030 A 
HETATM   22  C   UNL     1      -2.217   4.338 -33.010  1.00  0.00     0.009 A 
HETATM   23  C   UNL     1      -2.349   5.032 -34.215  1.00  0.00    -0.062 A 
HETATM   24  C   UNL     1      -1.143   5.534 -34.956  1.00  0.00     0.048 C 
HETATM   25  C   UNL     1      -3.624   5.208 -34.754  1.00  0.00     0.009 A 
HETATM   26  C   UNL     1      -4.746   4.717 -34.082  1.00  0.00     0.030 A 
ENDBRANCH  17  20
ENDBRANCH  15  16
ENDBRANCH   1  15
TORSDOF 3
ENDMDL
MODEL 3
REMARK VINA RESULT:      -7.7      4.015      7.296
REMARK  3 active torsions:
REMARK  status: ('A' for Active; 'I' for Inactive)
REMARK    1  A    between atoms: C_5  and  N_6 
REMARK       I    between atoms: N_6  and  C_7 
REMARK    2  A    between atoms: C_7  and  C_8 
REMARK    3  A    between atoms: C_8  and  C_9 
ROOT
HETATM    1  C   UNL     1      -4.374   4.129 -32.648  1.00  0.00     0.286 C 
HETATM    2  N   UNL     1      -3.020   3.893 -31.980  1.00  0.00    -0.056 N 
HETATM    3  H   UNL     1      -3.215   3.387 -31.091  1.00  0.00     0.278 HD
HETATM    4  H   UNL     1      -2.442   3.262 -32.550  1.00  0.00     0.278 HD
HETATM    5  C   UNL     1      -2.326   5.194 -31.717  1.00  0.00     0.209 C 
HETATM    6  C   UNL     1      -2.085   5.895 -33.074  1.00  0.00     0.115 C 
HETATM    7  N   UNL     1      -3.306   6.008 -33.870  1.00  0.00    -0.353 N 
HETATM    8  C   UNL     1      -4.243   4.995 -33.920  1.00  0.00     0.249 C 
HETATM    9  O   UNL     1      -4.969   4.867 -34.897  1.00  0.00    -0.271 OA
HETATM   10  C   UNL     1      -1.015   4.962 -30.981  1.00  0.00     0.035 C 
HETATM   11  C   UNL     1      -0.307   6.299 -30.748  1.00  0.00     0.002 C 
HETATM   12  C   UNL     1      -0.119   7.091 -32.045  1.00  0.00     0.002 C 
HETATM   13  C   UNL     1      -1.420   7.251 -32.837  1.00  0.00     0.027 C 
HETATM   14  H   UNL     1      -3.252   6.527 -34.745  1.00  0.00     0.163 HD
ENDROOT
BRANCH   1  15
HETATM   15  C   UNL     1      -5.095   2.804 -32.920  1.00  0.00     0.146 C 
BRANCH  15  16
HETATM   16  C   UNL     1      -5.433   2.135 -31.611  1.00  0.00     0.224 C 
HETATM   17  N   UNL     1      -5.821   0.840 -31.528  1.00  0.00    -0.327 N 
HETATM   18  H   UNL     1      -6.136   0.600 -30.591  1.00  0.00     0.169 HD
HETATM   19  O   UNL     1      -5.356   2.804 -30.570  1.00  0.00    -0.273 OA
BRANCH  17  20
HETATM   20  C   UNL     1      -5.895  -0.213 -32.458  1.00  0.00     0.034 A 
HETATM   21  C   UNL     1      -7.034  -0.582 -33.174  1.00  0.00     0.030 A 
HETATM   22  C   UNL     1      -6.987  -1.644 -34.088  1.00  0.00     0.009 A 
HETATM   23  C   UNL     1      -5.803  -2.354 -34.300  1.00  0.00    -0.062 A 
HETATM   24  C   UNL     1      -5.740  -3.475 -35.295  1.00  0.00     0.048 C 
HETATM   25  C   UNL     1      -4.654  -1.969 -33.607  1.00  0.00     0.009 A 
HETATM   26  C   UNL     1      -4.701  -0.906 -32.701  1.00  0.00     0.030 A 
ENDBRANCH  17  20
ENDBRANCH  15  16
ENDBRANCH   1  15
TORSDOF 3
ENDMDL
MODEL 4
REMARK VINA RESULT:      -7.7      3.597      6.179
REMARK  3 active torsions:
REMARK  status: ('A' for Active; 'I' for Inactive)
REMARK    1  A    between atoms: C_5  and  N_6 
REMARK       I    between atoms: N_6  and  C_7 
REMARK    2  A    between atoms: C_7  and  C_8 
REMARK    3  A    between atoms: C_8  and  C_9 
ROOT
HETATM    1  C   UNL     1      -4.810   2.276 -31.285  1.00  0.00     0.286 C 
HETATM    2  N   UNL     1      -4.109   2.842 -32.520  1.00  0.00    -0.056 N 
HETATM    3  H   UNL     1      -3.726   2.026 -33.040  1.00  0.00     0.278 HD
HETATM    4  H   UNL     1      -4.791   3.289 -33.147  1.00  0.00     0.278 HD
HETATM    5  C   UNL     1      -3.018   3.788 -32.122  1.00  0.00     0.209 C 
HETATM    6  C   UNL     1      -3.657   4.961 -31.342  1.00  0.00     0.115 C 
HETATM    7  N   UNL     1      -4.498   4.506 -30.237  1.00  0.00    -0.353 N 
HETATM    8  C   UNL     1      -5.312   3.395 -30.347  1.00  0.00     0.249 C 
HETATM    9  O   UNL     1      -6.324   3.296 -29.665  1.00  0.00    -0.271 OA
HETATM   10  C   UNL     1      -2.271   4.289 -33.349  1.00  0.00     0.035 C 
HETATM   11  C   UNL     1      -1.182   5.277 -32.925  1.00  0.00     0.002 C 
HETATM   12  C   UNL     1      -1.732   6.419 -32.067  1.00  0.00     0.002 C 
HETATM   13  C   UNL     1      -2.562   5.922 -30.880  1.00  0.00     0.027 C 
HETATM   14  H   UNL     1      -4.895   5.215 -29.623  1.00  0.00     0.163 HD
ENDROOT
BRANCH   1  15
HETATM   15  C   UNL     1      -5.927   1.303 -31.679  1.00  0.00     0.146 C 
BRANCH  15  16
HETATM   16  C   UNL     1      -6.407   1.624 -33.071  1.00  0.00     0.224 C 
HETATM   17  N   UNL     1      -6.319   0.745 -34.099  1.00  0.00    -0.327 N 
HETATM   18  H   UNL     1      -6.565   1.176 -34.987  1.00  0.00     0.169 HD
HETATM   19  O   UNL     1      -6.899   2.742 -33.283  1.00  0.00    -0.273 OA
BRANCH  17  20
HETATM   20  C   UNL     1      -5.945  -0.609 -34.188  1.00  0.00     0.034 A 
HETATM   21  C   UNL     1      -4.693  -1.125 -33.860  1.00  0.00     0.030 A 
HETATM   22  C   UNL     1      -4.436  -2.499 -33.977  1.00  0.00     0.009 A 
HETATM   23  C   UNL     1      -5.426  -3.376 -34.424  1.00  0.00    -0.062 A 
HETATM   24  C   UNL     1      -5.165  -4.851 -34.527  1.00  0.00     0.048 C 
HETATM   25  C   UNL     1      -6.690  -2.868 -34.726  1.00  0.00     0.009 A 
HETATM   26  C   UNL     1      -6.946  -1.499 -34.603  1.00  0.00     0.030 A 
ENDBRANCH  17  20
ENDBRANCH  15  16
ENDBRANCH   1  15
TORSDOF 3
ENDMDL
MODEL 5
REMARK VINA RESULT:      -7.6      2.370      6.088
REMARK  3 active torsions:
REMARK  status: ('A' for Active; 'I' for Inactive)
REMARK    1  A    between atoms: C_5  and  N_6 
REMARK       I    between atoms: N_6  and  C_7 
REMARK    2  A    between atoms: C_7  and  C_8 
REMARK    3  A    between atoms: C_8  and  C_9 
ROOT
HETATM    1  C   UNL     1      -5.484  -0.264 -32.240  1.00  0.00     0.286 C 
HETATM    2  N   UNL     1      -6.241  -0.789 -33.460  1.00  0.00    -0.056 N 
HETATM    3  H   UNL     1      -7.245  -0.563 -33.302  1.00  0.00     0.278 HD
HETATM    4  H   UNL     1      -5.959  -0.279 -34.306  1.00  0.00     0.278 HD
HETATM    5  C   UNL     1      -6.041  -2.266 -33.610  1.00  0.00     0.209 C 
HETATM    6  C   UNL     1      -4.531  -2.529 -33.822  1.00  0.00     0.115 C 
HETATM    7  N   UNL     1      -3.705  -1.908 -32.790  1.00  0.00    -0.353 N 
HETATM    8  C   UNL     1      -3.991  -0.656 -32.279  1.00  0.00     0.249 C 
HETATM    9  O   UNL     1      -3.100   0.045 -31.817  1.00  0.00    -0.271 OA
HETATM   10  C   UNL     1      -6.858  -2.800 -34.777  1.00  0.00     0.035 C 
HETATM   11  C   UNL     1      -6.617  -4.303 -34.935  1.00  0.00     0.002 C 
HETATM   12  C   UNL     1      -5.129  -4.645 -35.056  1.00  0.00     0.002 C 
HETATM   13  C   UNL     1      -4.287  -4.034 -33.933  1.00  0.00     0.027 C 
HETATM   14  H   UNL     1      -2.704  -2.096 -32.809  1.00  0.00     0.163 HD
ENDROOT
BRANCH   1  15
HETATM   15  C   UNL     1      -5.684   1.246 -32.073  1.00  0.00     0.146 C 
BRANCH  15  16
HETATM   16  C   UNL     1      -6.424   1.519 -30.788  1.00  0.00     0.224 C 
HETATM   17  N   UNL     1      -7.770   1.673 -30.735  1.00  0.00    -0.327 N 
HETATM   18  H   UNL     1      -8.078   1.982 -29.816  1.00  0.00     0.169 HD
HETATM   19  O   UNL     1      -5.771   1.610 -29.739  1.00  0.00    -0.273 OA
BRANCH  17  20
HETATM   20  C   UNL     1      -8.803   1.515 -31.678  1.00  0.00     0.034 A 
HETATM   21  C   UNL     1      -9.302   0.296 -32.134  1.00  0.00     0.030 A 
HETATM   22  C   UNL     1     -10.346   0.259 -33.069  1.00  0.00     0.009 A 
HETATM   23  C   UNL     1     -10.906   1.440 -33.562  1.00  0.00    -0.062 A 
HETATM   24  C   UNL     1     -12.041   1.407 -34.544  1.00  0.00     0.048 C 
HETATM   25  C   UNL     1     -10.429   2.662 -33.086  1.00  0.00     0.009 A 
HETATM   26  C   UNL     1      -9.393   2.696 -32.149  1.00  0.00     0.030 A 
ENDBRANCH  17  20
ENDBRANCH  15  16
ENDBRANCH   1  15
TORSDOF 3
ENDMDL
MODEL 6
REMARK VINA RESULT:      -7.6      2.533      3.901
REMARK  3 active torsions:
REMARK  status: ('A' for Active; 'I' for Inactive)
REMARK    1  A    between atoms: C_5  and  N_6 
REMARK       I    between atoms: N_6  and  C_7 
REMARK    2  A    between atoms: C_7  and  C_8 
REMARK    3  A    between atoms: C_8  and  C_9 
ROOT
HETATM    1  C   UNL     1      -5.885   0.901 -31.448  1.00  0.00     0.286 C 
HETATM    2  N   UNL     1      -7.240   0.227 -31.659  1.00  0.00    -0.056 N 
HETATM    3  H   UNL     1      -7.056  -0.633 -32.216  1.00  0.00     0.278 HD
HETATM    4  H   UNL     1      -7.629  -0.088 -30.761  1.00  0.00     0.278 HD
HETATM    5  C   UNL     1      -8.180   1.143 -32.379  1.00  0.00     0.209 C 
HETATM    6  C   UNL     1      -8.392   2.402 -31.506  1.00  0.00     0.115 C 
HETATM    7  N   UNL     1      -7.131   3.021 -31.102  1.00  0.00    -0.353 N 
HETATM    8  C   UNL     1      -6.028   2.270 -30.747  1.00  0.00     0.249 C 
HETATM    9  O   UNL     1      -5.187   2.723 -29.981  1.00  0.00    -0.271 OA
HETATM   10  C   UNL     1      -9.502   0.442 -32.658  1.00  0.00     0.035 C 
HETATM   11  C   UNL     1     -10.459   1.404 -33.367  1.00  0.00     0.002 C 
HETATM   12  C   UNL     1     -10.642   2.715 -32.599  1.00  0.00     0.002 C 
HETATM   13  C   UNL     1      -9.311   3.381 -32.236  1.00  0.00     0.027 C 
HETATM   14  H   UNL     1      -7.180   3.900 -30.590  1.00  0.00     0.163 HD
ENDROOT
BRANCH   1  15
HETATM   15  C   UNL     1      -4.912  -0.029 -30.714  1.00  0.00     0.146 C 
BRANCH  15  16
HETATM   16  C   UNL     1      -3.592  -0.055 -31.442  1.00  0.00     0.224 C 
HETATM   17  N   UNL     1      -3.355  -0.863 -32.503  1.00  0.00    -0.327 N 
HETATM   18  H   UNL     1      -2.376  -0.846 -32.779  1.00  0.00     0.169 HD
HETATM   19  O   UNL     1      -2.686   0.693 -31.046  1.00  0.00    -0.273 OA
BRANCH  17  20
HETATM   20  C   UNL     1      -4.166  -1.719 -33.272  1.00  0.00     0.034 A 
HETATM   21  C   UNL     1      -5.255  -1.321 -34.046  1.00  0.00     0.030 A 
HETATM   22  C   UNL     1      -5.985  -2.264 -34.784  1.00  0.00     0.009 A 
HETATM   23  C   UNL     1      -5.639  -3.617 -34.758  1.00  0.00    -0.062 A 
HETATM   24  C   UNL     1      -6.402  -4.626 -35.565  1.00  0.00     0.048 C 
HETATM   25  C   UNL     1      -4.532  -4.014 -34.007  1.00  0.00     0.009 A 
HETATM   26  C   UNL     1      -3.802  -3.072 -33.278  1.00  0.00     0.030 A 
ENDBRANCH  17  20
ENDBRANCH  15  16
ENDBRANCH   1  15
TORSDOF 3
ENDMDL
MODEL 7
REMARK VINA RESULT:      -7.6      2.248      6.308
REMARK  3 active torsions:
REMARK  status: ('A' for Active; 'I' for Inactive)
REMARK    1  A    between atoms: C_5  and  N_6 
REMARK       I    between atoms: N_6  and  C_7 
REMARK    2  A    between atoms: C_7  and  C_8 
REMARK    3  A    between atoms: C_8  and  C_9 
ROOT
HETATM    1  C   UNL     1      -5.442   0.111 -33.753  1.00  0.00     0.286 C 
HETATM    2  N   UNL     1      -4.873  -0.991 -32.860  1.00  0.00    -0.056 N 
HETATM    3  H   UNL     1      -4.026  -0.592 -32.406  1.00  0.00     0.278 HD
HETATM    4  H   UNL     1      -5.530  -1.214 -32.101  1.00  0.00     0.278 HD
HETATM    5  C   UNL     1      -4.530  -2.203 -33.670  1.00  0.00     0.209 C 
HETATM    6  C   UNL     1      -5.828  -2.728 -34.327  1.00  0.00     0.115 C 
HETATM    7  N   UNL     1      -6.542  -1.688 -35.065  1.00  0.00    -0.353 N 
HETATM    8  C   UNL     1      -6.634  -0.392 -34.596  1.00  0.00     0.249 C 
HETATM    9  O   UNL     1      -7.578   0.319 -34.917  1.00  0.00    -0.271 OA
HETATM   10  C   UNL     1      -3.891  -3.269 -32.793  1.00  0.00     0.035 C 
HETATM   11  C   UNL     1      -3.576  -4.510 -33.632  1.00  0.00     0.002 C 
HETATM   12  C   UNL     1      -4.802  -5.030 -34.386  1.00  0.00     0.002 C 
HETATM   13  C   UNL     1      -5.504  -3.940 -35.201  1.00  0.00     0.027 C 
HETATM   14  H   UNL     1      -7.367  -1.966 -35.594  1.00  0.00     0.163 HD
ENDROOT
BRANCH   1  15
HETATM   15  C   UNL     1      -5.795   1.359 -32.936  1.00  0.00     0.146 C 
BRANCH  15  16
HETATM   16  C   UNL     1      -6.297   0.947 -31.576  1.00  0.00     0.224 C 
HETATM   17  N   UNL     1      -7.614   0.922 -31.256  1.00  0.00    -0.327 N 
HETATM   18  H   UNL     1      -7.759   0.751 -30.264  1.00  0.00     0.169 HD
HETATM   19  O   UNL     1      -5.468   0.622 -30.714  1.00  0.00    -0.273 OA
BRANCH  17  20
HETATM   20  C   UNL     1      -8.796   1.101 -31.999  1.00  0.00     0.034 A 
HETATM   21  C   UNL     1      -9.273   2.320 -32.479  1.00  0.00     0.030 A 
HETATM   22  C   UNL     1     -10.461   2.377 -33.221  1.00  0.00     0.009 A 
HETATM   23  C   UNL     1     -11.191   1.218 -33.493  1.00  0.00    -0.062 A 
HETATM   24  C   UNL     1     -12.450   1.270 -34.309  1.00  0.00     0.048 C 
HETATM   25  C   UNL     1     -10.701  -0.008 -33.040  1.00  0.00     0.009 A 
HETATM   26  C   UNL     1      -9.514  -0.063 -32.305  1.00  0.00     0.030 A 
ENDBRANCH  17  20
ENDBRANCH  15  16
ENDBRANCH   1  15
TORSDOF 3
ENDMDL
MODEL 8
REMARK VINA RESULT:      -7.5      1.694      5.942
REMARK  3 active torsions:
REMARK  status: ('A' for Active; 'I' for Inactive)
REMARK    1  A    between atoms: C_5  and  N_6 
REMARK       I    between atoms: N_6  and  C_7 
REMARK    2  A    between atoms: C_7  and  C_8 
REMARK    3  A    between atoms: C_8  and  C_9 
ROOT
HETATM    1  C   UNL     1      -7.743   0.510 -32.115  1.00  0.00     0.286 C 
HETATM    2  N   UNL     1      -7.602  -0.096 -33.512  1.00  0.00    -0.056 N 
HETATM    3  H   UNL     1      -8.559  -0.376 -33.808  1.00  0.00     0.278 HD
HETATM    4  H   UNL     1      -7.289   0.617 -34.183  1.00  0.00     0.278 HD
HETATM    5  C   UNL     1      -6.680  -1.276 -33.485  1.00  0.00     0.209 C 
HETATM    6  C   UNL     1      -5.287  -0.790 -33.021  1.00  0.00     0.115 C 
HETATM    7  N   UNL     1      -5.346  -0.038 -31.769  1.00  0.00    -0.353 N 
HETATM    8  C   UNL     1      -6.370   0.848 -31.495  1.00  0.00     0.249 C 
HETATM    9  O   UNL     1      -6.190   1.790 -30.735  1.00  0.00    -0.271 OA
HETATM   10  C   UNL     1      -6.602  -1.925 -34.859  1.00  0.00     0.035 C 
HETATM   11  C   UNL     1      -5.632  -3.108 -34.820  1.00  0.00     0.002 C 
HETATM   12  C   UNL     1      -4.255  -2.715 -34.279  1.00  0.00     0.002 C 
HETATM   13  C   UNL     1      -4.332  -1.981 -32.937  1.00  0.00     0.027 C 
HETATM   14  H   UNL     1      -4.463   0.253 -31.350  1.00  0.00     0.163 HD
ENDROOT
BRANCH   1  15
HETATM   15  C   UNL     1      -8.688   1.717 -32.128  1.00  0.00     0.146 C 
BRANCH  15  16
HETATM   16  C   UNL     1      -8.617   2.399 -33.471  1.00  0.00     0.224 C 
HETATM   17  N   UNL     1      -9.631   2.357 -34.369  1.00  0.00    -0.327 N 
HETATM   18  H   UNL     1      -9.357   2.754 -35.265  1.00  0.00     0.169 HD
HETATM   19  O   UNL     1      -7.584   3.018 -33.764  1.00  0.00    -0.273 OA
BRANCH  17  20
HETATM   20  C   UNL     1     -10.950   1.869 -34.323  1.00  0.00     0.034 A 
HETATM   21  C   UNL     1     -11.362   0.717 -33.654  1.00  0.00     0.030 A 
HETATM   22  C   UNL     1     -12.710   0.332 -33.665  1.00  0.00     0.009 A 
HETATM   23  C   UNL     1     -13.666   1.092 -34.344  1.00  0.00    -0.062 A 
HETATM   24  C   UNL     1     -15.114   0.698 -34.339  1.00  0.00     0.048 C 
HETATM   25  C   UNL     1     -13.261   2.261 -34.990  1.00  0.00     0.009 A 
HETATM   26  C   UNL     1     -11.918   2.646 -34.973  1.00  0.00     0.030 A 
ENDBRANCH  17  20
ENDBRANCH  15  16
ENDBRANCH   1  15
TORSDOF 3
ENDMDL
MODEL 9
REMARK VINA RESULT:      -7.4      3.305      6.409
REMARK  3 active torsions:
REMARK  status: ('A' for Active; 'I' for Inactive)
REMARK    1  A    between atoms: C_5  and  N_6 
REMARK       I    between atoms: N_6  and  C_7 
REMARK    2  A    between atoms: C_7  and  C_8 
REMARK    3  A    between atoms: C_8  and  C_9 
ROOT
HETATM    1  C   UNL     1      -6.338   1.540 -33.026  1.00  0.00     0.286 C 
HETATM    2  N   UNL     1      -5.241   0.496 -32.815  1.00  0.00    -0.056 N 
HETATM    3  H   UNL     1      -4.335   0.994 -32.938  1.00  0.00     0.278 HD
HETATM    4  H   UNL     1      -5.253   0.152 -31.847  1.00  0.00     0.278 HD
HETATM    5  C   UNL     1      -5.379  -0.622 -33.802  1.00  0.00     0.209 C 
HETATM    6  C   UNL     1      -6.749  -1.301 -33.575  1.00  0.00     0.115 C 
HETATM    7  N   UNL     1      -7.855  -0.346 -33.582  1.00  0.00    -0.353 N 
HETATM    8  C   UNL     1      -7.745   0.905 -33.006  1.00  0.00     0.249 C 
HETATM    9  O   UNL     1      -8.738   1.486 -32.587  1.00  0.00    -0.271 OA
HETATM   10  C   UNL     1      -4.241  -1.619 -33.643  1.00  0.00     0.035 C 
HETATM   11  C   UNL     1      -4.415  -2.769 -34.638  1.00  0.00     0.002 C 
HETATM   12  C   UNL     1      -5.792  -3.429 -34.530  1.00  0.00     0.002 C 
HETATM   13  C   UNL     1      -6.942  -2.419 -34.600  1.00  0.00     0.027 C 
HETATM   14  H   UNL     1      -8.801  -0.718 -33.517  1.00  0.00     0.163 HD
ENDROOT
BRANCH   1  15
HETATM   15  C   UNL     1      -6.206   2.692 -32.024  1.00  0.00     0.146 C 
BRANCH  15  16
HETATM   16  C   UNL     1      -5.201   2.325 -30.962  1.00  0.00     0.224 C 
HETATM   17  N   UNL     1      -3.960   2.866 -30.907  1.00  0.00    -0.327 N 
HETATM   18  H   UNL     1      -3.378   2.405 -30.212  1.00  0.00     0.169 HD
HETATM   19  O   UNL     1      -5.526   1.488 -30.107  1.00  0.00    -0.273 OA
BRANCH  17  20
HETATM   20  C   UNL     1      -3.320   3.900 -31.615  1.00  0.00     0.034 A 
HETATM   21  C   UNL     1      -2.616   3.748 -32.809  1.00  0.00     0.030 A 
HETATM   22  C   UNL     1      -2.028   4.857 -33.434  1.00  0.00     0.009 A 
HETATM   23  C   UNL     1      -2.134   6.133 -32.876  1.00  0.00    -0.062 A 
HETATM   24  C   UNL     1      -1.528   7.327 -33.554  1.00  0.00     0.048 C 
HETATM   25  C   UNL     1      -2.863   6.293 -31.697  1.00  0.00     0.009 A 
HETATM   26  C   UNL     1      -3.453   5.188 -31.079  1.00  0.00     0.030 A 
ENDBRANCH  17  20
ENDBRANCH  15  16
ENDBRANCH   1  15
TORSDOF 3
ENDMDL
MODEL 10
REMARK VINA RESULT:      -7.2      3.236      5.940
REMARK  3 active torsions:
REMARK  status: ('A' for Active; 'I' for Inactive)
REMARK    1  A    between atoms: C_5  and  N_6 
REMARK       I    between atoms: N_6  and  C_7 
REMARK    2  A    between atoms: C_7  and  C_8 
REMARK    3  A    between atoms: C_8  and  C_9 
ROOT
HETATM    1  C   UNL     1      -6.773   2.974 -32.075  1.00  0.00     0.286 C 
HETATM    2  N   UNL     1      -6.981   2.425 -33.486  1.00  0.00    -0.056 N 
HETATM    3  H   UNL     1      -7.932   2.728 -33.782  1.00  0.00     0.278 HD
HETATM    4  H   UNL     1      -6.321   2.861 -34.143  1.00  0.00     0.278 HD
HETATM    5  C   UNL     1      -6.866   0.932 -33.494  1.00  0.00     0.209 C 
HETATM    6  C   UNL     1      -5.440   0.555 -33.029  1.00  0.00     0.115 C 
HETATM    7  N   UNL     1      -5.082   1.184 -31.759  1.00  0.00    -0.353 N 
HETATM    8  C   UNL     1      -5.447   2.482 -31.457  1.00  0.00     0.249 C 
HETATM    9  O   UNL     1      -4.781   3.149 -30.677  1.00  0.00    -0.271 OA
HETATM   10  C   UNL     1      -7.151   0.381 -34.884  1.00  0.00     0.035 C 
HETATM   11  C   UNL     1      -6.998  -1.143 -34.879  1.00  0.00     0.002 C 
HETATM   12  C   UNL     1      -5.637  -1.590 -34.339  1.00  0.00     0.002 C 
HETATM   13  C   UNL     1      -5.304  -0.967 -32.980  1.00  0.00     0.027 C 
HETATM   14  H   UNL     1      -4.189   0.928 -31.340  1.00  0.00     0.163 HD
ENDROOT
BRANCH   1  15
HETATM   15  C   UNL     1      -6.892   4.502 -32.053  1.00  0.00     0.146 C 
BRANCH  15  16
HETATM   16  C   UNL     1      -6.618   5.050 -33.430  1.00  0.00     0.224 C 
HETATM   17  N   UNL     1      -5.410   5.539 -33.799  1.00  0.00    -0.327 N 
HETATM   18  H   UNL     1      -5.446   5.986 -34.712  1.00  0.00     0.169 HD
HETATM   19  O   UNL     1      -7.542   5.056 -34.257  1.00  0.00    -0.273 OA
BRANCH  17  20
HETATM   20  C   UNL     1      -4.146   5.572 -33.180  1.00  0.00     0.034 A 
HETATM   21  C   UNL     1      -3.751   6.479 -32.197  1.00  0.00     0.030 A 
HETATM   22  C   UNL     1      -2.466   6.409 -31.640  1.00  0.00     0.009 A 
HETATM   23  C   UNL     1      -1.558   5.434 -32.056  1.00  0.00    -0.062 A 
HETATM   24  C   UNL     1      -0.190   5.338 -31.445  1.00  0.00     0.048 C 
HETATM   25  C   UNL     1      -1.960   4.506 -33.018  1.00  0.00     0.009 A 
HETATM   26  C   UNL     1      -3.243   4.574 -33.568  1.00  0.00     0.030 A 
ENDBRANCH  17  20
ENDBRANCH  15  16
ENDBRANCH   1  15
TORSDOF 3
ENDMDL
