MODEL 1
REMARK VINA RESULT:      -8.7      0.000      0.000
REMARK  6 active torsions:
REMARK  status: ('A' for Active; 'I' for Inactive)
REMARK    1  A    between atoms: C_2  and  C_3 
REMARK    2  A    between atoms: C_7  and  O_8 
REMARK    3  A    between atoms: O_8  and  C_9 
REMARK    4  A    between atoms: C_9  and  C_10 
REMARK       I    between atoms: C_10  and  N_11 
REMARK    5  A    between atoms: N_11  and  N_12 
REMARK    6  A    between atoms: C_13  and  C_14 
ROOT
HETATM    1  C   UNL     1      -5.633   1.130 -30.829  1.00  0.00     0.261 C 
HETATM    2  N   UNL     1      -5.026   1.348 -32.056  1.00  0.00    -0.246 N 
HETATM    3  O   UNL     1      -5.158   0.467 -29.907  1.00  0.00    -0.269 OA
HETATM    4  H   UNL     1      -5.527   1.858 -32.775  1.00  0.00     0.192 HD
ENDROOT
BRANCH   1   5
HETATM    5  C   UNL     1      -7.032   1.730 -30.731  1.00  0.00     0.280 C 
BRANCH   5   6
HETATM    6  O   UNL     1      -7.436   2.342 -31.956  1.00  0.00    -0.341 OA
BRANCH   6   7
HETATM    7  C   UNL     1      -8.700   2.005 -32.373  1.00  0.00     0.086 A 
HETATM    8  C   UNL     1      -9.642   3.026 -32.523  1.00  0.00     0.044 A 
HETATM    9  C   UNL     1     -10.942   2.737 -32.963  1.00  0.00     0.029 A 
HETATM   10 BR   UNL     1      -9.216   4.832 -32.120  1.00  0.00    -0.048 Br
HETATM   11  C   UNL     1     -11.333   1.425 -33.291  1.00  0.00    -0.049 A 
HETATM   12  C   UNL     1     -10.368   0.416 -33.151  1.00  0.00     0.011 A 
HETATM   13  C   UNL     1      -9.069   0.701 -32.704  1.00  0.00     0.039 A 
BRANCH  11  14
HETATM   14  C   UNL     1     -12.765   1.140 -33.780  1.00  0.00    -0.024 C 
HETATM   15  C   UNL     1     -13.099  -0.356 -33.590  1.00  0.00     0.019 C 
HETATM   16  C   UNL     1     -12.878   1.498 -35.277  1.00  0.00     0.019 C 
HETATM   17  C   UNL     1     -13.853   1.943 -33.030  1.00  0.00     0.019 C 
ENDBRANCH  11  14
ENDBRANCH   6   7
ENDBRANCH   5   6
ENDBRANCH   1   5
BRANCH   2  18
HETATM   18  N   UNL     1      -3.825   0.771 -32.329  1.00  0.00    -0.184 NA
HETATM   19  C   UNL     1      -3.756  -0.320 -33.029  1.00  0.00     0.152 C 
BRANCH  19  20
HETATM   20  C   UNL     1      -4.833  -1.034 -33.690  1.00  0.00     0.011 A 
HETATM   21  C   UNL     1      -4.858  -2.442 -33.963  1.00  0.00     0.004 A 
HETATM   22  C   UNL     1      -6.035  -2.717 -34.660  1.00  0.00     0.043 A 
HETATM   23  C   UNL     1      -3.984  -3.513 -33.676  1.00  0.00     0.014 A 
HETATM   24  C   UNL     1      -6.379  -4.005 -35.088  1.00  0.00     0.030 A 
HETATM   25  N   UNL     1      -6.698  -1.523 -34.820  1.00  0.00    -0.364 N 
HETATM   26  C   UNL     1      -5.494  -5.046 -34.794  1.00  0.00     0.002 A 
HETATM   27  C   UNL     1      -4.313  -4.807 -34.098  1.00  0.00     0.001 A 
HETATM   28  H   UNL     1      -7.576  -1.417 -35.310  1.00  0.00     0.165 HD
HETATM   29  C   UNL     1      -5.975  -0.502 -34.262  1.00  0.00     0.102 A 
ENDBRANCH  19  20
ENDBRANCH   2  18
TORSDOF 6
ENDMDL
MODEL 2
REMARK VINA RESULT:      -8.6      3.779      6.569
REMARK  6 active torsions:
REMARK  status: ('A' for Active; 'I' for Inactive)
REMARK    1  A    between atoms: C_2  and  C_3 
REMARK    2  A    between atoms: C_7  and  O_8 
REMARK    3  A    between atoms: O_8  and  C_9 
REMARK    4  A    between atoms: C_9  and  C_10 
REMARK       I    between atoms: C_10  and  N_11 
REMARK    5  A    between atoms: N_11  and  N_12 
REMARK    6  A    between atoms: C_13  and  C_14 
ROOT
HETATM    1  C   UNL     1      -8.335   2.582 -33.379  1.00  0.00     0.261 C 
HETATM    2  N   UNL     1      -7.875   1.291 -33.582  1.00  0.00    -0.246 N 
HETATM    3  O   UNL     1      -9.223   3.133 -34.030  1.00  0.00    -0.269 OA
HETATM    4  H   UNL     1      -7.095   0.948 -33.031  1.00  0.00     0.192 HD
ENDROOT
BRANCH   1   5
HETATM    5  C   UNL     1      -7.570   3.334 -32.294  1.00  0.00     0.280 C 
BRANCH   5   6
HETATM    6  O   UNL     1      -6.298   2.742 -32.033  1.00  0.00    -0.341 OA
BRANCH   6   7
HETATM    7  C   UNL     1      -5.223   3.528 -32.366  1.00  0.00     0.086 A 
HETATM    8  C   UNL     1      -3.940   3.051 -32.082  1.00  0.00     0.044 A 
HETATM    9  C   UNL     1      -2.808   3.807 -32.417  1.00  0.00     0.029 A 
HETATM   10 BR   UNL     1      -3.676   1.381 -31.216  1.00  0.00    -0.048 Br
HETATM   11  C   UNL     1      -2.920   5.051 -33.069  1.00  0.00    -0.049 A 
HETATM   12  C   UNL     1      -4.215   5.504 -33.362  1.00  0.00     0.011 A 
HETATM   13  C   UNL     1      -5.350   4.753 -33.021  1.00  0.00     0.039 A 
BRANCH  11  14
HETATM   14  C   UNL     1      -1.658   5.854 -33.434  1.00  0.00    -0.024 C 
HETATM   15  C   UNL     1      -1.988   7.363 -33.476  1.00  0.00     0.019 C 
HETATM   16  C   UNL     1      -1.146   5.408 -34.819  1.00  0.00     0.019 C 
HETATM   17  C   UNL     1      -0.493   5.676 -32.432  1.00  0.00     0.019 C 
ENDBRANCH  11  14
ENDBRANCH   6   7
ENDBRANCH   5   6
ENDBRANCH   1   5
BRANCH   2  18
HETATM   18  N   UNL     1      -8.384   0.542 -34.597  1.00  0.00    -0.184 NA
HETATM   19  C   UNL     1      -7.717  -0.460 -35.083  1.00  0.00     0.152 C 
BRANCH  19  20
HETATM   20  C   UNL     1      -6.452  -1.004 -34.624  1.00  0.00     0.011 A 
HETATM   21  C   UNL     1      -6.086  -2.392 -34.639  1.00  0.00     0.004 A 
HETATM   22  C   UNL     1      -4.821  -2.501 -34.061  1.00  0.00     0.043 A 
HETATM   23  C   UNL     1      -6.716  -3.569 -35.097  1.00  0.00     0.014 A 
HETATM   24  C   UNL     1      -4.158  -3.726 -33.913  1.00  0.00     0.030 A 
HETATM   25  N   UNL     1      -4.433  -1.234 -33.694  1.00  0.00    -0.364 N 
HETATM   26  C   UNL     1      -4.807  -4.876 -34.372  1.00  0.00     0.002 A 
HETATM   27  C   UNL     1      -6.068  -4.802 -34.956  1.00  0.00     0.001 A 
HETATM   28  H   UNL     1      -3.562  -1.013 -33.230  1.00  0.00     0.165 HD
HETATM   29  C   UNL     1      -5.415  -0.331 -34.006  1.00  0.00     0.102 A 
ENDBRANCH  19  20
ENDBRANCH   2  18
TORSDOF 6
ENDMDL
MODEL 3
REMARK VINA RESULT:      -8.4      5.703      8.797
REMARK  6 active torsions:
REMARK  status: ('A' for Active; 'I' for Inactive)
REMARK    1  A    between atoms: C_2  and  C_3 
REMARK    2  A    between atoms: C_7  and  O_8 
REMARK    3  A    between atoms: O_8  and  C_9 
REMARK    4  A    between atoms: C_9  and  C_10 
REMARK       I    between atoms: C_10  and  N_11 
REMARK    5  A    between atoms: N_11  and  N_12 
REMARK    6  A    between atoms: C_13  and  C_14 
ROOT
HETATM    1  C   UNL     1      -3.686   3.837 -31.939  1.00  0.00     0.261 C 
HETATM    2  N   UNL     1      -3.738   2.934 -30.889  1.00  0.00    -0.246 N 
HETATM    3  O   UNL     1      -4.662   4.319 -32.513  1.00  0.00    -0.269 OA
HETATM    4  H   UNL     1      -2.875   2.547 -30.523  1.00  0.00     0.192 HD
ENDROOT
BRANCH   1   5
HETATM    5  C   UNL     1      -2.266   4.142 -32.405  1.00  0.00     0.280 C 
BRANCH   5   6
HETATM    6  O   UNL     1      -2.030   5.546 -32.511  1.00  0.00    -0.341 OA
BRANCH   6   7
HETATM    7  C   UNL     1      -1.447   6.113 -31.405  1.00  0.00     0.086 A 
HETATM    8  C   UNL     1      -2.154   7.104 -30.718  1.00  0.00     0.044 A 
HETATM    9  C   UNL     1      -1.610   7.703 -29.572  1.00  0.00     0.029 A 
HETATM   10 BR   UNL     1      -3.859   7.694 -31.311  1.00  0.00    -0.048 Br
HETATM   11  C   UNL     1      -0.356   7.314 -29.064  1.00  0.00    -0.049 A 
HETATM   12  C   UNL     1       0.330   6.306 -29.757  1.00  0.00     0.011 A 
HETATM   13  C   UNL     1      -0.208   5.710 -30.908  1.00  0.00     0.039 A 
BRANCH  11  14
HETATM   14  C   UNL     1       0.212   7.984 -27.799  1.00  0.00    -0.024 C 
HETATM   15  C   UNL     1       0.369   6.937 -26.674  1.00  0.00     0.019 C 
HETATM   16  C   UNL     1      -0.751   9.093 -27.328  1.00  0.00     0.019 C 
HETATM   17  C   UNL     1       1.599   8.635 -28.006  1.00  0.00     0.019 C 
ENDBRANCH  11  14
ENDBRANCH   6   7
ENDBRANCH   5   6
ENDBRANCH   1   5
BRANCH   2  18
HETATM   18  N   UNL     1      -4.940   2.478 -30.447  1.00  0.00    -0.184 NA
HETATM   19  C   UNL     1      -5.350   1.283 -30.746  1.00  0.00     0.152 C 
BRANCH  19  20
HETATM   20  C   UNL     1      -4.636   0.243 -31.463  1.00  0.00     0.011 A 
HETATM   21  C   UNL     1      -5.171  -0.553 -32.531  1.00  0.00     0.004 A 
HETATM   22  C   UNL     1      -4.191  -1.473 -32.905  1.00  0.00     0.043 A 
HETATM   23  C   UNL     1      -6.404  -0.572 -33.219  1.00  0.00     0.014 A 
HETATM   24  C   UNL     1      -4.382  -2.412 -33.926  1.00  0.00     0.030 A 
HETATM   25  N   UNL     1      -3.104  -1.259 -32.090  1.00  0.00    -0.364 N 
HETATM   26  C   UNL     1      -5.613  -2.410 -34.588  1.00  0.00     0.002 A 
HETATM   27  C   UNL     1      -6.612  -1.504 -34.242  1.00  0.00     0.001 A 
HETATM   28  H   UNL     1      -2.249  -1.798 -32.122  1.00  0.00     0.165 HD
HETATM   29  C   UNL     1      -3.369  -0.247 -31.205  1.00  0.00     0.102 A 
ENDBRANCH  19  20
ENDBRANCH   2  18
TORSDOF 6
ENDMDL
MODEL 4
REMARK VINA RESULT:      -8.3      4.410      7.414
REMARK  6 active torsions:
REMARK  status: ('A' for Active; 'I' for Inactive)
REMARK    1  A    between atoms: C_2  and  C_3 
REMARK    2  A    between atoms: C_7  and  O_8 
REMARK    3  A    between atoms: O_8  and  C_9 
REMARK    4  A    between atoms: C_9  and  C_10 
REMARK       I    between atoms: C_10  and  N_11 
REMARK    5  A    between atoms: N_11  and  N_12 
REMARK    6  A    between atoms: C_13  and  C_14 
ROOT
HETATM    1  C   UNL     1      -6.160   3.614 -32.762  1.00  0.00     0.261 C 
HETATM    2  N   UNL     1      -5.516   2.521 -32.204  1.00  0.00    -0.246 N 
HETATM    3  O   UNL     1      -7.195   4.124 -32.336  1.00  0.00    -0.269 OA
HETATM    4  H   UNL     1      -4.699   2.135 -32.665  1.00  0.00     0.192 HD
ENDROOT
BRANCH   1   5
HETATM    5  C   UNL     1      -5.505   4.111 -34.047  1.00  0.00     0.280 C 
BRANCH   5   6
HETATM    6  O   UNL     1      -5.054   5.460 -33.927  1.00  0.00    -0.341 OA
BRANCH   6   7
HETATM    7  C   UNL     1      -3.923   5.619 -33.166  1.00  0.00     0.086 A 
HETATM    8  C   UNL     1      -3.999   6.428 -32.028  1.00  0.00     0.044 A 
HETATM    9  C   UNL     1      -2.877   6.610 -31.207  1.00  0.00     0.029 A 
HETATM   10 BR   UNL     1      -5.606   7.325 -31.558  1.00  0.00    -0.048 Br
HETATM   11  C   UNL     1      -1.652   5.972 -31.483  1.00  0.00    -0.049 A 
HETATM   12  C   UNL     1      -1.601   5.151 -32.619  1.00  0.00     0.011 A 
HETATM   13  C   UNL     1      -2.720   4.972 -33.447  1.00  0.00     0.039 A 
BRANCH  11  14
HETATM   14  C   UNL     1      -0.439   6.185 -30.558  1.00  0.00    -0.024 C 
HETATM   15  C   UNL     1       0.143   4.819 -30.130  1.00  0.00     0.019 C 
HETATM   16  C   UNL     1      -0.881   6.964 -29.302  1.00  0.00     0.019 C 
HETATM   17  C   UNL     1       0.714   6.981 -31.212  1.00  0.00     0.019 C 
ENDBRANCH  11  14
ENDBRANCH   6   7
ENDBRANCH   5   6
ENDBRANCH   1   5
BRANCH   2  18
HETATM   18  N   UNL     1      -6.054   1.898 -31.121  1.00  0.00    -0.184 NA
HETATM   19  C   UNL     1      -5.860   0.630 -30.919  1.00  0.00     0.152 C 
BRANCH  19  20
HETATM   20  C   UNL     1      -5.026  -0.283 -31.677  1.00  0.00     0.011 A 
HETATM   21  C   UNL     1      -5.453  -1.068 -32.800  1.00  0.00     0.004 A 
HETATM   22  C   UNL     1      -4.372  -1.854 -33.202  1.00  0.00     0.043 A 
HETATM   23  C   UNL     1      -6.665  -1.181 -33.515  1.00  0.00     0.014 A 
HETATM   24  C   UNL     1      -4.443  -2.746 -34.279  1.00  0.00     0.030 A 
HETATM   25  N   UNL     1      -3.328  -1.571 -32.353  1.00  0.00    -0.364 N 
HETATM   26  C   UNL     1      -5.656  -2.839 -34.967  1.00  0.00     0.002 A 
HETATM   27  C   UNL     1      -6.753  -2.069 -34.593  1.00  0.00     0.001 A 
HETATM   28  H   UNL     1      -2.419  -2.011 -32.396  1.00  0.00     0.165 HD
HETATM   29  C   UNL     1      -3.717  -0.647 -31.418  1.00  0.00     0.102 A 
ENDBRANCH  19  20
ENDBRANCH   2  18
TORSDOF 6
ENDMDL
MODEL 5
REMARK VINA RESULT:      -8.3      4.010      6.741
REMARK  6 active torsions:
REMARK  status: ('A' for Active; 'I' for Inactive)
REMARK    1  A    between atoms: C_2  and  C_3 
REMARK    2  A    between atoms: C_7  and  O_8 
REMARK    3  A    between atoms: O_8  and  C_9 
REMARK    4  A    between atoms: C_9  and  C_10 
REMARK       I    between atoms: C_10  and  N_11 
REMARK    5  A    between atoms: N_11  and  N_12 
REMARK    6  A    between atoms: C_13  and  C_14 
ROOT
HETATM    1  C   UNL     1      -9.238   3.585 -33.471  1.00  0.00     0.261 C 
HETATM    2  N   UNL     1      -9.080   2.397 -34.167  1.00  0.00    -0.246 N 
HETATM    3  O   UNL     1     -10.026   3.768 -32.544  1.00  0.00    -0.269 OA
HETATM    4  H   UNL     1      -8.445   2.364 -34.957  1.00  0.00     0.192 HD
ENDROOT
BRANCH   1   5
HETATM    5  C   UNL     1      -8.381   4.723 -34.015  1.00  0.00     0.280 C 
BRANCH   5   6
HETATM    6  O   UNL     1      -7.690   5.414 -32.975  1.00  0.00    -0.341 OA
BRANCH   6   7
HETATM    7  C   UNL     1      -6.332   5.507 -33.153  1.00  0.00     0.086 A 
HETATM    8  C   UNL     1      -5.598   6.292 -32.259  1.00  0.00     0.044 A 
HETATM    9  C   UNL     1      -4.206   6.406 -32.387  1.00  0.00     0.029 A 
HETATM   10 BR   UNL     1      -6.448   7.248 -30.856  1.00  0.00    -0.048 Br
HETATM   11  C   UNL     1      -3.502   5.720 -33.396  1.00  0.00    -0.049 A 
HETATM   12  C   UNL     1      -4.254   4.923 -34.272  1.00  0.00     0.011 A 
HETATM   13  C   UNL     1      -5.647   4.813 -34.151  1.00  0.00     0.039 A 
BRANCH  11  14
HETATM   14  C   UNL     1      -1.972   5.858 -33.506  1.00  0.00    -0.024 C 
HETATM   15  C   UNL     1      -1.486   5.271 -34.849  1.00  0.00     0.019 C 
HETATM   16  C   UNL     1      -1.302   5.093 -32.346  1.00  0.00     0.019 C 
HETATM   17  C   UNL     1      -1.470   7.320 -33.445  1.00  0.00     0.019 C 
ENDBRANCH  11  14
ENDBRANCH   6   7
ENDBRANCH   5   6
ENDBRANCH   1   5
BRANCH   2  18
HETATM   18  N   UNL     1      -9.866   1.328 -33.868  1.00  0.00    -0.184 NA
HETATM   19  C   UNL     1      -9.371   0.282 -33.279  1.00  0.00     0.152 C 
BRANCH  19  20
HETATM   20  C   UNL     1      -8.025   0.089 -32.773  1.00  0.00     0.011 A 
HETATM   21  C   UNL     1      -7.023  -0.752 -33.363  1.00  0.00     0.004 A 
HETATM   22  C   UNL     1      -5.896  -0.707 -32.542  1.00  0.00     0.043 A 
HETATM   23  C   UNL     1      -6.971  -1.548 -34.528  1.00  0.00     0.014 A 
HETATM   24  C   UNL     1      -4.724  -1.420 -32.823  1.00  0.00     0.030 A 
HETATM   25  N   UNL     1      -6.199   0.117 -31.484  1.00  0.00    -0.364 N 
HETATM   26  C   UNL     1      -4.701  -2.202 -33.982  1.00  0.00     0.002 A 
HETATM   27  C   UNL     1      -5.807  -2.267 -34.824  1.00  0.00     0.001 A 
HETATM   28  H   UNL     1      -5.572   0.319 -30.717  1.00  0.00     0.165 HD
HETATM   29  C   UNL     1      -7.483   0.582 -31.600  1.00  0.00     0.102 A 
ENDBRANCH  19  20
ENDBRANCH   2  18
TORSDOF 6
ENDMDL
MODEL 6
REMARK VINA RESULT:      -8.1      4.899      7.912
REMARK  6 active torsions:
REMARK  status: ('A' for Active; 'I' for Inactive)
REMARK    1  A    between atoms: C_2  and  C_3 
REMARK    2  A    between atoms: C_7  and  O_8 
REMARK    3  A    between atoms: O_8  and  C_9 
REMARK    4  A    between atoms: C_9  and  C_10 
REMARK       I    between atoms: C_10  and  N_11 
REMARK    5  A    between atoms: N_11  and  N_12 
REMARK    6  A    between atoms: C_13  and  C_14 
ROOT
HETATM    1  C   UNL     1      -3.676   2.474 -31.563  1.00  0.00     0.261 C 
HETATM    2  N   UNL     1      -4.978   2.609 -31.110  1.00  0.00    -0.246 N 
HETATM    3  O   UNL     1      -2.826   1.727 -31.079  1.00  0.00    -0.269 OA
HETATM    4  H   UNL     1      -5.586   3.299 -31.540  1.00  0.00     0.192 HD
ENDROOT
BRANCH   1   5
HETATM    5  C   UNL     1      -3.332   3.422 -32.708  1.00  0.00     0.280 C 
BRANCH   5   6
HETATM    6  O   UNL     1      -3.749   4.759 -32.436  1.00  0.00    -0.341 OA
BRANCH   6   7
HETATM    7  C   UNL     1      -2.968   5.429 -31.528  1.00  0.00     0.086 A 
HETATM    8  C   UNL     1      -3.601   6.214 -30.560  1.00  0.00     0.044 A 
HETATM    9  C   UNL     1      -2.849   6.905 -29.599  1.00  0.00     0.029 A 
HETATM   10 BR   UNL     1      -5.491   6.397 -30.517  1.00  0.00    -0.048 Br
HETATM   11  C   UNL     1      -1.444   6.813 -29.558  1.00  0.00    -0.049 A 
HETATM   12  C   UNL     1      -0.828   6.006 -30.527  1.00  0.00     0.011 A 
HETATM   13  C   UNL     1      -1.578   5.319 -31.494  1.00  0.00     0.039 A 
BRANCH  11  14
HETATM   14  C   UNL     1      -0.646   7.576 -28.485  1.00  0.00    -0.024 C 
HETATM   15  C   UNL     1       0.831   7.703 -28.919  1.00  0.00     0.019 C 
HETATM   16  C   UNL     1      -0.718   6.810 -27.148  1.00  0.00     0.019 C 
HETATM   17  C   UNL     1      -1.164   9.010 -28.223  1.00  0.00     0.019 C 
ENDBRANCH  11  14
ENDBRANCH   6   7
ENDBRANCH   5   6
ENDBRANCH   1   5
BRANCH   2  18
HETATM   18  N   UNL     1      -5.390   1.913 -30.017  1.00  0.00    -0.184 NA
HETATM   19  C   UNL     1      -6.235   0.933 -30.133  1.00  0.00     0.152 C 
BRANCH  19  20
HETATM   20  C   UNL     1      -6.789   0.363 -31.347  1.00  0.00     0.011 A 
HETATM   21  C   UNL     1      -6.093  -0.500 -32.258  1.00  0.00     0.004 A 
HETATM   22  C   UNL     1      -6.954  -0.775 -33.321  1.00  0.00     0.043 A 
HETATM   23  C   UNL     1      -4.805  -1.078 -32.273  1.00  0.00     0.014 A 
HETATM   24  C   UNL     1      -6.591  -1.593 -34.398  1.00  0.00     0.030 A 
HETATM   25  N   UNL     1      -8.125  -0.097 -33.078  1.00  0.00    -0.364 N 
HETATM   26  C   UNL     1      -5.309  -2.149 -34.388  1.00  0.00     0.002 A 
HETATM   27  C   UNL     1      -4.426  -1.898 -33.342  1.00  0.00     0.001 A 
HETATM   28  H   UNL     1      -8.925  -0.096 -33.697  1.00  0.00     0.165 HD
HETATM   29  C   UNL     1      -8.029   0.609 -31.908  1.00  0.00     0.102 A 
ENDBRANCH  19  20
ENDBRANCH   2  18
TORSDOF 6
ENDMDL
MODEL 7
REMARK VINA RESULT:      -8.1      6.141      9.003
REMARK  6 active torsions:
REMARK  status: ('A' for Active; 'I' for Inactive)
REMARK    1  A    between atoms: C_2  and  C_3 
REMARK    2  A    between atoms: C_7  and  O_8 
REMARK    3  A    between atoms: O_8  and  C_9 
REMARK    4  A    between atoms: C_9  and  C_10 
REMARK       I    between atoms: C_10  and  N_11 
REMARK    5  A    between atoms: N_11  and  N_12 
REMARK    6  A    between atoms: C_13  and  C_14 
ROOT
HETATM    1  C   UNL     1      -2.471   4.242 -31.714  1.00  0.00     0.261 C 
HETATM    2  N   UNL     1      -1.599   4.687 -30.733  1.00  0.00    -0.246 N 
HETATM    3  O   UNL     1      -2.157   3.954 -32.869  1.00  0.00    -0.269 OA
HETATM    4  H   UNL     1      -1.966   4.957 -29.827  1.00  0.00     0.192 HD
ENDROOT
BRANCH   1   5
HETATM    5  C   UNL     1      -3.927   4.210 -31.260  1.00  0.00     0.280 C 
BRANCH   5   6
HETATM    6  O   UNL     1      -4.266   2.967 -30.646  1.00  0.00    -0.341 OA
BRANCH   6   7
HETATM    7  C   UNL     1      -5.012   2.125 -31.433  1.00  0.00     0.086 A 
HETATM    8  C   UNL     1      -6.401   2.127 -31.275  1.00  0.00     0.044 A 
HETATM    9  C   UNL     1      -7.210   1.299 -32.066  1.00  0.00     0.029 A 
HETATM   10 BR   UNL     1      -7.246   3.229 -29.979  1.00  0.00    -0.048 Br
HETATM   11  C   UNL     1      -6.660   0.461 -33.055  1.00  0.00    -0.049 A 
HETATM   12  C   UNL     1      -5.265   0.485 -33.210  1.00  0.00     0.011 A 
HETATM   13  C   UNL     1      -4.453   1.308 -32.416  1.00  0.00     0.039 A 
BRANCH  11  14
HETATM   14  C   UNL     1      -7.574  -0.432 -33.914  1.00  0.00    -0.024 C 
HETATM   15  C   UNL     1      -7.657   0.127 -35.351  1.00  0.00     0.019 C 
HETATM   16  C   UNL     1      -8.989  -0.462 -33.299  1.00  0.00     0.019 C 
HETATM   17  C   UNL     1      -7.090  -1.896 -34.027  1.00  0.00     0.019 C 
ENDBRANCH  11  14
ENDBRANCH   6   7
ENDBRANCH   5   6
ENDBRANCH   1   5
BRANCH   2  18
HETATM   18  N   UNL     1      -0.286   4.879 -31.031  1.00  0.00    -0.184 NA
HETATM   19  C   UNL     1       0.309   5.991 -30.724  1.00  0.00     0.152 C 
BRANCH  19  20
HETATM   20  C   UNL     1      -0.221   7.119 -29.981  1.00  0.00     0.011 A 
HETATM   21  C   UNL     1       0.181   7.514 -28.662  1.00  0.00     0.004 A 
HETATM   22  C   UNL     1      -0.608   8.602 -28.286  1.00  0.00     0.043 A 
HETATM   23  C   UNL     1       1.152   7.045 -27.749  1.00  0.00     0.014 A 
HETATM   24  C   UNL     1      -0.479   9.240 -27.047  1.00  0.00     0.030 A 
HETATM   25  N   UNL     1      -1.468   8.855 -29.328  1.00  0.00    -0.364 N 
HETATM   26  C   UNL     1       0.488   8.753 -26.162  1.00  0.00     0.002 A 
HETATM   27  C   UNL     1       1.293   7.671 -26.506  1.00  0.00     0.001 A 
HETATM   28  H   UNL     1      -2.173   9.580 -29.326  1.00  0.00     0.165 HD
HETATM   29  C   UNL     1      -1.261   7.956 -30.341  1.00  0.00     0.102 A 
ENDBRANCH  19  20
ENDBRANCH   2  18
TORSDOF 6
ENDMDL
MODEL 8
REMARK VINA RESULT:      -7.9      6.363      9.534
REMARK  6 active torsions:
REMARK  status: ('A' for Active; 'I' for Inactive)
REMARK    1  A    between atoms: C_2  and  C_3 
REMARK    2  A    between atoms: C_7  and  O_8 
REMARK    3  A    between atoms: O_8  and  C_9 
REMARK    4  A    between atoms: C_9  and  C_10 
REMARK       I    between atoms: C_10  and  N_11 
REMARK    5  A    between atoms: N_11  and  N_12 
REMARK    6  A    between atoms: C_13  and  C_14 
ROOT
HETATM    1  C   UNL     1      -2.185   7.195 -33.320  1.00  0.00     0.261 C 
HETATM    2  N   UNL     1      -2.680   7.828 -32.191  1.00  0.00    -0.246 N 
HETATM    3  O   UNL     1      -1.380   7.680 -34.114  1.00  0.00    -0.269 OA
HETATM    4  H   UNL     1      -3.389   7.366 -31.632  1.00  0.00     0.192 HD
ENDROOT
BRANCH   1   5
HETATM    5  C   UNL     1      -2.800   5.820 -33.562  1.00  0.00     0.280 C 
BRANCH   5   6
HETATM    6  O   UNL     1      -3.721   5.460 -32.532  1.00  0.00    -0.341 OA
BRANCH   6   7
HETATM    7  C   UNL     1      -4.010   4.120 -32.466  1.00  0.00     0.086 A 
HETATM    8  C   UNL     1      -5.247   3.685 -32.949  1.00  0.00     0.044 A 
HETATM    9  C   UNL     1      -5.585   2.324 -32.920  1.00  0.00     0.029 A 
HETATM   10 BR   UNL     1      -6.524   4.908 -33.642  1.00  0.00    -0.048 Br
HETATM   11  C   UNL     1      -4.689   1.354 -32.431  1.00  0.00    -0.049 A 
HETATM   12  C   UNL     1      -3.446   1.808 -31.967  1.00  0.00     0.011 A 
HETATM   13  C   UNL     1      -3.108   3.170 -31.988  1.00  0.00     0.039 A 
BRANCH  11  14
HETATM   14  C   UNL     1      -5.085  -0.134 -32.420  1.00  0.00    -0.024 C 
HETATM   15  C   UNL     1      -6.485  -0.302 -31.790  1.00  0.00     0.019 C 
HETATM   16  C   UNL     1      -4.057  -0.934 -31.593  1.00  0.00     0.019 C 
HETATM   17  C   UNL     1      -5.144  -0.775 -33.826  1.00  0.00     0.019 C 
ENDBRANCH  11  14
ENDBRANCH   6   7
ENDBRANCH   5   6
ENDBRANCH   1   5
BRANCH   2  18
HETATM   18  N   UNL     1      -2.310   9.107 -31.916  1.00  0.00    -0.184 NA
HETATM   19  C   UNL     1      -2.219   9.524 -30.690  1.00  0.00     0.152 C 
BRANCH  19  20
HETATM   20  C   UNL     1      -2.380   8.759 -29.467  1.00  0.00     0.011 A 
HETATM   21  C   UNL     1      -1.335   8.061 -28.774  1.00  0.00     0.004 A 
HETATM   22  C   UNL     1      -1.912   7.406 -27.686  1.00  0.00     0.043 A 
HETATM   23  C   UNL     1       0.057   7.929 -28.973  1.00  0.00     0.014 A 
HETATM   24  C   UNL     1      -1.171   6.624 -26.791  1.00  0.00     0.030 A 
HETATM   25  N   UNL     1      -3.259   7.680 -27.718  1.00  0.00    -0.364 N 
HETATM   26  C   UNL     1       0.204   6.509 -27.014  1.00  0.00     0.002 A 
HETATM   27  C   UNL     1       0.812   7.151 -28.088  1.00  0.00     0.001 A 
HETATM   28  H   UNL     1      -3.933   7.318 -27.057  1.00  0.00     0.165 HD
HETATM   29  C   UNL     1      -3.555   8.472 -28.796  1.00  0.00     0.102 A 
ENDBRANCH  19  20
ENDBRANCH   2  18
TORSDOF 6
ENDMDL
MODEL 9
REMARK VINA RESULT:      -7.9      4.604      7.719
REMARK  6 active torsions:
REMARK  status: ('A' for Active; 'I' for Inactive)
REMARK    1  A    between atoms: C_2  and  C_3 
REMARK    2  A    between atoms: C_7  and  O_8 
REMARK    3  A    between atoms: O_8  and  C_9 
REMARK    4  A    between atoms: C_9  and  C_10 
REMARK       I    between atoms: C_10  and  N_11 
REMARK    5  A    between atoms: N_11  and  N_12 
REMARK    6  A    between atoms: C_13  and  C_14 
ROOT
HETATM    1  C   UNL     1      -6.447   3.426 -31.243  1.00  0.00     0.261 C 
HETATM    2  N   UNL     1      -7.218   2.526 -31.962  1.00  0.00    -0.246 N 
HETATM    3  O   UNL     1      -6.305   3.427 -30.021  1.00  0.00    -0.269 OA
HETATM    4  H   UNL     1      -7.320   2.647 -32.964  1.00  0.00     0.192 HD
ENDROOT
BRANCH   1   5
HETATM    5  C   UNL     1      -5.822   4.515 -32.110  1.00  0.00     0.280 C 
BRANCH   5   6
HETATM    6  O   UNL     1      -5.451   5.659 -31.343  1.00  0.00    -0.341 OA
BRANCH   6   7
HETATM    7  C   UNL     1      -4.105   5.773 -31.100  1.00  0.00     0.086 A 
HETATM    8  C   UNL     1      -3.676   6.732 -30.178  1.00  0.00     0.044 A 
HETATM    9  C   UNL     1      -2.313   6.877 -29.881  1.00  0.00     0.029 A 
HETATM   10 BR   UNL     1      -4.908   7.885 -29.306  1.00  0.00    -0.048 Br
HETATM   11  C   UNL     1      -1.339   6.054 -30.478  1.00  0.00    -0.049 A 
HETATM   12  C   UNL     1      -1.790   5.086 -31.388  1.00  0.00     0.011 A 
HETATM   13  C   UNL     1      -3.153   4.943 -31.692  1.00  0.00     0.039 A 
BRANCH  11  14
HETATM   14  C   UNL     1       0.150   6.231 -30.126  1.00  0.00    -0.024 C 
HETATM   15  C   UNL     1       0.299   7.226 -28.954  1.00  0.00     0.019 C 
HETATM   16  C   UNL     1       0.907   6.776 -31.355  1.00  0.00     0.019 C 
HETATM   17  C   UNL     1       0.850   4.921 -29.697  1.00  0.00     0.019 C 
ENDBRANCH  11  14
ENDBRANCH   6   7
ENDBRANCH   5   6
ENDBRANCH   1   5
BRANCH   2  18
HETATM   18  N   UNL     1      -7.930   1.571 -31.306  1.00  0.00    -0.184 NA
HETATM   19  C   UNL     1      -7.521   0.340 -31.275  1.00  0.00     0.152 C 
BRANCH  19  20
HETATM   20  C   UNL     1      -6.284  -0.209 -31.799  1.00  0.00     0.011 A 
HETATM   21  C   UNL     1      -6.172  -1.094 -32.923  1.00  0.00     0.004 A 
HETATM   22  C   UNL     1      -4.826  -1.434 -33.061  1.00  0.00     0.043 A 
HETATM   23  C   UNL     1      -7.097  -1.635 -33.842  1.00  0.00     0.014 A 
HETATM   24  C   UNL     1      -4.360  -2.290 -34.066  1.00  0.00     0.030 A 
HETATM   25  N   UNL     1      -4.142  -0.795 -32.054  1.00  0.00    -0.364 N 
HETATM   26  C   UNL     1      -5.298  -2.815 -34.960  1.00  0.00     0.002 A 
HETATM   27  C   UNL     1      -6.648  -2.494 -34.853  1.00  0.00     0.001 A 
HETATM   28  H   UNL     1      -3.147  -0.876 -31.896  1.00  0.00     0.165 HD
HETATM   29  C   UNL     1      -5.011  -0.076 -31.276  1.00  0.00     0.102 A 
ENDBRANCH  19  20
ENDBRANCH   2  18
TORSDOF 6
ENDMDL
MODEL 10
REMARK VINA RESULT:      -7.9     14.764     15.747
REMARK  6 active torsions:
REMARK  status: ('A' for Active; 'I' for Inactive)
REMARK    1  A    between atoms: C_2  and  C_3 
REMARK    2  A    between atoms: C_7  and  O_8 
REMARK    3  A    between atoms: O_8  and  C_9 
REMARK    4  A    between atoms: C_9  and  C_10 
REMARK       I    between atoms: C_10  and  N_11 
REMARK    5  A    between atoms: N_11  and  N_12 
REMARK    6  A    between atoms: C_13  and  C_14 
ROOT
HETATM    1  C   UNL     1      -4.147 -15.445 -34.586  1.00  0.00     0.261 C 
HETATM    2  N   UNL     1      -3.249 -14.464 -34.974  1.00  0.00    -0.246 N 
HETATM    3  O   UNL     1      -3.901 -16.648 -34.511  1.00  0.00    -0.269 OA
HETATM    4  H   UNL     1      -3.566 -13.505 -35.063  1.00  0.00     0.192 HD
ENDROOT
BRANCH   1   5
HETATM    5  C   UNL     1      -5.551 -14.909 -34.322  1.00  0.00     0.280 C 
BRANCH   5   6
HETATM    6  O   UNL     1      -6.552 -15.704 -34.958  1.00  0.00    -0.341 OA
BRANCH   6   7
HETATM    7  C   UNL     1      -7.094 -15.145 -36.088  1.00  0.00     0.086 A 
HETATM    8  C   UNL     1      -7.843 -15.963 -36.938  1.00  0.00     0.044 A 
HETATM    9  C   UNL     1      -8.433 -15.438 -38.097  1.00  0.00     0.029 A 
HETATM   10 BR   UNL     1      -8.077 -17.813 -36.577  1.00  0.00    -0.048 Br
HETATM   11  C   UNL     1      -8.313 -14.074 -38.430  1.00  0.00    -0.049 A 
HETATM   12  C   UNL     1      -7.572 -13.266 -37.555  1.00  0.00     0.011 A 
HETATM   13  C   UNL     1      -6.975 -13.790 -36.398  1.00  0.00     0.039 A 
BRANCH  11  14
HETATM   14  C   UNL     1      -8.979 -13.524 -39.705  1.00  0.00    -0.024 C 
HETATM   15  C   UNL     1      -8.995 -14.611 -40.802  1.00  0.00     0.019 C 
HETATM   16  C   UNL     1      -8.185 -12.303 -40.213  1.00  0.00     0.019 C 
HETATM   17  C   UNL     1     -10.443 -13.070 -39.499  1.00  0.00     0.019 C 
ENDBRANCH  11  14
ENDBRANCH   6   7
ENDBRANCH   5   6
ENDBRANCH   1   5
BRANCH   2  18
HETATM   18  N   UNL     1      -1.990 -14.811 -35.355  1.00  0.00    -0.184 NA
HETATM   19  C   UNL     1      -1.557 -14.536 -36.548  1.00  0.00     0.152 C 
BRANCH  19  20
HETATM   20  C   UNL     1      -2.223 -13.783 -37.594  1.00  0.00     0.011 A 
HETATM   21  C   UNL     1      -3.284 -14.270 -38.428  1.00  0.00     0.004 A 
HETATM   22  C   UNL     1      -3.603 -13.263 -39.340  1.00  0.00     0.043 A 
HETATM   23  C   UNL     1      -4.009 -15.481 -38.487  1.00  0.00     0.014 A 
HETATM   24  C   UNL     1      -4.603 -13.406 -40.309  1.00  0.00     0.030 A 
HETATM   25  N   UNL     1      -2.761 -12.206 -39.084  1.00  0.00    -0.364 N 
HETATM   26  C   UNL     1      -5.303 -14.616 -40.347  1.00  0.00     0.002 A 
HETATM   27  C   UNL     1      -5.012 -15.640 -39.450  1.00  0.00     0.001 A 
HETATM   28  H   UNL     1      -2.752 -11.342 -39.608  1.00  0.00     0.165 HD
HETATM   29  C   UNL     1      -1.913 -12.516 -38.054  1.00  0.00     0.102 A 
ENDBRANCH  19  20
ENDBRANCH   2  18
TORSDOF 6
ENDMDL
