MODEL 1
REMARK VINA RESULT:      -8.4      0.000      0.000
REMARK  6 active torsions:
REMARK  status: ('A' for Active; 'I' for Inactive)
REMARK    1  A    between atoms: O_2  and  C_3 
REMARK    2  A    between atoms: C_3  and  C_4 
REMARK    3  A    between atoms: C_4  and  N_5 
REMARK       I    between atoms: N_5  and  C_6 
REMARK    4  A    between atoms: C_6  and  C_7 
REMARK    5  A    between atoms: C_12  and  C_13 
REMARK    6  A    between atoms: C_22  and  C_23 
ROOT
HETATM    1  C   UNL     1     -11.068   1.940 -33.634  1.00  0.00     0.148 A 
HETATM    2  N   UNL     1     -10.405   2.205 -32.483  1.00  0.00    -0.165 NA
HETATM    3  N   UNL     1      -9.156   1.787 -32.743  1.00  0.00    -0.240 N 
HETATM    4  C   UNL     1      -9.004   1.191 -33.963  1.00  0.00     0.123 A 
HETATM    5  N   UNL     1      -7.840   0.611 -34.324  1.00  0.00    -0.366 N 
HETATM    6  C   UNL     1      -6.680   0.579 -33.437  1.00  0.00     0.118 C 
HETATM    7  C   UNL     1      -7.110   0.721 -31.963  1.00  0.00     0.066 C 
HETATM    8  C   UNL     1      -8.091   1.889 -31.764  1.00  0.00     0.221 C 
HETATM    9  C   UNL     1     -10.213   1.321 -34.591  1.00  0.00     0.088 A 
HETATM   10  H   UNL     1      -7.680   0.309 -35.285  1.00  0.00     0.161 HD
ENDROOT
BRANCH   1  11
HETATM   11  C   UNL     1     -12.497   2.244 -33.806  1.00  0.00     0.272 C 
HETATM   12  N   UNL     1     -13.330   1.289 -33.268  1.00  0.00    -0.354 N 
HETATM   13  H   UNL     1     -12.874   0.438 -32.949  1.00  0.00     0.162 HD
HETATM   14  O   UNL     1     -12.901   3.242 -34.395  1.00  0.00    -0.266 OA
BRANCH  12  15
HETATM   15  C   UNL     1     -14.761   1.298 -33.483  1.00  0.00     0.149 C 
BRANCH  15  16
HETATM   16  C   UNL     1     -15.512   2.057 -32.387  1.00  0.00     0.186 C 
BRANCH  16  17
HETATM   17  O   UNL     1     -16.907   2.098 -32.713  1.00  0.00    -0.394 OA
HETATM   18  C   UNL     1     -17.582   3.109 -31.978  1.00  0.00     0.201 C 
ENDBRANCH  16  17
ENDBRANCH  15  16
ENDBRANCH  12  15
ENDBRANCH   1  11
BRANCH   8  19
HETATM   19  C   UNL     1      -7.417   3.238 -31.876  1.00  0.00     0.409 C 
HETATM   20  F   UNL     1      -7.535   3.779 -33.107  1.00  0.00    -0.169 F 
HETATM   21  F   UNL     1      -7.999   4.112 -31.012  1.00  0.00    -0.169 F 
HETATM   22  F   UNL     1      -6.104   3.209 -31.562  1.00  0.00    -0.169 F 
ENDBRANCH   8  19
BRANCH   6  23
HETATM   23  C   UNL     1      -5.921  -0.724 -33.642  1.00  0.00    -0.034 A 
HETATM   24  C   UNL     1      -6.496  -1.798 -34.349  1.00  0.00     0.034 A 
HETATM   25  C   UNL     1      -5.805  -3.001 -34.520  1.00  0.00     0.056 A 
HETATM   26 CL   UNL     1      -6.588  -4.260 -35.408  1.00  0.00    -0.083 Cl
HETATM   27  C   UNL     1      -4.526  -3.150 -33.977  1.00  0.00     0.055 A 
HETATM   28 CL   UNL     1      -3.611  -4.606 -34.141  1.00  0.00    -0.083 Cl
HETATM   29  C   UNL     1      -3.948  -2.094 -33.267  1.00  0.00     0.026 A 
HETATM   30  C   UNL     1      -4.639  -0.890 -33.100  1.00  0.00     0.011 A 
ENDBRANCH   6  23
TORSDOF 6
ENDMDL
MODEL 2
REMARK VINA RESULT:      -8.2      5.318      8.751
REMARK  6 active torsions:
REMARK  status: ('A' for Active; 'I' for Inactive)
REMARK    1  A    between atoms: O_2  and  C_3 
REMARK    2  A    between atoms: C_3  and  C_4 
REMARK    3  A    between atoms: C_4  and  N_5 
REMARK       I    between atoms: N_5  and  C_6 
REMARK    4  A    between atoms: C_6  and  C_7 
REMARK    5  A    between atoms: C_12  and  C_13 
REMARK    6  A    between atoms: C_22  and  C_23 
ROOT
HETATM    1  C   UNL     1      -4.574   2.729 -32.740  1.00  0.00     0.148 A 
HETATM    2  N   UNL     1      -4.847   1.470 -32.322  1.00  0.00    -0.165 NA
HETATM    3  N   UNL     1      -6.079   1.244 -32.805  1.00  0.00    -0.240 N 
HETATM    4  C   UNL     1      -6.642   2.318 -33.434  1.00  0.00     0.123 A 
HETATM    5  N   UNL     1      -7.920   2.290 -33.867  1.00  0.00    -0.366 N 
HETATM    6  C   UNL     1      -8.777   1.121 -33.687  1.00  0.00     0.118 C 
HETATM    7  C   UNL     1      -8.283   0.253 -32.511  1.00  0.00     0.066 C 
HETATM    8  C   UNL     1      -6.771  -0.012 -32.591  1.00  0.00     0.221 C 
HETATM    9  C   UNL     1      -5.672   3.284 -33.457  1.00  0.00     0.088 A 
HETATM   10  H   UNL     1      -8.286   3.028 -34.469  1.00  0.00     0.161 HD
ENDROOT
BRANCH   1  11
HETATM   11  C   UNL     1      -3.302   3.400 -32.434  1.00  0.00     0.272 C 
HETATM   12  N   UNL     1      -2.920   4.318 -33.387  1.00  0.00    -0.354 N 
HETATM   13  H   UNL     1      -3.475   4.321 -34.238  1.00  0.00     0.162 HD
HETATM   14  O   UNL     1      -2.635   3.145 -31.435  1.00  0.00    -0.266 OA
BRANCH  12  15
HETATM   15  C   UNL     1      -1.621   4.955 -33.375  1.00  0.00     0.149 C 
BRANCH  15  16
HETATM   16  C   UNL     1      -1.399   5.856 -34.592  1.00  0.00     0.186 C 
BRANCH  16  17
HETATM   17  O   UNL     1      -1.620   7.220 -34.215  1.00  0.00    -0.394 OA
HETATM   18  C   UNL     1      -1.204   7.462 -32.878  1.00  0.00     0.201 C 
ENDBRANCH  16  17
ENDBRANCH  15  16
ENDBRANCH  12  15
ENDBRANCH   1  11
BRANCH   8  19
HETATM   19  C   UNL     1      -6.411  -0.990 -33.687  1.00  0.00     0.409 C 
HETATM   20  F   UNL     1      -5.287  -1.687 -33.416  1.00  0.00    -0.169 F 
HETATM   21  F   UNL     1      -7.408  -1.905 -33.828  1.00  0.00    -0.169 F 
HETATM   22  F   UNL     1      -6.256  -0.408 -34.895  1.00  0.00    -0.169 F 
ENDBRANCH   8  19
BRANCH   6  23
HETATM   23  C   UNL     1     -10.208   1.573 -33.445  1.00  0.00    -0.034 A 
HETATM   24  C   UNL     1     -11.296   0.716 -33.701  1.00  0.00     0.034 A 
HETATM   25  C   UNL     1     -12.613   1.140 -33.495  1.00  0.00     0.056 A 
HETATM   26 CL   UNL     1     -13.881   0.015 -33.830  1.00  0.00    -0.083 Cl
HETATM   27  C   UNL     1     -12.860   2.436 -33.038  1.00  0.00     0.055 A 
HETATM   28 CL   UNL     1     -14.457   3.036 -32.764  1.00  0.00    -0.083 Cl
HETATM   29  C   UNL     1     -11.790   3.300 -32.788  1.00  0.00     0.026 A 
HETATM   30  C   UNL     1     -10.473   2.873 -32.990  1.00  0.00     0.011 A 
ENDBRANCH   6  23
TORSDOF 6
ENDMDL
MODEL 3
REMARK VINA RESULT:      -8.1      4.172      6.968
REMARK  6 active torsions:
REMARK  status: ('A' for Active; 'I' for Inactive)
REMARK    1  A    between atoms: O_2  and  C_3 
REMARK    2  A    between atoms: C_3  and  C_4 
REMARK    3  A    between atoms: C_4  and  N_5 
REMARK       I    between atoms: N_5  and  C_6 
REMARK    4  A    between atoms: C_6  and  C_7 
REMARK    5  A    between atoms: C_12  and  C_13 
REMARK    6  A    between atoms: C_22  and  C_23 
ROOT
HETATM    1  C   UNL     1      -5.862   4.650 -32.885  1.00  0.00     0.148 A 
HETATM    2  N   UNL     1      -6.696   4.310 -33.897  1.00  0.00    -0.165 NA
HETATM    3  N   UNL     1      -6.819   2.980 -33.763  1.00  0.00    -0.240 N 
HETATM    4  C   UNL     1      -6.043   2.440 -32.777  1.00  0.00     0.123 A 
HETATM    5  N   UNL     1      -5.962   1.105 -32.596  1.00  0.00    -0.366 N 
HETATM    6  C   UNL     1      -6.688   0.160 -33.440  1.00  0.00     0.118 C 
HETATM    7  C   UNL     1      -7.024   0.790 -34.807  1.00  0.00     0.066 C 
HETATM    8  C   UNL     1      -7.643   2.189 -34.656  1.00  0.00     0.221 C 
HETATM    9  C   UNL     1      -5.449   3.502 -32.150  1.00  0.00     0.088 A 
HETATM   10  H   UNL     1      -5.511   0.714 -31.768  1.00  0.00     0.161 HD
ENDROOT
BRANCH   1  11
HETATM   11  C   UNL     1      -5.444   6.039 -32.644  1.00  0.00     0.272 C 
HETATM   12  N   UNL     1      -4.078   6.210 -32.640  1.00  0.00    -0.354 N 
HETATM   13  H   UNL     1      -3.530   5.354 -32.662  1.00  0.00     0.162 HD
HETATM   14  O   UNL     1      -6.241   6.951 -32.441  1.00  0.00    -0.266 OA
BRANCH  12  15
HETATM   15  C   UNL     1      -3.452   7.453 -32.244  1.00  0.00     0.149 C 
BRANCH  15  16
HETATM   16  C   UNL     1      -1.935   7.434 -32.444  1.00  0.00     0.186 C 
BRANCH  16  17
HETATM   17  O   UNL     1      -1.642   7.572 -33.840  1.00  0.00    -0.394 OA
HETATM   18  C   UNL     1      -1.162   6.354 -34.392  1.00  0.00     0.201 C 
ENDBRANCH  16  17
ENDBRANCH  15  16
ENDBRANCH  12  15
ENDBRANCH   1  11
BRANCH   8  19
HETATM   19  C   UNL     1      -9.063   2.141 -34.137  1.00  0.00     0.409 C 
HETATM   20  F   UNL     1      -9.138   2.331 -32.803  1.00  0.00    -0.169 F 
HETATM   21  F   UNL     1      -9.792   3.137 -34.710  1.00  0.00    -0.169 F 
HETATM   22  F   UNL     1      -9.701   0.988 -34.427  1.00  0.00    -0.169 F 
ENDBRANCH   8  19
BRANCH   6  23
HETATM   23  C   UNL     1      -5.854  -1.098 -33.628  1.00  0.00    -0.034 A 
HETATM   24  C   UNL     1      -6.310  -2.161 -34.431  1.00  0.00     0.034 A 
HETATM   25  C   UNL     1      -5.550  -3.324 -34.588  1.00  0.00     0.056 A 
HETATM   26 CL   UNL     1      -6.189  -4.572 -35.598  1.00  0.00    -0.083 Cl
HETATM   27  C   UNL     1      -4.321  -3.443 -33.935  1.00  0.00     0.055 A 
HETATM   28 CL   UNL     1      -3.327  -4.848 -34.075  1.00  0.00    -0.083 Cl
HETATM   29  C   UNL     1      -3.860  -2.398 -33.129  1.00  0.00     0.026 A 
HETATM   30  C   UNL     1      -4.620  -1.234 -32.976  1.00  0.00     0.011 A 
ENDBRANCH   6  23
TORSDOF 6
ENDMDL
MODEL 4
REMARK VINA RESULT:      -8.1      5.870      8.770
REMARK  6 active torsions:
REMARK  status: ('A' for Active; 'I' for Inactive)
REMARK    1  A    between atoms: O_2  and  C_3 
REMARK    2  A    between atoms: C_3  and  C_4 
REMARK    3  A    between atoms: C_4  and  N_5 
REMARK       I    between atoms: N_5  and  C_6 
REMARK    4  A    between atoms: C_6  and  C_7 
REMARK    5  A    between atoms: C_12  and  C_13 
REMARK    6  A    between atoms: C_22  and  C_23 
ROOT
HETATM    1  C   UNL     1      -2.953   3.589 -31.762  1.00  0.00     0.148 A 
HETATM    2  N   UNL     1      -3.013   2.378 -31.160  1.00  0.00    -0.165 NA
HETATM    3  N   UNL     1      -3.999   1.751 -31.821  1.00  0.00    -0.240 N 
HETATM    4  C   UNL     1      -4.631   2.526 -32.753  1.00  0.00     0.123 A 
HETATM    5  N   UNL     1      -5.720   2.082 -33.416  1.00  0.00    -0.366 N 
HETATM    6  C   UNL     1      -6.291   0.760 -33.177  1.00  0.00     0.118 C 
HETATM    7  C   UNL     1      -5.908   0.241 -31.775  1.00  0.00     0.066 C 
HETATM    8  C   UNL     1      -4.403   0.397 -31.499  1.00  0.00     0.221 C 
HETATM    9  C   UNL     1      -3.943   3.709 -32.780  1.00  0.00     0.088 A 
HETATM   10  H   UNL     1      -6.092   2.595 -34.216  1.00  0.00     0.161 HD
ENDROOT
BRANCH   1  11
HETATM   11  C   UNL     1      -1.992   4.624 -31.352  1.00  0.00     0.272 C 
HETATM   12  N   UNL     1      -2.582   5.728 -30.779  1.00  0.00    -0.354 N 
HETATM   13  H   UNL     1      -3.597   5.759 -30.833  1.00  0.00     0.162 HD
HETATM   14  O   UNL     1      -0.782   4.519 -31.531  1.00  0.00    -0.266 OA
BRANCH  12  15
HETATM   15  C   UNL     1      -1.842   6.933 -30.472  1.00  0.00     0.149 C 
BRANCH  15  16
HETATM   16  C   UNL     1      -2.090   8.047 -31.490  1.00  0.00     0.186 C 
BRANCH  16  17
HETATM   17  O   UNL     1      -1.179   7.895 -32.586  1.00  0.00    -0.394 OA
HETATM   18  C   UNL     1      -1.834   7.379 -33.736  1.00  0.00     0.201 C 
ENDBRANCH  16  17
ENDBRANCH  15  16
ENDBRANCH  12  15
ENDBRANCH   1  11
BRANCH   8  19
HETATM   19  C   UNL     1      -3.565  -0.589 -32.281  1.00  0.00     0.409 C 
HETATM   20  F   UNL     1      -3.042  -0.054 -33.405  1.00  0.00    -0.169 F 
HETATM   21  F   UNL     1      -2.512  -0.996 -31.522  1.00  0.00    -0.169 F 
HETATM   22  F   UNL     1      -4.238  -1.706 -32.630  1.00  0.00    -0.169 F 
ENDBRANCH   8  19
BRANCH   6  23
HETATM   23  C   UNL     1      -7.804   0.827 -33.320  1.00  0.00    -0.034 A 
HETATM   24  C   UNL     1      -8.426   1.906 -33.975  1.00  0.00     0.034 A 
HETATM   25  C   UNL     1      -9.818   1.976 -34.089  1.00  0.00     0.056 A 
HETATM   26 CL   UNL     1     -10.491   3.335 -34.917  1.00  0.00    -0.083 Cl
HETATM   27  C   UNL     1     -10.610   0.965 -33.539  1.00  0.00     0.055 A 
HETATM   28 CL   UNL     1     -12.335   0.981 -33.634  1.00  0.00    -0.083 Cl
HETATM   29  C   UNL     1     -10.005  -0.108 -32.879  1.00  0.00     0.026 A 
HETATM   30  C   UNL     1      -8.613  -0.177 -32.769  1.00  0.00     0.011 A 
ENDBRANCH   6  23
TORSDOF 6
ENDMDL
MODEL 5
REMARK VINA RESULT:      -8.0      7.088      9.407
REMARK  6 active torsions:
REMARK  status: ('A' for Active; 'I' for Inactive)
REMARK    1  A    between atoms: O_2  and  C_3 
REMARK    2  A    between atoms: C_3  and  C_4 
REMARK    3  A    between atoms: C_4  and  N_5 
REMARK       I    between atoms: N_5  and  C_6 
REMARK    4  A    between atoms: C_6  and  C_7 
REMARK    5  A    between atoms: C_12  and  C_13 
REMARK    6  A    between atoms: C_22  and  C_23 
ROOT
HETATM    1  C   UNL     1      -4.798   2.384 -32.462  1.00  0.00     0.148 A 
HETATM    2  N   UNL     1      -4.922   3.593 -33.060  1.00  0.00    -0.165 NA
HETATM    3  N   UNL     1      -3.793   4.229 -32.710  1.00  0.00    -0.240 N 
HETATM    4  C   UNL     1      -2.995   3.526 -31.851  1.00  0.00     0.123 A 
HETATM    5  N   UNL     1      -1.886   4.075 -31.311  1.00  0.00    -0.366 N 
HETATM    6  C   UNL     1      -1.476   5.445 -31.604  1.00  0.00     0.118 C 
HETATM    7  C   UNL     1      -2.680   6.295 -32.061  1.00  0.00     0.066 C 
HETATM    8  C   UNL     1      -3.504   5.581 -33.145  1.00  0.00     0.221 C 
HETATM    9  C   UNL     1      -3.591   2.301 -31.711  1.00  0.00     0.088 A 
HETATM   10  H   UNL     1      -1.214   3.503 -30.800  1.00  0.00     0.161 HD
ENDROOT
BRANCH   1  11
HETATM   11  C   UNL     1      -5.827   1.339 -32.580  1.00  0.00     0.272 C 
HETATM   12  N   UNL     1      -5.312   0.081 -32.800  1.00  0.00    -0.354 N 
HETATM   13  H   UNL     1      -4.314   0.044 -32.991  1.00  0.00     0.162 HD
HETATM   14  O   UNL     1      -7.030   1.576 -32.514  1.00  0.00    -0.266 OA
BRANCH  12  15
HETATM   15  C   UNL     1      -6.147  -1.054 -33.125  1.00  0.00     0.149 C 
BRANCH  15  16
HETATM   16  C   UNL     1      -6.318  -1.243 -34.634  1.00  0.00     0.186 C 
BRANCH  16  17
HETATM   17  O   UNL     1      -6.069  -2.613 -34.968  1.00  0.00    -0.394 OA
HETATM   18  C   UNL     1      -4.740  -2.995 -34.641  1.00  0.00     0.201 C 
ENDBRANCH  16  17
ENDBRANCH  15  16
ENDBRANCH  12  15
ENDBRANCH   1  11
BRANCH   8  19
HETATM   19  C   UNL     1      -2.799   5.550 -34.483  1.00  0.00     0.409 C 
HETATM   20  F   UNL     1      -3.657   5.499 -35.524  1.00  0.00    -0.169 F 
HETATM   21  F   UNL     1      -2.069   6.687 -34.640  1.00  0.00    -0.169 F 
HETATM   22  F   UNL     1      -1.935   4.522 -34.609  1.00  0.00    -0.169 F 
ENDBRANCH   8  19
BRANCH   6  23
HETATM   23  C   UNL     1      -0.837   6.058 -30.367  1.00  0.00    -0.034 A 
HETATM   24  C   UNL     1      -1.186   7.351 -29.932  1.00  0.00     0.034 A 
HETATM   25  C   UNL     1      -0.584   7.921 -28.805  1.00  0.00     0.056 A 
HETATM   26 CL   UNL     1      -1.082   9.509 -28.344  1.00  0.00    -0.083 Cl
HETATM   27  C   UNL     1       0.386   7.204 -28.101  1.00  0.00     0.055 A 
HETATM   28 CL   UNL     1       1.179   7.839 -26.703  1.00  0.00    -0.083 Cl
HETATM   29  C   UNL     1       0.747   5.922 -28.527  1.00  0.00     0.026 A 
HETATM   30  C   UNL     1       0.142   5.353 -29.652  1.00  0.00     0.011 A 
ENDBRANCH   6  23
TORSDOF 6
ENDMDL
MODEL 6
REMARK VINA RESULT:      -8.0      5.655      8.445
REMARK  6 active torsions:
REMARK  status: ('A' for Active; 'I' for Inactive)
REMARK    1  A    between atoms: O_2  and  C_3 
REMARK    2  A    between atoms: C_3  and  C_4 
REMARK    3  A    between atoms: C_4  and  N_5 
REMARK       I    between atoms: N_5  and  C_6 
REMARK    4  A    between atoms: C_6  and  C_7 
REMARK    5  A    between atoms: C_12  and  C_13 
REMARK    6  A    between atoms: C_22  and  C_23 
ROOT
HETATM    1  C   UNL     1      -2.857   4.236 -32.162  1.00  0.00     0.148 A 
HETATM    2  N   UNL     1      -3.915   4.617 -32.916  1.00  0.00    -0.165 NA
HETATM    3  N   UNL     1      -4.704   3.532 -32.914  1.00  0.00    -0.240 N 
HETATM    4  C   UNL     1      -4.170   2.449 -32.273  1.00  0.00     0.123 A 
HETATM    5  N   UNL     1      -4.786   1.248 -32.287  1.00  0.00    -0.366 N 
HETATM    6  C   UNL     1      -6.049   1.030 -32.987  1.00  0.00     0.118 C 
HETATM    7  C   UNL     1      -6.244   2.071 -34.108  1.00  0.00     0.066 C 
HETATM    8  C   UNL     1      -5.974   3.502 -33.612  1.00  0.00     0.221 C 
HETATM    9  C   UNL     1      -2.994   2.886 -31.727  1.00  0.00     0.088 A 
HETATM   10  H   UNL     1      -4.468   0.489 -31.684  1.00  0.00     0.161 HD
ENDROOT
BRANCH   1  11
HETATM   11  C   UNL     1      -1.722   5.131 -31.889  1.00  0.00     0.272 C 
HETATM   12  N   UNL     1      -1.391   5.209 -30.555  1.00  0.00    -0.354 N 
HETATM   13  H   UNL     1      -2.042   4.761 -29.915  1.00  0.00     0.162 HD
HETATM   14  O   UNL     1      -1.146   5.765 -32.768  1.00  0.00    -0.266 OA
BRANCH  12  15
HETATM   15  C   UNL     1      -0.430   6.164 -30.048  1.00  0.00     0.149 C 
BRANCH  15  16
HETATM   16  C   UNL     1       0.524   5.547 -29.023  1.00  0.00     0.186 C 
BRANCH  16  17
HETATM   17  O   UNL     1       0.108   5.925 -27.705  1.00  0.00    -0.394 OA
HETATM   18  C   UNL     1       0.853   7.035 -27.225  1.00  0.00     0.201 C 
ENDBRANCH  16  17
ENDBRANCH  15  16
ENDBRANCH  12  15
ENDBRANCH   1  11
BRANCH   8  19
HETATM   19  C   UNL     1      -7.071   4.018 -32.707  1.00  0.00     0.409 C 
HETATM   20  F   UNL     1      -7.281   5.344 -32.846  1.00  0.00    -0.169 F 
HETATM   21  F   UNL     1      -8.245   3.406 -33.019  1.00  0.00    -0.169 F 
HETATM   22  F   UNL     1      -6.847   3.769 -31.399  1.00  0.00    -0.169 F 
ENDBRANCH   8  19
BRANCH   6  23
HETATM   23  C   UNL     1      -6.072  -0.377 -33.565  1.00  0.00    -0.034 A 
HETATM   24  C   UNL     1      -5.023  -1.283 -33.317  1.00  0.00     0.034 A 
HETATM   25  C   UNL     1      -5.036  -2.570 -33.864  1.00  0.00     0.056 A 
HETATM   26 CL   UNL     1      -3.708  -3.614 -33.500  1.00  0.00    -0.083 Cl
HETATM   27  C   UNL     1      -6.101  -2.967 -34.677  1.00  0.00     0.055 A 
HETATM   28 CL   UNL     1      -6.189  -4.537 -35.392  1.00  0.00    -0.083 Cl
HETATM   29  C   UNL     1      -7.145  -2.074 -34.936  1.00  0.00     0.026 A 
HETATM   30  C   UNL     1      -7.132  -0.789 -34.385  1.00  0.00     0.011 A 
ENDBRANCH   6  23
TORSDOF 6
ENDMDL
MODEL 7
REMARK VINA RESULT:      -7.7      5.298      8.692
REMARK  6 active torsions:
REMARK  status: ('A' for Active; 'I' for Inactive)
REMARK    1  A    between atoms: O_2  and  C_3 
REMARK    2  A    between atoms: C_3  and  C_4 
REMARK    3  A    between atoms: C_4  and  N_5 
REMARK       I    between atoms: N_5  and  C_6 
REMARK    4  A    between atoms: C_6  and  C_7 
REMARK    5  A    between atoms: C_12  and  C_13 
REMARK    6  A    between atoms: C_22  and  C_23 
ROOT
HETATM    1  C   UNL     1      -5.405   3.127 -33.156  1.00  0.00     0.148 A 
HETATM    2  N   UNL     1      -5.504   1.807 -32.870  1.00  0.00    -0.165 NA
HETATM    3  N   UNL     1      -6.710   1.474 -33.357  1.00  0.00    -0.240 N 
HETATM    4  C   UNL     1      -7.424   2.526 -33.859  1.00  0.00     0.123 A 
HETATM    5  N   UNL     1      -8.699   2.378 -34.275  1.00  0.00    -0.366 N 
HETATM    6  C   UNL     1      -9.395   1.096 -34.208  1.00  0.00     0.118 C 
HETATM    7  C   UNL     1      -8.763   0.182 -33.138  1.00  0.00     0.066 C 
HETATM    8  C   UNL     1      -7.231   0.124 -33.268  1.00  0.00     0.221 C 
HETATM    9  C   UNL     1      -6.585   3.606 -33.794  1.00  0.00     0.088 A 
HETATM   10  H   UNL     1      -9.173   3.121 -34.790  1.00  0.00     0.161 HD
ENDROOT
BRANCH   1  11
HETATM   11  C   UNL     1      -4.221   3.922 -32.799  1.00  0.00     0.272 C 
HETATM   12  N   UNL     1      -4.396   5.277 -32.967  1.00  0.00    -0.354 N 
HETATM   13  H   UNL     1      -5.252   5.552 -33.441  1.00  0.00     0.162 HD
HETATM   14  O   UNL     1      -3.170   3.417 -32.412  1.00  0.00    -0.266 OA
BRANCH  12  15
HETATM   15  C   UNL     1      -3.306   6.221 -32.848  1.00  0.00     0.149 C 
BRANCH  15  16
HETATM   16  C   UNL     1      -2.604   6.476 -34.184  1.00  0.00     0.186 C 
BRANCH  16  17
HETATM   17  O   UNL     1      -1.655   7.537 -34.023  1.00  0.00    -0.394 OA
HETATM   18  C   UNL     1      -0.999   7.459 -32.765  1.00  0.00     0.201 C 
ENDBRANCH  16  17
ENDBRANCH  15  16
ENDBRANCH  12  15
ENDBRANCH   1  11
BRANCH   8  19
HETATM   19  C   UNL     1      -6.781  -0.680 -34.467  1.00  0.00     0.409 C 
HETATM   20  F   UNL     1      -6.799   0.035 -35.612  1.00  0.00    -0.169 F 
HETATM   21  F   UNL     1      -5.496  -1.087 -34.288  1.00  0.00    -0.169 F 
HETATM   22  F   UNL     1      -7.510  -1.798 -34.667  1.00  0.00    -0.169 F 
ENDBRANCH   8  19
BRANCH   6  23
HETATM   23  C   UNL     1     -10.865   1.332 -33.898  1.00  0.00    -0.034 A 
HETATM   24  C   UNL     1     -11.370   2.632 -33.710  1.00  0.00     0.034 A 
HETATM   25  C   UNL     1     -12.718   2.847 -33.407  1.00  0.00     0.056 A 
HETATM   26 CL   UNL     1     -13.248   4.479 -33.201  1.00  0.00    -0.083 Cl
HETATM   27  C   UNL     1     -13.582   1.756 -33.280  1.00  0.00     0.055 A 
HETATM   28 CL   UNL     1     -15.258   1.937 -32.903  1.00  0.00    -0.083 Cl
HETATM   29  C   UNL     1     -13.091   0.459 -33.456  1.00  0.00     0.026 A 
HETATM   30  C   UNL     1     -11.743   0.247 -33.763  1.00  0.00     0.011 A 
ENDBRANCH   6  23
TORSDOF 6
ENDMDL
MODEL 8
REMARK VINA RESULT:      -7.6      2.097      2.879
REMARK  6 active torsions:
REMARK  status: ('A' for Active; 'I' for Inactive)
REMARK    1  A    between atoms: O_2  and  C_3 
REMARK    2  A    between atoms: C_3  and  C_4 
REMARK    3  A    between atoms: C_4  and  N_5 
REMARK       I    between atoms: N_5  and  C_6 
REMARK    4  A    between atoms: C_6  and  C_7 
REMARK    5  A    between atoms: C_12  and  C_13 
REMARK    6  A    between atoms: C_22  and  C_23 
ROOT
HETATM    1  C   UNL     1     -10.201   2.200 -33.612  1.00  0.00     0.148 A 
HETATM    2  N   UNL     1      -9.852   2.102 -32.308  1.00  0.00    -0.165 NA
HETATM    3  N   UNL     1      -8.605   1.605 -32.357  1.00  0.00    -0.240 N 
HETATM    4  C   UNL     1      -8.172   1.299 -33.617  1.00  0.00     0.123 A 
HETATM    5  N   UNL     1      -6.990   0.681 -33.824  1.00  0.00    -0.366 N 
HETATM    6  C   UNL     1      -6.110   0.297 -32.724  1.00  0.00     0.118 C 
HETATM    7  C   UNL     1      -6.906   0.141 -31.412  1.00  0.00     0.066 C 
HETATM    8  C   UNL     1      -7.834   1.341 -31.159  1.00  0.00     0.221 C 
HETATM    9  C   UNL     1      -9.162   1.723 -34.462  1.00  0.00     0.088 A 
HETATM   10  H   UNL     1      -6.601   0.596 -34.763  1.00  0.00     0.161 HD
ENDROOT
BRANCH   1  11
HETATM   11  C   UNL     1     -11.513   2.710 -34.038  1.00  0.00     0.272 C 
HETATM   12  N   UNL     1     -11.448   3.570 -35.111  1.00  0.00    -0.354 N 
HETATM   13  H   UNL     1     -10.512   3.856 -35.386  1.00  0.00     0.162 HD
HETATM   14  O   UNL     1     -12.561   2.413 -33.471  1.00  0.00    -0.266 OA
BRANCH  12  15
HETATM   15  C   UNL     1     -12.594   4.323 -35.574  1.00  0.00     0.149 C 
BRANCH  15  16
HETATM   16  C   UNL     1     -12.503   5.807 -35.211  1.00  0.00     0.186 C 
BRANCH  16  17
HETATM   17  O   UNL     1     -11.154   6.254 -35.390  1.00  0.00    -0.394 OA
HETATM   18  C   UNL     1     -11.110   7.569 -35.926  1.00  0.00     0.201 C 
ENDBRANCH  16  17
ENDBRANCH  15  16
ENDBRANCH  12  15
ENDBRANCH   1  11
BRANCH   8  19
HETATM   19  C   UNL     1      -7.075   2.584 -30.752  1.00  0.00     0.409 C 
HETATM   20  F   UNL     1      -7.742   3.329 -29.845  1.00  0.00    -0.169 F 
HETATM   21  F   UNL     1      -5.898   2.230 -30.169  1.00  0.00    -0.169 F 
HETATM   22  F   UNL     1      -6.759   3.384 -31.792  1.00  0.00    -0.169 F 
ENDBRANCH   8  19
BRANCH   6  23
HETATM   23  C   UNL     1      -5.403  -1.004 -33.071  1.00  0.00    -0.034 A 
HETATM   24  C   UNL     1      -5.935  -1.890 -34.027  1.00  0.00     0.034 A 
HETATM   25  C   UNL     1      -5.294  -3.095 -34.331  1.00  0.00     0.056 A 
HETATM   26 CL   UNL     1      -6.019  -4.114 -35.523  1.00  0.00    -0.083 Cl
HETATM   27  C   UNL     1      -4.109  -3.435 -33.673  1.00  0.00     0.055 A 
HETATM   28 CL   UNL     1      -3.260  -4.906 -33.989  1.00  0.00    -0.083 Cl
HETATM   29  C   UNL     1      -3.575  -2.568 -32.716  1.00  0.00     0.026 A 
HETATM   30  C   UNL     1      -4.216  -1.362 -32.416  1.00  0.00     0.011 A 
ENDBRANCH   6  23
TORSDOF 6
ENDMDL
MODEL 9
REMARK VINA RESULT:      -7.5      4.392      5.768
REMARK  6 active torsions:
REMARK  status: ('A' for Active; 'I' for Inactive)
REMARK    1  A    between atoms: O_2  and  C_3 
REMARK    2  A    between atoms: C_3  and  C_4 
REMARK    3  A    between atoms: C_4  and  N_5 
REMARK       I    between atoms: N_5  and  C_6 
REMARK    4  A    between atoms: C_6  and  C_7 
REMARK    5  A    between atoms: C_12  and  C_13 
REMARK    6  A    between atoms: C_22  and  C_23 
ROOT
HETATM    1  C   UNL     1      -8.907   1.415 -32.644  1.00  0.00     0.148 A 
HETATM    2  N   UNL     1      -7.890   0.576 -32.951  1.00  0.00    -0.165 NA
HETATM    3  N   UNL     1      -6.810   1.206 -32.462  1.00  0.00    -0.240 N 
HETATM    4  C   UNL     1      -7.070   2.441 -31.938  1.00  0.00     0.123 A 
HETATM    5  N   UNL     1      -6.075   3.251 -31.517  1.00  0.00    -0.366 N 
HETATM    6  C   UNL     1      -4.670   2.864 -31.600  1.00  0.00     0.118 C 
HETATM    7  C   UNL     1      -4.458   1.792 -32.689  1.00  0.00     0.066 C 
HETATM    8  C   UNL     1      -5.477   0.647 -32.570  1.00  0.00     0.221 C 
HETATM    9  C   UNL     1      -8.430   2.587 -31.990  1.00  0.00     0.088 A 
HETATM   10  H   UNL     1      -6.278   4.099 -30.987  1.00  0.00     0.161 HD
ENDROOT
BRANCH   1  11
HETATM   11  C   UNL     1     -10.304   1.118 -32.996  1.00  0.00     0.272 C 
HETATM   12  N   UNL     1     -11.058   2.242 -33.252  1.00  0.00    -0.354 N 
HETATM   13  H   UNL     1     -10.609   3.128 -33.036  1.00  0.00     0.162 HD
HETATM   14  O   UNL     1     -10.756  -0.023 -33.031  1.00  0.00    -0.266 OA
BRANCH  12  15
HETATM   15  C   UNL     1     -12.492   2.189 -33.439  1.00  0.00     0.149 C 
BRANCH  15  16
HETATM   16  C   UNL     1     -12.885   2.030 -34.909  1.00  0.00     0.186 C 
BRANCH  16  17
HETATM   17  O   UNL     1     -14.054   1.206 -34.997  1.00  0.00    -0.394 OA
HETATM   18  C   UNL     1     -14.261   0.470 -33.800  1.00  0.00     0.201 C 
ENDBRANCH  16  17
ENDBRANCH  15  16
ENDBRANCH  12  15
ENDBRANCH   1  11
BRANCH   8  19
HETATM   19  C   UNL     1      -5.201  -0.254 -31.387  1.00  0.00     0.409 C 
HETATM   20  F   UNL     1      -6.202  -0.248 -30.481  1.00  0.00    -0.169 F 
HETATM   21  F   UNL     1      -5.074  -1.540 -31.812  1.00  0.00    -0.169 F 
HETATM   22  F   UNL     1      -4.055   0.047 -30.740  1.00  0.00    -0.169 F 
ENDBRANCH   8  19
BRANCH   6  23
HETATM   23  C   UNL     1      -3.822   4.092 -31.896  1.00  0.00    -0.034 A 
HETATM   24  C   UNL     1      -3.028   4.166 -33.056  1.00  0.00     0.034 A 
HETATM   25  C   UNL     1      -2.235   5.288 -33.318  1.00  0.00     0.056 A 
HETATM   26 CL   UNL     1      -1.299   5.291 -34.771  1.00  0.00    -0.083 Cl
HETATM   27  C   UNL     1      -2.220   6.352 -32.414  1.00  0.00     0.055 A 
HETATM   28 CL   UNL     1      -1.264   7.770 -32.663  1.00  0.00    -0.083 Cl
HETATM   29  C   UNL     1      -2.998   6.288 -31.254  1.00  0.00     0.026 A 
HETATM   30  C   UNL     1      -3.793   5.167 -30.996  1.00  0.00     0.011 A 
ENDBRANCH   6  23
TORSDOF 6
ENDMDL
MODEL 10
REMARK VINA RESULT:      -7.5      4.563      6.283
REMARK  6 active torsions:
REMARK  status: ('A' for Active; 'I' for Inactive)
REMARK    1  A    between atoms: O_2  and  C_3 
REMARK    2  A    between atoms: C_3  and  C_4 
REMARK    3  A    between atoms: C_4  and  N_5 
REMARK       I    between atoms: N_5  and  C_6 
REMARK    4  A    between atoms: C_6  and  C_7 
REMARK    5  A    between atoms: C_12  and  C_13 
REMARK    6  A    between atoms: C_22  and  C_23 
ROOT
HETATM    1  C   UNL     1      -5.442   4.315 -31.447  1.00  0.00     0.148 A 
HETATM    2  N   UNL     1      -6.063   4.299 -32.650  1.00  0.00    -0.165 NA
HETATM    3  N   UNL     1      -6.327   2.998 -32.846  1.00  0.00    -0.240 N 
HETATM    4  C   UNL     1      -5.831   2.172 -31.876  1.00  0.00     0.123 A 
HETATM    5  N   UNL     1      -5.907   0.829 -31.989  1.00  0.00    -0.366 N 
HETATM    6  C   UNL     1      -6.513   0.178 -33.148  1.00  0.00     0.118 C 
HETATM    7  C   UNL     1      -6.490   1.111 -34.376  1.00  0.00     0.066 C 
HETATM    8  C   UNL     1      -7.004   2.519 -34.035  1.00  0.00     0.221 C 
HETATM    9  C   UNL     1      -5.296   2.997 -30.925  1.00  0.00     0.088 A 
HETATM   10  H   UNL     1      -5.680   0.223 -31.200  1.00  0.00     0.161 HD
ENDROOT
BRANCH   1  11
HETATM   11  C   UNL     1      -4.967   5.559 -30.824  1.00  0.00     0.272 C 
HETATM   12  N   UNL     1      -4.845   5.478 -29.454  1.00  0.00    -0.354 N 
HETATM   13  H   UNL     1      -5.224   4.634 -29.031  1.00  0.00     0.162 HD
HETATM   14  O   UNL     1      -4.728   6.578 -31.465  1.00  0.00    -0.266 OA
BRANCH  12  15
HETATM   15  C   UNL     1      -4.570   6.634 -28.629  1.00  0.00     0.149 C 
BRANCH  15  16
HETATM   16  C   UNL     1      -5.314   6.589 -27.292  1.00  0.00     0.186 C 
BRANCH  16  17
HETATM   17  O   UNL     1      -5.896   7.872 -27.034  1.00  0.00    -0.394 OA
HETATM   18  C   UNL     1      -7.020   8.110 -27.870  1.00  0.00     0.201 C 
ENDBRANCH  16  17
ENDBRANCH  15  16
ENDBRANCH  12  15
ENDBRANCH   1  11
BRANCH   8  19
HETATM   19  C   UNL     1      -8.501   2.554 -33.822  1.00  0.00     0.409 C 
HETATM   20  F   UNL     1      -9.132   1.498 -34.380  1.00  0.00    -0.169 F 
HETATM   21  F   UNL     1      -8.774   2.507 -32.491  1.00  0.00    -0.169 F 
HETATM   22  F   UNL     1      -9.083   3.678 -34.291  1.00  0.00    -0.169 F 
ENDBRANCH   8  19
BRANCH   6  23
HETATM   23  C   UNL     1      -5.769  -1.113 -33.451  1.00  0.00    -0.034 A 
HETATM   24  C   UNL     1      -6.338  -2.106 -34.271  1.00  0.00     0.034 A 
HETATM   25  C   UNL     1      -5.661  -3.301 -34.534  1.00  0.00     0.056 A 
HETATM   26 CL   UNL     1      -6.437  -4.457 -35.557  1.00  0.00    -0.083 Cl
HETATM   27  C   UNL     1      -4.402  -3.523 -33.971  1.00  0.00     0.055 A 
HETATM   28 CL   UNL     1      -3.504  -4.973 -34.245  1.00  0.00    -0.083 Cl
HETATM   29  C   UNL     1      -3.829  -2.548 -33.149  1.00  0.00     0.026 A 
HETATM   30  C   UNL     1      -4.506  -1.352 -32.890  1.00  0.00     0.011 A 
ENDBRANCH   6  23
TORSDOF 6
ENDMDL
