MODEL 1
REMARK VINA RESULT:      -8.1      0.000      0.000
REMARK  3 active torsions:
REMARK  status: ('A' for Active; 'I' for Inactive)
REMARK    1  A    between atoms: C_6  and  N_7 
REMARK       I    between atoms: N_7  and  C_8 
REMARK    2  A    between atoms: C_8  and  C_9 
REMARK    3  A    between atoms: C_9  and  C_10 
ROOT
HETATM    1  C   UNL     1      -8.668   0.619 -32.225  1.00  0.00     0.286 C 
HETATM    2  N   UNL     1      -9.060   0.633 -33.698  1.00  0.00    -0.056 N 
HETATM    3  H   UNL     1      -8.327   1.208 -34.169  1.00  0.00     0.278 HD
HETATM    4  H   UNL     1      -8.989  -0.303 -34.113  1.00  0.00     0.278 HD
HETATM    5  C   UNL     1     -10.394   1.262 -33.994  1.00  0.00     0.209 C 
HETATM    6  C   UNL     1     -10.462   2.669 -33.347  1.00  0.00     0.115 C 
HETATM    7  N   UNL     1     -10.024   2.681 -31.952  1.00  0.00    -0.353 N 
HETATM    8  C   UNL     1      -8.947   1.953 -31.506  1.00  0.00     0.249 C 
HETATM    9  O   UNL     1      -8.329   2.317 -30.512  1.00  0.00    -0.271 OA
HETATM   10  C   UNL     1     -11.519   0.326 -33.546  1.00  0.00     0.035 C 
HETATM   11  C   UNL     1     -12.885   0.979 -33.741  1.00  0.00     0.002 C 
HETATM   12  C   UNL     1     -12.966   2.322 -33.021  1.00  0.00     0.002 C 
HETATM   13  C   UNL     1     -11.863   3.274 -33.485  1.00  0.00     0.027 C 
HETATM   14  H   UNL     1     -10.124   3.557 -31.440  1.00  0.00     0.163 HD
ENDROOT
BRANCH   1  15
HETATM   15  C   UNL     1      -7.213   0.163 -32.025  1.00  0.00     0.146 C 
BRANCH  15  16
HETATM   16  C   UNL     1      -6.314   0.657 -33.126  1.00  0.00     0.224 C 
HETATM   17  N   UNL     1      -5.679  -0.175 -33.990  1.00  0.00    -0.327 N 
HETATM   18  H   UNL     1      -5.124   0.351 -34.661  1.00  0.00     0.169 HD
HETATM   19  O   UNL     1      -6.214   1.880 -33.301  1.00  0.00    -0.273 OA
BRANCH  17  20
HETATM   20  C   UNL     1      -5.626  -1.575 -34.161  1.00  0.00     0.036 A 
HETATM   21  C   UNL     1      -4.532  -2.395 -33.893  1.00  0.00     0.053 A 
HETATM   22  C   UNL     1      -4.611  -3.777 -34.117  1.00  0.00     0.036 A 
HETATM   23  C   UNL     1      -5.778  -4.362 -34.595  1.00  0.00     0.024 A 
HETATM   24 CL   UNL     1      -3.236  -4.763 -33.791  1.00  0.00    -0.084 Cl
HETATM   25  C   UNL     1      -6.881  -3.557 -34.854  1.00  0.00     0.004 A 
HETATM   26  C   UNL     1      -6.802  -2.177 -34.640  1.00  0.00     0.029 A 
ENDBRANCH  17  20
ENDBRANCH  15  16
ENDBRANCH   1  15
TORSDOF 3
ENDMDL
MODEL 2
REMARK VINA RESULT:      -8.0      1.686      2.219
REMARK  3 active torsions:
REMARK  status: ('A' for Active; 'I' for Inactive)
REMARK    1  A    between atoms: C_6  and  N_7 
REMARK       I    between atoms: N_7  and  C_8 
REMARK    2  A    between atoms: C_8  and  C_9 
REMARK    3  A    between atoms: C_9  and  C_10 
ROOT
HETATM    1  C   UNL     1      -7.006   0.301 -31.799  1.00  0.00     0.286 C 
HETATM    2  N   UNL     1      -7.232   0.390 -33.304  1.00  0.00    -0.056 N 
HETATM    3  H   UNL     1      -6.384   0.866 -33.680  1.00  0.00     0.278 HD
HETATM    4  H   UNL     1      -7.243  -0.541 -33.736  1.00  0.00     0.278 HD
HETATM    5  C   UNL     1      -8.432   1.198 -33.717  1.00  0.00     0.209 C 
HETATM    6  C   UNL     1      -8.380   2.591 -33.041  1.00  0.00     0.115 C 
HETATM    7  N   UNL     1      -8.096   2.524 -31.608  1.00  0.00    -0.353 N 
HETATM    8  C   UNL     1      -7.179   1.649 -31.074  1.00  0.00     0.249 C 
HETATM    9  O   UNL     1      -6.628   1.912 -30.011  1.00  0.00    -0.271 OA
HETATM   10  C   UNL     1      -9.713   0.417 -33.416  1.00  0.00     0.035 C 
HETATM   11  C   UNL     1     -10.951   1.252 -33.732  1.00  0.00     0.002 C 
HETATM   12  C   UNL     1     -10.928   2.582 -32.986  1.00  0.00     0.002 C 
HETATM   13  C   UNL     1      -9.665   3.383 -33.305  1.00  0.00     0.027 C 
HETATM   14  H   UNL     1      -8.132   3.397 -31.084  1.00  0.00     0.163 HD
ENDROOT
BRANCH   1  15
HETATM   15  C   UNL     1      -5.654  -0.351 -31.463  1.00  0.00     0.146 C 
BRANCH  15  16
HETATM   16  C   UNL     1      -4.591   0.010 -32.465  1.00  0.00     0.224 C 
HETATM   17  N   UNL     1      -4.096  -0.874 -33.368  1.00  0.00    -0.327 N 
HETATM   18  H   UNL     1      -3.392  -0.436 -33.958  1.00  0.00     0.169 HD
HETATM   19  O   UNL     1      -4.211   1.189 -32.521  1.00  0.00    -0.273 OA
BRANCH  17  20
HETATM   20  C   UNL     1      -4.343  -2.232 -33.664  1.00  0.00     0.036 A 
HETATM   21  C   UNL     1      -5.336  -2.721 -34.510  1.00  0.00     0.053 A 
HETATM   22  C   UNL     1      -5.478  -4.101 -34.711  1.00  0.00     0.036 A 
HETATM   23  C   UNL     1      -4.629  -5.009 -34.088  1.00  0.00     0.024 A 
HETATM   24 CL   UNL     1      -6.725  -4.677 -35.751  1.00  0.00    -0.084 Cl
HETATM   25  C   UNL     1      -3.626  -4.533 -33.253  1.00  0.00     0.004 A 
HETATM   26  C   UNL     1      -3.487  -3.157 -33.043  1.00  0.00     0.029 A 
ENDBRANCH  17  20
ENDBRANCH  15  16
ENDBRANCH   1  15
TORSDOF 3
ENDMDL
MODEL 3
REMARK VINA RESULT:      -7.9      8.965     11.015
REMARK  3 active torsions:
REMARK  status: ('A' for Active; 'I' for Inactive)
REMARK    1  A    between atoms: C_6  and  N_7 
REMARK       I    between atoms: N_7  and  C_8 
REMARK    2  A    between atoms: C_8  and  C_9 
REMARK    3  A    between atoms: C_9  and  C_10 
ROOT
HETATM    1  C   UNL     1      -1.229   6.234 -31.942  1.00  0.00     0.286 C 
HETATM    2  N   UNL     1      -1.108   4.845 -32.558  1.00  0.00    -0.056 N 
HETATM    3  H   UNL     1      -0.277   4.897 -33.186  1.00  0.00     0.278 HD
HETATM    4  H   UNL     1      -0.878   4.141 -31.848  1.00  0.00     0.278 HD
HETATM    5  C   UNL     1      -2.285   4.418 -33.392  1.00  0.00     0.209 C 
HETATM    6  C   UNL     1      -2.602   5.509 -34.445  1.00  0.00     0.115 C 
HETATM    7  N   UNL     1      -2.654   6.856 -33.878  1.00  0.00    -0.353 N 
HETATM    8  C   UNL     1      -1.767   7.294 -32.923  1.00  0.00     0.249 C 
HETATM    9  O   UNL     1      -1.525   8.490 -32.813  1.00  0.00    -0.271 OA
HETATM   10  C   UNL     1      -3.469   4.079 -32.483  1.00  0.00     0.035 C 
HETATM   11  C   UNL     1      -4.710   3.738 -33.304  1.00  0.00     0.002 C 
HETATM   12  C   UNL     1      -5.062   4.863 -34.272  1.00  0.00     0.002 C 
HETATM   13  C   UNL     1      -3.894   5.187 -35.204  1.00  0.00     0.027 C 
HETATM   14  H   UNL     1      -2.942   7.612 -34.498  1.00  0.00     0.163 HD
ENDROOT
BRANCH   1  15
HETATM   15  C   UNL     1       0.089   6.686 -31.290  1.00  0.00     0.146 C 
BRANCH  15  16
HETATM   16  C   UNL     1       0.658   5.628 -30.384  1.00  0.00     0.224 C 
HETATM   17  N   UNL     1       0.701   5.758 -29.033  1.00  0.00    -0.327 N 
HETATM   18  H   UNL     1       1.116   4.936 -28.602  1.00  0.00     0.169 HD
HETATM   19  O   UNL     1       1.029   4.558 -30.888  1.00  0.00    -0.273 OA
BRANCH  17  20
HETATM   20  C   UNL     1       0.299   6.756 -28.119  1.00  0.00     0.036 A 
HETATM   21  C   UNL     1      -0.766   6.671 -27.225  1.00  0.00     0.053 A 
HETATM   22  C   UNL     1      -1.064   7.744 -26.374  1.00  0.00     0.036 A 
HETATM   23  C   UNL     1      -0.301   8.906 -26.390  1.00  0.00     0.024 A 
HETATM   24 CL   UNL     1      -2.396   7.614 -25.290  1.00  0.00    -0.084 Cl
HETATM   25  C   UNL     1       0.772   8.999 -27.268  1.00  0.00     0.004 A 
HETATM   26  C   UNL     1       1.066   7.934 -28.124  1.00  0.00     0.029 A 
ENDBRANCH  17  20
ENDBRANCH  15  16
ENDBRANCH   1  15
TORSDOF 3
ENDMDL
MODEL 4
REMARK VINA RESULT:      -7.8      3.596      5.598
REMARK  3 active torsions:
REMARK  status: ('A' for Active; 'I' for Inactive)
REMARK    1  A    between atoms: C_6  and  N_7 
REMARK       I    between atoms: N_7  and  C_8 
REMARK    2  A    between atoms: C_8  and  C_9 
REMARK    3  A    between atoms: C_9  and  C_10 
ROOT
HETATM    1  C   UNL     1      -5.758   3.038 -33.665  1.00  0.00     0.286 C 
HETATM    2  N   UNL     1      -5.053   2.581 -32.393  1.00  0.00    -0.056 N 
HETATM    3  H   UNL     1      -5.816   2.430 -31.698  1.00  0.00     0.278 HD
HETATM    4  H   UNL     1      -4.609   1.665 -32.521  1.00  0.00     0.278 HD
HETATM    5  C   UNL     1      -4.092   3.579 -31.807  1.00  0.00     0.209 C 
HETATM    6  C   UNL     1      -4.799   4.946 -31.636  1.00  0.00     0.115 C 
HETATM    7  N   UNL     1      -5.536   5.365 -32.827  1.00  0.00    -0.353 N 
HETATM    8  C   UNL     1      -6.270   4.490 -33.592  1.00  0.00     0.249 C 
HETATM    9  O   UNL     1      -7.212   4.900 -34.260  1.00  0.00    -0.271 OA
HETATM   10  C   UNL     1      -2.827   3.646 -32.666  1.00  0.00     0.035 C 
HETATM   11  C   UNL     1      -1.873   4.722 -32.155  1.00  0.00     0.002 C 
HETATM   12  C   UNL     1      -2.561   6.081 -32.079  1.00  0.00     0.002 C 
HETATM   13  C   UNL     1      -3.809   6.030 -31.197  1.00  0.00     0.027 C 
HETATM   14  H   UNL     1      -5.954   6.295 -32.814  1.00  0.00     0.163 HD
ENDROOT
BRANCH   1  15
HETATM   15  C   UNL     1      -6.874   2.066 -34.080  1.00  0.00     0.146 C 
BRANCH  15  16
HETATM   16  C   UNL     1      -7.448   1.332 -32.898  1.00  0.00     0.224 C 
HETATM   17  N   UNL     1      -7.208   0.018 -32.657  1.00  0.00    -0.327 N 
HETATM   18  H   UNL     1      -7.680  -0.288 -31.810  1.00  0.00     0.169 HD
HETATM   19  O   UNL     1      -8.103   1.977 -32.066  1.00  0.00    -0.273 OA
BRANCH  17  20
HETATM   20  C   UNL     1      -6.459  -0.988 -33.304  1.00  0.00     0.036 A 
HETATM   21  C   UNL     1      -6.977  -2.056 -34.034  1.00  0.00     0.053 A 
HETATM   22  C   UNL     1      -6.118  -2.995 -34.621  1.00  0.00     0.036 A 
HETATM   23  C   UNL     1      -4.737  -2.878 -34.503  1.00  0.00     0.024 A 
HETATM   24 CL   UNL     1      -6.788  -4.313 -35.505  1.00  0.00    -0.084 Cl
HETATM   25  C   UNL     1      -4.208  -1.811 -33.789  1.00  0.00     0.004 A 
HETATM   26  C   UNL     1      -5.063  -0.877 -33.195  1.00  0.00     0.029 A 
ENDBRANCH  17  20
ENDBRANCH  15  16
ENDBRANCH   1  15
TORSDOF 3
ENDMDL
MODEL 5
REMARK VINA RESULT:      -7.6      4.988      7.204
REMARK  3 active torsions:
REMARK  status: ('A' for Active; 'I' for Inactive)
REMARK    1  A    between atoms: C_6  and  N_7 
REMARK       I    between atoms: N_7  and  C_8 
REMARK    2  A    between atoms: C_8  and  C_9 
REMARK    3  A    between atoms: C_9  and  C_10 
ROOT
HETATM    1  C   UNL     1      -4.246   4.368 -33.401  1.00  0.00     0.286 C 
HETATM    2  N   UNL     1      -4.266   4.919 -31.980  1.00  0.00    -0.056 N 
HETATM    3  H   UNL     1      -5.093   5.554 -31.946  1.00  0.00     0.278 HD
HETATM    4  H   UNL     1      -4.455   4.179 -31.295  1.00  0.00     0.278 HD
HETATM    5  C   UNL     1      -3.056   5.725 -31.595  1.00  0.00     0.209 C 
HETATM    6  C   UNL     1      -2.804   6.826 -32.656  1.00  0.00     0.115 C 
HETATM    7  N   UNL     1      -2.848   6.322 -34.028  1.00  0.00    -0.353 N 
HETATM    8  C   UNL     1      -3.771   5.394 -34.448  1.00  0.00     0.249 C 
HETATM    9  O   UNL     1      -4.094   5.341 -35.629  1.00  0.00    -0.271 OA
HETATM   10  C   UNL     1      -1.860   4.795 -31.380  1.00  0.00     0.035 C 
HETATM   11  C   UNL     1      -0.591   5.591 -31.086  1.00  0.00     0.002 C 
HETATM   12  C   UNL     1      -0.308   6.608 -32.187  1.00  0.00     0.002 C 
HETATM   13  C   UNL     1      -1.486   7.562 -32.388  1.00  0.00     0.027 C 
HETATM   14  H   UNL     1      -2.606   6.975 -34.773  1.00  0.00     0.163 HD
ENDROOT
BRANCH   1  15
HETATM   15  C   UNL     1      -5.596   3.746 -33.792  1.00  0.00     0.146 C 
BRANCH  15  16
HETATM   16  C   UNL     1      -6.342   3.224 -32.593  1.00  0.00     0.224 C 
HETATM   17  N   UNL     1      -6.317   1.920 -32.218  1.00  0.00    -0.327 N 
HETATM   18  H   UNL     1      -6.878   1.770 -31.383  1.00  0.00     0.169 HD
HETATM   19  O   UNL     1      -6.938   4.036 -31.870  1.00  0.00    -0.273 OA
BRANCH  17  20
HETATM   20  C   UNL     1      -5.694   0.756 -32.717  1.00  0.00     0.036 A 
HETATM   21  C   UNL     1      -6.311  -0.259 -33.446  1.00  0.00     0.053 A 
HETATM   22  C   UNL     1      -5.574  -1.371 -33.876  1.00  0.00     0.036 A 
HETATM   23  C   UNL     1      -4.215  -1.482 -33.601  1.00  0.00     0.024 A 
HETATM   24 CL   UNL     1      -6.368  -2.617 -34.762  1.00  0.00    -0.084 Cl
HETATM   25  C   UNL     1      -3.585  -0.471 -32.887  1.00  0.00     0.004 A 
HETATM   26  C   UNL     1      -4.320   0.635 -32.449  1.00  0.00     0.029 A 
ENDBRANCH  17  20
ENDBRANCH  15  16
ENDBRANCH   1  15
TORSDOF 3
ENDMDL
MODEL 6
REMARK VINA RESULT:      -7.5      4.959      7.597
REMARK  3 active torsions:
REMARK  status: ('A' for Active; 'I' for Inactive)
REMARK    1  A    between atoms: C_6  and  N_7 
REMARK       I    between atoms: N_7  and  C_8 
REMARK    2  A    between atoms: C_8  and  C_9 
REMARK    3  A    between atoms: C_9  and  C_10 
ROOT
HETATM    1  C   UNL     1      -5.319   2.195 -32.733  1.00  0.00     0.286 C 
HETATM    2  N   UNL     1      -6.330   1.162 -32.251  1.00  0.00    -0.056 N 
HETATM    3  H   UNL     1      -6.383   1.294 -31.217  1.00  0.00     0.278 HD
HETATM    4  H   UNL     1      -7.271   1.365 -32.606  1.00  0.00     0.278 HD
HETATM    5  C   UNL     1      -5.945  -0.270 -32.509  1.00  0.00     0.209 C 
HETATM    6  C   UNL     1      -4.519  -0.533 -31.963  1.00  0.00     0.115 C 
HETATM    7  N   UNL     1      -3.553   0.489 -32.363  1.00  0.00    -0.353 N 
HETATM    8  C   UNL     1      -3.860   1.829 -32.396  1.00  0.00     0.249 C 
HETATM    9  O   UNL     1      -2.973   2.665 -32.271  1.00  0.00    -0.271 OA
HETATM   10  C   UNL     1      -6.101  -0.588 -33.998  1.00  0.00     0.035 C 
HETATM   11  C   UNL     1      -5.623  -2.004 -34.308  1.00  0.00     0.002 C 
HETATM   12  C   UNL     1      -4.185  -2.218 -33.846  1.00  0.00     0.002 C 
HETATM   13  C   UNL     1      -4.027  -1.931 -32.352  1.00  0.00     0.027 C 
HETATM   14  H   UNL     1      -2.578   0.333 -32.111  1.00  0.00     0.163 HD
ENDROOT
BRANCH   1  15
HETATM   15  C   UNL     1      -5.672   3.611 -32.247  1.00  0.00     0.146 C 
BRANCH  15  16
HETATM   16  C   UNL     1      -6.117   4.498 -33.378  1.00  0.00     0.224 C 
HETATM   17  N   UNL     1      -5.275   5.336 -34.034  1.00  0.00    -0.327 N 
HETATM   18  H   UNL     1      -5.765   5.845 -34.766  1.00  0.00     0.169 HD
HETATM   19  O   UNL     1      -7.286   4.399 -33.780  1.00  0.00    -0.273 OA
BRANCH  17  20
HETATM   20  C   UNL     1      -3.901   5.645 -33.929  1.00  0.00     0.036 A 
HETATM   21  C   UNL     1      -3.312   6.455 -32.961  1.00  0.00     0.053 A 
HETATM   22  C   UNL     1      -1.930   6.688 -32.977  1.00  0.00     0.036 A 
HETATM   23  C   UNL     1      -1.116   6.108 -33.944  1.00  0.00     0.024 A 
HETATM   24 CL   UNL     1      -1.233   7.707 -31.776  1.00  0.00    -0.084 Cl
HETATM   25  C   UNL     1      -1.688   5.287 -34.907  1.00  0.00     0.004 A 
HETATM   26  C   UNL     1      -3.068   5.060 -34.899  1.00  0.00     0.029 A 
ENDBRANCH  17  20
ENDBRANCH  15  16
ENDBRANCH   1  15
TORSDOF 3
ENDMDL
MODEL 7
REMARK VINA RESULT:      -7.5      5.649      7.775
REMARK  3 active torsions:
REMARK  status: ('A' for Active; 'I' for Inactive)
REMARK    1  A    between atoms: C_6  and  N_7 
REMARK       I    between atoms: N_7  and  C_8 
REMARK    2  A    between atoms: C_8  and  C_9 
REMARK    3  A    between atoms: C_9  and  C_10 
ROOT
HETATM    1  C   UNL     1      -4.978   3.349 -33.375  1.00  0.00     0.286 C 
HETATM    2  N   UNL     1      -6.474   3.081 -33.257  1.00  0.00    -0.056 N 
HETATM    3  H   UNL     1      -6.750   3.479 -32.333  1.00  0.00     0.278 HD
HETATM    4  H   UNL     1      -7.005   3.609 -33.958  1.00  0.00     0.278 HD
HETATM    5  C   UNL     1      -6.859   1.626 -33.261  1.00  0.00     0.209 C 
HETATM    6  C   UNL     1      -6.032   0.865 -32.195  1.00  0.00     0.115 C 
HETATM    7  N   UNL     1      -4.602   1.165 -32.254  1.00  0.00    -0.353 N 
HETATM    8  C   UNL     1      -4.119   2.433 -32.482  1.00  0.00     0.249 C 
HETATM    9  O   UNL     1      -3.007   2.748 -32.076  1.00  0.00    -0.271 OA
HETATM   10  C   UNL     1      -6.713   1.055 -34.674  1.00  0.00     0.035 C 
HETATM   11  C   UNL     1      -7.000  -0.444 -34.692  1.00  0.00     0.002 C 
HETATM   12  C   UNL     1      -6.113  -1.190 -33.701  1.00  0.00     0.002 C 
HETATM   13  C   UNL     1      -6.275  -0.646 -32.281  1.00  0.00     0.027 C 
HETATM   14  H   UNL     1      -3.988   0.635 -31.638  1.00  0.00     0.163 HD
ENDROOT
BRANCH   1  15
HETATM   15  C   UNL     1      -4.644   4.833 -33.147  1.00  0.00     0.146 C 
BRANCH  15  16
HETATM   16  C   UNL     1      -3.847   5.410 -34.285  1.00  0.00     0.224 C 
HETATM   17  N   UNL     1      -2.650   6.025 -34.111  1.00  0.00    -0.327 N 
HETATM   18  H   UNL     1      -2.270   6.341 -35.000  1.00  0.00     0.169 HD
HETATM   19  O   UNL     1      -4.264   5.244 -35.441  1.00  0.00    -0.273 OA
BRANCH  17  20
HETATM   20  C   UNL     1      -1.834   6.310 -32.994  1.00  0.00     0.036 A 
HETATM   21  C   UNL     1      -0.832   5.491 -32.478  1.00  0.00     0.053 A 
HETATM   22  C   UNL     1      -0.099   5.892 -31.352  1.00  0.00     0.036 A 
HETATM   23  C   UNL     1      -0.341   7.115 -30.737  1.00  0.00     0.024 A 
HETATM   24 CL   UNL     1       1.123   4.851 -30.728  1.00  0.00    -0.084 Cl
HETATM   25  C   UNL     1      -1.329   7.947 -31.249  1.00  0.00     0.004 A 
HETATM   26  C   UNL     1      -2.068   7.546 -32.367  1.00  0.00     0.029 A 
ENDBRANCH  17  20
ENDBRANCH  15  16
ENDBRANCH   1  15
TORSDOF 3
ENDMDL
MODEL 8
REMARK VINA RESULT:      -7.4      4.567      6.540
REMARK  3 active torsions:
REMARK  status: ('A' for Active; 'I' for Inactive)
REMARK    1  A    between atoms: C_6  and  N_7 
REMARK       I    between atoms: N_7  and  C_8 
REMARK    2  A    between atoms: C_8  and  C_9 
REMARK    3  A    between atoms: C_9  and  C_10 
ROOT
HETATM    1  C   UNL     1      -4.816   4.017 -32.747  1.00  0.00     0.286 C 
HETATM    2  N   UNL     1      -3.419   3.428 -32.594  1.00  0.00    -0.056 N 
HETATM    3  H   UNL     1      -3.376   3.080 -31.611  1.00  0.00     0.278 HD
HETATM    4  H   UNL     1      -3.295   2.600 -33.188  1.00  0.00     0.278 HD
HETATM    5  C   UNL     1      -2.294   4.409 -32.781  1.00  0.00     0.209 C 
HETATM    6  C   UNL     1      -2.522   5.643 -31.872  1.00  0.00     0.115 C 
HETATM    7  N   UNL     1      -3.880   6.177 -31.959  1.00  0.00    -0.353 N 
HETATM    8  C   UNL     1      -4.991   5.371 -32.033  1.00  0.00     0.249 C 
HETATM    9  O   UNL     1      -6.077   5.785 -31.642  1.00  0.00    -0.271 OA
HETATM   10  C   UNL     1      -2.150   4.757 -34.264  1.00  0.00     0.035 C 
HETATM   11  C   UNL     1      -1.082   5.827 -34.475  1.00  0.00     0.002 C 
HETATM   12  C   UNL     1      -1.371   7.071 -33.641  1.00  0.00     0.002 C 
HETATM   13  C   UNL     1      -1.486   6.737 -32.154  1.00  0.00     0.027 C 
HETATM   14  H   UNL     1      -4.075   7.040 -31.452  1.00  0.00     0.163 HD
ENDROOT
BRANCH   1  15
HETATM   15  C   UNL     1      -5.907   3.015 -32.333  1.00  0.00     0.146 C 
BRANCH  15  16
HETATM   16  C   UNL     1      -5.442   2.103 -31.229  1.00  0.00     0.224 C 
HETATM   17  N   UNL     1      -5.426   0.751 -31.346  1.00  0.00    -0.327 N 
HETATM   18  H   UNL     1      -5.074   0.317 -30.496  1.00  0.00     0.169 HD
HETATM   19  O   UNL     1      -4.976   2.614 -30.200  1.00  0.00    -0.273 OA
BRANCH  17  20
HETATM   20  C   UNL     1      -5.777  -0.161 -32.365  1.00  0.00     0.036 A 
HETATM   21  C   UNL     1      -4.923  -1.071 -32.983  1.00  0.00     0.053 A 
HETATM   22  C   UNL     1      -5.400  -1.918 -33.992  1.00  0.00     0.036 A 
HETATM   23  C   UNL     1      -6.732  -1.882 -34.390  1.00  0.00     0.024 A 
HETATM   24 CL   UNL     1      -4.316  -3.023 -34.748  1.00  0.00    -0.084 Cl
HETATM   25  C   UNL     1      -7.598  -0.987 -33.773  1.00  0.00     0.004 A 
HETATM   26  C   UNL     1      -7.122  -0.135 -32.771  1.00  0.00     0.029 A 
ENDBRANCH  17  20
ENDBRANCH  15  16
ENDBRANCH   1  15
TORSDOF 3
ENDMDL
MODEL 9
REMARK VINA RESULT:      -7.4      1.696      2.160
REMARK  3 active torsions:
REMARK  status: ('A' for Active; 'I' for Inactive)
REMARK    1  A    between atoms: C_6  and  N_7 
REMARK       I    between atoms: N_7  and  C_8 
REMARK    2  A    between atoms: C_8  and  C_9 
REMARK    3  A    between atoms: C_9  and  C_10 
ROOT
HETATM    1  C   UNL     1      -9.323   1.049 -34.426  1.00  0.00     0.286 C 
HETATM    2  N   UNL     1      -9.427   2.513 -34.835  1.00  0.00    -0.056 N 
HETATM    3  H   UNL     1      -8.537   2.950 -34.511  1.00  0.00     0.278 HD
HETATM    4  H   UNL     1      -9.432   2.617 -35.856  1.00  0.00     0.278 HD
HETATM    5  C   UNL     1     -10.563   3.269 -34.203  1.00  0.00     0.209 C 
HETATM    6  C   UNL     1     -10.522   3.083 -32.665  1.00  0.00     0.115 C 
HETATM    7  N   UNL     1     -10.355   1.688 -32.260  1.00  0.00    -0.353 N 
HETATM    8  C   UNL     1      -9.511   0.821 -32.914  1.00  0.00     0.249 C 
HETATM    9  O   UNL     1      -9.039  -0.141 -32.319  1.00  0.00    -0.271 OA
HETATM   10  C   UNL     1     -11.889   2.840 -34.837  1.00  0.00     0.035 C 
HETATM   11  C   UNL     1     -13.071   3.516 -34.148  1.00  0.00     0.002 C 
HETATM   12  C   UNL     1     -13.065   3.247 -32.646  1.00  0.00     0.002 C 
HETATM   13  C   UNL     1     -11.756   3.700 -31.999  1.00  0.00     0.027 C 
HETATM   14  H   UNL     1     -10.405   1.483 -31.263  1.00  0.00     0.163 HD
ENDROOT
BRANCH   1  15
HETATM   15  C   UNL     1      -8.024   0.403 -34.937  1.00  0.00     0.146 C 
BRANCH  15  16
HETATM   16  C   UNL     1      -6.810   0.967 -34.250  1.00  0.00     0.224 C 
HETATM   17  N   UNL     1      -5.744   0.206 -33.892  1.00  0.00    -0.327 N 
HETATM   18  H   UNL     1      -5.026   0.772 -33.446  1.00  0.00     0.169 HD
HETATM   19  O   UNL     1      -6.746   2.193 -34.077  1.00  0.00    -0.273 OA
BRANCH  17  20
HETATM   20  C   UNL     1      -5.420  -1.163 -34.007  1.00  0.00     0.036 A 
HETATM   21  C   UNL     1      -6.147  -2.125 -34.705  1.00  0.00     0.053 A 
HETATM   22  C   UNL     1      -5.716  -3.458 -34.731  1.00  0.00     0.036 A 
HETATM   23  C   UNL     1      -4.554  -3.850 -34.077  1.00  0.00     0.024 A 
HETATM   24 CL   UNL     1      -6.645  -4.627 -35.591  1.00  0.00    -0.084 Cl
HETATM   25  C   UNL     1      -3.812  -2.899 -33.387  1.00  0.00     0.004 A 
HETATM   26  C   UNL     1      -4.244  -1.569 -33.353  1.00  0.00     0.029 A 
ENDBRANCH  17  20
ENDBRANCH  15  16
ENDBRANCH   1  15
TORSDOF 3
ENDMDL
MODEL 10
REMARK VINA RESULT:      -7.3      3.261      7.029
REMARK  3 active torsions:
REMARK  status: ('A' for Active; 'I' for Inactive)
REMARK    1  A    between atoms: C_6  and  N_7 
REMARK       I    between atoms: N_7  and  C_8 
REMARK    2  A    between atoms: C_8  and  C_9 
REMARK    3  A    between atoms: C_9  and  C_10 
ROOT
HETATM    1  C   UNL     1      -7.105   1.719 -33.331  1.00  0.00     0.286 C 
HETATM    2  N   UNL     1      -7.692   0.426 -32.779  1.00  0.00    -0.056 N 
HETATM    3  H   UNL     1      -7.818   0.598 -31.758  1.00  0.00     0.278 HD
HETATM    4  H   UNL     1      -8.633   0.254 -33.151  1.00  0.00     0.278 HD
HETATM    5  C   UNL     1      -6.814  -0.786 -32.934  1.00  0.00     0.209 C 
HETATM    6  C   UNL     1      -5.404  -0.484 -32.366  1.00  0.00     0.115 C 
HETATM    7  N   UNL     1      -4.857   0.788 -32.836  1.00  0.00    -0.353 N 
HETATM    8  C   UNL     1      -5.622   1.924 -32.964  1.00  0.00     0.249 C 
HETATM    9  O   UNL     1      -5.097   3.029 -32.896  1.00  0.00    -0.271 OA
HETATM   10  C   UNL     1      -6.803  -1.235 -34.397  1.00  0.00     0.035 C 
HETATM   11  C   UNL     1      -5.842  -2.403 -34.605  1.00  0.00     0.002 C 
HETATM   12  C   UNL     1      -4.436  -2.055 -34.124  1.00  0.00     0.002 C 
HETATM   13  C   UNL     1      -4.433  -1.634 -32.654  1.00  0.00     0.027 C 
HETATM   14  H   UNL     1      -3.898   1.010 -32.570  1.00  0.00     0.163 HD
ENDROOT
BRANCH   1  15
HETATM   15  C   UNL     1      -7.955   2.942 -32.947  1.00  0.00     0.146 C 
BRANCH  15  16
HETATM   16  C   UNL     1      -8.913   2.631 -31.829  1.00  0.00     0.224 C 
HETATM   17  N   UNL     1     -10.251   2.502 -32.018  1.00  0.00    -0.327 N 
HETATM   18  H   UNL     1     -10.723   2.286 -31.143  1.00  0.00     0.169 HD
HETATM   19  O   UNL     1      -8.450   2.401 -30.702  1.00  0.00    -0.273 OA
BRANCH  17  20
HETATM   20  C   UNL     1     -11.108   2.593 -33.136  1.00  0.00     0.036 A 
HETATM   21  C   UNL     1     -11.567   3.769 -33.726  1.00  0.00     0.053 A 
HETATM   22  C   UNL     1     -12.426   3.718 -34.832  1.00  0.00     0.036 A 
HETATM   23  C   UNL     1     -12.828   2.502 -35.374  1.00  0.00     0.024 A 
HETATM   24 CL   UNL     1     -12.989   5.189 -35.530  1.00  0.00    -0.084 Cl
HETATM   25  C   UNL     1     -12.367   1.322 -34.804  1.00  0.00     0.004 A 
HETATM   26  C   UNL     1     -11.516   1.370 -33.695  1.00  0.00     0.029 A 
ENDBRANCH  17  20
ENDBRANCH  15  16
ENDBRANCH   1  15
TORSDOF 3
ENDMDL
