MODEL 1
REMARK VINA RESULT:      -8.9      0.000      0.000
REMARK  9 active torsions:
REMARK  status: ('A' for Active; 'I' for Inactive)
REMARK    1  A    between atoms: O_2  and  C_3 
REMARK    2  A    between atoms: C_6  and  C_7 
REMARK    3  A    between atoms: C_13  and  C_14 
REMARK       I    between atoms: C_14  and  N_15 
REMARK    4  A    between atoms: N_15  and  N_16 
REMARK    5  A    between atoms: N_16  and  C_17 
REMARK    6  A    between atoms: C_17  and  N_18 
REMARK    7  A    between atoms: N_18  and  C_19 
REMARK    8  A    between atoms: C_19  and  C_20 
REMARK    9  A    between atoms: C_27  and  C_28 
ROOT
HETATM    1  C   UNL     1      -6.405   1.556 -34.263  1.00  0.00     0.118 C 
HETATM    2  N   UNL     1      -5.474   2.270 -33.399  1.00  0.00    -0.365 N 
HETATM    3  C   UNL     1      -5.748   2.524 -32.097  1.00  0.00     0.138 A 
HETATM    4  N   UNL     1      -7.009   2.354 -31.596  1.00  0.00    -0.240 N 
HETATM    5  N   UNL     1      -7.145   2.772 -30.326  1.00  0.00    -0.181 NA
HETATM    6  C   UNL     1      -5.897   3.121 -29.992  1.00  0.00     0.160 A 
HETATM    7  C   UNL     1      -4.965   2.969 -31.048  1.00  0.00     0.098 A 
HETATM    8  C   UNL     1      -8.137   1.867 -32.365  1.00  0.00     0.221 C 
HETATM    9  C   UNL     1      -7.843   1.959 -33.876  1.00  0.00     0.066 C 
HETATM   10  H   UNL     1      -4.509   2.338 -33.733  1.00  0.00     0.161 HD
ENDROOT
BRANCH   7  11
HETATM   11  C   UNL     1      -3.545   3.260 -31.116  1.00  0.00     0.275 C 
HETATM   12  N   UNL     1      -3.115   4.579 -31.153  1.00  0.00    -0.263 N 
HETATM   13  H   UNL     1      -2.103   4.632 -31.054  1.00  0.00     0.190 HD
HETATM   14  O   UNL     1      -2.696   2.368 -31.161  1.00  0.00    -0.266 OA
BRANCH  12  15
HETATM   15  N   UNL     1      -3.808   5.617 -30.497  1.00  0.00    -0.274 N 
HETATM   16  H   UNL     1      -4.766   5.433 -30.215  1.00  0.00     0.189 HD
BRANCH  15  17
HETATM   17  C   UNL     1      -3.270   6.875 -30.377  1.00  0.00     0.186 C 
HETATM   18  S   UNL     1      -2.570   7.506 -28.997  1.00  0.00    -0.040 SA
BRANCH  17  19
HETATM   19  N   UNL     1      -3.285   7.656 -31.493  1.00  0.00    -0.360 N 
HETATM   20  H   UNL     1      -4.086   8.273 -31.554  1.00  0.00     0.162 HD
BRANCH  19  21
HETATM   21  C   UNL     1      -2.219   7.873 -32.454  1.00  0.00     0.187 C 
BRANCH  21  22
HETATM   22  C   UNL     1      -2.221   6.785 -33.456  1.00  0.00     0.070 A 
HETATM   23  O   UNL     1      -3.440   6.277 -33.802  1.00  0.00    -0.325 OA
HETATM   24  C   UNL     1      -3.215   5.312 -34.733  1.00  0.00     0.142 A 
HETATM   25  C   UNL     1      -1.868   5.184 -34.976  1.00  0.00     0.027 A 
HETATM   26  C   UNL     1      -1.222   6.135 -34.151  1.00  0.00     0.036 A 
ENDBRANCH  21  22
ENDBRANCH  19  21
ENDBRANCH  17  19
ENDBRANCH  15  17
ENDBRANCH  12  15
ENDBRANCH   7  11
BRANCH   1  27
HETATM   27  C   UNL     1      -6.134   0.061 -34.323  1.00  0.00    -0.035 A 
HETATM   28  C   UNL     1      -7.001  -0.841 -34.961  1.00  0.00     0.012 A 
HETATM   29  C   UNL     1      -6.723  -2.211 -34.990  1.00  0.00     0.037 A 
HETATM   30  C   UNL     1      -5.577  -2.719 -34.384  1.00  0.00     0.068 A 
HETATM   31  C   UNL     1      -4.723  -1.846 -33.715  1.00  0.00     0.037 A 
HETATM   32  C   UNL     1      -5.003  -0.473 -33.679  1.00  0.00     0.012 A 
BRANCH  30  33
HETATM   33  O   UNL     1      -5.416  -4.072 -34.498  1.00  0.00    -0.356 OA
HETATM   34  C   UNL     1      -6.348  -4.754 -35.328  1.00  0.00     0.210 C 
ENDBRANCH  30  33
ENDBRANCH   1  27
BRANCH   8  35
HETATM   35  C   UNL     1      -8.525   0.481 -31.901  1.00  0.00     0.409 C 
HETATM   36  F   UNL     1      -7.492  -0.277 -31.495  1.00  0.00    -0.169 F 
HETATM   37  F   UNL     1      -9.422   0.520 -30.886  1.00  0.00    -0.169 F 
HETATM   38  F   UNL     1      -9.140  -0.191 -32.912  1.00  0.00    -0.169 F 
ENDBRANCH   8  35
TORSDOF 9
ENDMDL
MODEL 2
REMARK VINA RESULT:      -8.6      2.095      2.842
REMARK  9 active torsions:
REMARK  status: ('A' for Active; 'I' for Inactive)
REMARK    1  A    between atoms: O_2  and  C_3 
REMARK    2  A    between atoms: C_6  and  C_7 
REMARK    3  A    between atoms: C_13  and  C_14 
REMARK       I    between atoms: C_14  and  N_15 
REMARK    4  A    between atoms: N_15  and  N_16 
REMARK    5  A    between atoms: N_16  and  C_17 
REMARK    6  A    between atoms: C_17  and  N_18 
REMARK    7  A    between atoms: N_18  and  C_19 
REMARK    8  A    between atoms: C_19  and  C_20 
REMARK    9  A    between atoms: C_27  and  C_28 
ROOT
HETATM    1  C   UNL     1      -6.729   0.773 -35.067  1.00  0.00     0.118 C 
HETATM    2  N   UNL     1      -6.622   2.174 -34.681  1.00  0.00    -0.365 N 
HETATM    3  C   UNL     1      -7.463   2.743 -33.785  1.00  0.00     0.138 A 
HETATM    4  N   UNL     1      -8.607   2.106 -33.390  1.00  0.00    -0.240 N 
HETATM    5  N   UNL     1      -9.395   2.855 -32.600  1.00  0.00    -0.181 NA
HETATM    6  C   UNL     1      -8.665   3.961 -32.414  1.00  0.00     0.160 A 
HETATM    7  C   UNL     1      -7.431   3.948 -33.110  1.00  0.00     0.098 A 
HETATM    8  C   UNL     1      -9.010   0.790 -33.843  1.00  0.00     0.221 C 
HETATM    9  C   UNL     1      -8.222   0.385 -35.106  1.00  0.00     0.066 C 
HETATM   10  H   UNL     1      -5.739   2.638 -34.908  1.00  0.00     0.161 HD
ENDROOT
BRANCH   7  11
HETATM   11  C   UNL     1      -6.380   4.944 -33.204  1.00  0.00     0.275 C 
HETATM   12  N   UNL     1      -5.942   5.591 -32.057  1.00  0.00    -0.263 N 
HETATM   13  H   UNL     1      -5.113   6.149 -32.252  1.00  0.00     0.190 HD
HETATM   14  O   UNL     1      -5.867   5.253 -34.281  1.00  0.00    -0.266 OA
BRANCH  12  15
HETATM   15  N   UNL     1      -5.923   4.961 -30.796  1.00  0.00    -0.274 N 
HETATM   16  H   UNL     1      -6.407   5.427 -30.035  1.00  0.00     0.189 HD
BRANCH  15  17
HETATM   17  C   UNL     1      -5.158   3.845 -30.564  1.00  0.00     0.186 C 
HETATM   18  S   UNL     1      -5.735   2.356 -30.071  1.00  0.00    -0.040 SA
BRANCH  17  19
HETATM   19  N   UNL     1      -3.819   3.964 -30.786  1.00  0.00    -0.360 N 
HETATM   20  H   UNL     1      -3.296   4.300 -29.986  1.00  0.00     0.162 HD
BRANCH  19  21
HETATM   21  C   UNL     1      -3.047   3.466 -31.910  1.00  0.00     0.187 C 
BRANCH  21  22
HETATM   22  C   UNL     1      -2.666   4.591 -32.791  1.00  0.00     0.070 A 
HETATM   23  O   UNL     1      -3.056   5.837 -32.393  1.00  0.00    -0.325 OA
HETATM   24  C   UNL     1      -2.596   6.711 -33.327  1.00  0.00     0.142 A 
HETATM   25  C   UNL     1      -1.931   6.040 -34.326  1.00  0.00     0.027 A 
HETATM   26  C   UNL     1      -1.975   4.669 -33.982  1.00  0.00     0.036 A 
ENDBRANCH  21  22
ENDBRANCH  19  21
ENDBRANCH  17  19
ENDBRANCH  15  17
ENDBRANCH  12  15
ENDBRANCH   7  11
BRANCH   1  27
HETATM   27  C   UNL     1      -5.835  -0.140 -34.243  1.00  0.00    -0.035 A 
HETATM   28  C   UNL     1      -5.704  -1.513 -34.508  1.00  0.00     0.012 A 
HETATM   29  C   UNL     1      -4.876  -2.324 -33.724  1.00  0.00     0.037 A 
HETATM   30  C   UNL     1      -4.160  -1.790 -32.657  1.00  0.00     0.068 A 
HETATM   31  C   UNL     1      -4.303  -0.438 -32.355  1.00  0.00     0.037 A 
HETATM   32  C   UNL     1      -5.137   0.375 -33.135  1.00  0.00     0.012 A 
BRANCH  30  33
HETATM   33  O   UNL     1      -3.378  -2.686 -31.982  1.00  0.00    -0.356 OA
HETATM   34  C   UNL     1      -3.291  -3.994 -32.534  1.00  0.00     0.210 C 
ENDBRANCH  30  33
ENDBRANCH   1  27
BRANCH   8  35
HETATM   35  C   UNL     1      -8.902  -0.208 -32.711  1.00  0.00     0.409 C 
HETATM   36  F   UNL     1      -8.022   0.134 -31.754  1.00  0.00    -0.169 F 
HETATM   37  F   UNL     1     -10.096  -0.419 -32.107  1.00  0.00    -0.169 F 
HETATM   38  F   UNL     1      -8.513  -1.419 -33.196  1.00  0.00    -0.169 F 
ENDBRANCH   8  35
TORSDOF 9
ENDMDL
MODEL 3
REMARK VINA RESULT:      -8.5      2.532      3.611
REMARK  9 active torsions:
REMARK  status: ('A' for Active; 'I' for Inactive)
REMARK    1  A    between atoms: O_2  and  C_3 
REMARK    2  A    between atoms: C_6  and  C_7 
REMARK    3  A    between atoms: C_13  and  C_14 
REMARK       I    between atoms: C_14  and  N_15 
REMARK    4  A    between atoms: N_15  and  N_16 
REMARK    5  A    between atoms: N_16  and  C_17 
REMARK    6  A    between atoms: C_17  and  N_18 
REMARK    7  A    between atoms: N_18  and  C_19 
REMARK    8  A    between atoms: C_19  and  C_20 
REMARK    9  A    between atoms: C_27  and  C_28 
ROOT
HETATM    1  C   UNL     1      -7.375   1.175 -33.176  1.00  0.00     0.118 C 
HETATM    2  N   UNL     1      -6.630   2.391 -33.482  1.00  0.00    -0.365 N 
HETATM    3  C   UNL     1      -5.831   2.996 -32.571  1.00  0.00     0.138 A 
HETATM    4  N   UNL     1      -5.880   2.648 -31.249  1.00  0.00    -0.240 N 
HETATM    5  N   UNL     1      -5.122   3.428 -30.459  1.00  0.00    -0.181 NA
HETATM    6  C   UNL     1      -4.501   4.226 -31.336  1.00  0.00     0.160 A 
HETATM    7  C   UNL     1      -4.882   3.994 -32.680  1.00  0.00     0.098 A 
HETATM    8  C   UNL     1      -6.731   1.609 -30.706  1.00  0.00     0.221 C 
HETATM    9  C   UNL     1      -7.846   1.242 -31.708  1.00  0.00     0.066 C 
HETATM   10  H   UNL     1      -6.527   2.619 -34.474  1.00  0.00     0.161 HD
ENDROOT
BRANCH   7  11
HETATM   11  C   UNL     1      -4.480   4.650 -33.911  1.00  0.00     0.275 C 
HETATM   12  N   UNL     1      -3.317   5.407 -33.938  1.00  0.00    -0.263 N 
HETATM   13  H   UNL     1      -3.089   5.683 -34.891  1.00  0.00     0.190 HD
HETATM   14  O   UNL     1      -5.151   4.573 -34.942  1.00  0.00    -0.266 OA
BRANCH  12  15
HETATM   15  N   UNL     1      -2.192   5.091 -33.150  1.00  0.00    -0.274 N 
HETATM   16  H   UNL     1      -2.031   4.110 -32.939  1.00  0.00     0.189 HD
BRANCH  15  17
HETATM   17  C   UNL     1      -1.430   6.069 -32.562  1.00  0.00     0.186 C 
HETATM   18  S   UNL     1      -1.712   7.714 -32.662  1.00  0.00    -0.040 SA
BRANCH  17  19
HETATM   19  N   UNL     1      -0.373   5.653 -31.809  1.00  0.00    -0.360 N 
HETATM   20  H   UNL     1       0.530   5.911 -32.188  1.00  0.00     0.162 HD
BRANCH  19  21
HETATM   21  C   UNL     1      -0.387   5.108 -30.464  1.00  0.00     0.187 C 
BRANCH  21  22
HETATM   22  C   UNL     1       0.125   6.118 -29.512  1.00  0.00     0.070 A 
HETATM   23  O   UNL     1       0.336   5.697 -28.231  1.00  0.00    -0.325 OA
HETATM   24  C   UNL     1       0.813   6.766 -27.539  1.00  0.00     0.142 A 
HETATM   25  C   UNL     1       0.894   7.870 -28.354  1.00  0.00     0.027 A 
HETATM   26  C   UNL     1       0.449   7.454 -29.631  1.00  0.00     0.036 A 
ENDBRANCH  21  22
ENDBRANCH  19  21
ENDBRANCH  17  19
ENDBRANCH  15  17
ENDBRANCH  12  15
ENDBRANCH   7  11
BRANCH   1  27
HETATM   27  C   UNL     1      -6.632  -0.091 -33.570  1.00  0.00    -0.035 A 
HETATM   28  C   UNL     1      -5.231  -0.157 -33.640  1.00  0.00     0.012 A 
HETATM   29  C   UNL     1      -4.581  -1.338 -34.013  1.00  0.00     0.037 A 
HETATM   30  C   UNL     1      -5.308  -2.483 -34.328  1.00  0.00     0.068 A 
HETATM   31  C   UNL     1      -6.700  -2.428 -34.300  1.00  0.00     0.037 A 
HETATM   32  C   UNL     1      -7.353  -1.243 -33.932  1.00  0.00     0.012 A 
BRANCH  30  33
HETATM   33  O   UNL     1      -4.552  -3.571 -34.661  1.00  0.00    -0.356 OA
HETATM   34  C   UNL     1      -5.157  -4.845 -34.476  1.00  0.00     0.210 C 
ENDBRANCH  30  33
ENDBRANCH   1  27
BRANCH   8  35
HETATM   35  C   UNL     1      -5.897   0.429 -30.261  1.00  0.00     0.409 C 
HETATM   36  F   UNL     1      -6.393  -0.767 -30.623  1.00  0.00    -0.169 F 
HETATM   37  F   UNL     1      -4.629   0.500 -30.731  1.00  0.00    -0.169 F 
HETATM   38  F   UNL     1      -5.790   0.422 -28.905  1.00  0.00    -0.169 F 
ENDBRANCH   8  35
TORSDOF 9
ENDMDL
MODEL 4
REMARK VINA RESULT:      -8.4      1.797      2.373
REMARK  9 active torsions:
REMARK  status: ('A' for Active; 'I' for Inactive)
REMARK    1  A    between atoms: O_2  and  C_3 
REMARK    2  A    between atoms: C_6  and  C_7 
REMARK    3  A    between atoms: C_13  and  C_14 
REMARK       I    between atoms: C_14  and  N_15 
REMARK    4  A    between atoms: N_15  and  N_16 
REMARK    5  A    between atoms: N_16  and  C_17 
REMARK    6  A    between atoms: C_17  and  N_18 
REMARK    7  A    between atoms: N_18  and  C_19 
REMARK    8  A    between atoms: C_19  and  C_20 
REMARK    9  A    between atoms: C_27  and  C_28 
ROOT
HETATM    1  C   UNL     1      -6.393   1.433 -34.276  1.00  0.00     0.118 C 
HETATM    2  N   UNL     1      -5.518   2.222 -33.419  1.00  0.00    -0.365 N 
HETATM    3  C   UNL     1      -5.829   2.501 -32.130  1.00  0.00     0.138 A 
HETATM    4  N   UNL     1      -7.089   2.278 -31.646  1.00  0.00    -0.240 N 
HETATM    5  N   UNL     1      -7.270   2.726 -30.392  1.00  0.00    -0.181 NA
HETATM    6  C   UNL     1      -6.049   3.153 -30.048  1.00  0.00     0.160 A 
HETATM    7  C   UNL     1      -5.092   3.020 -31.083  1.00  0.00     0.098 A 
HETATM    8  C   UNL     1      -8.174   1.707 -32.418  1.00  0.00     0.221 C 
HETATM    9  C   UNL     1      -7.858   1.769 -33.926  1.00  0.00     0.066 C 
HETATM   10  H   UNL     1      -4.552   2.332 -33.739  1.00  0.00     0.161 HD
ENDROOT
BRANCH   7  11
HETATM   11  C   UNL     1      -3.688   3.385 -31.136  1.00  0.00     0.275 C 
HETATM   12  N   UNL     1      -3.309   4.695 -30.880  1.00  0.00    -0.263 N 
HETATM   13  H   UNL     1      -2.296   4.771 -30.810  1.00  0.00     0.190 HD
HETATM   14  O   UNL     1      -2.810   2.569 -31.422  1.00  0.00    -0.266 OA
BRANCH  12  15
HETATM   15  N   UNL     1      -4.007   5.518 -29.972  1.00  0.00    -0.274 N 
HETATM   16  H   UNL     1      -4.877   5.159 -29.590  1.00  0.00     0.189 HD
BRANCH  15  17
HETATM   17  C   UNL     1      -3.613   6.810 -29.726  1.00  0.00     0.186 C 
HETATM   18  S   UNL     1      -4.083   8.154 -30.601  1.00  0.00    -0.040 SA
BRANCH  17  19
HETATM   19  N   UNL     1      -2.792   7.007 -28.656  1.00  0.00    -0.360 N 
HETATM   20  H   UNL     1      -3.129   6.589 -27.796  1.00  0.00     0.162 HD
BRANCH  19  21
HETATM   21  C   UNL     1      -1.435   7.520 -28.646  1.00  0.00     0.187 C 
BRANCH  21  22
HETATM   22  C   UNL     1      -0.576   6.674 -29.503  1.00  0.00     0.070 A 
HETATM   23  O   UNL     1      -0.026   5.571 -28.917  1.00  0.00    -0.325 OA
HETATM   24  C   UNL     1       0.705   4.939 -29.873  1.00  0.00     0.142 A 
HETATM   25  C   UNL     1       0.645   5.632 -31.060  1.00  0.00     0.027 A 
HETATM   26  C   UNL     1      -0.182   6.755 -30.823  1.00  0.00     0.036 A 
ENDBRANCH  21  22
ENDBRANCH  19  21
ENDBRANCH  17  19
ENDBRANCH  15  17
ENDBRANCH  12  15
ENDBRANCH   7  11
BRANCH   1  27
HETATM   27  C   UNL     1      -6.042  -0.046 -34.284  1.00  0.00    -0.035 A 
HETATM   28  C   UNL     1      -4.896  -0.555 -33.652  1.00  0.00     0.012 A 
HETATM   29  C   UNL     1      -4.600  -1.922 -33.685  1.00  0.00     0.037 A 
HETATM   30  C   UNL     1      -5.435  -2.816 -34.349  1.00  0.00     0.068 A 
HETATM   31  C   UNL     1      -6.558  -2.326 -35.013  1.00  0.00     0.037 A 
HETATM   32  C   UNL     1      -6.852  -0.956 -34.987  1.00  0.00     0.012 A 
BRANCH  30  33
HETATM   33  O   UNL     1      -5.041  -4.123 -34.293  1.00  0.00    -0.356 OA
HETATM   34  C   UNL     1      -3.756  -4.376 -33.739  1.00  0.00     0.210 C 
ENDBRANCH  30  33
ENDBRANCH   1  27
BRANCH   8  35
HETATM   35  C   UNL     1      -8.496   0.317 -31.917  1.00  0.00     0.409 C 
HETATM   36  F   UNL     1      -7.437  -0.358 -31.436  1.00  0.00    -0.169 F 
HETATM   37  F   UNL     1      -9.440   0.334 -30.946  1.00  0.00    -0.169 F 
HETATM   38  F   UNL     1      -9.019  -0.430 -32.928  1.00  0.00    -0.169 F 
ENDBRANCH   8  35
TORSDOF 9
ENDMDL
MODEL 5
REMARK VINA RESULT:      -8.3      2.555      3.784
REMARK  9 active torsions:
REMARK  status: ('A' for Active; 'I' for Inactive)
REMARK    1  A    between atoms: O_2  and  C_3 
REMARK    2  A    between atoms: C_6  and  C_7 
REMARK    3  A    between atoms: C_13  and  C_14 
REMARK       I    between atoms: C_14  and  N_15 
REMARK    4  A    between atoms: N_15  and  N_16 
REMARK    5  A    between atoms: N_16  and  C_17 
REMARK    6  A    between atoms: C_17  and  N_18 
REMARK    7  A    between atoms: N_18  and  C_19 
REMARK    8  A    between atoms: C_19  and  C_20 
REMARK    9  A    between atoms: C_27  and  C_28 
ROOT
HETATM    1  C   UNL     1      -6.894   1.567 -30.349  1.00  0.00     0.118 C 
HETATM    2  N   UNL     1      -6.111   2.795 -30.285  1.00  0.00    -0.365 N 
HETATM    3  C   UNL     1      -4.918   2.924 -30.913  1.00  0.00     0.138 A 
HETATM    4  N   UNL     1      -4.269   1.834 -31.424  1.00  0.00    -0.240 N 
HETATM    5  N   UNL     1      -3.042   2.111 -31.898  1.00  0.00    -0.181 NA
HETATM    6  C   UNL     1      -2.967   3.441 -31.770  1.00  0.00     0.160 A 
HETATM    7  C   UNL     1      -4.118   4.019 -31.181  1.00  0.00     0.098 A 
HETATM    8  C   UNL     1      -4.784   0.480 -31.382  1.00  0.00     0.221 C 
HETATM    9  C   UNL     1      -5.926   0.366 -30.351  1.00  0.00     0.066 C 
HETATM   10  H   UNL     1      -6.610   3.632 -29.973  1.00  0.00     0.161 HD
ENDROOT
BRANCH   7  11
HETATM   11  C   UNL     1      -4.425   5.395 -30.839  1.00  0.00     0.275 C 
HETATM   12  N   UNL     1      -3.529   6.129 -30.074  1.00  0.00    -0.263 N 
HETATM   13  H   UNL     1      -3.805   7.109 -30.037  1.00  0.00     0.190 HD
HETATM   14  O   UNL     1      -5.474   5.938 -31.191  1.00  0.00    -0.266 OA
BRANCH  12  15
HETATM   15  N   UNL     1      -2.135   5.931 -30.148  1.00  0.00    -0.274 N 
HETATM   16  H   UNL     1      -1.788   4.991 -29.984  1.00  0.00     0.189 HD
BRANCH  15  17
HETATM   17  C   UNL     1      -1.267   6.986 -30.285  1.00  0.00     0.186 C 
HETATM   18  S   UNL     1      -0.512   7.794 -29.031  1.00  0.00    -0.040 SA
BRANCH  17  19
HETATM   19  N   UNL     1      -0.978   7.380 -31.557  1.00  0.00    -0.360 N 
HETATM   20  H   UNL     1      -0.021   7.200 -31.838  1.00  0.00     0.162 HD
BRANCH  19  21
HETATM   21  C   UNL     1      -1.898   7.797 -32.599  1.00  0.00     0.187 C 
BRANCH  21  22
HETATM   22  C   UNL     1      -2.083   6.698 -33.571  1.00  0.00     0.070 A 
HETATM   23  O   UNL     1      -3.359   6.466 -33.995  1.00  0.00    -0.325 OA
HETATM   24  C   UNL     1      -3.299   5.437 -34.881  1.00  0.00     0.142 A 
HETATM   25  C   UNL     1      -2.004   4.995 -35.018  1.00  0.00     0.027 A 
HETATM   26  C   UNL     1      -1.215   5.808 -34.171  1.00  0.00     0.036 A 
ENDBRANCH  21  22
ENDBRANCH  19  21
ENDBRANCH  17  19
ENDBRANCH  15  17
ENDBRANCH  12  15
ENDBRANCH   7  11
BRANCH   1  27
HETATM   27  C   UNL     1      -7.928   1.580 -31.463  1.00  0.00    -0.035 A 
HETATM   28  C   UNL     1      -8.774   0.490 -31.724  1.00  0.00     0.012 A 
HETATM   29  C   UNL     1      -9.710   0.534 -32.762  1.00  0.00     0.037 A 
HETATM   30  C   UNL     1      -9.828   1.663 -33.568  1.00  0.00     0.068 A 
HETATM   31  C   UNL     1      -8.974   2.742 -33.348  1.00  0.00     0.037 A 
HETATM   32  C   UNL     1      -8.031   2.697 -32.312  1.00  0.00     0.012 A 
BRANCH  30  33
HETATM   33  O   UNL     1     -10.790   1.583 -34.535  1.00  0.00    -0.356 OA
HETATM   34  C   UNL     1     -12.100   1.239 -34.101  1.00  0.00     0.210 C 
ENDBRANCH  30  33
ENDBRANCH   1  27
BRANCH   8  35
HETATM   35  C   UNL     1      -5.167   0.024 -32.772  1.00  0.00     0.409 C 
HETATM   36  F   UNL     1      -4.159  -0.527 -33.471  1.00  0.00    -0.169 F 
HETATM   37  F   UNL     1      -6.181  -0.874 -32.748  1.00  0.00    -0.169 F 
HETATM   38  F   UNL     1      -5.625   1.080 -33.497  1.00  0.00    -0.169 F 
ENDBRANCH   8  35
TORSDOF 9
ENDMDL
MODEL 6
REMARK VINA RESULT:      -8.2      4.107      6.743
REMARK  9 active torsions:
REMARK  status: ('A' for Active; 'I' for Inactive)
REMARK    1  A    between atoms: O_2  and  C_3 
REMARK    2  A    between atoms: C_6  and  C_7 
REMARK    3  A    between atoms: C_13  and  C_14 
REMARK       I    between atoms: C_14  and  N_15 
REMARK    4  A    between atoms: N_15  and  N_16 
REMARK    5  A    between atoms: N_16  and  C_17 
REMARK    6  A    between atoms: C_17  and  N_18 
REMARK    7  A    between atoms: N_18  and  C_19 
REMARK    8  A    between atoms: C_19  and  C_20 
REMARK    9  A    between atoms: C_27  and  C_28 
ROOT
HETATM    1  C   UNL     1      -6.182   0.788 -30.564  1.00  0.00     0.118 C 
HETATM    2  N   UNL     1      -7.353   1.657 -30.591  1.00  0.00    -0.365 N 
HETATM    3  C   UNL     1      -7.300   2.925 -31.062  1.00  0.00     0.138 A 
HETATM    4  N   UNL     1      -6.101   3.541 -31.296  1.00  0.00    -0.240 N 
HETATM    5  N   UNL     1      -6.217   4.836 -31.635  1.00  0.00    -0.181 NA
HETATM    6  C   UNL     1      -7.542   5.005 -31.714  1.00  0.00     0.160 A 
HETATM    7  C   UNL     1      -8.281   3.841 -31.389  1.00  0.00     0.098 A 
HETATM    8  C   UNL     1      -4.808   2.914 -31.108  1.00  0.00     0.221 C 
HETATM    9  C   UNL     1      -4.941   1.646 -30.239  1.00  0.00     0.066 C 
HETATM   10  H   UNL     1      -8.260   1.194 -30.490  1.00  0.00     0.161 HD
ENDROOT
BRANCH   7  11
HETATM   11  C   UNL     1      -9.712   3.610 -31.319  1.00  0.00     0.275 C 
HETATM   12  N   UNL     1     -10.490   3.760 -32.458  1.00  0.00    -0.263 N 
HETATM   13  H   UNL     1     -11.438   3.428 -32.295  1.00  0.00     0.190 HD
HETATM   14  O   UNL     1     -10.273   3.298 -30.266  1.00  0.00    -0.266 OA
BRANCH  12  15
HETATM   15  N   UNL     1      -9.999   3.473 -33.749  1.00  0.00    -0.274 N 
HETATM   16  H   UNL     1      -9.231   2.812 -33.820  1.00  0.00     0.189 HD
BRANCH  15  17
HETATM   17  C   UNL     1     -10.433   4.166 -34.851  1.00  0.00     0.186 C 
HETATM   18  S   UNL     1     -10.183   5.794 -35.138  1.00  0.00    -0.040 SA
BRANCH  17  19
HETATM   19  N   UNL     1     -11.097   3.451 -35.802  1.00  0.00    -0.360 N 
HETATM   20  H   UNL     1     -10.489   2.970 -36.456  1.00  0.00     0.162 HD
BRANCH  19  21
HETATM   21  C   UNL     1     -12.508   3.115 -35.853  1.00  0.00     0.187 C 
BRANCH  21  22
HETATM   22  C   UNL     1     -12.782   1.975 -34.952  1.00  0.00     0.070 A 
HETATM   23  O   UNL     1     -11.696   1.328 -34.438  1.00  0.00    -0.325 OA
HETATM   24  C   UNL     1     -12.170   0.337 -33.637  1.00  0.00     0.142 A 
HETATM   25  C   UNL     1     -13.544   0.329 -33.644  1.00  0.00     0.027 A 
HETATM   26  C   UNL     1     -13.943   1.387 -34.494  1.00  0.00     0.036 A 
ENDBRANCH  21  22
ENDBRANCH  19  21
ENDBRANCH  17  19
ENDBRANCH  15  17
ENDBRANCH  12  15
ENDBRANCH   7  11
BRANCH   1  27
HETATM   27  C   UNL     1      -6.068  -0.093 -31.797  1.00  0.00    -0.035 A 
HETATM   28  C   UNL     1      -7.096  -0.203 -32.747  1.00  0.00     0.012 A 
HETATM   29  C   UNL     1      -6.959  -1.029 -33.867  1.00  0.00     0.037 A 
HETATM   30  C   UNL     1      -5.796  -1.769 -34.070  1.00  0.00     0.068 A 
HETATM   31  C   UNL     1      -4.779  -1.701 -33.120  1.00  0.00     0.037 A 
HETATM   32  C   UNL     1      -4.918  -0.879 -31.994  1.00  0.00     0.012 A 
BRANCH  30  33
HETATM   33  O   UNL     1      -5.784  -2.523 -35.209  1.00  0.00    -0.356 OA
HETATM   34  C   UNL     1      -5.655  -3.929 -35.039  1.00  0.00     0.210 C 
ENDBRANCH  30  33
ENDBRANCH   1  27
BRANCH   8  35
HETATM   35  C   UNL     1      -4.145   2.671 -32.445  1.00  0.00     0.409 C 
HETATM   36  F   UNL     1      -3.492   3.737 -32.941  1.00  0.00    -0.169 F 
HETATM   37  F   UNL     1      -3.263   1.644 -32.394  1.00  0.00    -0.169 F 
HETATM   38  F   UNL     1      -5.079   2.311 -33.367  1.00  0.00    -0.169 F 
ENDBRANCH   8  35
TORSDOF 9
ENDMDL
MODEL 7
REMARK VINA RESULT:      -8.1      4.541      7.201
REMARK  9 active torsions:
REMARK  status: ('A' for Active; 'I' for Inactive)
REMARK    1  A    between atoms: O_2  and  C_3 
REMARK    2  A    between atoms: C_6  and  C_7 
REMARK    3  A    between atoms: C_13  and  C_14 
REMARK       I    between atoms: C_14  and  N_15 
REMARK    4  A    between atoms: N_15  and  N_16 
REMARK    5  A    between atoms: N_16  and  C_17 
REMARK    6  A    between atoms: C_17  and  N_18 
REMARK    7  A    between atoms: N_18  and  C_19 
REMARK    8  A    between atoms: C_19  and  C_20 
REMARK    9  A    between atoms: C_27  and  C_28 
ROOT
HETATM    1  C   UNL     1      -6.497   0.572 -30.937  1.00  0.00     0.118 C 
HETATM    2  N   UNL     1      -7.700   1.199 -31.468  1.00  0.00    -0.365 N 
HETATM    3  C   UNL     1      -7.672   2.397 -32.100  1.00  0.00     0.138 A 
HETATM    4  N   UNL     1      -6.563   3.196 -32.046  1.00  0.00    -0.240 N 
HETATM    5  N   UNL     1      -6.740   4.402 -32.611  1.00  0.00    -0.181 NA
HETATM    6  C   UNL     1      -7.972   4.312 -33.125  1.00  0.00     0.160 A 
HETATM    7  C   UNL     1      -8.606   3.073 -32.861  1.00  0.00     0.098 A 
HETATM    8  C   UNL     1      -5.333   2.844 -31.365  1.00  0.00     0.221 C 
HETATM    9  C   UNL     1      -5.569   1.675 -30.387  1.00  0.00     0.066 C 
HETATM   10  H   UNL     1      -8.515   0.590 -31.580  1.00  0.00     0.161 HD
ENDROOT
BRANCH   7  11
HETATM   11  C   UNL     1      -9.931   2.589 -33.202  1.00  0.00     0.275 C 
HETATM   12  N   UNL     1     -10.905   2.499 -32.218  1.00  0.00    -0.263 N 
HETATM   13  H   UNL     1     -11.812   2.285 -32.626  1.00  0.00     0.190 HD
HETATM   14  O   UNL     1     -10.222   2.231 -34.345  1.00  0.00    -0.266 OA
BRANCH  12  15
HETATM   15  N   UNL     1     -10.965   3.398 -31.133  1.00  0.00    -0.274 N 
HETATM   16  H   UNL     1     -10.210   3.363 -30.455  1.00  0.00     0.189 HD
BRANCH  15  17
HETATM   17  C   UNL     1     -12.069   4.184 -30.913  1.00  0.00     0.186 C 
HETATM   18  S   UNL     1     -12.062   5.848 -30.748  1.00  0.00    -0.040 SA
BRANCH  17  19
HETATM   19  N   UNL     1     -13.272   3.548 -30.858  1.00  0.00    -0.360 N 
HETATM   20  H   UNL     1     -13.412   3.002 -30.016  1.00  0.00     0.162 HD
BRANCH  19  21
HETATM   21  C   UNL     1     -14.428   3.735 -31.715  1.00  0.00     0.187 C 
BRANCH  21  22
HETATM   22  C   UNL     1     -14.489   2.646 -32.715  1.00  0.00     0.070 A 
HETATM   23  O   UNL     1     -13.511   2.636 -33.666  1.00  0.00    -0.325 OA
HETATM   24  C   UNL     1     -13.747   1.559 -34.463  1.00  0.00     0.142 A 
HETATM   25  C   UNL     1     -14.873   0.890 -34.045  1.00  0.00     0.027 A 
HETATM   26  C   UNL     1     -15.356   1.591 -32.915  1.00  0.00     0.036 A 
ENDBRANCH  21  22
ENDBRANCH  19  21
ENDBRANCH  17  19
ENDBRANCH  15  17
ENDBRANCH  12  15
ENDBRANCH   7  11
BRANCH   1  27
HETATM   27  C   UNL     1      -5.854  -0.401 -31.913  1.00  0.00    -0.035 A 
HETATM   28  C   UNL     1      -6.495  -0.831 -33.086  1.00  0.00     0.012 A 
HETATM   29  C   UNL     1      -5.876  -1.733 -33.957  1.00  0.00     0.037 A 
HETATM   30  C   UNL     1      -4.605  -2.231 -33.683  1.00  0.00     0.068 A 
HETATM   31  C   UNL     1      -3.967  -1.844 -32.506  1.00  0.00     0.037 A 
HETATM   32  C   UNL     1      -4.589  -0.946 -31.628  1.00  0.00     0.012 A 
BRANCH  30  33
HETATM   33  O   UNL     1      -4.108  -3.091 -34.622  1.00  0.00    -0.356 OA
HETATM   34  C   UNL     1      -3.828  -4.415 -34.185  1.00  0.00     0.210 C 
ENDBRANCH  30  33
ENDBRANCH   1  27
BRANCH   8  35
HETATM   35  C   UNL     1      -4.234   2.586 -32.372  1.00  0.00     0.409 C 
HETATM   36  F   UNL     1      -3.620   3.696 -32.819  1.00  0.00    -0.169 F 
HETATM   37  F   UNL     1      -3.276   1.766 -31.877  1.00  0.00    -0.169 F 
HETATM   38  F   UNL     1      -4.743   1.946 -33.460  1.00  0.00    -0.169 F 
ENDBRANCH   8  35
TORSDOF 9
ENDMDL
MODEL 8
REMARK VINA RESULT:      -8.0      3.092      4.689
REMARK  9 active torsions:
REMARK  status: ('A' for Active; 'I' for Inactive)
REMARK    1  A    between atoms: O_2  and  C_3 
REMARK    2  A    between atoms: C_6  and  C_7 
REMARK    3  A    between atoms: C_13  and  C_14 
REMARK       I    between atoms: C_14  and  N_15 
REMARK    4  A    between atoms: N_15  and  N_16 
REMARK    5  A    between atoms: N_16  and  C_17 
REMARK    6  A    between atoms: C_17  and  N_18 
REMARK    7  A    between atoms: N_18  and  C_19 
REMARK    8  A    between atoms: C_19  and  C_20 
REMARK    9  A    between atoms: C_27  and  C_28 
ROOT
HETATM    1  C   UNL     1      -7.463   0.955 -30.953  1.00  0.00     0.118 C 
HETATM    2  N   UNL     1      -6.469   2.011 -30.804  1.00  0.00    -0.365 N 
HETATM    3  C   UNL     1      -5.278   1.978 -31.448  1.00  0.00     0.138 A 
HETATM    4  N   UNL     1      -4.842   0.838 -32.064  1.00  0.00    -0.240 N 
HETATM    5  N   UNL     1      -3.589   0.930 -32.543  1.00  0.00    -0.181 NA
HETATM    6  C   UNL     1      -3.273   2.208 -32.304  1.00  0.00     0.160 A 
HETATM    7  C   UNL     1      -4.295   2.930 -31.641  1.00  0.00     0.098 A 
HETATM    8  C   UNL     1      -5.593  -0.399 -32.124  1.00  0.00     0.221 C 
HETATM    9  C   UNL     1      -6.729  -0.396 -31.080  1.00  0.00     0.066 C 
HETATM   10  H   UNL     1      -6.805   2.894 -30.411  1.00  0.00     0.161 HD
ENDROOT
BRANCH   7  11
HETATM   11  C   UNL     1      -4.344   4.304 -31.176  1.00  0.00     0.275 C 
HETATM   12  N   UNL     1      -3.173   4.940 -30.788  1.00  0.00    -0.263 N 
HETATM   13  H   UNL     1      -3.338   5.932 -30.627  1.00  0.00     0.190 HD
HETATM   14  O   UNL     1      -5.403   4.929 -31.094  1.00  0.00    -0.266 OA
BRANCH  12  15
HETATM   15  N   UNL     1      -1.928   4.658 -31.386  1.00  0.00    -0.274 N 
HETATM   16  H   UNL     1      -1.396   3.879 -31.011  1.00  0.00     0.189 HD
BRANCH  15  17
HETATM   17  C   UNL     1      -1.383   5.489 -32.333  1.00  0.00     0.186 C 
HETATM   18  S   UNL     1      -1.547   5.318 -33.988  1.00  0.00    -0.040 SA
BRANCH  17  19
HETATM   19  N   UNL     1      -0.675   6.559 -31.875  1.00  0.00    -0.360 N 
HETATM   20  H   UNL     1      -1.119   7.453 -32.048  1.00  0.00     0.162 HD
BRANCH  19  21
HETATM   21  C   UNL     1       0.480   6.563 -30.996  1.00  0.00     0.187 C 
BRANCH  21  22
HETATM   22  C   UNL     1       0.087   7.056 -29.658  1.00  0.00     0.070 A 
HETATM   23  O   UNL     1      -1.152   6.696 -29.214  1.00  0.00    -0.325 OA
HETATM   24  C   UNL     1      -1.300   7.238 -27.976  1.00  0.00     0.142 A 
HETATM   25  C   UNL     1      -0.180   7.954 -27.628  1.00  0.00     0.027 A 
HETATM   26  C   UNL     1       0.719   7.839 -28.714  1.00  0.00     0.036 A 
ENDBRANCH  21  22
ENDBRANCH  19  21
ENDBRANCH  17  19
ENDBRANCH  15  17
ENDBRANCH  12  15
ENDBRANCH   7  11
BRANCH   1  27
HETATM   27  C   UNL     1      -8.487   1.251 -32.037  1.00  0.00    -0.035 A 
HETATM   28  C   UNL     1      -8.479   2.443 -32.780  1.00  0.00     0.012 A 
HETATM   29  C   UNL     1      -9.442   2.685 -33.766  1.00  0.00     0.037 A 
HETATM   30  C   UNL     1     -10.436   1.748 -34.036  1.00  0.00     0.068 A 
HETATM   31  C   UNL     1     -10.482   0.576 -33.285  1.00  0.00     0.037 A 
HETATM   32  C   UNL     1      -9.522   0.335 -32.292  1.00  0.00     0.012 A 
BRANCH  30  33
HETATM   33  O   UNL     1     -11.304   2.100 -35.032  1.00  0.00    -0.356 OA
HETATM   34  C   UNL     1     -12.581   1.474 -35.012  1.00  0.00     0.210 C 
ENDBRANCH  30  33
ENDBRANCH   1  27
BRANCH   8  35
HETATM   35  C   UNL     1      -6.065  -0.656 -33.538  1.00  0.00     0.409 C 
HETATM   36  F   UNL     1      -6.329   0.457 -34.244  1.00  0.00    -0.169 F 
HETATM   37  F   UNL     1      -5.167  -1.382 -34.247  1.00  0.00    -0.169 F 
HETATM   38  F   UNL     1      -7.206  -1.397 -33.519  1.00  0.00    -0.169 F 
ENDBRANCH   8  35
TORSDOF 9
ENDMDL
MODEL 9
REMARK VINA RESULT:      -7.9      6.019      8.741
REMARK  9 active torsions:
REMARK  status: ('A' for Active; 'I' for Inactive)
REMARK    1  A    between atoms: O_2  and  C_3 
REMARK    2  A    between atoms: C_6  and  C_7 
REMARK    3  A    between atoms: C_13  and  C_14 
REMARK       I    between atoms: C_14  and  N_15 
REMARK    4  A    between atoms: N_15  and  N_16 
REMARK    5  A    between atoms: N_16  and  C_17 
REMARK    6  A    between atoms: C_17  and  N_18 
REMARK    7  A    between atoms: N_18  and  C_19 
REMARK    8  A    between atoms: C_19  and  C_20 
REMARK    9  A    between atoms: C_27  and  C_28 
ROOT
HETATM    1  C   UNL     1      -7.910   0.888 -31.841  1.00  0.00     0.118 C 
HETATM    2  N   UNL     1      -9.226   1.188 -32.393  1.00  0.00    -0.365 N 
HETATM    3  C   UNL     1      -9.435   2.230 -33.232  1.00  0.00     0.138 A 
HETATM    4  N   UNL     1      -8.486   3.200 -33.402  1.00  0.00    -0.240 N 
HETATM    5  N   UNL     1      -8.897   4.228 -34.164  1.00  0.00    -0.181 NA
HETATM    6  C   UNL     1     -10.111   3.834 -34.566  1.00  0.00     0.160 A 
HETATM    7  C   UNL     1     -10.503   2.579 -34.037  1.00  0.00     0.098 A 
HETATM    8  C   UNL     1      -7.190   3.199 -32.755  1.00  0.00     0.221 C 
HETATM    9  C   UNL     1      -7.176   2.217 -31.566  1.00  0.00     0.066 C 
HETATM   10  H   UNL     1      -9.921   0.440 -32.335  1.00  0.00     0.161 HD
ENDROOT
BRANCH   7  11
HETATM   11  C   UNL     1     -11.730   1.821 -34.192  1.00  0.00     0.275 C 
HETATM   12  N   UNL     1     -12.604   1.703 -33.121  1.00  0.00    -0.263 N 
HETATM   13  H   UNL     1     -13.479   1.272 -33.415  1.00  0.00     0.190 HD
HETATM   14  O   UNL     1     -12.020   1.254 -35.248  1.00  0.00    -0.266 OA
BRANCH  12  15
HETATM   15  N   UNL     1     -12.765   2.724 -32.163  1.00  0.00    -0.274 N 
HETATM   16  H   UNL     1     -12.144   2.712 -31.359  1.00  0.00     0.189 HD
BRANCH  15  17
HETATM   17  C   UNL     1     -13.812   3.610 -32.227  1.00  0.00     0.186 C 
HETATM   18  S   UNL     1     -13.782   5.096 -32.992  1.00  0.00    -0.040 SA
BRANCH  17  19
HETATM   19  N   UNL     1     -14.979   3.223 -31.641  1.00  0.00    -0.360 N 
HETATM   20  H   UNL     1     -15.163   3.672 -30.752  1.00  0.00     0.162 HD
BRANCH  19  21
HETATM   21  C   UNL     1     -16.063   2.451 -32.221  1.00  0.00     0.187 C 
BRANCH  21  22
HETATM   22  C   UNL     1     -17.306   3.253 -32.212  1.00  0.00     0.070 A 
HETATM   23  O   UNL     1     -17.291   4.395 -31.465  1.00  0.00    -0.325 OA
HETATM   24  C   UNL     1     -18.512   4.975 -31.608  1.00  0.00     0.142 A 
HETATM   25  C   UNL     1     -19.315   4.212 -32.422  1.00  0.00     0.027 A 
HETATM   26  C   UNL     1     -18.538   3.097 -32.813  1.00  0.00     0.036 A 
ENDBRANCH  21  22
ENDBRANCH  19  21
ENDBRANCH  17  19
ENDBRANCH  15  17
ENDBRANCH  12  15
ENDBRANCH   7  11
BRANCH   1  27
HETATM   27  C   UNL     1      -7.139  -0.131 -32.665  1.00  0.00    -0.035 A 
HETATM   28  C   UNL     1      -7.696  -0.784 -33.776  1.00  0.00     0.012 A 
HETATM   29  C   UNL     1      -6.959  -1.721 -34.507  1.00  0.00     0.037 A 
HETATM   30  C   UNL     1      -5.650  -2.034 -34.150  1.00  0.00     0.068 A 
HETATM   31  C   UNL     1      -5.091  -1.423 -33.030  1.00  0.00     0.037 A 
HETATM   32  C   UNL     1      -5.831  -0.489 -32.292  1.00  0.00     0.012 A 
BRANCH  30  33
HETATM   33  O   UNL     1      -5.037  -2.952 -34.955  1.00  0.00    -0.356 OA
HETATM   34  C   UNL     1      -5.678  -4.215 -35.081  1.00  0.00     0.210 C 
ENDBRANCH  30  33
ENDBRANCH   1  27
BRANCH   8  35
HETATM   35  C   UNL     1      -6.099   2.943 -33.772  1.00  0.00     0.409 C 
HETATM   36  F   UNL     1      -6.437   2.071 -34.738  1.00  0.00    -0.169 F 
HETATM   37  F   UNL     1      -5.695   4.084 -34.379  1.00  0.00    -0.169 F 
HETATM   38  F   UNL     1      -4.996   2.443 -33.152  1.00  0.00    -0.169 F 
ENDBRANCH   8  35
TORSDOF 9
ENDMDL
MODEL 10
REMARK VINA RESULT:      -7.8      4.855      7.041
REMARK  9 active torsions:
REMARK  status: ('A' for Active; 'I' for Inactive)
REMARK    1  A    between atoms: O_2  and  C_3 
REMARK    2  A    between atoms: C_6  and  C_7 
REMARK    3  A    between atoms: C_13  and  C_14 
REMARK       I    between atoms: C_14  and  N_15 
REMARK    4  A    between atoms: N_15  and  N_16 
REMARK    5  A    between atoms: N_16  and  C_17 
REMARK    6  A    between atoms: C_17  and  N_18 
REMARK    7  A    between atoms: N_18  and  C_19 
REMARK    8  A    between atoms: C_19  and  C_20 
REMARK    9  A    between atoms: C_27  and  C_28 
ROOT
HETATM    1  C   UNL     1      -7.931   0.814 -31.844  1.00  0.00     0.118 C 
HETATM    2  N   UNL     1      -9.237   1.121 -32.415  1.00  0.00    -0.365 N 
HETATM    3  C   UNL     1      -9.437   2.183 -33.231  1.00  0.00     0.138 A 
HETATM    4  N   UNL     1      -8.492   3.163 -33.355  1.00  0.00    -0.240 N 
HETATM    5  N   UNL     1      -8.894   4.208 -34.099  1.00  0.00    -0.181 NA
HETATM    6  C   UNL     1     -10.097   3.817 -34.536  1.00  0.00     0.160 A 
HETATM    7  C   UNL     1     -10.490   2.546 -34.048  1.00  0.00     0.098 A 
HETATM    8  C   UNL     1      -7.209   3.154 -32.682  1.00  0.00     0.221 C 
HETATM    9  C   UNL     1      -7.213   2.141 -31.520  1.00  0.00     0.066 C 
HETATM   10  H   UNL     1      -9.928   0.366 -32.391  1.00  0.00     0.161 HD
ENDROOT
BRANCH   7  11
HETATM   11  C   UNL     1     -11.709   1.784 -34.248  1.00  0.00     0.275 C 
HETATM   12  N   UNL     1     -12.606   1.636 -33.200  1.00  0.00    -0.263 N 
HETATM   13  H   UNL     1     -13.471   1.207 -33.524  1.00  0.00     0.190 HD
HETATM   14  O   UNL     1     -11.971   1.240 -35.323  1.00  0.00    -0.266 OA
BRANCH  12  15
HETATM   15  N   UNL     1     -12.795   2.634 -32.222  1.00  0.00    -0.274 N 
HETATM   16  H   UNL     1     -12.051   2.770 -31.545  1.00  0.00     0.189 HD
BRANCH  15  17
HETATM   17  C   UNL     1     -13.993   3.292 -32.091  1.00  0.00     0.186 C 
HETATM   18  S   UNL     1     -15.505   2.584 -32.161  1.00  0.00    -0.040 SA
BRANCH  17  19
HETATM   19  N   UNL     1     -13.932   4.632 -31.854  1.00  0.00    -0.360 N 
HETATM   20  H   UNL     1     -14.449   4.930 -31.035  1.00  0.00     0.162 HD
BRANCH  19  21
HETATM   21  C   UNL     1     -13.061   5.616 -32.471  1.00  0.00     0.187 C 
BRANCH  21  22
HETATM   22  C   UNL     1     -11.939   5.930 -31.560  1.00  0.00     0.070 A 
HETATM   23  O   UNL     1     -10.959   4.985 -31.450  1.00  0.00    -0.325 OA
HETATM   24  C   UNL     1     -10.033   5.477 -30.585  1.00  0.00     0.142 A 
HETATM   25  C   UNL     1     -10.414   6.716 -30.126  1.00  0.00     0.027 A 
HETATM   26  C   UNL     1     -11.647   7.010 -30.754  1.00  0.00     0.036 A 
ENDBRANCH  21  22
ENDBRANCH  19  21
ENDBRANCH  17  19
ENDBRANCH  15  17
ENDBRANCH  12  15
ENDBRANCH   7  11
BRANCH   1  27
HETATM   27  C   UNL     1      -7.136  -0.177 -32.678  1.00  0.00    -0.035 A 
HETATM   28  C   UNL     1      -5.829  -0.568 -32.347  1.00  0.00     0.012 A 
HETATM   29  C   UNL     1      -5.124  -1.478 -33.141  1.00  0.00     0.037 A 
HETATM   30  C   UNL     1      -5.702  -2.022 -34.286  1.00  0.00     0.068 A 
HETATM   31  C   UNL     1      -6.986  -1.621 -34.650  1.00  0.00     0.037 A 
HETATM   32  C   UNL     1      -7.690  -0.703 -33.859  1.00  0.00     0.012 A 
BRANCH  30  33
HETATM   33  O   UNL     1      -4.914  -2.909 -34.963  1.00  0.00    -0.356 OA
HETATM   34  C   UNL     1      -4.112  -3.778 -34.173  1.00  0.00     0.210 C 
ENDBRANCH  30  33
ENDBRANCH   1  27
BRANCH   8  35
HETATM   35  C   UNL     1      -6.096   2.932 -33.682  1.00  0.00     0.409 C 
HETATM   36  F   UNL     1      -4.983   2.386 -33.160  1.00  0.00    -0.169 F 
HETATM   37  F   UNL     1      -6.489   2.143 -34.710  1.00  0.00    -0.169 F 
HETATM   38  F   UNL     1      -5.733   4.117 -34.243  1.00  0.00    -0.169 F 
ENDBRANCH   8  35
TORSDOF 9
ENDMDL
