MODEL 1
REMARK VINA RESULT:      -9.0      0.000      0.000
REMARK  8 active torsions:
REMARK  status: ('A' for Active; 'I' for Inactive)
REMARK    1  A    between atoms: C_2  and  C_3 
REMARK    2  A    between atoms: C_6  and  C_7 
REMARK    3  A    between atoms: C_11  and  C_12 
REMARK    4  A    between atoms: C_12  and  C_13 
REMARK    5  A    between atoms: C_13  and  C_14 
REMARK    6  A    between atoms: C_14  and  O_15 
REMARK    7  A    between atoms: C_20  and  C_21 
REMARK       I    between atoms: C_21  and  N_22 
REMARK    8  A    between atoms: N_22  and  C_23 
ROOT
HETATM    1  C   UNL     1      -8.215   2.621 -33.868  1.00  0.00     0.202 C 
HETATM    2  N   UNL     1      -9.648   2.339 -33.783  1.00  0.00    -0.083 N 
HETATM    3  C   UNL     1     -10.401   2.567 -32.667  1.00  0.00     0.726 A 
HETATM    4  N   UNL     1     -11.644   2.234 -32.907  1.00  0.00    -0.046 NA
HETATM    5  C   UNL     1     -11.609   1.844 -34.228  1.00  0.00     0.166 A 
HETATM    6  N   UNL     1     -10.404   1.912 -34.817  1.00  0.00    -0.140 NA
HETATM    7  N   UNL     1      -9.819   3.114 -31.584  1.00  0.00    -0.192 N 
HETATM    8  C   UNL     1      -8.547   3.686 -31.622  1.00  0.00     0.037 C 
HETATM    9  C   UNL     1      -8.162   4.486 -30.400  1.00  0.00     0.070 C 
HETATM   10  C   UNL     1      -7.746   3.501 -32.705  1.00  0.00     0.062 C 
HETATM   11  H   UNL     1     -10.423   3.393 -30.814  1.00  0.00     0.184 HD
ENDROOT
BRANCH  10  12
HETATM   12  C   UNL     1      -6.470   4.277 -32.849  1.00  0.00     0.256 C 
HETATM   13  N   UNL     1      -5.423   3.845 -32.066  1.00  0.00    -0.323 N 
HETATM   14  H   UNL     1      -5.570   3.063 -31.445  1.00  0.00     0.169 HD
HETATM   15  O   UNL     1      -6.412   5.191 -33.667  1.00  0.00    -0.267 OA
BRANCH  13  16
HETATM   16  C   UNL     1      -4.120   4.383 -31.996  1.00  0.00     0.035 A 
HETATM   17  C   UNL     1      -3.059   3.975 -32.808  1.00  0.00     0.031 A 
HETATM   18  C   UNL     1      -1.803   4.582 -32.688  1.00  0.00     0.026 A 
HETATM   19  C   UNL     1      -1.600   5.585 -31.746  1.00  0.00     0.034 A 
HETATM   20 CL   UNL     1      -0.054   6.324 -31.596  1.00  0.00    -0.084 Cl
HETATM   21  C   UNL     1      -2.645   5.996 -30.925  1.00  0.00     0.026 A 
HETATM   22  C   UNL     1      -3.904   5.404 -31.058  1.00  0.00     0.031 A 
ENDBRANCH  13  16
ENDBRANCH  10  12
BRANCH   1  23
HETATM   23  C   UNL     1      -7.445   1.302 -33.953  1.00  0.00    -0.028 A 
HETATM   24  C   UNL     1      -6.996   0.675 -32.778  1.00  0.00     0.010 A 
HETATM   25  C   UNL     1      -6.439  -0.605 -32.826  1.00  0.00     0.007 A 
HETATM   26  C   UNL     1      -6.301  -1.276 -34.046  1.00  0.00    -0.059 A 
HETATM   27  C   UNL     1      -6.689  -0.629 -35.225  1.00  0.00     0.007 A 
HETATM   28  C   UNL     1      -7.245   0.648 -35.181  1.00  0.00     0.010 A 
BRANCH  26  29
HETATM   29  C   UNL     1      -5.782  -2.692 -34.094  1.00  0.00     0.034 C 
HETATM   30  C   UNL     1      -6.743  -3.611 -34.835  1.00  0.00     0.010 C 
ENDBRANCH  26  29
ENDBRANCH   1  23
BRANCH   5  31
HETATM   31  C   UNL     1     -12.834   1.436 -34.961  1.00  0.00     0.085 C 
BRANCH  31  32
HETATM   32  C   UNL     1     -13.650   0.378 -34.221  1.00  0.00     0.034 C 
BRANCH  32  33
HETATM   33  C   UNL     1     -15.090   0.807 -33.962  1.00  0.00     0.164 C 
BRANCH  33  34
HETATM   34  O   UNL     1     -15.933   0.301 -34.992  1.00  0.00    -0.401 OA
HETATM   35  H   UNL     1     -16.529   1.019 -35.265  1.00  0.00     0.209 HD
ENDBRANCH  33  34
ENDBRANCH  32  33
ENDBRANCH  31  32
ENDBRANCH   5  31
TORSDOF 8
ENDMDL
MODEL 2
REMARK VINA RESULT:      -9.0      4.042      7.893
REMARK  8 active torsions:
REMARK  status: ('A' for Active; 'I' for Inactive)
REMARK    1  A    between atoms: C_2  and  C_3 
REMARK    2  A    between atoms: C_6  and  C_7 
REMARK    3  A    between atoms: C_11  and  C_12 
REMARK    4  A    between atoms: C_12  and  C_13 
REMARK    5  A    between atoms: C_13  and  C_14 
REMARK    6  A    between atoms: C_14  and  O_15 
REMARK    7  A    between atoms: C_20  and  C_21 
REMARK       I    between atoms: C_21  and  N_22 
REMARK    8  A    between atoms: N_22  and  C_23 
ROOT
HETATM    1  C   UNL     1      -5.847   2.857 -30.854  1.00  0.00     0.202 C 
HETATM    2  N   UNL     1      -6.422   4.018 -30.176  1.00  0.00    -0.083 N 
HETATM    3  C   UNL     1      -7.736   4.378 -30.270  1.00  0.00     0.726 A 
HETATM    4  N   UNL     1      -7.947   5.443 -29.539  1.00  0.00    -0.046 NA
HETATM    5  C   UNL     1      -6.717   5.673 -28.966  1.00  0.00     0.166 A 
HETATM    6  N   UNL     1      -5.749   4.808 -29.313  1.00  0.00    -0.140 NA
HETATM    7  N   UNL     1      -8.574   3.614 -30.995  1.00  0.00    -0.192 N 
HETATM    8  C   UNL     1      -8.227   2.344 -31.454  1.00  0.00     0.037 C 
HETATM    9  C   UNL     1      -9.367   1.525 -32.011  1.00  0.00     0.070 C 
HETATM   10  C   UNL     1      -6.936   1.921 -31.387  1.00  0.00     0.062 C 
HETATM   11  H   UNL     1      -9.568   3.827 -30.946  1.00  0.00     0.184 HD
ENDROOT
BRANCH  10  12
HETATM   12  C   UNL     1      -6.588   0.491 -31.679  1.00  0.00     0.256 C 
HETATM   13  N   UNL     1      -6.360   0.196 -33.005  1.00  0.00    -0.323 N 
HETATM   14  H   UNL     1      -6.452   0.932 -33.690  1.00  0.00     0.169 HD
HETATM   15  O   UNL     1      -6.476  -0.302 -30.748  1.00  0.00    -0.267 OA
BRANCH  13  16
HETATM   16  C   UNL     1      -6.019  -1.054 -33.563  1.00  0.00     0.035 A 
HETATM   17  C   UNL     1      -4.718  -1.558 -33.622  1.00  0.00     0.031 A 
HETATM   18  C   UNL     1      -4.473  -2.821 -34.173  1.00  0.00     0.026 A 
HETATM   19  C   UNL     1      -5.525  -3.577 -34.680  1.00  0.00     0.034 A 
HETATM   20 CL   UNL     1      -5.221  -5.127 -35.361  1.00  0.00    -0.084 Cl
HETATM   21  C   UNL     1      -6.826  -3.085 -34.635  1.00  0.00     0.026 A 
HETATM   22  C   UNL     1      -7.072  -1.832 -34.068  1.00  0.00     0.031 A 
ENDBRANCH  13  16
ENDBRANCH  10  12
BRANCH   1  23
HETATM   23  C   UNL     1      -4.896   3.333 -31.953  1.00  0.00    -0.028 A 
HETATM   24  C   UNL     1      -5.400   4.030 -33.064  1.00  0.00     0.010 A 
HETATM   25  C   UNL     1      -4.531   4.614 -33.990  1.00  0.00     0.007 A 
HETATM   26  C   UNL     1      -3.146   4.497 -33.837  1.00  0.00    -0.059 A 
HETATM   27  C   UNL     1      -2.641   3.750 -32.767  1.00  0.00     0.007 A 
HETATM   28  C   UNL     1      -3.504   3.166 -31.841  1.00  0.00     0.010 A 
BRANCH  26  29
HETATM   29  C   UNL     1      -2.203   5.198 -34.783  1.00  0.00     0.034 C 
HETATM   30  C   UNL     1      -1.483   6.352 -34.098  1.00  0.00     0.010 C 
ENDBRANCH  26  29
ENDBRANCH   1  23
BRANCH   5  31
HETATM   31  C   UNL     1      -6.494   6.768 -27.988  1.00  0.00     0.085 C 
BRANCH  31  32
HETATM   32  C   UNL     1      -5.017   7.108 -27.796  1.00  0.00     0.034 C 
BRANCH  32  33
HETATM   33  C   UNL     1      -4.437   6.545 -26.504  1.00  0.00     0.164 C 
BRANCH  33  34
HETATM   34  O   UNL     1      -4.625   5.134 -26.469  1.00  0.00    -0.401 OA
HETATM   35  H   UNL     1      -3.994   4.767 -25.827  1.00  0.00     0.209 HD
ENDBRANCH  33  34
ENDBRANCH  32  33
ENDBRANCH  31  32
ENDBRANCH   5  31
TORSDOF 8
ENDMDL
MODEL 3
REMARK VINA RESULT:      -8.9      1.335      1.635
REMARK  8 active torsions:
REMARK  status: ('A' for Active; 'I' for Inactive)
REMARK    1  A    between atoms: C_2  and  C_3 
REMARK    2  A    between atoms: C_6  and  C_7 
REMARK    3  A    between atoms: C_11  and  C_12 
REMARK    4  A    between atoms: C_12  and  C_13 
REMARK    5  A    between atoms: C_13  and  C_14 
REMARK    6  A    between atoms: C_14  and  O_15 
REMARK    7  A    between atoms: C_20  and  C_21 
REMARK       I    between atoms: C_21  and  N_22 
REMARK    8  A    between atoms: N_22  and  C_23 
ROOT
HETATM    1  C   UNL     1      -7.379   2.190 -33.268  1.00  0.00     0.202 C 
HETATM    2  N   UNL     1      -8.827   2.383 -33.352  1.00  0.00    -0.083 N 
HETATM    3  C   UNL     1      -9.627   2.609 -32.268  1.00  0.00     0.726 A 
HETATM    4  N   UNL     1     -10.864   2.760 -32.667  1.00  0.00    -0.046 NA
HETATM    5  C   UNL     1     -10.761   2.665 -34.037  1.00  0.00     0.166 A 
HETATM    6  N   UNL     1      -9.521   2.454 -34.508  1.00  0.00    -0.140 NA
HETATM    7  N   UNL     1      -9.067   2.696 -31.047  1.00  0.00    -0.192 N 
HETATM    8  C   UNL     1      -7.690   2.813 -30.858  1.00  0.00     0.037 C 
HETATM    9  C   UNL     1      -7.259   3.169 -29.455  1.00  0.00     0.070 C 
HETATM   10  C   UNL     1      -6.836   2.605 -31.896  1.00  0.00     0.062 C 
HETATM   11  H   UNL     1      -9.661   2.991 -30.276  1.00  0.00     0.184 HD
ENDROOT
BRANCH  10  12
HETATM   12  C   UNL     1      -5.379   2.930 -31.760  1.00  0.00     0.256 C 
HETATM   13  N   UNL     1      -5.029   4.225 -32.076  1.00  0.00    -0.323 N 
HETATM   14  H   UNL     1      -5.749   4.861 -32.387  1.00  0.00     0.169 HD
HETATM   15  O   UNL     1      -4.608   2.072 -31.339  1.00  0.00    -0.267 OA
BRANCH  13  16
HETATM   16  C   UNL     1      -3.742   4.803 -32.040  1.00  0.00     0.035 A 
HETATM   17  C   UNL     1      -2.725   4.509 -32.950  1.00  0.00     0.031 A 
HETATM   18  C   UNL     1      -1.484   5.149 -32.855  1.00  0.00     0.026 A 
HETATM   19  C   UNL     1      -1.251   6.072 -31.841  1.00  0.00     0.034 A 
HETATM   20 CL   UNL     1       0.277   6.853 -31.722  1.00  0.00    -0.084 Cl
HETATM   21  C   UNL     1      -2.252   6.369 -30.922  1.00  0.00     0.026 A 
HETATM   22  C   UNL     1      -3.498   5.744 -31.029  1.00  0.00     0.031 A 
ENDBRANCH  13  16
ENDBRANCH  10  12
BRANCH   1  23
HETATM   23  C   UNL     1      -7.042   0.740 -33.618  1.00  0.00    -0.028 A 
HETATM   24  C   UNL     1      -7.037   0.325 -34.960  1.00  0.00     0.010 A 
HETATM   25  C   UNL     1      -6.573  -0.947 -35.308  1.00  0.00     0.007 A 
HETATM   26  C   UNL     1      -6.124  -1.833 -34.323  1.00  0.00    -0.059 A 
HETATM   27  C   UNL     1      -6.187  -1.447 -32.980  1.00  0.00     0.007 A 
HETATM   28  C   UNL     1      -6.649  -0.180 -32.629  1.00  0.00     0.010 A 
BRANCH  26  29
HETATM   29  C   UNL     1      -5.540  -3.173 -34.699  1.00  0.00     0.034 C 
HETATM   30  C   UNL     1      -6.630  -4.172 -35.063  1.00  0.00     0.010 C 
ENDBRANCH  26  29
ENDBRANCH   1  23
BRANCH   5  31
HETATM   31  C   UNL     1     -11.934   2.843 -34.930  1.00  0.00     0.085 C 
BRANCH  31  32
HETATM   32  C   UNL     1     -12.770   1.573 -35.081  1.00  0.00     0.034 C 
BRANCH  32  33
HETATM   33  C   UNL     1     -14.021   1.575 -34.209  1.00  0.00     0.164 C 
BRANCH  33  34
HETATM   34  O   UNL     1     -13.666   1.283 -32.862  1.00  0.00    -0.401 OA
HETATM   35  H   UNL     1     -13.709   2.113 -32.358  1.00  0.00     0.209 HD
ENDBRANCH  33  34
ENDBRANCH  32  33
ENDBRANCH  31  32
ENDBRANCH   5  31
TORSDOF 8
ENDMDL
MODEL 4
REMARK VINA RESULT:      -8.3      3.567      8.230
REMARK  8 active torsions:
REMARK  status: ('A' for Active; 'I' for Inactive)
REMARK    1  A    between atoms: C_2  and  C_3 
REMARK    2  A    between atoms: C_6  and  C_7 
REMARK    3  A    between atoms: C_11  and  C_12 
REMARK    4  A    between atoms: C_12  and  C_13 
REMARK    5  A    between atoms: C_13  and  C_14 
REMARK    6  A    between atoms: C_14  and  O_15 
REMARK    7  A    between atoms: C_20  and  C_21 
REMARK       I    between atoms: C_21  and  N_22 
REMARK    8  A    between atoms: N_22  and  C_23 
ROOT
HETATM    1  C   UNL     1      -6.638   2.606 -32.417  1.00  0.00     0.202 C 
HETATM    2  N   UNL     1      -5.389   3.343 -32.603  1.00  0.00    -0.083 N 
HETATM    3  C   UNL     1      -5.278   4.466 -33.371  1.00  0.00     0.726 A 
HETATM    4  N   UNL     1      -4.045   4.904 -33.323  1.00  0.00    -0.046 NA
HETATM    5  C   UNL     1      -3.438   4.024 -32.456  1.00  0.00     0.166 A 
HETATM    6  N   UNL     1      -4.232   3.056 -31.968  1.00  0.00    -0.140 NA
HETATM    7  N   UNL     1      -6.376   4.960 -33.974  1.00  0.00    -0.192 N 
HETATM    8  C   UNL     1      -7.664   4.528 -33.658  1.00  0.00     0.037 C 
HETATM    9  C   UNL     1      -8.783   5.369 -34.225  1.00  0.00     0.070 C 
HETATM   10  C   UNL     1      -7.846   3.418 -32.894  1.00  0.00     0.062 C 
HETATM   11  H   UNL     1      -6.296   5.864 -34.432  1.00  0.00     0.184 HD
ENDROOT
BRANCH  10  12
HETATM   12  C   UNL     1      -9.209   3.067 -32.375  1.00  0.00     0.256 C 
HETATM   13  N   UNL     1     -10.230   3.140 -33.297  1.00  0.00    -0.323 N 
HETATM   14  H   UNL     1     -10.016   3.432 -34.239  1.00  0.00     0.169 HD
HETATM   15  O   UNL     1      -9.332   2.694 -31.212  1.00  0.00    -0.267 OA
BRANCH  13  16
HETATM   16  C   UNL     1     -11.600   2.869 -33.089  1.00  0.00     0.035 A 
HETATM   17  C   UNL     1     -12.462   3.694 -32.364  1.00  0.00     0.031 A 
HETATM   18  C   UNL     1     -13.814   3.360 -32.229  1.00  0.00     0.026 A 
HETATM   19  C   UNL     1     -14.304   2.192 -32.803  1.00  0.00     0.034 A 
HETATM   20 CL   UNL     1     -15.966   1.780 -32.630  1.00  0.00    -0.084 Cl
HETATM   21  C   UNL     1     -13.456   1.355 -33.521  1.00  0.00     0.026 A 
HETATM   22  C   UNL     1     -12.110   1.700 -33.673  1.00  0.00     0.031 A 
ENDBRANCH  13  16
ENDBRANCH  10  12
BRANCH   1  23
HETATM   23  C   UNL     1      -6.533   1.249 -33.116  1.00  0.00    -0.028 A 
HETATM   24  C   UNL     1      -6.169   0.108 -32.381  1.00  0.00     0.010 A 
HETATM   25  C   UNL     1      -6.229  -1.161 -32.964  1.00  0.00     0.007 A 
HETATM   26  C   UNL     1      -6.632  -1.313 -34.295  1.00  0.00    -0.059 A 
HETATM   27  C   UNL     1      -6.934  -0.173 -35.049  1.00  0.00     0.007 A 
HETATM   28  C   UNL     1      -6.876   1.094 -34.470  1.00  0.00     0.010 A 
BRANCH  26  29
HETATM   29  C   UNL     1      -6.783  -2.685 -34.904  1.00  0.00     0.034 C 
HETATM   30  C   UNL     1      -5.449  -3.418 -34.959  1.00  0.00     0.010 C 
ENDBRANCH  26  29
ENDBRANCH   1  23
BRANCH   5  31
HETATM   31  C   UNL     1      -2.020   4.174 -32.044  1.00  0.00     0.085 C 
BRANCH  31  32
HETATM   32  C   UNL     1      -1.633   5.623 -31.747  1.00  0.00     0.034 C 
BRANCH  32  33
HETATM   33  C   UNL     1      -0.526   5.745 -30.707  1.00  0.00     0.164 C 
BRANCH  33  34
HETATM   34  O   UNL     1      -0.338   4.491 -30.059  1.00  0.00    -0.401 OA
HETATM   35  H   UNL     1      -0.602   4.597 -29.129  1.00  0.00     0.209 HD
ENDBRANCH  33  34
ENDBRANCH  32  33
ENDBRANCH  31  32
ENDBRANCH   5  31
TORSDOF 8
ENDMDL
MODEL 5
REMARK VINA RESULT:      -8.3      3.559      7.111
REMARK  8 active torsions:
REMARK  status: ('A' for Active; 'I' for Inactive)
REMARK    1  A    between atoms: C_2  and  C_3 
REMARK    2  A    between atoms: C_6  and  C_7 
REMARK    3  A    between atoms: C_11  and  C_12 
REMARK    4  A    between atoms: C_12  and  C_13 
REMARK    5  A    between atoms: C_13  and  C_14 
REMARK    6  A    between atoms: C_14  and  O_15 
REMARK    7  A    between atoms: C_20  and  C_21 
REMARK       I    between atoms: C_21  and  N_22 
REMARK    8  A    between atoms: N_22  and  C_23 
ROOT
HETATM    1  C   UNL     1      -6.562   3.623 -32.125  1.00  0.00     0.202 C 
HETATM    2  N   UNL     1      -7.300   4.867 -31.909  1.00  0.00    -0.083 N 
HETATM    3  C   UNL     1      -8.484   5.163 -32.522  1.00  0.00     0.726 A 
HETATM    4  N   UNL     1      -8.905   6.332 -32.111  1.00  0.00    -0.046 NA
HETATM    5  C   UNL     1      -7.949   6.698 -31.191  1.00  0.00     0.166 A 
HETATM    6  N   UNL     1      -6.950   5.817 -31.015  1.00  0.00    -0.140 NA
HETATM    7  N   UNL     1      -9.037   4.258 -33.351  1.00  0.00    -0.192 N 
HETATM    8  C   UNL     1      -8.593   2.938 -33.427  1.00  0.00     0.037 C 
HETATM    9  C   UNL     1      -9.489   1.998 -34.199  1.00  0.00     0.070 C 
HETATM   10  C   UNL     1      -7.423   2.574 -32.836  1.00  0.00     0.062 C 
HETATM   11  H   UNL     1      -9.977   4.444 -33.694  1.00  0.00     0.184 HD
ENDROOT
BRANCH  10  12
HETATM   12  C   UNL     1      -7.041   1.127 -32.731  1.00  0.00     0.256 C 
HETATM   13  N   UNL     1      -6.201   0.664 -33.719  1.00  0.00    -0.323 N 
HETATM   14  H   UNL     1      -5.908   1.299 -34.446  1.00  0.00     0.169 HD
HETATM   15  O   UNL     1      -7.441   0.468 -31.775  1.00  0.00    -0.267 OA
BRANCH  13  16
HETATM   16  C   UNL     1      -5.686  -0.642 -33.869  1.00  0.00     0.035 A 
HETATM   17  C   UNL     1      -6.248  -1.616 -34.695  1.00  0.00     0.031 A 
HETATM   18  C   UNL     1      -5.656  -2.880 -34.804  1.00  0.00     0.026 A 
HETATM   19  C   UNL     1      -4.510  -3.178 -34.073  1.00  0.00     0.034 A 
HETATM   20 CL   UNL     1      -3.788  -4.734 -34.203  1.00  0.00    -0.084 Cl
HETATM   21  C   UNL     1      -3.943  -2.220 -33.239  1.00  0.00     0.026 A 
HETATM   22  C   UNL     1      -4.524  -0.952 -33.147  1.00  0.00     0.031 A 
ENDBRANCH  13  16
ENDBRANCH  10  12
BRANCH   1  23
HETATM   23  C   UNL     1      -5.268   3.929 -32.883  1.00  0.00    -0.028 A 
HETATM   24  C   UNL     1      -5.313   4.667 -34.077  1.00  0.00     0.010 A 
HETATM   25  C   UNL     1      -4.133   5.095 -34.691  1.00  0.00     0.007 A 
HETATM   26  C   UNL     1      -2.888   4.779 -34.137  1.00  0.00    -0.059 A 
HETATM   27  C   UNL     1      -2.838   3.991 -32.982  1.00  0.00     0.007 A 
HETATM   28  C   UNL     1      -4.013   3.562 -32.367  1.00  0.00     0.010 A 
BRANCH  26  29
HETATM   29  C   UNL     1      -1.614   5.312 -34.746  1.00  0.00     0.034 C 
HETATM   30  C   UNL     1      -1.100   6.527 -33.986  1.00  0.00     0.010 C 
ENDBRANCH  26  29
ENDBRANCH   1  23
BRANCH   5  31
HETATM   31  C   UNL     1      -8.050   7.954 -30.405  1.00  0.00     0.085 C 
BRANCH  31  32
HETATM   32  C   UNL     1      -9.114   7.890 -29.310  1.00  0.00     0.034 C 
BRANCH  32  33
HETATM   33  C   UNL     1      -8.720   6.987 -28.146  1.00  0.00     0.164 C 
BRANCH  33  34
HETATM   34  O   UNL     1      -7.495   7.442 -27.580  1.00  0.00    -0.401 OA
HETATM   35  H   UNL     1      -7.124   6.714 -27.053  1.00  0.00     0.209 HD
ENDBRANCH  33  34
ENDBRANCH  32  33
ENDBRANCH  31  32
ENDBRANCH   5  31
TORSDOF 8
ENDMDL
MODEL 6
REMARK VINA RESULT:      -8.1      3.739      6.890
REMARK  8 active torsions:
REMARK  status: ('A' for Active; 'I' for Inactive)
REMARK    1  A    between atoms: C_2  and  C_3 
REMARK    2  A    between atoms: C_6  and  C_7 
REMARK    3  A    between atoms: C_11  and  C_12 
REMARK    4  A    between atoms: C_12  and  C_13 
REMARK    5  A    between atoms: C_13  and  C_14 
REMARK    6  A    between atoms: C_14  and  O_15 
REMARK    7  A    between atoms: C_20  and  C_21 
REMARK       I    between atoms: C_21  and  N_22 
REMARK    8  A    between atoms: N_22  and  C_23 
ROOT
HETATM    1  C   UNL     1      -6.598   2.964 -30.494  1.00  0.00     0.202 C 
HETATM    2  N   UNL     1      -7.464   4.069 -30.082  1.00  0.00    -0.083 N 
HETATM    3  C   UNL     1      -8.676   4.336 -30.653  1.00  0.00     0.726 A 
HETATM    4  N   UNL     1      -9.216   5.369 -30.058  1.00  0.00    -0.046 NA
HETATM    5  C   UNL     1      -8.299   5.676 -29.077  1.00  0.00     0.166 A 
HETATM    6  N   UNL     1      -7.212   4.888 -29.039  1.00  0.00    -0.140 NA
HETATM    7  N   UNL     1      -9.134   3.530 -31.628  1.00  0.00    -0.192 N 
HETATM    8  C   UNL     1      -8.551   2.296 -31.918  1.00  0.00     0.037 C 
HETATM    9  C   UNL     1      -9.347   1.409 -32.846  1.00  0.00     0.070 C 
HETATM   10  C   UNL     1      -7.347   1.964 -31.381  1.00  0.00     0.062 C 
HETATM   11  H   UNL     1     -10.090   3.670 -31.946  1.00  0.00     0.184 HD
ENDROOT
BRANCH  10  12
HETATM   12  C   UNL     1      -6.812   0.569 -31.513  1.00  0.00     0.256 C 
HETATM   13  N   UNL     1      -6.117   0.309 -32.674  1.00  0.00    -0.323 N 
HETATM   14  H   UNL     1      -6.019   1.045 -33.358  1.00  0.00     0.169 HD
HETATM   15  O   UNL     1      -6.972  -0.227 -30.592  1.00  0.00    -0.267 OA
BRANCH  13  16
HETATM   16  C   UNL     1      -5.510  -0.905 -33.062  1.00  0.00     0.035 A 
HETATM   17  C   UNL     1      -5.974  -1.717 -34.098  1.00  0.00     0.031 A 
HETATM   18  C   UNL     1      -5.296  -2.895 -34.432  1.00  0.00     0.026 A 
HETATM   19  C   UNL     1      -4.161  -3.271 -33.720  1.00  0.00     0.034 A 
HETATM   20 CL   UNL     1      -3.332  -4.722 -34.129  1.00  0.00    -0.084 Cl
HETATM   21  C   UNL     1      -3.691  -2.476 -32.680  1.00  0.00     0.026 A 
HETATM   22  C   UNL     1      -4.358  -1.290 -32.360  1.00  0.00     0.031 A 
ENDBRANCH  13  16
ENDBRANCH  10  12
BRANCH   1  23
HETATM   23  C   UNL     1      -5.349   3.528 -31.174  1.00  0.00    -0.028 A 
HETATM   24  C   UNL     1      -4.104   2.904 -30.984  1.00  0.00     0.010 A 
HETATM   25  C   UNL     1      -2.989   3.305 -31.724  1.00  0.00     0.007 A 
HETATM   26  C   UNL     1      -3.089   4.346 -32.652  1.00  0.00    -0.059 A 
HETATM   27  C   UNL     1      -4.311   5.013 -32.798  1.00  0.00     0.007 A 
HETATM   28  C   UNL     1      -5.425   4.616 -32.061  1.00  0.00     0.010 A 
BRANCH  26  29
HETATM   29  C   UNL     1      -1.912   4.725 -33.517  1.00  0.00     0.034 C 
HETATM   30  C   UNL     1      -2.357   5.131 -34.915  1.00  0.00     0.010 C 
ENDBRANCH  26  29
ENDBRANCH   1  23
BRANCH   5  31
HETATM   31  C   UNL     1      -8.530   6.764 -28.094  1.00  0.00     0.085 C 
BRANCH  31  32
HETATM   32  C   UNL     1      -9.193   7.996 -28.710  1.00  0.00     0.034 C 
BRANCH  32  33
HETATM   33  C   UNL     1     -10.641   8.178 -28.269  1.00  0.00     0.164 C 
BRANCH  33  34
HETATM   34  O   UNL     1     -11.480   7.290 -28.999  1.00  0.00    -0.401 OA
HETATM   35  H   UNL     1     -11.641   7.686 -29.872  1.00  0.00     0.209 HD
ENDBRANCH  33  34
ENDBRANCH  32  33
ENDBRANCH  31  32
ENDBRANCH   5  31
TORSDOF 8
ENDMDL
MODEL 7
REMARK VINA RESULT:      -8.1      4.014      7.139
REMARK  8 active torsions:
REMARK  status: ('A' for Active; 'I' for Inactive)
REMARK    1  A    between atoms: C_2  and  C_3 
REMARK    2  A    between atoms: C_6  and  C_7 
REMARK    3  A    between atoms: C_11  and  C_12 
REMARK    4  A    between atoms: C_12  and  C_13 
REMARK    5  A    between atoms: C_13  and  C_14 
REMARK    6  A    between atoms: C_14  and  O_15 
REMARK    7  A    between atoms: C_20  and  C_21 
REMARK       I    between atoms: C_21  and  N_22 
REMARK    8  A    between atoms: N_22  and  C_23 
ROOT
HETATM    1  C   UNL     1      -6.767   2.496 -33.498  1.00  0.00     0.202 C 
HETATM    2  N   UNL     1      -6.432   1.102 -33.207  1.00  0.00    -0.083 N 
HETATM    3  C   UNL     1      -6.852   0.439 -32.089  1.00  0.00     0.726 A 
HETATM    4  N   UNL     1      -6.408  -0.792 -32.124  1.00  0.00    -0.046 NA
HETATM    5  C   UNL     1      -5.749  -0.849 -33.331  1.00  0.00     0.166 A 
HETATM    6  N   UNL     1      -5.755   0.289 -34.045  1.00  0.00    -0.140 NA
HETATM    7  N   UNL     1      -7.647   1.075 -31.209  1.00  0.00    -0.192 N 
HETATM    8  C   UNL     1      -8.265   2.292 -31.498  1.00  0.00     0.037 C 
HETATM    9  C   UNL     1      -9.327   2.725 -30.515  1.00  0.00     0.070 C 
HETATM   10  C   UNL     1      -7.898   3.002 -32.597  1.00  0.00     0.062 C 
HETATM   11  H   UNL     1      -8.051   0.525 -30.455  1.00  0.00     0.184 HD
ENDROOT
BRANCH  10  12
HETATM   12  C   UNL     1      -8.693   4.198 -33.032  1.00  0.00     0.256 C 
HETATM   13  N   UNL     1      -9.665   3.951 -33.976  1.00  0.00    -0.323 N 
HETATM   14  H   UNL     1      -9.777   3.011 -34.325  1.00  0.00     0.169 HD
HETATM   15  O   UNL     1      -8.479   5.286 -32.504  1.00  0.00    -0.267 OA
BRANCH  13  16
HETATM   16  C   UNL     1     -10.553   4.879 -34.562  1.00  0.00     0.035 A 
HETATM   17  C   UNL     1     -10.151   6.059 -35.191  1.00  0.00     0.031 A 
HETATM   18  C   UNL     1     -11.100   6.911 -35.768  1.00  0.00     0.026 A 
HETATM   19  C   UNL     1     -12.453   6.595 -35.702  1.00  0.00     0.034 A 
HETATM   20 CL   UNL     1     -13.618   7.647 -36.406  1.00  0.00    -0.084 Cl
HETATM   21  C   UNL     1     -12.869   5.427 -35.071  1.00  0.00     0.026 A 
HETATM   22  C   UNL     1     -11.920   4.566 -34.513  1.00  0.00     0.031 A 
ENDBRANCH  13  16
ENDBRANCH  10  12
BRANCH   1  23
HETATM   23  C   UNL     1      -5.504   3.352 -33.389  1.00  0.00    -0.028 A 
HETATM   24  C   UNL     1      -4.515   3.027 -32.444  1.00  0.00     0.010 A 
HETATM   25  C   UNL     1      -3.288   3.695 -32.443  1.00  0.00     0.007 A 
HETATM   26  C   UNL     1      -3.031   4.711 -33.370  1.00  0.00    -0.059 A 
HETATM   27  C   UNL     1      -4.036   5.081 -34.271  1.00  0.00     0.007 A 
HETATM   28  C   UNL     1      -5.261   4.417 -34.275  1.00  0.00     0.010 A 
BRANCH  26  29
HETATM   29  C   UNL     1      -1.678   5.376 -33.431  1.00  0.00     0.034 C 
HETATM   30  C   UNL     1      -1.155   5.442 -34.860  1.00  0.00     0.010 C 
ENDBRANCH  26  29
ENDBRANCH   1  23
BRANCH   5  31
HETATM   31  C   UNL     1      -5.129  -2.101 -33.832  1.00  0.00     0.085 C 
BRANCH  31  32
HETATM   32  C   UNL     1      -5.886  -2.715 -35.009  1.00  0.00     0.034 C 
BRANCH  32  33
HETATM   33  C   UNL     1      -6.914  -3.757 -34.580  1.00  0.00     0.164 C 
BRANCH  33  34
HETATM   34  O   UNL     1      -6.740  -4.945 -35.345  1.00  0.00    -0.401 OA
HETATM   35  H   UNL     1      -7.347  -4.899 -36.104  1.00  0.00     0.209 HD
ENDBRANCH  33  34
ENDBRANCH  32  33
ENDBRANCH  31  32
ENDBRANCH   5  31
TORSDOF 8
ENDMDL
MODEL 8
REMARK VINA RESULT:      -7.9      3.675      9.122
REMARK  8 active torsions:
REMARK  status: ('A' for Active; 'I' for Inactive)
REMARK    1  A    between atoms: C_2  and  C_3 
REMARK    2  A    between atoms: C_6  and  C_7 
REMARK    3  A    between atoms: C_11  and  C_12 
REMARK    4  A    between atoms: C_12  and  C_13 
REMARK    5  A    between atoms: C_13  and  C_14 
REMARK    6  A    between atoms: C_14  and  O_15 
REMARK    7  A    between atoms: C_20  and  C_21 
REMARK       I    between atoms: C_21  and  N_22 
REMARK    8  A    between atoms: N_22  and  C_23 
ROOT
HETATM    1  C   UNL     1      -6.171   3.579 -32.286  1.00  0.00     0.202 C 
HETATM    2  N   UNL     1      -4.740   3.621 -31.986  1.00  0.00    -0.083 N 
HETATM    3  C   UNL     1      -4.012   2.528 -31.610  1.00  0.00     0.726 A 
HETATM    4  N   UNL     1      -2.763   2.880 -31.433  1.00  0.00    -0.046 NA
HETATM    5  C   UNL     1      -2.768   4.216 -31.766  1.00  0.00     0.166 A 
HETATM    6  N   UNL     1      -3.960   4.713 -32.135  1.00  0.00    -0.140 NA
HETATM    7  N   UNL     1      -4.618   1.329 -31.538  1.00  0.00    -0.192 N 
HETATM    8  C   UNL     1      -5.890   1.097 -32.062  1.00  0.00     0.037 C 
HETATM    9  C   UNL     1      -6.303  -0.353 -32.137  1.00  0.00     0.070 C 
HETATM   10  C   UNL     1      -6.667   2.140 -32.459  1.00  0.00     0.062 C 
HETATM   11  H   UNL     1      -4.032   0.512 -31.383  1.00  0.00     0.184 HD
ENDROOT
BRANCH  10  12
HETATM   12  C   UNL     1      -7.941   1.897 -33.214  1.00  0.00     0.256 C 
HETATM   13  N   UNL     1      -9.093   1.945 -32.461  1.00  0.00    -0.323 N 
HETATM   14  H   UNL     1      -9.020   2.122 -31.470  1.00  0.00     0.169 HD
HETATM   15  O   UNL     1      -7.896   1.724 -34.429  1.00  0.00    -0.267 OA
BRANCH  13  16
HETATM   16  C   UNL     1     -10.420   1.755 -32.903  1.00  0.00     0.035 A 
HETATM   17  C   UNL     1     -11.328   2.791 -33.126  1.00  0.00     0.031 A 
HETATM   18  C   UNL     1     -12.620   2.512 -33.589  1.00  0.00     0.026 A 
HETATM   19  C   UNL     1     -13.011   1.196 -33.814  1.00  0.00     0.034 A 
HETATM   20 CL   UNL     1     -14.600   0.856 -34.377  1.00  0.00    -0.084 Cl
HETATM   21  C   UNL     1     -12.119   0.152 -33.588  1.00  0.00     0.026 A 
HETATM   22  C   UNL     1     -10.824   0.433 -33.145  1.00  0.00     0.031 A 
ENDBRANCH  13  16
ENDBRANCH  10  12
BRANCH   1  23
HETATM   23  C   UNL     1      -6.937   4.336 -31.199  1.00  0.00    -0.028 A 
HETATM   24  C   UNL     1      -6.714   4.034 -29.845  1.00  0.00     0.010 A 
HETATM   25  C   UNL     1      -7.279   4.824 -28.840  1.00  0.00     0.007 A 
HETATM   26  C   UNL     1      -8.091   5.916 -29.166  1.00  0.00    -0.059 A 
HETATM   27  C   UNL     1      -8.367   6.181 -30.512  1.00  0.00     0.007 A 
HETATM   28  C   UNL     1      -7.805   5.395 -31.517  1.00  0.00     0.010 A 
BRANCH  26  29
HETATM   29  C   UNL     1      -8.632   6.824 -28.089  1.00  0.00     0.034 C 
HETATM   30  C   UNL     1      -8.482   8.290 -28.471  1.00  0.00     0.010 C 
ENDBRANCH  26  29
ENDBRANCH   1  23
BRANCH   5  31
HETATM   31  C   UNL     1      -1.528   5.031 -31.774  1.00  0.00     0.085 C 
BRANCH  31  32
HETATM   32  C   UNL     1      -1.107   5.467 -33.177  1.00  0.00     0.034 C 
BRANCH  32  33
HETATM   33  C   UNL     1      -1.305   6.958 -33.424  1.00  0.00     0.164 C 
BRANCH  33  34
HETATM   34  O   UNL     1      -2.188   7.149 -34.524  1.00  0.00    -0.401 OA
HETATM   35  H   UNL     1      -2.061   6.405 -35.137  1.00  0.00     0.209 HD
ENDBRANCH  33  34
ENDBRANCH  32  33
ENDBRANCH  31  32
ENDBRANCH   5  31
TORSDOF 8
ENDMDL
MODEL 9
REMARK VINA RESULT:      -7.7     16.781     18.832
REMARK  8 active torsions:
REMARK  status: ('A' for Active; 'I' for Inactive)
REMARK    1  A    between atoms: C_2  and  C_3 
REMARK    2  A    between atoms: C_6  and  C_7 
REMARK    3  A    between atoms: C_11  and  C_12 
REMARK    4  A    between atoms: C_12  and  C_13 
REMARK    5  A    between atoms: C_13  and  C_14 
REMARK    6  A    between atoms: C_14  and  O_15 
REMARK    7  A    between atoms: C_20  and  C_21 
REMARK       I    between atoms: C_21  and  N_22 
REMARK    8  A    between atoms: N_22  and  C_23 
ROOT
HETATM    1  C   UNL     1      -5.148 -14.501 -39.020  1.00  0.00     0.202 C 
HETATM    2  N   UNL     1      -4.634 -14.929 -40.321  1.00  0.00    -0.083 N 
HETATM    3  C   UNL     1      -3.507 -14.416 -40.897  1.00  0.00     0.726 A 
HETATM    4  N   UNL     1      -3.297 -15.011 -42.044  1.00  0.00    -0.046 NA
HETATM    5  C   UNL     1      -4.317 -15.934 -42.104  1.00  0.00     0.166 A 
HETATM    6  N   UNL     1      -5.155 -15.936 -41.054  1.00  0.00    -0.140 NA
HETATM    7  N   UNL     1      -2.795 -13.487 -40.232  1.00  0.00    -0.192 N 
HETATM    8  C   UNL     1      -3.009 -13.199 -38.884  1.00  0.00     0.037 C 
HETATM    9  C   UNL     1      -1.954 -12.337 -38.232  1.00  0.00     0.070 C 
HETATM   10  C   UNL     1      -4.110 -13.682 -38.247  1.00  0.00     0.062 C 
HETATM   11  H   UNL     1      -1.895 -13.215 -40.620  1.00  0.00     0.184 HD
ENDROOT
BRANCH  10  12
HETATM   12  C   UNL     1      -4.244 -13.557 -36.758  1.00  0.00     0.256 C 
HETATM   13  N   UNL     1      -4.593 -14.714 -36.097  1.00  0.00    -0.323 N 
HETATM   14  H   UNL     1      -4.749 -15.554 -36.634  1.00  0.00     0.169 HD
HETATM   15  O   UNL     1      -3.994 -12.483 -36.220  1.00  0.00    -0.267 OA
BRANCH  13  16
HETATM   16  C   UNL     1      -4.788 -14.888 -34.710  1.00  0.00     0.035 A 
HETATM   17  C   UNL     1      -5.766 -14.225 -33.966  1.00  0.00     0.031 A 
HETATM   18  C   UNL     1      -5.905 -14.476 -32.597  1.00  0.00     0.026 A 
HETATM   19  C   UNL     1      -5.057 -15.379 -31.964  1.00  0.00     0.034 A 
HETATM   20 CL   UNL     1      -5.226 -15.682 -30.279  1.00  0.00    -0.084 Cl
HETATM   21  C   UNL     1      -4.072 -16.042 -32.690  1.00  0.00     0.026 A 
HETATM   22  C   UNL     1      -3.947 -15.805 -34.061  1.00  0.00     0.031 A 
ENDBRANCH  13  16
ENDBRANCH  10  12
BRANCH   1  23
HETATM   23  C   UNL     1      -6.462 -13.743 -39.220  1.00  0.00    -0.028 A 
HETATM   24  C   UNL     1      -6.564 -12.771 -40.230  1.00  0.00     0.010 A 
HETATM   25  C   UNL     1      -7.798 -12.189 -40.533  1.00  0.00     0.007 A 
HETATM   26  C   UNL     1      -8.948 -12.552 -39.824  1.00  0.00    -0.059 A 
HETATM   27  C   UNL     1      -8.839 -13.473 -38.776  1.00  0.00     0.007 A 
HETATM   28  C   UNL     1      -7.609 -14.055 -38.470  1.00  0.00     0.010 A 
BRANCH  26  29
HETATM   29  C   UNL     1     -10.297 -11.994 -40.204  1.00  0.00     0.034 C 
HETATM   30  C   UNL     1     -11.319 -13.103 -40.410  1.00  0.00     0.010 C 
ENDBRANCH  26  29
ENDBRANCH   1  23
BRANCH   5  31
HETATM   31  C   UNL     1      -4.443 -16.898 -43.225  1.00  0.00     0.085 C 
BRANCH  31  32
HETATM   32  C   UNL     1      -5.180 -16.320 -44.432  1.00  0.00     0.034 C 
BRANCH  32  33
HETATM   33  C   UNL     1      -4.249 -15.656 -45.440  1.00  0.00     0.164 C 
BRANCH  33  34
HETATM   34  O   UNL     1      -4.126 -14.270 -45.137  1.00  0.00    -0.401 OA
HETATM   35  H   UNL     1      -4.289 -13.773 -45.956  1.00  0.00     0.209 HD
ENDBRANCH  33  34
ENDBRANCH  32  33
ENDBRANCH  31  32
ENDBRANCH   5  31
TORSDOF 8
ENDMDL
MODEL 10
REMARK VINA RESULT:      -7.5      3.937      8.183
REMARK  8 active torsions:
REMARK  status: ('A' for Active; 'I' for Inactive)
REMARK    1  A    between atoms: C_2  and  C_3 
REMARK    2  A    between atoms: C_6  and  C_7 
REMARK    3  A    between atoms: C_11  and  C_12 
REMARK    4  A    between atoms: C_12  and  C_13 
REMARK    5  A    between atoms: C_13  and  C_14 
REMARK    6  A    between atoms: C_14  and  O_15 
REMARK    7  A    between atoms: C_20  and  C_21 
REMARK       I    between atoms: C_21  and  N_22 
REMARK    8  A    between atoms: N_22  and  C_23 
ROOT
HETATM    1  C   UNL     1      -6.918   3.374 -31.926  1.00  0.00     0.202 C 
HETATM    2  N   UNL     1      -6.108   4.465 -31.384  1.00  0.00    -0.083 N 
HETATM    3  C   UNL     1      -5.401   4.378 -30.219  1.00  0.00     0.726 A 
HETATM    4  N   UNL     1      -4.766   5.504 -30.013  1.00  0.00    -0.046 NA
HETATM    5  C   UNL     1      -5.084   6.247 -31.128  1.00  0.00     0.166 A 
HETATM    6  N   UNL     1      -5.892   5.640 -32.013  1.00  0.00    -0.140 NA
HETATM    7  N   UNL     1      -5.408   3.221 -29.532  1.00  0.00    -0.192 N 
HETATM    8  C   UNL     1      -5.898   2.031 -30.070  1.00  0.00     0.037 C 
HETATM    9  C   UNL     1      -5.585   0.785 -29.275  1.00  0.00     0.070 C 
HETATM   10  C   UNL     1      -6.608   2.045 -31.230  1.00  0.00     0.062 C 
HETATM   11  H   UNL     1      -4.775   3.138 -28.741  1.00  0.00     0.184 HD
ENDROOT
BRANCH  10  12
HETATM   12  C   UNL     1      -6.957   0.762 -31.924  1.00  0.00     0.256 C 
HETATM   13  N   UNL     1      -5.928   0.165 -32.618  1.00  0.00    -0.323 N 
HETATM   14  H   UNL     1      -5.025   0.616 -32.633  1.00  0.00     0.169 HD
HETATM   15  O   UNL     1      -8.088   0.300 -31.800  1.00  0.00    -0.267 OA
BRANCH  13  16
HETATM   16  C   UNL     1      -5.970  -1.036 -33.358  1.00  0.00     0.035 A 
HETATM   17  C   UNL     1      -7.116  -1.533 -33.982  1.00  0.00     0.031 A 
HETATM   18  C   UNL     1      -7.062  -2.722 -34.718  1.00  0.00     0.026 A 
HETATM   19  C   UNL     1      -5.867  -3.426 -34.818  1.00  0.00     0.034 A 
HETATM   20 CL   UNL     1      -5.804  -4.891 -35.718  1.00  0.00    -0.084 Cl
HETATM   21  C   UNL     1      -4.718  -2.948 -34.195  1.00  0.00     0.026 A 
HETATM   22  C   UNL     1      -4.768  -1.750 -33.477  1.00  0.00     0.031 A 
ENDBRANCH  13  16
ENDBRANCH  10  12
BRANCH   1  23
HETATM   23  C   UNL     1      -8.398   3.751 -31.837  1.00  0.00    -0.028 A 
HETATM   24  C   UNL     1      -9.142   3.953 -33.012  1.00  0.00     0.010 A 
HETATM   25  C   UNL     1     -10.526   4.134 -32.952  1.00  0.00     0.007 A 
HETATM   26  C   UNL     1     -11.191   4.137 -31.721  1.00  0.00    -0.059 A 
HETATM   27  C   UNL     1     -10.444   3.999 -30.545  1.00  0.00     0.007 A 
HETATM   28  C   UNL     1      -9.063   3.818 -30.601  1.00  0.00     0.010 A 
BRANCH  26  29
HETATM   29  C   UNL     1     -12.694   4.244 -31.655  1.00  0.00     0.034 C 
HETATM   30  C   UNL     1     -13.193   4.190 -30.217  1.00  0.00     0.010 C 
ENDBRANCH  26  29
ENDBRANCH   1  23
BRANCH   5  31
HETATM   31  C   UNL     1      -4.522   7.601 -31.360  1.00  0.00     0.085 C 
BRANCH  31  32
HETATM   32  C   UNL     1      -2.995   7.630 -31.320  1.00  0.00     0.034 C 
BRANCH  32  33
HETATM   33  C   UNL     1      -2.353   6.584 -32.225  1.00  0.00     0.164 C 
BRANCH  33  34
HETATM   34  O   UNL     1      -1.848   5.513 -31.436  1.00  0.00    -0.401 OA
HETATM   35  H   UNL     1      -1.473   4.850 -32.041  1.00  0.00     0.209 HD
ENDBRANCH  33  34
ENDBRANCH  32  33
ENDBRANCH  31  32
ENDBRANCH   5  31
TORSDOF 8
ENDMDL
