MODEL 1
REMARK VINA RESULT:      -8.7      0.000      0.000
REMARK  8 active torsions:
REMARK  status: ('A' for Active; 'I' for Inactive)
REMARK    1  A    between atoms: C_3  and  N_4 
REMARK       I    between atoms: N_4  and  C_5 
REMARK       I    between atoms: C_5  and  N_6 
REMARK       I    between atoms: N_6  and  C_7 
REMARK    2  A    between atoms: C_7  and  C_8 
REMARK    3  A    between atoms: C_8  and  N_9 
REMARK    4  A    between atoms: N_9  and  C_11 
REMARK    5  A    between atoms: N_9  and  C_17 
REMARK    6  A    between atoms: C_11  and  C_12 
REMARK    7  A    between atoms: C_17  and  C_18 
REMARK    8  A    between atoms: C_19  and  O_20 
ROOT
HETATM    1  N   UNL     1      -7.029  -0.222 -33.075  1.00  0.00    -0.053 N 
HETATM    2  H   UNL     1      -7.867  -0.804 -32.931  1.00  0.00     0.281 HD
ENDROOT
BRANCH   1   3
HETATM    3  C   UNL     1      -6.245  -0.311 -31.780  1.00  0.00     0.338 C 
BRANCH   3   4
HETATM    4  C   UNL     1      -5.139   0.742 -31.653  1.00  0.00     0.251 C 
HETATM    5  N   UNL     1      -5.362   1.690 -30.672  1.00  0.00    -0.278 N 
HETATM    6  C   UNL     1      -4.880   2.974 -30.615  1.00  0.00     0.323 C 
HETATM    7  H   UNL     1      -6.153   1.609 -30.045  1.00  0.00     0.173 HD
HETATM    8  N   UNL     1      -3.937   3.304 -31.531  1.00  0.00    -0.338 N 
HETATM    9  O   UNL     1      -5.392   3.725 -29.797  1.00  0.00    -0.247 OA
HETATM   10  H   UNL     1      -3.495   2.523 -32.007  1.00  0.00     0.164 HD
HETATM   11  O   UNL     1      -4.092   0.654 -32.292  1.00  0.00    -0.271 OA
BRANCH   8  12
HETATM   12  C   UNL     1      -3.284   4.604 -31.714  1.00  0.00     0.089 C 
HETATM   13  C   UNL     1      -1.890   4.532 -32.390  1.00  0.00     0.004 C 
HETATM   14  C   UNL     1      -0.944   5.563 -31.750  1.00  0.00     0.012 C 
HETATM   15  C   UNL     1      -1.910   4.738 -33.916  1.00  0.00     0.006 C 
HETATM   16  C   UNL     1      -2.802   5.887 -34.367  1.00  0.00     0.001 C 
HETATM   17  C   UNL     1      -4.215   5.749 -33.821  1.00  0.00     0.002 C 
HETATM   18  C   UNL     1      -4.222   5.668 -32.301  1.00  0.00     0.026 C 
ENDBRANCH   8  12
ENDBRANCH   3   4
ENDBRANCH   1   3
BRANCH   1  19
HETATM   19  C   UNL     1      -7.620   1.147 -33.327  1.00  0.00     0.300 C 
BRANCH  19  20
HETATM   20  C   UNL     1      -9.097   1.075 -33.491  1.00  0.00     0.078 A 
HETATM   21  O   UNL     1      -9.667   2.046 -34.269  1.00  0.00    -0.325 OA
HETATM   22  C   UNL     1     -11.007   1.818 -34.264  1.00  0.00     0.142 A 
HETATM   23  C   UNL     1     -11.302   0.708 -33.506  1.00  0.00     0.027 A 
HETATM   24  C   UNL     1     -10.068   0.224 -33.008  1.00  0.00     0.036 A 
ENDBRANCH  19  20
ENDBRANCH   1  19
BRANCH   1  25
HETATM   25  C   UNL     1      -6.383  -0.836 -34.290  1.00  0.00     0.277 C 
BRANCH  25  26
HETATM   26  C   UNL     1      -5.890  -2.262 -34.300  1.00  0.00     0.001 A 
HETATM   27  C   UNL     1      -4.591  -2.698 -34.010  1.00  0.00     0.073 A 
HETATM   28  C   UNL     1      -4.226  -4.043 -34.149  1.00  0.00     0.037 A 
HETATM   29  C   UNL     1      -5.151  -4.978 -34.607  1.00  0.00     0.003 A 
HETATM   30  C   UNL     1      -6.441  -4.572 -34.920  1.00  0.00     0.001 A 
HETATM   31  C   UNL     1      -6.804  -3.232 -34.768  1.00  0.00     0.011 A 
BRANCH  27  32
HETATM   32  O   UNL     1      -3.639  -1.816 -33.585  1.00  0.00    -0.360 OA
HETATM   33  H   UNL     1      -3.204  -2.201 -32.799  1.00  0.00     0.217 HD
ENDBRANCH  27  32
ENDBRANCH  25  26
ENDBRANCH   1  25
TORSDOF 8
ENDMDL
MODEL 2
REMARK VINA RESULT:      -8.6      1.667      2.136
REMARK  8 active torsions:
REMARK  status: ('A' for Active; 'I' for Inactive)
REMARK    1  A    between atoms: C_3  and  N_4 
REMARK       I    between atoms: N_4  and  C_5 
REMARK       I    between atoms: C_5  and  N_6 
REMARK       I    between atoms: N_6  and  C_7 
REMARK    2  A    between atoms: C_7  and  C_8 
REMARK    3  A    between atoms: C_8  and  N_9 
REMARK    4  A    between atoms: N_9  and  C_11 
REMARK    5  A    between atoms: N_9  and  C_17 
REMARK    6  A    between atoms: C_11  and  C_12 
REMARK    7  A    between atoms: C_17  and  C_18 
REMARK    8  A    between atoms: C_19  and  O_20 
ROOT
HETATM    1  N   UNL     1      -6.853   1.302 -33.215  1.00  0.00    -0.053 N 
HETATM    2  H   UNL     1      -5.945   1.152 -32.751  1.00  0.00     0.281 HD
ENDROOT
BRANCH   1   3
HETATM    3  C   UNL     1      -6.843   2.748 -33.672  1.00  0.00     0.338 C 
BRANCH   3   4
HETATM    4  C   UNL     1      -5.502   3.457 -33.455  1.00  0.00     0.251 C 
HETATM    5  N   UNL     1      -4.555   2.698 -32.794  1.00  0.00    -0.278 N 
HETATM    6  C   UNL     1      -3.501   3.141 -32.034  1.00  0.00     0.323 C 
HETATM    7  H   UNL     1      -4.734   1.727 -32.571  1.00  0.00     0.173 HD
HETATM    8  N   UNL     1      -3.249   4.472 -32.072  1.00  0.00    -0.338 N 
HETATM    9  O   UNL     1      -2.931   2.314 -31.336  1.00  0.00    -0.247 OA
HETATM   10  H   UNL     1      -3.688   4.981 -32.833  1.00  0.00     0.164 HD
HETATM   11  O   UNL     1      -5.271   4.558 -33.950  1.00  0.00    -0.271 OA
BRANCH   8  12
HETATM   12  C   UNL     1      -2.215   5.208 -31.337  1.00  0.00     0.089 C 
HETATM   13  C   UNL     1      -0.923   5.485 -32.150  1.00  0.00     0.004 C 
HETATM   14  C   UNL     1       0.309   5.346 -31.239  1.00  0.00     0.012 C 
HETATM   15  C   UNL     1      -0.889   6.857 -32.846  1.00  0.00     0.006 C 
HETATM   16  C   UNL     1      -1.370   8.003 -31.964  1.00  0.00     0.001 C 
HETATM   17  C   UNL     1      -2.748   7.724 -31.383  1.00  0.00     0.002 C 
HETATM   18  C   UNL     1      -2.768   6.428 -30.586  1.00  0.00     0.026 C 
ENDBRANCH   8  12
ENDBRANCH   3   4
ENDBRANCH   1   3
BRANCH   1  19
HETATM   19  C   UNL     1      -7.840   1.031 -32.101  1.00  0.00     0.300 C 
BRANCH  19  20
HETATM   20  C   UNL     1      -9.228   0.917 -32.626  1.00  0.00     0.078 A 
HETATM   21  O   UNL     1      -9.856   2.092 -32.937  1.00  0.00    -0.325 OA
HETATM   22  C   UNL     1     -11.105   1.769 -33.364  1.00  0.00     0.142 A 
HETATM   23  C   UNL     1     -11.282   0.405 -33.344  1.00  0.00     0.027 A 
HETATM   24  C   UNL     1     -10.067  -0.149 -32.869  1.00  0.00     0.036 A 
ENDBRANCH  19  20
ENDBRANCH   1  19
BRANCH   1  25
HETATM   25  C   UNL     1      -6.866   0.258 -34.301  1.00  0.00     0.277 C 
BRANCH  25  26
HETATM   26  C   UNL     1      -6.097  -1.034 -34.179  1.00  0.00     0.001 A 
HETATM   27  C   UNL     1      -4.810  -1.194 -33.651  1.00  0.00     0.073 A 
HETATM   28  C   UNL     1      -4.159  -2.434 -33.681  1.00  0.00     0.037 A 
HETATM   29  C   UNL     1      -4.776  -3.537 -34.263  1.00  0.00     0.003 A 
HETATM   30  C   UNL     1      -6.045  -3.405 -34.810  1.00  0.00     0.001 A 
HETATM   31  C   UNL     1      -6.696  -2.171 -34.768  1.00  0.00     0.011 A 
BRANCH  27  32
HETATM   32  O   UNL     1      -4.149  -0.135 -33.095  1.00  0.00    -0.360 OA
HETATM   33  H   UNL     1      -4.394   0.667 -33.597  1.00  0.00     0.217 HD
ENDBRANCH  27  32
ENDBRANCH  25  26
ENDBRANCH   1  25
TORSDOF 8
ENDMDL
MODEL 3
REMARK VINA RESULT:      -8.5      2.199      3.291
REMARK  8 active torsions:
REMARK  status: ('A' for Active; 'I' for Inactive)
REMARK    1  A    between atoms: C_3  and  N_4 
REMARK       I    between atoms: N_4  and  C_5 
REMARK       I    between atoms: C_5  and  N_6 
REMARK       I    between atoms: N_6  and  C_7 
REMARK    2  A    between atoms: C_7  and  C_8 
REMARK    3  A    between atoms: C_8  and  N_9 
REMARK    4  A    between atoms: N_9  and  C_11 
REMARK    5  A    between atoms: N_9  and  C_17 
REMARK    6  A    between atoms: C_11  and  C_12 
REMARK    7  A    between atoms: C_17  and  C_18 
REMARK    8  A    between atoms: C_19  and  O_20 
ROOT
HETATM    1  N   UNL     1      -7.153   1.417 -32.427  1.00  0.00    -0.053 N 
HETATM    2  H   UNL     1      -6.275   1.335 -31.894  1.00  0.00     0.281 HD
ENDROOT
BRANCH   1   3
HETATM    3  C   UNL     1      -6.843   2.355 -33.578  1.00  0.00     0.338 C 
BRANCH   3   4
HETATM    4  C   UNL     1      -5.533   3.131 -33.409  1.00  0.00     0.251 C 
HETATM    5  N   UNL     1      -4.559   2.459 -32.695  1.00  0.00    -0.278 N 
HETATM    6  C   UNL     1      -3.527   2.995 -31.966  1.00  0.00     0.323 C 
HETATM    7  H   UNL     1      -4.700   1.499 -32.405  1.00  0.00     0.173 HD
HETATM    8  N   UNL     1      -3.328   4.329 -32.097  1.00  0.00    -0.338 N 
HETATM    9  O   UNL     1      -2.927   2.243 -31.212  1.00  0.00    -0.247 OA
HETATM   10  H   UNL     1      -3.784   4.766 -32.893  1.00  0.00     0.164 HD
HETATM   11  O   UNL     1      -5.344   4.203 -33.979  1.00  0.00    -0.271 OA
BRANCH   8  12
HETATM   12  C   UNL     1      -2.327   5.156 -31.414  1.00  0.00     0.089 C 
HETATM   13  C   UNL     1      -1.017   5.372 -32.217  1.00  0.00     0.004 C 
HETATM   14  C   UNL     1       0.190   5.350 -31.264  1.00  0.00     0.012 C 
HETATM   15  C   UNL     1      -0.985   6.667 -33.049  1.00  0.00     0.006 C 
HETATM   16  C   UNL     1      -1.509   7.887 -32.302  1.00  0.00     0.001 C 
HETATM   17  C   UNL     1      -2.898   7.644 -31.733  1.00  0.00     0.002 C 
HETATM   18  C   UNL     1      -2.920   6.436 -30.808  1.00  0.00     0.026 C 
ENDBRANCH   8  12
ENDBRANCH   3   4
ENDBRANCH   1   3
BRANCH   1  19
HETATM   19  C   UNL     1      -8.103   2.007 -31.409  1.00  0.00     0.300 C 
BRANCH  19  20
HETATM   20  C   UNL     1      -7.506   3.194 -30.739  1.00  0.00     0.078 A 
HETATM   21  O   UNL     1      -6.340   2.979 -30.055  1.00  0.00    -0.325 OA
HETATM   22  C   UNL     1      -5.985   4.168 -29.501  1.00  0.00     0.142 A 
HETATM   23  C   UNL     1      -6.897   5.143 -29.830  1.00  0.00     0.027 A 
HETATM   24  C   UNL     1      -7.881   4.516 -30.634  1.00  0.00     0.036 A 
ENDBRANCH  19  20
ENDBRANCH   1  19
BRANCH   1  25
HETATM   25  C   UNL     1      -7.471  -0.009 -32.796  1.00  0.00     0.277 C 
BRANCH  25  26
HETATM   26  C   UNL     1      -6.402  -0.981 -33.230  1.00  0.00     0.001 A 
HETATM   27  C   UNL     1      -5.101  -1.074 -32.721  1.00  0.00     0.073 A 
HETATM   28  C   UNL     1      -4.163  -1.956 -33.274  1.00  0.00     0.037 A 
HETATM   29  C   UNL     1      -4.503  -2.748 -34.366  1.00  0.00     0.003 A 
HETATM   30  C   UNL     1      -5.780  -2.665 -34.905  1.00  0.00     0.001 A 
HETATM   31  C   UNL     1      -6.716  -1.793 -34.343  1.00  0.00     0.011 A 
BRANCH  27  32
HETATM   32  O   UNL     1      -4.708  -0.298 -31.668  1.00  0.00    -0.360 OA
HETATM   33  H   UNL     1      -5.426  -0.310 -31.003  1.00  0.00     0.217 HD
ENDBRANCH  27  32
ENDBRANCH  25  26
ENDBRANCH   1  25
TORSDOF 8
ENDMDL
MODEL 4
REMARK VINA RESULT:      -8.3      2.269      6.470
REMARK  8 active torsions:
REMARK  status: ('A' for Active; 'I' for Inactive)
REMARK    1  A    between atoms: C_3  and  N_4 
REMARK       I    between atoms: N_4  and  C_5 
REMARK       I    between atoms: C_5  and  N_6 
REMARK       I    between atoms: N_6  and  C_7 
REMARK    2  A    between atoms: C_7  and  C_8 
REMARK    3  A    between atoms: C_8  and  N_9 
REMARK    4  A    between atoms: N_9  and  C_11 
REMARK    5  A    between atoms: N_9  and  C_17 
REMARK    6  A    between atoms: C_11  and  C_12 
REMARK    7  A    between atoms: C_17  and  C_18 
REMARK    8  A    between atoms: C_19  and  O_20 
ROOT
HETATM    1  N   UNL     1      -4.731   2.410 -31.794  1.00  0.00    -0.053 N 
HETATM    2  H   UNL     1      -5.270   2.946 -32.491  1.00  0.00     0.281 HD
ENDROOT
BRANCH   1   3
HETATM    3  C   UNL     1      -5.562   2.442 -30.526  1.00  0.00     0.338 C 
BRANCH   3   4
HETATM    4  C   UNL     1      -7.055   2.678 -30.768  1.00  0.00     0.251 C 
HETATM    5  N   UNL     1      -7.796   1.524 -30.939  1.00  0.00    -0.278 N 
HETATM    6  C   UNL     1      -8.974   1.372 -31.627  1.00  0.00     0.323 C 
HETATM    7  H   UNL     1      -7.371   0.614 -30.813  1.00  0.00     0.173 HD
HETATM    8  N   UNL     1      -9.579   2.511 -32.044  1.00  0.00    -0.338 N 
HETATM    9  O   UNL     1      -9.336   0.229 -31.868  1.00  0.00    -0.247 OA
HETATM   10  H   UNL     1      -9.252   3.367 -31.606  1.00  0.00     0.164 HD
HETATM   11  O   UNL     1      -7.551   3.800 -30.686  1.00  0.00    -0.271 OA
BRANCH   8  12
HETATM   12  C   UNL     1     -10.817   2.634 -32.821  1.00  0.00     0.089 C 
HETATM   13  C   UNL     1     -11.753   3.782 -32.358  1.00  0.00     0.004 C 
HETATM   14  C   UNL     1     -13.221   3.334 -32.459  1.00  0.00     0.012 C 
HETATM   15  C   UNL     1     -11.570   5.103 -33.128  1.00  0.00     0.006 C 
HETATM   16  C   UNL     1     -11.445   4.921 -34.635  1.00  0.00     0.001 C 
HETATM   17  C   UNL     1     -10.349   3.929 -34.993  1.00  0.00     0.002 C 
HETATM   18  C   UNL     1     -10.581   2.576 -34.336  1.00  0.00     0.026 C 
ENDBRANCH   8  12
ENDBRANCH   3   4
ENDBRANCH   1   3
BRANCH   1  19
HETATM   19  C   UNL     1      -3.447   3.203 -31.692  1.00  0.00     0.300 C 
BRANCH  19  20
HETATM   20  C   UNL     1      -3.220   4.023 -32.914  1.00  0.00     0.078 A 
HETATM   21  O   UNL     1      -4.341   4.476 -33.554  1.00  0.00    -0.325 OA
HETATM   22  C   UNL     1      -3.918   5.167 -34.644  1.00  0.00     0.142 A 
HETATM   23  C   UNL     1      -2.544   5.175 -34.705  1.00  0.00     0.027 A 
HETATM   24  C   UNL     1      -2.090   4.437 -33.584  1.00  0.00     0.036 A 
ENDBRANCH  19  20
ENDBRANCH   1  19
BRANCH   1  25
HETATM   25  C   UNL     1      -4.561   1.063 -32.446  1.00  0.00     0.277 C 
BRANCH  25  26
HETATM   26  C   UNL     1      -5.568   0.514 -33.426  1.00  0.00     0.001 A 
HETATM   27  C   UNL     1      -6.460   1.256 -34.211  1.00  0.00     0.073 A 
HETATM   28  C   UNL     1      -7.420   0.627 -35.014  1.00  0.00     0.037 A 
HETATM   29  C   UNL     1      -7.522  -0.760 -35.031  1.00  0.00     0.003 A 
HETATM   30  C   UNL     1      -6.664  -1.522 -34.250  1.00  0.00     0.001 A 
HETATM   31  C   UNL     1      -5.700  -0.892 -33.459  1.00  0.00     0.011 A 
BRANCH  27  32
HETATM   32  O   UNL     1      -6.421   2.622 -34.208  1.00  0.00    -0.360 OA
HETATM   33  H   UNL     1      -6.120   2.910 -33.324  1.00  0.00     0.217 HD
ENDBRANCH  27  32
ENDBRANCH  25  26
ENDBRANCH   1  25
TORSDOF 8
ENDMDL
MODEL 5
REMARK VINA RESULT:      -8.1      2.708      8.966
REMARK  8 active torsions:
REMARK  status: ('A' for Active; 'I' for Inactive)
REMARK    1  A    between atoms: C_3  and  N_4 
REMARK       I    between atoms: N_4  and  C_5 
REMARK       I    between atoms: C_5  and  N_6 
REMARK       I    between atoms: N_6  and  C_7 
REMARK    2  A    between atoms: C_7  and  C_8 
REMARK    3  A    between atoms: C_8  and  N_9 
REMARK    4  A    between atoms: N_9  and  C_11 
REMARK    5  A    between atoms: N_9  and  C_17 
REMARK    6  A    between atoms: C_11  and  C_12 
REMARK    7  A    between atoms: C_17  and  C_18 
REMARK    8  A    between atoms: C_19  and  O_20 
ROOT
HETATM    1  N   UNL     1      -3.486   6.834 -30.583  1.00  0.00    -0.053 N 
HETATM    2  H   UNL     1      -2.797   6.071 -30.657  1.00  0.00     0.281 HD
ENDROOT
BRANCH   1   3
HETATM    3  C   UNL     1      -4.672   6.241 -29.848  1.00  0.00     0.338 C 
BRANCH   3   4
HETATM    4  C   UNL     1      -5.096   4.863 -30.366  1.00  0.00     0.251 C 
HETATM    5  N   UNL     1      -4.066   3.946 -30.462  1.00  0.00    -0.278 N 
HETATM    6  C   UNL     1      -3.978   2.861 -31.298  1.00  0.00     0.323 C 
HETATM    7  H   UNL     1      -3.140   4.172 -30.121  1.00  0.00     0.173 HD
HETATM    8  N   UNL     1      -5.099   2.542 -31.989  1.00  0.00    -0.338 N 
HETATM    9  O   UNL     1      -2.884   2.325 -31.402  1.00  0.00    -0.247 OA
HETATM   10  H   UNL     1      -5.959   2.964 -31.651  1.00  0.00     0.164 HD
HETATM   11  O   UNL     1      -6.279   4.582 -30.550  1.00  0.00    -0.271 OA
BRANCH   8  12
HETATM   12  C   UNL     1      -5.271   1.461 -32.966  1.00  0.00     0.089 C 
HETATM   13  C   UNL     1      -5.315   0.038 -32.349  1.00  0.00     0.004 C 
HETATM   14  C   UNL     1      -4.579  -0.953 -33.266  1.00  0.00     0.012 C 
HETATM   15  C   UNL     1      -6.733  -0.489 -32.063  1.00  0.00     0.006 C 
HETATM   16  C   UNL     1      -7.722  -0.230 -33.193  1.00  0.00     0.001 C 
HETATM   17  C   UNL     1      -7.759   1.240 -33.581  1.00  0.00     0.002 C 
HETATM   18  C   UNL     1      -6.382   1.747 -33.986  1.00  0.00     0.026 C 
ENDBRANCH   8  12
ENDBRANCH   3   4
ENDBRANCH   1   3
BRANCH   1  19
HETATM   19  C   UNL     1      -3.777   7.156 -32.032  1.00  0.00     0.300 C 
BRANCH  19  20
HETATM   20  C   UNL     1      -2.753   6.561 -32.933  1.00  0.00     0.078 A 
HETATM   21  O   UNL     1      -2.267   5.335 -32.570  1.00  0.00    -0.325 OA
HETATM   22  C   UNL     1      -1.336   4.991 -33.498  1.00  0.00     0.142 A 
HETATM   23  C   UNL     1      -1.226   5.972 -34.456  1.00  0.00     0.027 A 
HETATM   24  C   UNL     1      -2.144   6.988 -34.094  1.00  0.00     0.036 A 
ENDBRANCH  19  20
ENDBRANCH   1  19
BRANCH   1  25
HETATM   25  C   UNL     1      -2.729   7.919 -29.863  1.00  0.00     0.277 C 
BRANCH  25  26
HETATM   26  C   UNL     1      -1.381   7.670 -29.231  1.00  0.00     0.001 A 
HETATM   27  C   UNL     1      -0.661   6.469 -29.244  1.00  0.00     0.073 A 
HETATM   28  C   UNL     1       0.540   6.332 -28.536  1.00  0.00     0.037 A 
HETATM   29  C   UNL     1       1.033   7.390 -27.778  1.00  0.00     0.003 A 
HETATM   30  C   UNL     1       0.332   8.588 -27.731  1.00  0.00     0.001 A 
HETATM   31  C   UNL     1      -0.859   8.725 -28.448  1.00  0.00     0.011 A 
BRANCH  27  32
HETATM   32  O   UNL     1      -1.117   5.391 -29.948  1.00  0.00    -0.360 OA
HETATM   33  H   UNL     1      -1.159   4.630 -29.336  1.00  0.00     0.217 HD
ENDBRANCH  27  32
ENDBRANCH  25  26
ENDBRANCH   1  25
TORSDOF 8
ENDMDL
MODEL 6
REMARK VINA RESULT:      -8.0      2.227      6.739
REMARK  8 active torsions:
REMARK  status: ('A' for Active; 'I' for Inactive)
REMARK    1  A    between atoms: C_3  and  N_4 
REMARK       I    between atoms: N_4  and  C_5 
REMARK       I    between atoms: C_5  and  N_6 
REMARK       I    between atoms: N_6  and  C_7 
REMARK    2  A    between atoms: C_7  and  C_8 
REMARK    3  A    between atoms: C_8  and  N_9 
REMARK    4  A    between atoms: N_9  and  C_11 
REMARK    5  A    between atoms: N_9  and  C_17 
REMARK    6  A    between atoms: C_11  and  C_12 
REMARK    7  A    between atoms: C_17  and  C_18 
REMARK    8  A    between atoms: C_19  and  O_20 
ROOT
HETATM    1  N   UNL     1      -6.113   1.060 -32.744  1.00  0.00    -0.053 N 
HETATM    2  H   UNL     1      -6.861   0.730 -33.372  1.00  0.00     0.281 HD
ENDROOT
BRANCH   1   3
HETATM    3  C   UNL     1      -6.804   1.418 -31.442  1.00  0.00     0.338 C 
BRANCH   3   4
HETATM    4  C   UNL     1      -8.310   1.655 -31.585  1.00  0.00     0.251 C 
HETATM    5  N   UNL     1      -9.047   0.515 -31.844  1.00  0.00    -0.278 N 
HETATM    6  C   UNL     1     -10.256   0.419 -32.487  1.00  0.00     0.323 C 
HETATM    7  H   UNL     1      -8.607  -0.397 -31.839  1.00  0.00     0.173 HD
HETATM    8  N   UNL     1     -10.893   1.587 -32.747  1.00  0.00    -0.338 N 
HETATM    9  O   UNL     1     -10.617  -0.696 -32.832  1.00  0.00    -0.247 OA
HETATM   10  H   UNL     1     -10.553   2.396 -32.235  1.00  0.00     0.164 HD
HETATM   11  O   UNL     1      -8.812   2.754 -31.356  1.00  0.00    -0.271 OA
BRANCH   8  12
HETATM   12  C   UNL     1     -12.170   1.774 -33.444  1.00  0.00     0.089 C 
HETATM   13  C   UNL     1     -13.070   2.887 -32.846  1.00  0.00     0.004 C 
HETATM   14  C   UNL     1     -14.545   2.453 -32.902  1.00  0.00     0.012 C 
HETATM   15  C   UNL     1     -12.918   4.262 -33.521  1.00  0.00     0.006 C 
HETATM   16  C   UNL     1     -12.875   4.196 -35.042  1.00  0.00     0.001 C 
HETATM   17  C   UNL     1     -11.807   3.231 -35.533  1.00  0.00     0.002 C 
HETATM   18  C   UNL     1     -12.015   1.832 -34.970  1.00  0.00     0.026 C 
ENDBRANCH   8  12
ENDBRANCH   3   4
ENDBRANCH   1   3
BRANCH   1  19
HETATM   19  C   UNL     1      -5.567   2.260 -33.485  1.00  0.00     0.300 C 
BRANCH  19  20
HETATM   20  C   UNL     1      -4.568   2.994 -32.661  1.00  0.00     0.078 A 
HETATM   21  O   UNL     1      -4.991   4.169 -32.102  1.00  0.00    -0.325 OA
HETATM   22  C   UNL     1      -3.932   4.686 -31.425  1.00  0.00     0.142 A 
HETATM   23  C   UNL     1      -2.842   3.853 -31.530  1.00  0.00     0.027 A 
HETATM   24  C   UNL     1      -3.252   2.756 -32.327  1.00  0.00     0.036 A 
ENDBRANCH  19  20
ENDBRANCH   1  19
BRANCH   1  25
HETATM   25  C   UNL     1      -5.160  -0.106 -32.695  1.00  0.00     0.277 C 
BRANCH  25  26
HETATM   26  C   UNL     1      -5.382  -1.356 -33.510  1.00  0.00     0.001 A 
HETATM   27  C   UNL     1      -6.594  -1.792 -34.058  1.00  0.00     0.073 A 
HETATM   28  C   UNL     1      -6.696  -3.025 -34.715  1.00  0.00     0.037 A 
HETATM   29  C   UNL     1      -5.587  -3.860 -34.816  1.00  0.00     0.003 A 
HETATM   30  C   UNL     1      -4.375  -3.463 -34.268  1.00  0.00     0.001 A 
HETATM   31  C   UNL     1      -4.275  -2.227 -33.624  1.00  0.00     0.011 A 
BRANCH  27  32
HETATM   32  O   UNL     1      -7.719  -1.024 -33.959  1.00  0.00    -0.360 OA
HETATM   33  H   UNL     1      -8.208  -1.309 -33.162  1.00  0.00     0.217 HD
ENDBRANCH  27  32
ENDBRANCH  25  26
ENDBRANCH   1  25
TORSDOF 8
ENDMDL
MODEL 7
REMARK VINA RESULT:      -7.8      2.622      3.919
REMARK  8 active torsions:
REMARK  status: ('A' for Active; 'I' for Inactive)
REMARK    1  A    between atoms: C_3  and  N_4 
REMARK       I    between atoms: N_4  and  C_5 
REMARK       I    between atoms: C_5  and  N_6 
REMARK       I    between atoms: N_6  and  C_7 
REMARK    2  A    between atoms: C_7  and  C_8 
REMARK    3  A    between atoms: C_8  and  N_9 
REMARK    4  A    between atoms: N_9  and  C_11 
REMARK    5  A    between atoms: N_9  and  C_17 
REMARK    6  A    between atoms: C_11  and  C_12 
REMARK    7  A    between atoms: C_17  and  C_18 
REMARK    8  A    between atoms: C_19  and  O_20 
ROOT
HETATM    1  N   UNL     1      -8.466   3.114 -32.907  1.00  0.00    -0.053 N 
HETATM    2  H   UNL     1      -7.718   2.910 -32.229  1.00  0.00     0.281 HD
ENDROOT
BRANCH   1   3
HETATM    3  C   UNL     1      -7.845   4.049 -33.928  1.00  0.00     0.338 C 
BRANCH   3   4
HETATM    4  C   UNL     1      -6.357   4.324 -33.691  1.00  0.00     0.251 C 
HETATM    5  N   UNL     1      -5.776   3.530 -32.721  1.00  0.00    -0.278 N 
HETATM    6  C   UNL     1      -4.681   3.814 -31.943  1.00  0.00     0.323 C 
HETATM    7  H   UNL     1      -6.296   2.775 -32.291  1.00  0.00     0.173 HD
HETATM    8  N   UNL     1      -3.978   4.924 -32.276  1.00  0.00    -0.338 N 
HETATM    9  O   UNL     1      -4.479   3.089 -30.979  1.00  0.00    -0.247 OA
HETATM   10  H   UNL     1      -4.165   5.302 -33.200  1.00  0.00     0.164 HD
HETATM   11  O   UNL     1      -5.726   5.101 -34.405  1.00  0.00    -0.271 OA
BRANCH   8  12
HETATM   12  C   UNL     1      -2.798   5.472 -31.599  1.00  0.00     0.089 C 
HETATM   13  C   UNL     1      -1.553   5.634 -32.511  1.00  0.00     0.004 C 
HETATM   14  C   UNL     1      -0.279   5.279 -31.725  1.00  0.00     0.012 C 
HETATM   15  C   UNL     1      -1.395   7.034 -33.131  1.00  0.00     0.006 C 
HETATM   16  C   UNL     1      -1.645   8.171 -32.147  1.00  0.00     0.001 C 
HETATM   17  C   UNL     1      -2.994   8.033 -31.459  1.00  0.00     0.002 C 
HETATM   18  C   UNL     1      -3.119   6.700 -30.735  1.00  0.00     0.026 C 
ENDBRANCH   8  12
ENDBRANCH   3   4
ENDBRANCH   1   3
BRANCH   1  19
HETATM   19  C   UNL     1      -9.518   3.778 -32.046  1.00  0.00     0.300 C 
BRANCH  19  20
HETATM   20  C   UNL     1      -8.908   4.430 -30.856  1.00  0.00     0.078 A 
HETATM   21  O   UNL     1      -7.772   3.848 -30.363  1.00  0.00    -0.325 OA
HETATM   22  C   UNL     1      -7.400   4.572 -29.275  1.00  0.00     0.142 A 
HETATM   23  C   UNL     1      -8.272   5.616 -29.071  1.00  0.00     0.027 A 
HETATM   24  C   UNL     1      -9.247   5.528 -30.095  1.00  0.00     0.036 A 
ENDBRANCH  19  20
ENDBRANCH   1  19
BRANCH   1  25
HETATM   25  C   UNL     1      -8.865   1.751 -33.407  1.00  0.00     0.277 C 
BRANCH  25  26
HETATM   26  C   UNL     1      -7.903   0.589 -33.420  1.00  0.00     0.001 A 
HETATM   27  C   UNL     1      -6.944   0.287 -32.445  1.00  0.00     0.073 A 
HETATM   28  C   UNL     1      -6.037  -0.767 -32.616  1.00  0.00     0.037 A 
HETATM   29  C   UNL     1      -6.056  -1.528 -33.781  1.00  0.00     0.003 A 
HETATM   30  C   UNL     1      -6.984  -1.241 -34.774  1.00  0.00     0.001 A 
HETATM   31  C   UNL     1      -7.894  -0.197 -34.594  1.00  0.00     0.011 A 
BRANCH  27  32
HETATM   32  O   UNL     1      -6.865   1.022 -31.296  1.00  0.00    -0.360 OA
HETATM   33  H   UNL     1      -7.205   0.470 -30.564  1.00  0.00     0.217 HD
ENDBRANCH  27  32
ENDBRANCH  25  26
ENDBRANCH   1  25
TORSDOF 8
ENDMDL
MODEL 8
REMARK VINA RESULT:      -7.8      1.601      2.261
REMARK  8 active torsions:
REMARK  status: ('A' for Active; 'I' for Inactive)
REMARK    1  A    between atoms: C_3  and  N_4 
REMARK       I    between atoms: N_4  and  C_5 
REMARK       I    between atoms: C_5  and  N_6 
REMARK       I    between atoms: N_6  and  C_7 
REMARK    2  A    between atoms: C_7  and  C_8 
REMARK    3  A    between atoms: C_8  and  N_9 
REMARK    4  A    between atoms: N_9  and  C_11 
REMARK    5  A    between atoms: N_9  and  C_17 
REMARK    6  A    between atoms: C_11  and  C_12 
REMARK    7  A    between atoms: C_17  and  C_18 
REMARK    8  A    between atoms: C_19  and  O_20 
ROOT
HETATM    1  N   UNL     1      -6.648   1.247 -31.792  1.00  0.00    -0.053 N 
HETATM    2  H   UNL     1      -7.221   0.398 -31.677  1.00  0.00     0.281 HD
ENDROOT
BRANCH   1   3
HETATM    3  C   UNL     1      -5.943   1.445 -30.464  1.00  0.00     0.338 C 
BRANCH   3   4
HETATM    4  C   UNL     1      -4.884   2.551 -30.484  1.00  0.00     0.251 C 
HETATM    5  N   UNL     1      -5.267   3.722 -29.857  1.00  0.00    -0.278 N 
HETATM    6  C   UNL     1      -4.816   4.995 -30.101  1.00  0.00     0.323 C 
HETATM    7  H   UNL     1      -6.145   3.776 -29.355  1.00  0.00     0.173 HD
HETATM    8  N   UNL     1      -3.747   5.107 -30.926  1.00  0.00    -0.338 N 
HETATM    9  O   UNL     1      -5.457   5.916 -29.615  1.00  0.00    -0.247 OA
HETATM   10  H   UNL     1      -3.227   4.251 -31.090  1.00  0.00     0.164 HD
HETATM   11  O   UNL     1      -3.750   2.347 -30.913  1.00  0.00    -0.271 OA
BRANCH   8  12
HETATM   12  C   UNL     1      -3.090   6.339 -31.377  1.00  0.00     0.089 C 
HETATM   13  C   UNL     1      -2.258   7.059 -30.284  1.00  0.00     0.004 C 
HETATM   14  C   UNL     1      -2.411   8.583 -30.428  1.00  0.00     0.012 C 
HETATM   15  C   UNL     1      -0.762   6.696 -30.279  1.00  0.00     0.006 C 
HETATM   16  C   UNL     1      -0.135   6.661 -31.667  1.00  0.00     0.001 C 
HETATM   17  C   UNL     1      -0.910   5.753 -32.610  1.00  0.00     0.002 C 
HETATM   18  C   UNL     1      -2.368   6.174 -32.721  1.00  0.00     0.026 C 
ENDBRANCH   8  12
ENDBRANCH   3   4
ENDBRANCH   1   3
BRANCH   1  19
HETATM   19  C   UNL     1      -7.686   2.307 -32.085  1.00  0.00     0.300 C 
BRANCH  19  20
HETATM   20  C   UNL     1      -8.893   1.717 -32.727  1.00  0.00     0.078 A 
HETATM   21  O   UNL     1      -9.344   2.343 -33.857  1.00  0.00    -0.325 OA
HETATM   22  C   UNL     1     -10.455   1.673 -34.261  1.00  0.00     0.142 A 
HETATM   23  C   UNL     1     -10.714   0.619 -33.415  1.00  0.00     0.027 A 
HETATM   24  C   UNL     1      -9.703   0.644 -32.424  1.00  0.00     0.036 A 
ENDBRANCH  19  20
ENDBRANCH   1  19
BRANCH   1  25
HETATM   25  C   UNL     1      -5.770   0.917 -32.971  1.00  0.00     0.277 C 
BRANCH  25  26
HETATM   26  C   UNL     1      -5.627  -0.491 -33.495  1.00  0.00     0.001 A 
HETATM   27  C   UNL     1      -4.439  -1.222 -33.611  1.00  0.00     0.073 A 
HETATM   28  C   UNL     1      -4.419  -2.490 -34.206  1.00  0.00     0.037 A 
HETATM   29  C   UNL     1      -5.589  -3.043 -34.720  1.00  0.00     0.003 A 
HETATM   30  C   UNL     1      -6.779  -2.334 -34.635  1.00  0.00     0.001 A 
HETATM   31  C   UNL     1      -6.797  -1.075 -34.030  1.00  0.00     0.011 A 
BRANCH  27  32
HETATM   32  O   UNL     1      -3.259  -0.712 -33.149  1.00  0.00    -0.360 OA
HETATM   33  H   UNL     1      -3.187   0.209 -33.468  1.00  0.00     0.217 HD
ENDBRANCH  27  32
ENDBRANCH  25  26
ENDBRANCH   1  25
TORSDOF 8
ENDMDL
MODEL 9
REMARK VINA RESULT:      -7.8      3.237      7.587
REMARK  8 active torsions:
REMARK  status: ('A' for Active; 'I' for Inactive)
REMARK    1  A    between atoms: C_3  and  N_4 
REMARK       I    between atoms: N_4  and  C_5 
REMARK       I    between atoms: C_5  and  N_6 
REMARK       I    between atoms: N_6  and  C_7 
REMARK    2  A    between atoms: C_7  and  C_8 
REMARK    3  A    between atoms: C_8  and  N_9 
REMARK    4  A    between atoms: N_9  and  C_11 
REMARK    5  A    between atoms: N_9  and  C_17 
REMARK    6  A    between atoms: C_11  and  C_12 
REMARK    7  A    between atoms: C_17  and  C_18 
REMARK    8  A    between atoms: C_19  and  O_20 
ROOT
HETATM    1  N   UNL     1      -3.468   4.366 -32.934  1.00  0.00    -0.053 N 
HETATM    2  H   UNL     1      -3.880   3.636 -33.533  1.00  0.00     0.281 HD
ENDROOT
BRANCH   1   3
HETATM    3  C   UNL     1      -4.376   5.572 -33.078  1.00  0.00     0.338 C 
BRANCH   3   4
HETATM    4  C   UNL     1      -5.867   5.223 -33.119  1.00  0.00     0.251 C 
HETATM    5  N   UNL     1      -6.535   5.429 -31.927  1.00  0.00    -0.278 N 
HETATM    6  C   UNL     1      -7.669   4.800 -31.476  1.00  0.00     0.323 C 
HETATM    7  H   UNL     1      -6.069   5.865 -31.141  1.00  0.00     0.173 HD
HETATM    8  N   UNL     1      -8.313   4.009 -32.369  1.00  0.00    -0.338 N 
HETATM    9  O   UNL     1      -7.957   4.947 -30.297  1.00  0.00    -0.247 OA
HETATM   10  H   UNL     1      -8.054   4.143 -33.342  1.00  0.00     0.164 HD
HETATM   11  O   UNL     1      -6.425   4.911 -34.169  1.00  0.00    -0.271 OA
BRANCH   8  12
HETATM   12  C   UNL     1      -9.518   3.202 -32.143  1.00  0.00     0.089 C 
HETATM   13  C   UNL     1     -10.415   3.025 -33.397  1.00  0.00     0.004 C 
HETATM   14  C   UNL     1     -11.897   3.070 -32.990  1.00  0.00     0.012 C 
HETATM   15  C   UNL     1     -10.145   1.737 -34.196  1.00  0.00     0.006 C 
HETATM   16  C   UNL     1      -9.978   0.499 -33.325  1.00  0.00     0.001 C 
HETATM   17  C   UNL     1      -8.916   0.704 -32.255  1.00  0.00     0.002 C 
HETATM   18  C   UNL     1      -9.233   1.905 -31.375  1.00  0.00     0.026 C 
ENDBRANCH   8  12
ENDBRANCH   3   4
ENDBRANCH   1   3
BRANCH   1  19
HETATM   19  C   UNL     1      -2.102   4.565 -33.553  1.00  0.00     0.300 C 
BRANCH  19  20
HETATM   20  C   UNL     1      -1.225   5.384 -32.672  1.00  0.00     0.078 A 
HETATM   21  O   UNL     1      -0.468   4.695 -31.763  1.00  0.00    -0.325 OA
HETATM   22  C   UNL     1       0.227   5.619 -31.050  1.00  0.00     0.142 A 
HETATM   23  C   UNL     1      -0.063   6.887 -31.495  1.00  0.00     0.027 A 
HETATM   24  C   UNL     1      -0.999   6.738 -32.547  1.00  0.00     0.036 A 
ENDBRANCH  19  20
ENDBRANCH   1  19
BRANCH   1  25
HETATM   25  C   UNL     1      -3.427   3.720 -31.574  1.00  0.00     0.277 C 
BRANCH  25  26
HETATM   26  C   UNL     1      -4.316   2.554 -31.215  1.00  0.00     0.001 A 
HETATM   27  C   UNL     1      -5.207   2.485 -30.137  1.00  0.00     0.073 A 
HETATM   28  C   UNL     1      -5.909   1.308 -29.847  1.00  0.00     0.037 A 
HETATM   29  C   UNL     1      -5.714   0.166 -30.617  1.00  0.00     0.003 A 
HETATM   30  C   UNL     1      -4.822   0.198 -31.681  1.00  0.00     0.001 A 
HETATM   31  C   UNL     1      -4.133   1.377 -31.975  1.00  0.00     0.011 A 
BRANCH  27  32
HETATM   32  O   UNL     1      -5.413   3.570 -29.333  1.00  0.00    -0.360 OA
HETATM   33  H   UNL     1      -4.713   4.224 -29.528  1.00  0.00     0.217 HD
ENDBRANCH  27  32
ENDBRANCH  25  26
ENDBRANCH   1  25
TORSDOF 8
ENDMDL
MODEL 10
REMARK VINA RESULT:      -7.7      2.343      3.478
REMARK  8 active torsions:
REMARK  status: ('A' for Active; 'I' for Inactive)
REMARK    1  A    between atoms: C_3  and  N_4 
REMARK       I    between atoms: N_4  and  C_5 
REMARK       I    between atoms: C_5  and  N_6 
REMARK       I    between atoms: N_6  and  C_7 
REMARK    2  A    between atoms: C_7  and  C_8 
REMARK    3  A    between atoms: C_8  and  N_9 
REMARK    4  A    between atoms: N_9  and  C_11 
REMARK    5  A    between atoms: N_9  and  C_17 
REMARK    6  A    between atoms: C_11  and  C_12 
REMARK    7  A    between atoms: C_17  and  C_18 
REMARK    8  A    between atoms: C_19  and  O_20 
ROOT
HETATM    1  N   UNL     1      -5.749   1.416 -32.001  1.00  0.00    -0.053 N 
HETATM    2  H   UNL     1      -5.859   1.846 -31.072  1.00  0.00     0.281 HD
ENDROOT
BRANCH   1   3
HETATM    3  C   UNL     1      -4.442   1.957 -32.548  1.00  0.00     0.338 C 
BRANCH   3   4
HETATM    4  C   UNL     1      -4.148   3.402 -32.134  1.00  0.00     0.251 C 
HETATM    5  N   UNL     1      -4.166   4.311 -33.176  1.00  0.00    -0.278 N 
HETATM    6  C   UNL     1      -3.501   5.509 -33.262  1.00  0.00     0.323 C 
HETATM    7  H   UNL     1      -4.447   4.026 -34.106  1.00  0.00     0.173 HD
HETATM    8  N   UNL     1      -2.894   5.942 -32.130  1.00  0.00    -0.338 N 
HETATM    9  O   UNL     1      -3.453   6.042 -34.361  1.00  0.00    -0.247 OA
HETATM   10  H   UNL     1      -3.185   5.483 -31.272  1.00  0.00     0.164 HD
HETATM   11  O   UNL     1      -4.036   3.722 -30.952  1.00  0.00    -0.271 OA
BRANCH   8  12
HETATM   12  C   UNL     1      -2.095   7.160 -31.953  1.00  0.00     0.089 C 
HETATM   13  C   UNL     1      -2.314   7.879 -30.596  1.00  0.00     0.004 C 
HETATM   14  C   UNL     1      -2.287   9.403 -30.802  1.00  0.00     0.012 C 
HETATM   15  C   UNL     1      -1.304   7.495 -29.501  1.00  0.00     0.006 C 
HETATM   16  C   UNL     1       0.138   7.437 -29.990  1.00  0.00     0.001 C 
HETATM   17  C   UNL     1       0.284   6.530 -31.202  1.00  0.00     0.002 C 
HETATM   18  C   UNL     1      -0.622   6.971 -32.343  1.00  0.00     0.026 C 
ENDBRANCH   8  12
ENDBRANCH   3   4
ENDBRANCH   1   3
BRANCH   1  19
HETATM   19  C   UNL     1      -6.966   1.921 -32.743  1.00  0.00     0.300 C 
BRANCH  19  20
HETATM   20  C   UNL     1      -7.949   2.537 -31.811  1.00  0.00     0.078 A 
HETATM   21  O   UNL     1      -7.514   3.625 -31.104  1.00  0.00    -0.325 OA
HETATM   22  C   UNL     1      -8.541   4.009 -30.302  1.00  0.00     0.142 A 
HETATM   23  C   UNL     1      -9.631   3.193 -30.493  1.00  0.00     0.027 A 
HETATM   24  C   UNL     1      -9.252   2.241 -31.471  1.00  0.00     0.036 A 
ENDBRANCH  19  20
ENDBRANCH   1  19
BRANCH   1  25
HETATM   25  C   UNL     1      -5.789  -0.061 -31.709  1.00  0.00     0.277 C 
BRANCH  25  26
HETATM   26  C   UNL     1      -5.609  -1.097 -32.791  1.00  0.00     0.001 A 
HETATM   27  C   UNL     1      -4.415  -1.738 -33.144  1.00  0.00     0.073 A 
HETATM   28  C   UNL     1      -4.353  -2.613 -34.236  1.00  0.00     0.037 A 
HETATM   29  C   UNL     1      -5.483  -2.847 -35.013  1.00  0.00     0.003 A 
HETATM   30  C   UNL     1      -6.677  -2.212 -34.699  1.00  0.00     0.001 A 
HETATM   31  C   UNL     1      -6.738  -1.349 -33.603  1.00  0.00     0.011 A 
BRANCH  27  32
HETATM   32  O   UNL     1      -3.271  -1.520 -32.430  1.00  0.00    -0.360 OA
HETATM   33  H   UNL     1      -3.155  -2.270 -31.814  1.00  0.00     0.217 HD
ENDBRANCH  27  32
ENDBRANCH  25  26
ENDBRANCH   1  25
TORSDOF 8
ENDMDL
