MODEL 1
REMARK VINA RESULT:      -8.4      0.000      0.000
REMARK  3 active torsions:
REMARK  status: ('A' for Active; 'I' for Inactive)
REMARK    1  A    between atoms: C_2  and  N_3 
REMARK    2  A    between atoms: C_2  and  C_10 
REMARK    3  A    between atoms: C_13  and  C_14 
ROOT
HETATM    1  C   UNL     1      -9.898   1.745 -33.398  1.00  0.00    -0.028 A 
HETATM    2  C   UNL     1      -9.578   0.873 -32.345  1.00  0.00     0.010 A 
HETATM    3  C   UNL     1      -8.555  -0.077 -32.480  1.00  0.00     0.013 A 
HETATM    4  C   UNL     1      -7.809  -0.181 -33.663  1.00  0.00    -0.024 A 
HETATM    5  C   UNL     1      -8.112   0.715 -34.699  1.00  0.00     0.013 A 
HETATM    6  C   UNL     1      -9.139   1.659 -34.574  1.00  0.00     0.010 A 
ENDROOT
BRANCH   4   7
HETATM    7  C   UNL     1      -6.766  -1.212 -33.828  1.00  0.00    -0.006 A 
HETATM    8  C   UNL     1      -5.418  -0.931 -33.548  1.00  0.00     0.131 A 
HETATM    9  N   UNL     1      -4.369  -1.778 -33.653  1.00  0.00    -0.239 NA
HETATM   10  C   UNL     1      -4.695  -3.013 -34.085  1.00  0.00     0.177 A 
HETATM   11  C   UNL     1      -5.996  -3.389 -34.395  1.00  0.00     0.082 A 
HETATM   12  N   UNL     1      -3.819  -4.043 -34.277  1.00  0.00    -0.222 NA
HETATM   13  N   UNL     1      -5.878  -4.697 -34.789  1.00  0.00    -0.348 N 
HETATM   14  C   UNL     1      -7.071  -2.508 -34.276  1.00  0.00     0.047 A 
HETATM   15  H   UNL     1      -6.625  -5.304 -35.094  1.00  0.00     0.167 HD
HETATM   16  C   UNL     1      -4.557  -5.042 -34.703  1.00  0.00     0.210 A 
ENDBRANCH   4   7
BRANCH   1  17
HETATM   17  C   UNL     1     -11.032   2.743 -33.223  1.00  0.00     0.217 C 
HETATM   18  C   UNL     1     -10.830   3.751 -32.088  1.00  0.00     0.045 C 
BRANCH  17  19
HETATM   19  N   UNL     1     -12.392   2.048 -33.128  1.00  0.00    -0.063 N 
HETATM   20  H   UNL     1     -12.281   1.397 -32.339  1.00  0.00     0.280 HD
HETATM   21  C   UNL     1     -13.552   2.946 -32.756  1.00  0.00     0.235 C 
HETATM   22  C   UNL     1     -14.783   2.093 -32.473  1.00  0.00     0.028 C 
HETATM   23  C   UNL     1     -15.129   1.194 -33.654  1.00  0.00     0.003 C 
HETATM   24  C   UNL     1     -13.931   0.343 -34.063  1.00  0.00     0.028 C 
HETATM   25  C   UNL     1     -12.704   1.199 -34.341  1.00  0.00     0.235 C 
ENDBRANCH  17  19
ENDBRANCH   1  17
TORSDOF 3
ENDMDL
MODEL 2
REMARK VINA RESULT:      -8.3      1.759      8.324
REMARK  3 active torsions:
REMARK  status: ('A' for Active; 'I' for Inactive)
REMARK    1  A    between atoms: C_2  and  N_3 
REMARK    2  A    between atoms: C_2  and  C_10 
REMARK    3  A    between atoms: C_13  and  C_14 
ROOT
HETATM    1  C   UNL     1      -6.123  -0.141 -32.686  1.00  0.00    -0.028 A 
HETATM    2  C   UNL     1      -6.528   0.018 -34.021  1.00  0.00     0.010 A 
HETATM    3  C   UNL     1      -7.860   0.318 -34.340  1.00  0.00     0.013 A 
HETATM    4  C   UNL     1      -8.830   0.482 -33.341  1.00  0.00    -0.024 A 
HETATM    5  C   UNL     1      -8.412   0.354 -32.008  1.00  0.00     0.013 A 
HETATM    6  C   UNL     1      -7.085   0.044 -31.683  1.00  0.00     0.010 A 
ENDROOT
BRANCH   4   7
HETATM    7  C   UNL     1     -10.242   0.748 -33.674  1.00  0.00    -0.006 A 
HETATM    8  C   UNL     1     -10.612   1.888 -34.407  1.00  0.00     0.131 A 
HETATM    9  N   UNL     1     -11.862   2.249 -34.781  1.00  0.00    -0.239 NA
HETATM   10  C   UNL     1     -12.827   1.399 -34.377  1.00  0.00     0.177 A 
HETATM   11  C   UNL     1     -12.568   0.248 -33.644  1.00  0.00     0.082 A 
HETATM   12  N   UNL     1     -14.163   1.542 -34.623  1.00  0.00    -0.222 NA
HETATM   13  N   UNL     1     -13.805  -0.308 -33.449  1.00  0.00    -0.348 N 
HETATM   14  C   UNL     1     -11.273  -0.117 -33.270  1.00  0.00     0.047 A 
HETATM   15  H   UNL     1     -14.011  -1.160 -32.947  1.00  0.00     0.167 HD
HETATM   16  C   UNL     1     -14.727   0.504 -34.052  1.00  0.00     0.210 A 
ENDBRANCH   4   7
BRANCH   1  17
HETATM   17  C   UNL     1      -4.675  -0.494 -32.381  1.00  0.00     0.217 C 
HETATM   18  C   UNL     1      -3.639   0.380 -33.094  1.00  0.00     0.045 C 
BRANCH  17  19
HETATM   19  N   UNL     1      -4.397  -1.985 -32.587  1.00  0.00    -0.063 N 
HETATM   20  H   UNL     1      -5.178  -2.449 -32.103  1.00  0.00     0.280 HD
HETATM   21  C   UNL     1      -4.463  -2.462 -34.021  1.00  0.00     0.235 C 
HETATM   22  C   UNL     1      -4.397  -3.984 -34.052  1.00  0.00     0.028 C 
HETATM   23  C   UNL     1      -3.154  -4.510 -33.344  1.00  0.00     0.003 C 
HETATM   24  C   UNL     1      -3.063  -3.967 -31.922  1.00  0.00     0.028 C 
HETATM   25  C   UNL     1      -3.133  -2.447 -31.896  1.00  0.00     0.235 C 
ENDBRANCH  17  19
ENDBRANCH   1  17
TORSDOF 3
ENDMDL
MODEL 3
REMARK VINA RESULT:      -8.3      5.017      7.353
REMARK  3 active torsions:
REMARK  status: ('A' for Active; 'I' for Inactive)
REMARK    1  A    between atoms: C_2  and  N_3 
REMARK    2  A    between atoms: C_2  and  C_10 
REMARK    3  A    between atoms: C_13  and  C_14 
ROOT
HETATM    1  C   UNL     1      -4.276   2.948 -32.009  1.00  0.00    -0.028 A 
HETATM    2  C   UNL     1      -5.418   2.569 -32.733  1.00  0.00     0.010 A 
HETATM    3  C   UNL     1      -5.597   1.244 -33.157  1.00  0.00     0.013 A 
HETATM    4  C   UNL     1      -4.650   0.251 -32.864  1.00  0.00    -0.024 A 
HETATM    5  C   UNL     1      -3.528   0.630 -32.113  1.00  0.00     0.013 A 
HETATM    6  C   UNL     1      -3.339   1.954 -31.696  1.00  0.00     0.010 A 
ENDROOT
BRANCH   4   7
HETATM    7  C   UNL     1      -4.810  -1.132 -33.352  1.00  0.00    -0.006 A 
HETATM    8  C   UNL     1      -3.845  -2.114 -33.075  1.00  0.00     0.131 A 
HETATM    9  N   UNL     1      -3.867  -3.413 -33.457  1.00  0.00    -0.239 NA
HETATM   10  C   UNL     1      -4.947  -3.756 -34.188  1.00  0.00     0.177 A 
HETATM   11  C   UNL     1      -5.954  -2.859 -34.522  1.00  0.00     0.082 A 
HETATM   12  N   UNL     1      -5.199  -4.998 -34.694  1.00  0.00    -0.222 NA
HETATM   13  N   UNL     1      -6.835  -3.607 -35.258  1.00  0.00    -0.348 N 
HETATM   14  C   UNL     1      -5.922  -1.523 -34.116  1.00  0.00     0.047 A 
HETATM   15  H   UNL     1      -7.695  -3.286 -35.677  1.00  0.00     0.167 HD
HETATM   16  C   UNL     1      -6.338  -4.881 -35.334  1.00  0.00     0.210 A 
ENDBRANCH   4   7
BRANCH   1  17
HETATM   17  C   UNL     1      -4.104   4.400 -31.590  1.00  0.00     0.217 C 
HETATM   18  C   UNL     1      -5.358   5.265 -31.750  1.00  0.00     0.045 C 
BRANCH  17  19
HETATM   19  N   UNL     1      -2.883   5.043 -32.252  1.00  0.00    -0.063 N 
HETATM   20  H   UNL     1      -2.159   4.314 -32.192  1.00  0.00     0.280 HD
HETATM   21  C   UNL     1      -3.034   5.348 -33.727  1.00  0.00     0.235 C 
HETATM   22  C   UNL     1      -1.684   5.763 -34.299  1.00  0.00     0.028 C 
HETATM   23  C   UNL     1      -1.089   6.944 -33.542  1.00  0.00     0.003 C 
HETATM   24  C   UNL     1      -1.006   6.650 -32.048  1.00  0.00     0.028 C 
HETATM   25  C   UNL     1      -2.355   6.233 -31.481  1.00  0.00     0.235 C 
ENDBRANCH  17  19
ENDBRANCH   1  17
TORSDOF 3
ENDMDL
MODEL 4
REMARK VINA RESULT:      -8.2      4.651      7.142
REMARK  3 active torsions:
REMARK  status: ('A' for Active; 'I' for Inactive)
REMARK    1  A    between atoms: C_2  and  N_3 
REMARK    2  A    between atoms: C_2  and  C_10 
REMARK    3  A    between atoms: C_13  and  C_14 
ROOT
HETATM    1  C   UNL     1      -4.976   3.284 -32.828  1.00  0.00    -0.028 A 
HETATM    2  C   UNL     1      -6.049   2.852 -33.624  1.00  0.00     0.010 A 
HETATM    3  C   UNL     1      -6.219   1.495 -33.932  1.00  0.00     0.013 A 
HETATM    4  C   UNL     1      -5.333   0.521 -33.448  1.00  0.00    -0.024 A 
HETATM    5  C   UNL     1      -4.281   0.956 -32.627  1.00  0.00     0.013 A 
HETATM    6  C   UNL     1      -4.101   2.311 -32.325  1.00  0.00     0.010 A 
ENDROOT
BRANCH   4   7
HETATM    7  C   UNL     1      -5.478  -0.901 -33.812  1.00  0.00    -0.006 A 
HETATM    8  C   UNL     1      -6.696  -1.403 -34.301  1.00  0.00     0.131 A 
HETATM    9  N   UNL     1      -6.964  -2.677 -34.672  1.00  0.00    -0.239 NA
HETATM   10  C   UNL     1      -5.925  -3.525 -34.531  1.00  0.00     0.177 A 
HETATM   11  C   UNL     1      -4.683  -3.130 -34.050  1.00  0.00     0.082 A 
HETATM   12  N   UNL     1      -5.943  -4.857 -34.830  1.00  0.00    -0.222 NA
HETATM   13  N   UNL     1      -3.940  -4.282 -34.065  1.00  0.00    -0.348 N 
HETATM   14  C   UNL     1      -4.417  -1.811 -33.677  1.00  0.00     0.047 A 
HETATM   15  H   UNL     1      -2.977  -4.382 -33.777  1.00  0.00     0.167 HD
HETATM   16  C   UNL     1      -4.738  -5.288 -34.539  1.00  0.00     0.210 A 
ENDBRANCH   4   7
BRANCH   1  17
HETATM   17  C   UNL     1      -4.809   4.768 -32.539  1.00  0.00     0.217 C 
HETATM   18  C   UNL     1      -5.876   5.668 -33.170  1.00  0.00     0.045 C 
BRANCH  17  19
HETATM   19  N   UNL     1      -3.394   5.255 -32.859  1.00  0.00    -0.063 N 
HETATM   20  H   UNL     1      -2.789   4.503 -32.504  1.00  0.00     0.280 HD
HETATM   21  C   UNL     1      -3.071   5.377 -34.332  1.00  0.00     0.235 C 
HETATM   22  C   UNL     1      -1.580   5.643 -34.504  1.00  0.00     0.028 C 
HETATM   23  C   UNL     1      -1.135   6.878 -33.730  1.00  0.00     0.003 C 
HETATM   24  C   UNL     1      -1.527   6.774 -32.260  1.00  0.00     0.028 C 
HETATM   25  C   UNL     1      -3.016   6.504 -32.094  1.00  0.00     0.235 C 
ENDBRANCH  17  19
ENDBRANCH   1  17
TORSDOF 3
ENDMDL
MODEL 5
REMARK VINA RESULT:      -8.0      1.656      8.600
REMARK  3 active torsions:
REMARK  status: ('A' for Active; 'I' for Inactive)
REMARK    1  A    between atoms: C_2  and  N_3 
REMARK    2  A    between atoms: C_2  and  C_10 
REMARK    3  A    between atoms: C_13  and  C_14 
ROOT
HETATM    1  C   UNL     1      -6.703  -1.201 -34.478  1.00  0.00    -0.028 A 
HETATM    2  C   UNL     1      -7.587  -1.328 -33.395  1.00  0.00     0.010 A 
HETATM    3  C   UNL     1      -8.654  -0.434 -33.226  1.00  0.00     0.013 A 
HETATM    4  C   UNL     1      -8.882   0.609 -34.136  1.00  0.00    -0.024 A 
HETATM    5  C   UNL     1      -8.014   0.710 -35.233  1.00  0.00     0.013 A 
HETATM    6  C   UNL     1      -6.941  -0.174 -35.402  1.00  0.00     0.010 A 
ENDROOT
BRANCH   4   7
HETATM    7  C   UNL     1      -9.973   1.582 -33.934  1.00  0.00    -0.006 A 
HETATM    8  C   UNL     1      -9.805   2.937 -34.265  1.00  0.00     0.131 A 
HETATM    9  N   UNL     1     -10.717   3.928 -34.134  1.00  0.00    -0.239 NA
HETATM   10  C   UNL     1     -11.897   3.530 -33.618  1.00  0.00     0.177 A 
HETATM   11  C   UNL     1     -12.161   2.216 -33.252  1.00  0.00     0.082 A 
HETATM   12  N   UNL     1     -12.973   4.338 -33.384  1.00  0.00    -0.222 NA
HETATM   13  N   UNL     1     -13.448   2.255 -32.781  1.00  0.00    -0.348 N 
HETATM   14  C   UNL     1     -11.214   1.201 -33.399  1.00  0.00     0.047 A 
HETATM   15  H   UNL     1     -13.981   1.477 -32.420  1.00  0.00     0.167 HD
HETATM   16  C   UNL     1     -13.890   3.546 -32.879  1.00  0.00     0.210 A 
ENDBRANCH   4   7
BRANCH   1  17
HETATM   17  C   UNL     1      -5.541  -2.174 -34.613  1.00  0.00     0.217 C 
HETATM   18  C   UNL     1      -5.943  -3.605 -34.982  1.00  0.00     0.045 C 
BRANCH  17  19
HETATM   19  N   UNL     1      -4.625  -2.140 -33.387  1.00  0.00    -0.063 N 
HETATM   20  H   UNL     1      -5.276  -2.203 -32.593  1.00  0.00     0.280 HD
HETATM   21  C   UNL     1      -3.692  -3.323 -33.245  1.00  0.00     0.235 C 
HETATM   22  C   UNL     1      -3.015  -3.274 -31.880  1.00  0.00     0.028 C 
HETATM   23  C   UNL     1      -2.285  -1.955 -31.661  1.00  0.00     0.003 C 
HETATM   24  C   UNL     1      -3.219  -0.768 -31.873  1.00  0.00     0.028 C 
HETATM   25  C   UNL     1      -3.895  -0.824 -33.236  1.00  0.00     0.235 C 
ENDBRANCH  17  19
ENDBRANCH   1  17
TORSDOF 3
ENDMDL
MODEL 6
REMARK VINA RESULT:      -8.0      1.661      8.399
REMARK  3 active torsions:
REMARK  status: ('A' for Active; 'I' for Inactive)
REMARK    1  A    between atoms: C_2  and  N_3 
REMARK    2  A    between atoms: C_2  and  C_10 
REMARK    3  A    between atoms: C_13  and  C_14 
ROOT
HETATM    1  C   UNL     1      -6.984  -0.535 -34.248  1.00  0.00    -0.028 A 
HETATM    2  C   UNL     1      -7.516   0.443 -35.104  1.00  0.00     0.010 A 
HETATM    3  C   UNL     1      -8.769   1.020 -34.851  1.00  0.00     0.013 A 
HETATM    4  C   UNL     1      -9.528   0.651 -33.730  1.00  0.00    -0.024 A 
HETATM    5  C   UNL     1      -8.976  -0.302 -32.862  1.00  0.00     0.013 A 
HETATM    6  C   UNL     1      -7.730  -0.889 -33.115  1.00  0.00     0.010 A 
ENDROOT
BRANCH   4   7
HETATM    7  C   UNL     1     -10.868   1.219 -33.488  1.00  0.00    -0.006 A 
HETATM    8  C   UNL     1     -11.031   2.570 -33.139  1.00  0.00     0.131 A 
HETATM    9  N   UNL     1     -12.195   3.215 -32.894  1.00  0.00    -0.239 NA
HETATM   10  C   UNL     1     -13.291   2.437 -32.996  1.00  0.00     0.177 A 
HETATM   11  C   UNL     1     -13.238   1.090 -33.328  1.00  0.00     0.082 A 
HETATM   12  N   UNL     1     -14.577   2.850 -32.792  1.00  0.00    -0.222 NA
HETATM   13  N   UNL     1     -14.550   0.692 -33.316  1.00  0.00    -0.348 N 
HETATM   14  C   UNL     1     -12.031   0.437 -33.586  1.00  0.00     0.047 A 
HETATM   15  H   UNL     1     -14.900  -0.235 -33.509  1.00  0.00     0.167 HD
HETATM   16  C   UNL     1     -15.312   1.780 -32.989  1.00  0.00     0.210 A 
ENDBRANCH   4   7
BRANCH   1  17
HETATM   17  C   UNL     1      -5.635  -1.158 -34.571  1.00  0.00     0.217 C 
HETATM   18  C   UNL     1      -5.649  -2.683 -34.704  1.00  0.00     0.045 C 
BRANCH  17  19
HETATM   19  N   UNL     1      -4.544  -0.683 -33.608  1.00  0.00    -0.063 N 
HETATM   20  H   UNL     1      -3.736  -0.508 -34.219  1.00  0.00     0.280 HD
HETATM   21  C   UNL     1      -4.823   0.632 -32.913  1.00  0.00     0.235 C 
HETATM   22  C   UNL     1      -3.571   1.091 -32.175  1.00  0.00     0.028 C 
HETATM   23  C   UNL     1      -3.076   0.035 -31.195  1.00  0.00     0.003 C 
HETATM   24  C   UNL     1      -2.863  -1.304 -31.893  1.00  0.00     0.028 C 
HETATM   25  C   UNL     1      -4.115  -1.757 -32.632  1.00  0.00     0.235 C 
ENDBRANCH  17  19
ENDBRANCH   1  17
TORSDOF 3
ENDMDL
MODEL 7
REMARK VINA RESULT:      -7.7     10.521     12.678
REMARK  3 active torsions:
REMARK  status: ('A' for Active; 'I' for Inactive)
REMARK    1  A    between atoms: C_2  and  N_3 
REMARK    2  A    between atoms: C_2  and  C_10 
REMARK    3  A    between atoms: C_13  and  C_14 
ROOT
HETATM    1  C   UNL     1      -0.985   5.885 -31.959  1.00  0.00    -0.028 A 
HETATM    2  C   UNL     1      -1.545   7.127 -31.616  1.00  0.00     0.010 A 
HETATM    3  C   UNL     1      -1.152   7.797 -30.448  1.00  0.00     0.013 A 
HETATM    4  C   UNL     1      -0.181   7.259 -29.590  1.00  0.00    -0.024 A 
HETATM    5  C   UNL     1       0.397   6.034 -29.956  1.00  0.00     0.013 A 
HETATM    6  C   UNL     1       0.001   5.355 -31.116  1.00  0.00     0.010 A 
ENDROOT
BRANCH   4   7
HETATM    7  C   UNL     1       0.197   7.936 -28.336  1.00  0.00    -0.006 A 
HETATM    8  C   UNL     1      -0.464   9.102 -27.913  1.00  0.00     0.131 A 
HETATM    9  N   UNL     1      -0.221   9.817 -26.790  1.00  0.00    -0.239 NA
HETATM   10  C   UNL     1       0.779   9.328 -26.028  1.00  0.00     0.177 A 
HETATM   11  C   UNL     1       1.499   8.187 -26.360  1.00  0.00     0.082 A 
HETATM   12  N   UNL     1       1.217   9.869 -24.854  1.00  0.00    -0.222 NA
HETATM   13  N   UNL     1       2.401   8.054 -25.337  1.00  0.00    -0.348 N 
HETATM   14  C   UNL     1       1.233   7.454 -27.518  1.00  0.00     0.047 A 
HETATM   15  H   UNL     1       3.100   7.331 -25.240  1.00  0.00     0.167 HD
HETATM   16  C   UNL     1       2.194   9.085 -24.461  1.00  0.00     0.210 A 
ENDBRANCH   4   7
BRANCH   1  17
HETATM   17  C   UNL     1      -1.457   5.176 -33.219  1.00  0.00     0.217 C 
HETATM   18  C   UNL     1      -1.108   5.893 -34.527  1.00  0.00     0.045 C 
BRANCH  17  19
HETATM   19  N   UNL     1      -2.943   4.817 -33.148  1.00  0.00    -0.063 N 
HETATM   20  H   UNL     1      -3.310   5.437 -32.415  1.00  0.00     0.280 HD
HETATM   21  C   UNL     1      -3.744   5.135 -34.392  1.00  0.00     0.235 C 
HETATM   22  C   UNL     1      -5.228   4.944 -34.101  1.00  0.00     0.028 C 
HETATM   23  C   UNL     1      -5.526   3.541 -33.587  1.00  0.00     0.003 C 
HETATM   24  C   UNL     1      -4.663   3.206 -32.376  1.00  0.00     0.028 C 
HETATM   25  C   UNL     1      -3.183   3.401 -32.670  1.00  0.00     0.235 C 
ENDBRANCH  17  19
ENDBRANCH   1  17
TORSDOF 3
ENDMDL
MODEL 8
REMARK VINA RESULT:      -7.7      5.614      8.270
REMARK  3 active torsions:
REMARK  status: ('A' for Active; 'I' for Inactive)
REMARK    1  A    between atoms: C_2  and  N_3 
REMARK    2  A    between atoms: C_2  and  C_10 
REMARK    3  A    between atoms: C_13  and  C_14 
ROOT
HETATM    1  C   UNL     1      -4.049   4.176 -31.722  1.00  0.00    -0.028 A 
HETATM    2  C   UNL     1      -5.081   4.093 -32.670  1.00  0.00     0.010 A 
HETATM    3  C   UNL     1      -5.528   2.851 -33.143  1.00  0.00     0.013 A 
HETATM    4  C   UNL     1      -4.971   1.650 -32.678  1.00  0.00    -0.024 A 
HETATM    5  C   UNL     1      -3.963   1.739 -31.707  1.00  0.00     0.013 A 
HETATM    6  C   UNL     1      -3.505   2.977 -31.239  1.00  0.00     0.010 A 
ENDROOT
BRANCH   4   7
HETATM    7  C   UNL     1      -5.404   0.344 -33.210  1.00  0.00    -0.006 A 
HETATM    8  C   UNL     1      -6.764   0.066 -33.431  1.00  0.00     0.131 A 
HETATM    9  N   UNL     1      -7.294  -1.082 -33.914  1.00  0.00    -0.239 NA
HETATM   10  C   UNL     1      -6.385  -2.038 -34.191  1.00  0.00     0.177 A 
HETATM   11  C   UNL     1      -5.020  -1.865 -34.003  1.00  0.00     0.082 A 
HETATM   12  N   UNL     1      -6.667  -3.280 -34.682  1.00  0.00    -0.222 NA
HETATM   13  N   UNL     1      -4.476  -3.060 -34.399  1.00  0.00    -0.348 N 
HETATM   14  C   UNL     1      -4.484  -0.674 -33.511  1.00  0.00     0.047 A 
HETATM   15  H   UNL     1      -3.497  -3.306 -34.397  1.00  0.00     0.167 HD
HETATM   16  C   UNL     1      -5.502  -3.874 -34.795  1.00  0.00     0.210 A 
ENDBRANCH   4   7
BRANCH   1  17
HETATM   17  C   UNL     1      -3.571   5.542 -31.253  1.00  0.00     0.217 C 
HETATM   18  C   UNL     1      -3.868   6.691 -32.222  1.00  0.00     0.045 C 
BRANCH  17  19
HETATM   19  N   UNL     1      -2.099   5.518 -30.835  1.00  0.00    -0.063 N 
HETATM   20  H   UNL     1      -1.995   4.614 -30.356  1.00  0.00     0.280 HD
HETATM   21  C   UNL     1      -1.105   5.493 -31.975  1.00  0.00     0.235 C 
HETATM   22  C   UNL     1       0.293   5.239 -31.423  1.00  0.00     0.028 C 
HETATM   23  C   UNL     1       0.678   6.268 -30.368  1.00  0.00     0.003 C 
HETATM   24  C   UNL     1      -0.367   6.333 -29.259  1.00  0.00     0.028 C 
HETATM   25  C   UNL     1      -1.761   6.583 -29.815  1.00  0.00     0.235 C 
ENDBRANCH  17  19
ENDBRANCH   1  17
TORSDOF 3
ENDMDL
MODEL 9
REMARK VINA RESULT:      -7.7      1.464      8.304
REMARK  3 active torsions:
REMARK  status: ('A' for Active; 'I' for Inactive)
REMARK    1  A    between atoms: C_2  and  N_3 
REMARK    2  A    between atoms: C_2  and  C_10 
REMARK    3  A    between atoms: C_13  and  C_14 
ROOT
HETATM    1  C   UNL     1      -5.792  -0.396 -33.144  1.00  0.00    -0.028 A 
HETATM    2  C   UNL     1      -6.708  -0.289 -32.086  1.00  0.00     0.010 A 
HETATM    3  C   UNL     1      -7.937   0.364 -32.259  1.00  0.00     0.013 A 
HETATM    4  C   UNL     1      -8.299   0.922 -33.494  1.00  0.00    -0.024 A 
HETATM    5  C   UNL     1      -7.392   0.783 -34.556  1.00  0.00     0.013 A 
HETATM    6  C   UNL     1      -6.159   0.140 -34.386  1.00  0.00     0.010 A 
ENDROOT
BRANCH   4   7
HETATM    7  C   UNL     1      -9.568   1.654 -33.667  1.00  0.00    -0.006 A 
HETATM    8  C   UNL     1      -9.610   2.882 -34.347  1.00  0.00     0.131 A 
HETATM    9  N   UNL     1     -10.698   3.652 -34.577  1.00  0.00    -0.239 NA
HETATM   10  C   UNL     1     -11.845   3.153 -34.074  1.00  0.00     0.177 A 
HETATM   11  C   UNL     1     -11.910   1.951 -33.380  1.00  0.00     0.082 A 
HETATM   12  N   UNL     1     -13.074   3.740 -34.168  1.00  0.00    -0.222 NA
HETATM   13  N   UNL     1     -13.235   1.829 -33.051  1.00  0.00    -0.348 N 
HETATM   14  C   UNL     1     -10.781   1.163 -33.155  1.00  0.00     0.047 A 
HETATM   15  H   UNL     1     -13.661   1.072 -32.534  1.00  0.00     0.167 HD
HETATM   16  C   UNL     1     -13.891   2.925 -33.543  1.00  0.00     0.210 A 
ENDBRANCH   4   7
BRANCH   1  17
HETATM   17  C   UNL     1      -4.457  -1.088 -32.911  1.00  0.00     0.217 C 
HETATM   18  C   UNL     1      -3.228  -0.220 -33.193  1.00  0.00     0.045 C 
BRANCH  17  19
HETATM   19  N   UNL     1      -4.380  -2.434 -33.635  1.00  0.00    -0.063 N 
HETATM   20  H   UNL     1      -3.832  -2.227 -34.481  1.00  0.00     0.280 HD
HETATM   21  C   UNL     1      -3.611  -3.516 -32.907  1.00  0.00     0.235 C 
HETATM   22  C   UNL     1      -3.418  -4.711 -33.832  1.00  0.00     0.028 C 
HETATM   23  C   UNL     1      -4.748  -5.231 -34.365  1.00  0.00     0.003 C 
HETATM   24  C   UNL     1      -5.543  -4.117 -35.037  1.00  0.00     0.028 C 
HETATM   25  C   UNL     1      -5.730  -2.924 -34.110  1.00  0.00     0.235 C 
ENDBRANCH  17  19
ENDBRANCH   1  17
TORSDOF 3
ENDMDL
MODEL 10
REMARK VINA RESULT:      -7.5      2.149      8.552
REMARK  3 active torsions:
REMARK  status: ('A' for Active; 'I' for Inactive)
REMARK    1  A    between atoms: C_2  and  N_3 
REMARK    2  A    between atoms: C_2  and  C_10 
REMARK    3  A    between atoms: C_13  and  C_14 
ROOT
HETATM    1  C   UNL     1      -5.744   0.128 -32.497  1.00  0.00    -0.028 A 
HETATM    2  C   UNL     1      -5.792   1.047 -33.557  1.00  0.00     0.010 A 
HETATM    3  C   UNL     1      -7.007   1.623 -33.958  1.00  0.00     0.013 A 
HETATM    4  C   UNL     1      -8.210   1.311 -33.309  1.00  0.00    -0.024 A 
HETATM    5  C   UNL     1      -8.150   0.417 -32.229  1.00  0.00     0.013 A 
HETATM    6  C   UNL     1      -6.941  -0.169 -31.831  1.00  0.00     0.010 A 
ENDROOT
BRANCH   4   7
HETATM    7  C   UNL     1      -9.497   1.875 -33.760  1.00  0.00    -0.006 A 
HETATM    8  C   UNL     1     -10.686   1.132 -33.670  1.00  0.00     0.131 A 
HETATM    9  N   UNL     1     -11.926   1.526 -34.042  1.00  0.00    -0.239 NA
HETATM   10  C   UNL     1     -11.979   2.771 -34.558  1.00  0.00     0.177 A 
HETATM   11  C   UNL     1     -10.861   3.584 -34.696  1.00  0.00     0.082 A 
HETATM   12  N   UNL     1     -13.107   3.394 -35.009  1.00  0.00    -0.222 NA
HETATM   13  N   UNL     1     -11.354   4.734 -35.255  1.00  0.00    -0.348 N 
HETATM   14  C   UNL     1      -9.588   3.168 -34.302  1.00  0.00     0.047 A 
HETATM   15  H   UNL     1     -10.826   5.558 -35.505  1.00  0.00     0.167 HD
HETATM   16  C   UNL     1     -12.702   4.571 -35.425  1.00  0.00     0.210 A 
ENDBRANCH   4   7
BRANCH   1  17
HETATM   17  C   UNL     1      -4.412  -0.496 -32.109  1.00  0.00     0.217 C 
HETATM   18  C   UNL     1      -3.179   0.298 -32.552  1.00  0.00     0.045 C 
BRANCH  17  19
HETATM   19  N   UNL     1      -4.325  -1.963 -32.536  1.00  0.00    -0.063 N 
HETATM   20  H   UNL     1      -5.139  -2.399 -32.083  1.00  0.00     0.280 HD
HETATM   21  C   UNL     1      -4.497  -2.216 -34.018  1.00  0.00     0.235 C 
HETATM   22  C   UNL     1      -4.619  -3.715 -34.266  1.00  0.00     0.028 C 
HETATM   23  C   UNL     1      -3.426  -4.478 -33.703  1.00  0.00     0.003 C 
HETATM   24  C   UNL     1      -3.221  -4.163 -32.225  1.00  0.00     0.028 C 
HETATM   25  C   UNL     1      -3.104  -2.664 -31.982  1.00  0.00     0.235 C 
ENDBRANCH  17  19
ENDBRANCH   1  17
TORSDOF 3
ENDMDL
