MODEL 1
REMARK VINA RESULT:      -8.0      0.000      0.000
REMARK  3 active torsions:
REMARK  status: ('A' for Active; 'I' for Inactive)
REMARK    1  A    between atoms: C_9  and  C_10 
REMARK    2  A    between atoms: C_16  and  C_17 
REMARK       I    between atoms: C_17  and  N_18 
REMARK    3  A    between atoms: N_18  and  C_19 
ROOT
HETATM    1  C   UNL     1      -3.740   1.965 -32.356  1.00  0.00     0.070 C 
HETATM    2  C   UNL     1      -5.156   2.321 -31.973  1.00  0.00     0.037 C 
HETATM    3  N   UNL     1      -5.377   3.661 -31.674  1.00  0.00    -0.192 N 
HETATM    4  C   UNL     1      -6.498   4.098 -31.069  1.00  0.00     0.725 A 
HETATM    5  N   UNL     1      -7.547   3.237 -30.895  1.00  0.00    -0.082 N 
HETATM    6  N   UNL     1      -8.519   3.795 -30.136  1.00  0.00    -0.149 NA
HETATM    7  C   UNL     1      -8.018   5.025 -29.964  1.00  0.00     0.275 A 
HETATM    8  N   UNL     1      -6.783   5.250 -30.517  1.00  0.00    -0.054 NA
HETATM    9  C   UNL     1      -7.553   1.848 -31.355  1.00  0.00     0.221 C 
HETATM   10  C   UNL     1      -6.170   1.429 -31.841  1.00  0.00     0.064 C 
HETATM   11  H   UNL     1      -4.578   4.289 -31.706  1.00  0.00     0.184 HD
ENDROOT
BRANCH  10  12
HETATM   12  C   UNL     1      -6.033  -0.037 -32.037  1.00  0.00     0.256 C 
HETATM   13  N   UNL     1      -6.122  -0.443 -33.347  1.00  0.00    -0.322 N 
HETATM   14  H   UNL     1      -6.378   0.262 -34.029  1.00  0.00     0.169 HD
HETATM   15  O   UNL     1      -5.881  -0.751 -31.052  1.00  0.00    -0.267 OA
BRANCH  13  16
HETATM   16  C   UNL     1      -5.850  -1.736 -33.841  1.00  0.00     0.052 A 
HETATM   17  C   UNL     1      -4.585  -2.313 -33.926  1.00  0.00     0.145 A 
HETATM   18  N   UNL     1      -4.340  -3.543 -34.449  1.00  0.00    -0.271 NA
HETATM   19  C   UNL     1      -5.402  -4.232 -34.912  1.00  0.00     0.116 A 
HETATM   20  C   UNL     1      -6.699  -3.752 -34.871  1.00  0.00     0.021 A 
HETATM   21  C   UNL     1      -6.924  -2.489 -34.324  1.00  0.00     0.032 A 
ENDBRANCH  13  16
ENDBRANCH  10  12
BRANCH   9  22
HETATM   22  C   UNL     1      -8.628   1.699 -32.428  1.00  0.00     0.064 A 
HETATM   23  N   UNL     1      -8.707   2.646 -33.406  1.00  0.00    -0.263 NA
HETATM   24  C   UNL     1      -9.714   2.535 -34.301  1.00  0.00     0.117 A 
HETATM   25  C   UNL     1     -10.652   1.518 -34.287  1.00  0.00     0.019 A 
HETATM   26  C   UNL     1     -10.555   0.550 -33.297  1.00  0.00     0.003 A 
HETATM   27  C   UNL     1      -9.535   0.638 -32.354  1.00  0.00     0.030 A 
ENDBRANCH   9  22
TORSDOF 3
ENDMDL
MODEL 2
REMARK VINA RESULT:      -7.7      1.980      3.983
REMARK  3 active torsions:
REMARK  status: ('A' for Active; 'I' for Inactive)
REMARK    1  A    between atoms: C_9  and  C_10 
REMARK    2  A    between atoms: C_16  and  C_17 
REMARK       I    between atoms: C_17  and  N_18 
REMARK    3  A    between atoms: N_18  and  C_19 
ROOT
HETATM    1  C   UNL     1      -9.892   0.344 -33.211  1.00  0.00     0.070 C 
HETATM    2  C   UNL     1      -8.993   1.555 -33.248  1.00  0.00     0.037 C 
HETATM    3  N   UNL     1      -9.541   2.724 -32.731  1.00  0.00    -0.192 N 
HETATM    4  C   UNL     1      -8.986   3.937 -32.922  1.00  0.00     0.725 A 
HETATM    5  N   UNL     1      -7.744   4.025 -33.491  1.00  0.00    -0.082 N 
HETATM    6  N   UNL     1      -7.414   5.312 -33.750  1.00  0.00    -0.149 NA
HETATM    7  C   UNL     1      -8.474   5.944 -33.230  1.00  0.00     0.275 A 
HETATM    8  N   UNL     1      -9.458   5.140 -32.716  1.00  0.00    -0.054 NA
HETATM    9  C   UNL     1      -6.940   2.869 -33.890  1.00  0.00     0.221 C 
HETATM   10  C   UNL     1      -7.754   1.583 -33.801  1.00  0.00     0.064 C 
HETATM   11  H   UNL     1     -10.500   2.687 -32.397  1.00  0.00     0.184 HD
ENDROOT
BRANCH  10  12
HETATM   12  C   UNL     1      -7.104   0.427 -34.470  1.00  0.00     0.256 C 
HETATM   13  N   UNL     1      -6.604  -0.518 -33.606  1.00  0.00    -0.322 N 
HETATM   14  H   UNL     1      -6.624  -0.292 -32.618  1.00  0.00     0.169 HD
HETATM   15  O   UNL     1      -7.042   0.414 -35.694  1.00  0.00    -0.267 OA
BRANCH  13  16
HETATM   16  C   UNL     1      -6.105  -1.790 -33.957  1.00  0.00     0.052 A 
HETATM   17  C   UNL     1      -4.764  -2.166 -33.913  1.00  0.00     0.145 A 
HETATM   18  N   UNL     1      -4.300  -3.382 -34.301  1.00  0.00    -0.271 NA
HETATM   19  C   UNL     1      -5.209  -4.266 -34.758  1.00  0.00     0.116 A 
HETATM   20  C   UNL     1      -6.563  -3.994 -34.839  1.00  0.00     0.021 A 
HETATM   21  C   UNL     1      -7.015  -2.740 -34.428  1.00  0.00     0.032 A 
ENDBRANCH  13  16
ENDBRANCH  10  12
BRANCH   9  22
HETATM   22  C   UNL     1      -5.682   2.835 -33.028  1.00  0.00     0.064 A 
HETATM   23  N   UNL     1      -5.707   2.117 -31.869  1.00  0.00    -0.263 NA
HETATM   24  C   UNL     1      -4.607   2.163 -31.083  1.00  0.00     0.117 A 
HETATM   25  C   UNL     1      -3.466   2.880 -31.393  1.00  0.00     0.019 A 
HETATM   26  C   UNL     1      -3.444   3.596 -32.582  1.00  0.00     0.003 A 
HETATM   27  C   UNL     1      -4.562   3.578 -33.410  1.00  0.00     0.030 A 
ENDBRANCH   9  22
TORSDOF 3
ENDMDL
MODEL 3
REMARK VINA RESULT:      -7.5      2.879      6.236
REMARK  3 active torsions:
REMARK  status: ('A' for Active; 'I' for Inactive)
REMARK    1  A    between atoms: C_9  and  C_10 
REMARK    2  A    between atoms: C_16  and  C_17 
REMARK       I    between atoms: C_17  and  N_18 
REMARK    3  A    between atoms: N_18  and  C_19 
ROOT
HETATM    1  C   UNL     1      -2.982   0.300 -31.193  1.00  0.00     0.070 C 
HETATM    2  C   UNL     1      -4.208   0.562 -32.034  1.00  0.00     0.037 C 
HETATM    3  N   UNL     1      -4.887  -0.571 -32.471  1.00  0.00    -0.192 N 
HETATM    4  C   UNL     1      -5.831  -0.530 -33.431  1.00  0.00     0.725 A 
HETATM    5  N   UNL     1      -6.280   0.682 -33.881  1.00  0.00    -0.082 N 
HETATM    6  N   UNL     1      -7.102   0.536 -34.946  1.00  0.00    -0.149 NA
HETATM    7  C   UNL     1      -7.166  -0.800 -35.023  1.00  0.00     0.275 A 
HETATM    8  N   UNL     1      -6.401  -1.488 -34.116  1.00  0.00    -0.054 NA
HETATM    9  C   UNL     1      -5.821   1.971 -33.362  1.00  0.00     0.221 C 
HETATM   10  C   UNL     1      -4.627   1.789 -32.431  1.00  0.00     0.064 C 
HETATM   11  H   UNL     1      -4.501  -1.477 -32.221  1.00  0.00     0.184 HD
ENDROOT
BRANCH  10  12
HETATM   12  C   UNL     1      -3.930   3.062 -32.111  1.00  0.00     0.256 C 
HETATM   13  N   UNL     1      -3.038   3.473 -33.073  1.00  0.00    -0.322 N 
HETATM   14  H   UNL     1      -2.859   2.832 -33.837  1.00  0.00     0.169 HD
HETATM   15  O   UNL     1      -4.174   3.615 -31.046  1.00  0.00    -0.267 OA
BRANCH  13  16
HETATM   16  C   UNL     1      -2.378   4.720 -33.121  1.00  0.00     0.052 A 
HETATM   17  C   UNL     1      -2.631   5.726 -34.050  1.00  0.00     0.145 A 
HETATM   18  N   UNL     1      -1.952   6.901 -34.107  1.00  0.00    -0.271 NA
HETATM   19  C   UNL     1      -0.972   7.085 -33.200  1.00  0.00     0.116 A 
HETATM   20  C   UNL     1      -0.644   6.151 -32.232  1.00  0.00     0.021 A 
HETATM   21  C   UNL     1      -1.362   4.956 -32.192  1.00  0.00     0.032 A 
ENDBRANCH  13  16
ENDBRANCH  10  12
BRANCH   9  22
HETATM   22  C   UNL     1      -6.998   2.667 -32.687  1.00  0.00     0.064 A 
HETATM   23  N   UNL     1      -7.470   3.824 -33.233  1.00  0.00    -0.263 NA
HETATM   24  C   UNL     1      -8.464   4.464 -32.576  1.00  0.00     0.117 A 
HETATM   25  C   UNL     1      -9.030   4.009 -31.399  1.00  0.00     0.019 A 
HETATM   26  C   UNL     1      -8.553   2.823 -30.857  1.00  0.00     0.003 A 
HETATM   27  C   UNL     1      -7.525   2.143 -31.504  1.00  0.00     0.030 A 
ENDBRANCH   9  22
TORSDOF 3
ENDMDL
MODEL 4
REMARK VINA RESULT:      -7.5      2.290      5.674
REMARK  3 active torsions:
REMARK  status: ('A' for Active; 'I' for Inactive)
REMARK    1  A    between atoms: C_9  and  C_10 
REMARK    2  A    between atoms: C_16  and  C_17 
REMARK       I    between atoms: C_17  and  N_18 
REMARK    3  A    between atoms: N_18  and  C_19 
ROOT
HETATM    1  C   UNL     1      -8.384   5.020 -34.096  1.00  0.00     0.070 C 
HETATM    2  C   UNL     1      -8.725   3.577 -33.811  1.00  0.00     0.037 C 
HETATM    3  N   UNL     1      -9.912   3.120 -34.374  1.00  0.00    -0.192 N 
HETATM    4  C   UNL     1     -10.491   1.959 -34.011  1.00  0.00     0.725 A 
HETATM    5  N   UNL     1      -9.814   1.098 -33.191  1.00  0.00    -0.082 N 
HETATM    6  N   UNL     1     -10.602   0.067 -32.805  1.00  0.00    -0.149 NA
HETATM    7  C   UNL     1     -11.712   0.334 -33.504  1.00  0.00     0.275 A 
HETATM    8  N   UNL     1     -11.686   1.483 -34.252  1.00  0.00    -0.054 NA
HETATM    9  C   UNL     1      -8.460   1.336 -32.690  1.00  0.00     0.221 C 
HETATM   10  C   UNL     1      -8.002   2.755 -33.010  1.00  0.00     0.064 C 
HETATM   11  H   UNL     1     -10.470   3.784 -34.903  1.00  0.00     0.184 HD
ENDROOT
BRANCH  10  12
HETATM   12  C   UNL     1      -6.774   3.157 -32.278  1.00  0.00     0.256 C 
HETATM   13  N   UNL     1      -5.619   3.059 -33.016  1.00  0.00    -0.322 N 
HETATM   14  H   UNL     1      -5.693   2.627 -33.929  1.00  0.00     0.169 HD
HETATM   15  O   UNL     1      -6.875   3.510 -31.109  1.00  0.00    -0.267 OA
BRANCH  13  16
HETATM   16  C   UNL     1      -4.346   3.541 -32.642  1.00  0.00     0.052 A 
HETATM   17  C   UNL     1      -3.503   2.941 -31.709  1.00  0.00     0.145 A 
HETATM   18  N   UNL     1      -2.302   3.447 -31.329  1.00  0.00    -0.271 NA
HETATM   19  C   UNL     1      -1.919   4.607 -31.901  1.00  0.00     0.116 A 
HETATM   20  C   UNL     1      -2.679   5.281 -32.841  1.00  0.00     0.021 A 
HETATM   21  C   UNL     1      -3.907   4.735 -33.218  1.00  0.00     0.032 A 
ENDBRANCH  13  16
ENDBRANCH  10  12
BRANCH   9  22
HETATM   22  C   UNL     1      -7.535   0.270 -33.270  1.00  0.00     0.064 A 
HETATM   23  N   UNL     1      -6.567  -0.258 -32.467  1.00  0.00    -0.263 NA
HETATM   24  C   UNL     1      -5.712  -1.145 -33.024  1.00  0.00     0.117 A 
HETATM   25  C   UNL     1      -5.771  -1.551 -34.345  1.00  0.00     0.019 A 
HETATM   26  C   UNL     1      -6.768  -1.019 -35.151  1.00  0.00     0.003 A 
HETATM   27  C   UNL     1      -7.661  -0.098 -34.612  1.00  0.00     0.030 A 
ENDBRANCH   9  22
TORSDOF 3
ENDMDL
MODEL 5
REMARK VINA RESULT:      -7.3      2.521      5.693
REMARK  3 active torsions:
REMARK  status: ('A' for Active; 'I' for Inactive)
REMARK    1  A    between atoms: C_9  and  C_10 
REMARK    2  A    between atoms: C_16  and  C_17 
REMARK       I    between atoms: C_17  and  N_18 
REMARK    3  A    between atoms: N_18  and  C_19 
ROOT
HETATM    1  C   UNL     1      -8.878   3.906 -30.111  1.00  0.00     0.070 C 
HETATM    2  C   UNL     1      -8.021   3.689 -31.335  1.00  0.00     0.037 C 
HETATM    3  N   UNL     1      -6.846   4.433 -31.383  1.00  0.00    -0.192 N 
HETATM    4  C   UNL     1      -6.108   4.560 -32.503  1.00  0.00     0.725 A 
HETATM    5  N   UNL     1      -6.410   3.794 -33.596  1.00  0.00    -0.082 N 
HETATM    6  N   UNL     1      -5.674   4.163 -34.670  1.00  0.00    -0.149 NA
HETATM    7  C   UNL     1      -4.892   5.100 -34.120  1.00  0.00     0.275 A 
HETATM    8  N   UNL     1      -5.128   5.374 -32.797  1.00  0.00    -0.054 NA
HETATM    9  C   UNL     1      -7.483   2.800 -33.631  1.00  0.00     0.221 C 
HETATM   10  C   UNL     1      -8.354   2.895 -32.382  1.00  0.00     0.064 C 
HETATM   11  H   UNL     1      -6.665   5.078 -30.618  1.00  0.00     0.184 HD
ENDROOT
BRANCH  10  12
HETATM   12  C   UNL     1      -9.623   2.131 -32.490  1.00  0.00     0.256 C 
HETATM   13  N   UNL     1     -10.646   2.819 -33.100  1.00  0.00    -0.322 N 
HETATM   14  H   UNL     1     -10.479   3.795 -33.313  1.00  0.00     0.169 HD
HETATM   15  O   UNL     1      -9.671   0.999 -32.024  1.00  0.00    -0.267 OA
BRANCH  13  16
HETATM   16  C   UNL     1     -11.891   2.285 -33.497  1.00  0.00     0.052 A 
HETATM   17  C   UNL     1     -12.098   1.477 -34.613  1.00  0.00     0.145 A 
HETATM   18  N   UNL     1     -13.313   1.012 -35.003  1.00  0.00    -0.271 NA
HETATM   19  C   UNL     1     -14.374   1.369 -34.252  1.00  0.00     0.116 A 
HETATM   20  C   UNL     1     -14.276   2.163 -33.123  1.00  0.00     0.021 A 
HETATM   21  C   UNL     1     -13.015   2.622 -32.740  1.00  0.00     0.032 A 
ENDBRANCH  13  16
ENDBRANCH  10  12
BRANCH   9  22
HETATM   22  C   UNL     1      -6.859   1.420 -33.814  1.00  0.00     0.064 A 
HETATM   23  N   UNL     1      -5.852   1.045 -32.974  1.00  0.00    -0.263 NA
HETATM   24  C   UNL     1      -5.263  -0.151 -33.203  1.00  0.00     0.117 A 
HETATM   25  C   UNL     1      -5.628  -1.010 -34.224  1.00  0.00     0.019 A 
HETATM   26  C   UNL     1      -6.663  -0.625 -35.065  1.00  0.00     0.003 A 
HETATM   27  C   UNL     1      -7.287   0.602 -34.863  1.00  0.00     0.030 A 
ENDBRANCH   9  22
TORSDOF 3
ENDMDL
MODEL 6
REMARK VINA RESULT:      -7.2      2.058      5.649
REMARK  3 active torsions:
REMARK  status: ('A' for Active; 'I' for Inactive)
REMARK    1  A    between atoms: C_9  and  C_10 
REMARK    2  A    between atoms: C_16  and  C_17 
REMARK       I    between atoms: C_17  and  N_18 
REMARK    3  A    between atoms: N_18  and  C_19 
ROOT
HETATM    1  C   UNL     1      -7.507  -1.746 -34.246  1.00  0.00     0.070 C 
HETATM    2  C   UNL     1      -6.668  -0.781 -33.445  1.00  0.00     0.037 C 
HETATM    3  N   UNL     1      -5.305  -1.056 -33.412  1.00  0.00    -0.192 N 
HETATM    4  C   UNL     1      -4.461  -0.463 -32.545  1.00  0.00     0.725 A 
HETATM    5  N   UNL     1      -4.907   0.581 -31.781  1.00  0.00    -0.082 N 
HETATM    6  N   UNL     1      -3.982   0.947 -30.864  1.00  0.00    -0.149 NA
HETATM    7  C   UNL     1      -2.974   0.132 -31.196  1.00  0.00     0.275 A 
HETATM    8  N   UNL     1      -3.227  -0.748 -32.217  1.00  0.00    -0.054 NA
HETATM    9  C   UNL     1      -6.259   1.135 -31.859  1.00  0.00     0.221 C 
HETATM   10  C   UNL     1      -7.158   0.259 -32.725  1.00  0.00     0.064 C 
HETATM   11  H   UNL     1      -4.980  -1.889 -33.897  1.00  0.00     0.184 HD
ENDROOT
BRANCH  10  12
HETATM   12  C   UNL     1      -8.601   0.593 -32.603  1.00  0.00     0.256 C 
HETATM   13  N   UNL     1      -9.147   1.158 -33.732  1.00  0.00    -0.322 N 
HETATM   14  H   UNL     1      -8.508   1.391 -34.483  1.00  0.00     0.169 HD
HETATM   15  O   UNL     1      -9.168   0.373 -31.540  1.00  0.00    -0.267 OA
BRANCH  13  16
HETATM   16  C   UNL     1     -10.517   1.404 -33.962  1.00  0.00     0.052 A 
HETATM   17  C   UNL     1     -11.041   2.571 -34.513  1.00  0.00     0.145 A 
HETATM   18  N   UNL     1     -12.368   2.807 -34.683  1.00  0.00    -0.271 NA
HETATM   19  C   UNL     1     -13.216   1.838 -34.284  1.00  0.00     0.116 A 
HETATM   20  C   UNL     1     -12.799   0.641 -33.729  1.00  0.00     0.021 A 
HETATM   21  C   UNL     1     -11.430   0.422 -33.572  1.00  0.00     0.032 A 
ENDBRANCH  13  16
ENDBRANCH  10  12
BRANCH   9  22
HETATM   22  C   UNL     1      -6.164   2.571 -32.367  1.00  0.00     0.064 A 
HETATM   23  N   UNL     1      -6.482   3.585 -31.513  1.00  0.00    -0.263 NA
HETATM   24  C   UNL     1      -6.464   4.844 -32.007  1.00  0.00     0.117 A 
HETATM   25  C   UNL     1      -6.134   5.158 -33.313  1.00  0.00     0.019 A 
HETATM   26  C   UNL     1      -5.799   4.120 -34.172  1.00  0.00     0.003 A 
HETATM   27  C   UNL     1      -5.814   2.811 -33.699  1.00  0.00     0.030 A 
ENDBRANCH   9  22
TORSDOF 3
ENDMDL
MODEL 7
REMARK VINA RESULT:      -7.0      5.557      9.082
REMARK  3 active torsions:
REMARK  status: ('A' for Active; 'I' for Inactive)
REMARK    1  A    between atoms: C_9  and  C_10 
REMARK    2  A    between atoms: C_16  and  C_17 
REMARK       I    between atoms: C_17  and  N_18 
REMARK    3  A    between atoms: N_18  and  C_19 
ROOT
HETATM    1  C   UNL     1       0.203   6.464 -30.286  1.00  0.00     0.070 C 
HETATM    2  C   UNL     1      -1.037   6.207 -31.106  1.00  0.00     0.037 C 
HETATM    3  N   UNL     1      -0.835   5.516 -32.297  1.00  0.00    -0.192 N 
HETATM    4  C   UNL     1      -1.773   5.433 -33.261  1.00  0.00     0.725 A 
HETATM    5  N   UNL     1      -3.039   5.886 -33.007  1.00  0.00    -0.082 N 
HETATM    6  N   UNL     1      -3.798   5.870 -34.127  1.00  0.00    -0.149 NA
HETATM    7  C   UNL     1      -2.942   5.315 -34.994  1.00  0.00     0.275 A 
HETATM    8  N   UNL     1      -1.693   5.035 -34.505  1.00  0.00    -0.054 NA
HETATM    9  C   UNL     1      -3.470   6.440 -31.723  1.00  0.00     0.221 C 
HETATM   10  C   UNL     1      -2.279   6.656 -30.795  1.00  0.00     0.064 C 
HETATM   11  H   UNL     1       0.119   5.263 -32.538  1.00  0.00     0.184 HD
ENDROOT
BRANCH  10  12
HETATM   12  C   UNL     1      -2.601   7.486 -29.606  1.00  0.00     0.256 C 
HETATM   13  N   UNL     1      -3.101   6.775 -28.540  1.00  0.00    -0.322 N 
HETATM   14  H   UNL     1      -3.304   5.795 -28.697  1.00  0.00     0.169 HD
HETATM   15  O   UNL     1      -2.428   8.697 -29.669  1.00  0.00    -0.267 OA
BRANCH  13  16
HETATM   16  C   UNL     1      -3.319   7.269 -27.236  1.00  0.00     0.052 A 
HETATM   17  C   UNL     1      -4.559   7.621 -26.709  1.00  0.00     0.145 A 
HETATM   18  N   UNL     1      -4.740   8.139 -25.466  1.00  0.00    -0.271 NA
HETATM   19  C   UNL     1      -3.637   8.319 -24.712  1.00  0.00     0.116 A 
HETATM   20  C   UNL     1      -2.360   7.998 -25.140  1.00  0.00     0.021 A 
HETATM   21  C   UNL     1      -2.203   7.462 -26.418  1.00  0.00     0.032 A 
ENDBRANCH  13  16
ENDBRANCH  10  12
BRANCH   9  22
HETATM   22  C   UNL     1      -4.526   5.514 -31.127  1.00  0.00     0.064 A 
HETATM   23  N   UNL     1      -5.654   6.068 -30.600  1.00  0.00    -0.263 NA
HETATM   24  C   UNL     1      -6.540   5.235 -30.008  1.00  0.00     0.117 A 
HETATM   25  C   UNL     1      -6.373   3.865 -29.920  1.00  0.00     0.019 A 
HETATM   26  C   UNL     1      -5.227   3.308 -30.472  1.00  0.00     0.003 A 
HETATM   27  C   UNL     1      -4.291   4.137 -31.081  1.00  0.00     0.030 A 
ENDBRANCH   9  22
TORSDOF 3
ENDMDL
MODEL 8
REMARK VINA RESULT:      -6.9      2.943      6.420
REMARK  3 active torsions:
REMARK  status: ('A' for Active; 'I' for Inactive)
REMARK    1  A    between atoms: C_9  and  C_10 
REMARK    2  A    between atoms: C_16  and  C_17 
REMARK       I    between atoms: C_17  and  N_18 
REMARK    3  A    between atoms: N_18  and  C_19 
ROOT
HETATM    1  C   UNL     1      -6.560   5.165 -33.842  1.00  0.00     0.070 C 
HETATM    2  C   UNL     1      -6.745   3.791 -33.247  1.00  0.00     0.037 C 
HETATM    3  N   UNL     1      -7.864   3.092 -33.687  1.00  0.00    -0.192 N 
HETATM    4  C   UNL     1      -8.319   1.982 -33.075  1.00  0.00     0.725 A 
HETATM    5  N   UNL     1      -7.566   1.401 -32.091  1.00  0.00    -0.082 N 
HETATM    6  N   UNL     1      -8.242   0.398 -31.484  1.00  0.00    -0.149 NA
HETATM    7  C   UNL     1      -9.362   0.381 -32.217  1.00  0.00     0.275 A 
HETATM    8  N   UNL     1      -9.450   1.335 -33.198  1.00  0.00    -0.054 NA
HETATM    9  C   UNL     1      -6.255   1.892 -31.663  1.00  0.00     0.221 C 
HETATM   10  C   UNL     1      -5.950   3.248 -32.290  1.00  0.00     0.064 C 
HETATM   11  H   UNL     1      -8.482   3.559 -34.346  1.00  0.00     0.184 HD
ENDROOT
BRANCH  10  12
HETATM   12  C   UNL     1      -4.788   3.935 -31.671  1.00  0.00     0.256 C 
HETATM   13  N   UNL     1      -3.687   4.029 -32.490  1.00  0.00    -0.322 N 
HETATM   14  H   UNL     1      -3.729   3.537 -33.374  1.00  0.00     0.169 HD
HETATM   15  O   UNL     1      -4.883   4.329 -30.515  1.00  0.00    -0.267 OA
BRANCH  13  16
HETATM   16  C   UNL     1      -2.520   4.781 -32.236  1.00  0.00     0.052 A 
HETATM   17  C   UNL     1      -1.490   4.400 -31.378  1.00  0.00     0.145 A 
HETATM   18  N   UNL     1      -0.397   5.161 -31.112  1.00  0.00    -0.271 NA
HETATM   19  C   UNL     1      -0.324   6.360 -31.724  1.00  0.00     0.116 A 
HETATM   20  C   UNL     1      -1.290   6.831 -32.596  1.00  0.00     0.021 A 
HETATM   21  C   UNL     1      -2.399   6.027 -32.857  1.00  0.00     0.032 A 
ENDBRANCH  13  16
ENDBRANCH  10  12
BRANCH   9  22
HETATM   22  C   UNL     1      -5.209   0.834 -32.002  1.00  0.00     0.064 A 
HETATM   23  N   UNL     1      -5.240   0.261 -33.238  1.00  0.00    -0.263 NA
HETATM   24  C   UNL     1      -4.352  -0.728 -33.489  1.00  0.00     0.117 A 
HETATM   25  C   UNL     1      -3.415  -1.176 -32.575  1.00  0.00     0.019 A 
HETATM   26  C   UNL     1      -3.381  -0.576 -31.324  1.00  0.00     0.003 A 
HETATM   27  C   UNL     1      -4.286   0.439 -31.029  1.00  0.00     0.030 A 
ENDBRANCH   9  22
TORSDOF 3
ENDMDL
MODEL 9
REMARK VINA RESULT:      -6.8      1.869      6.346
REMARK  3 active torsions:
REMARK  status: ('A' for Active; 'I' for Inactive)
REMARK    1  A    between atoms: C_9  and  C_10 
REMARK    2  A    between atoms: C_16  and  C_17 
REMARK       I    between atoms: C_17  and  N_18 
REMARK    3  A    between atoms: N_18  and  C_19 
ROOT
HETATM    1  C   UNL     1      -3.276   0.788 -30.943  1.00  0.00     0.070 C 
HETATM    2  C   UNL     1      -4.257   0.299 -31.980  1.00  0.00     0.037 C 
HETATM    3  N   UNL     1      -4.212  -1.065 -32.252  1.00  0.00    -0.192 N 
HETATM    4  C   UNL     1      -4.821  -1.617 -33.319  1.00  0.00     0.725 A 
HETATM    5  N   UNL     1      -5.668  -0.855 -34.077  1.00  0.00    -0.082 N 
HETATM    6  N   UNL     1      -6.064  -1.520 -35.188  1.00  0.00    -0.149 NA
HETATM    7  C   UNL     1      -5.479  -2.706 -34.982  1.00  0.00     0.275 A 
HETATM    8  N   UNL     1      -4.708  -2.806 -33.852  1.00  0.00    -0.054 NA
HETATM    9  C   UNL     1      -5.993   0.543 -33.791  1.00  0.00     0.221 C 
HETATM   10  C   UNL     1      -5.098   1.095 -32.687  1.00  0.00     0.064 C 
HETATM   11  H   UNL     1      -3.516  -1.620 -31.762  1.00  0.00     0.184 HD
ENDROOT
BRANCH  10  12
HETATM   12  C   UNL     1      -5.166   2.573 -32.557  1.00  0.00     0.256 C 
HETATM   13  N   UNL     1      -6.020   3.015 -31.573  1.00  0.00    -0.322 N 
HETATM   14  H   UNL     1      -6.593   2.315 -31.116  1.00  0.00     0.169 HD
HETATM   15  O   UNL     1      -4.503   3.263 -33.322  1.00  0.00    -0.267 OA
BRANCH  13  16
HETATM   16  C   UNL     1      -6.144   4.342 -31.110  1.00  0.00     0.052 A 
HETATM   17  C   UNL     1      -7.122   5.246 -31.519  1.00  0.00     0.145 A 
HETATM   18  N   UNL     1      -7.196   6.534 -31.095  1.00  0.00    -0.271 NA
HETATM   19  C   UNL     1      -6.251   6.946 -30.226  1.00  0.00     0.116 A 
HETATM   20  C   UNL     1      -5.239   6.128 -29.755  1.00  0.00     0.021 A 
HETATM   21  C   UNL     1      -5.191   4.807 -30.202  1.00  0.00     0.032 A 
ENDBRANCH  13  16
ENDBRANCH  10  12
BRANCH   9  22
HETATM   22  C   UNL     1      -7.478   0.634 -33.450  1.00  0.00     0.064 A 
HETATM   23  N   UNL     1      -7.875   0.324 -32.183  1.00  0.00    -0.263 NA
HETATM   24  C   UNL     1      -9.202   0.338 -31.925  1.00  0.00     0.117 A 
HETATM   25  C   UNL     1     -10.168   0.658 -32.862  1.00  0.00     0.019 A 
HETATM   26  C   UNL     1      -9.754   0.986 -34.145  1.00  0.00     0.003 A 
HETATM   27  C   UNL     1      -8.396   0.974 -34.448  1.00  0.00     0.030 A 
ENDBRANCH   9  22
TORSDOF 3
ENDMDL
MODEL 10
REMARK VINA RESULT:      -6.8     15.031     17.888
REMARK  3 active torsions:
REMARK  status: ('A' for Active; 'I' for Inactive)
REMARK    1  A    between atoms: C_9  and  C_10 
REMARK    2  A    between atoms: C_16  and  C_17 
REMARK       I    between atoms: C_17  and  N_18 
REMARK    3  A    between atoms: N_18  and  C_19 
ROOT
HETATM    1  C   UNL     1      -5.525 -11.674 -40.287  1.00  0.00     0.070 C 
HETATM    2  C   UNL     1      -4.712 -12.943 -40.365  1.00  0.00     0.037 C 
HETATM    3  N   UNL     1      -4.461 -13.416 -41.649  1.00  0.00    -0.192 N 
HETATM    4  C   UNL     1      -3.987 -14.653 -41.891  1.00  0.00     0.725 A 
HETATM    5  N   UNL     1      -3.562 -15.426 -40.845  1.00  0.00    -0.082 N 
HETATM    6  N   UNL     1      -3.270 -16.684 -41.252  1.00  0.00    -0.149 NA
HETATM    7  C   UNL     1      -3.463 -16.564 -42.571  1.00  0.00     0.275 A 
HETATM    8  N   UNL     1      -3.904 -15.339 -43.002  1.00  0.00    -0.054 NA
HETATM    9  C   UNL     1      -3.557 -14.987 -39.449  1.00  0.00     0.221 C 
HETATM   10  C   UNL     1      -4.291 -13.659 -39.293  1.00  0.00     0.064 C 
HETATM   11  H   UNL     1      -4.859 -12.898 -42.428  1.00  0.00     0.184 HD
ENDROOT
BRANCH  10  12
HETATM   12  C   UNL     1      -4.582 -13.310 -37.879  1.00  0.00     0.256 C 
HETATM   13  N   UNL     1      -5.527 -14.111 -37.282  1.00  0.00    -0.322 N 
HETATM   14  H   UNL     1      -6.006 -14.776 -37.878  1.00  0.00     0.169 HD
HETATM   15  O   UNL     1      -4.000 -12.356 -37.376  1.00  0.00    -0.267 OA
BRANCH  13  16
HETATM   16  C   UNL     1      -5.863 -14.126 -35.912  1.00  0.00     0.052 A 
HETATM   17  C   UNL     1      -7.006 -13.552 -35.360  1.00  0.00     0.145 A 
HETATM   18  N   UNL     1      -7.287 -13.537 -34.031  1.00  0.00    -0.271 NA
HETATM   19  C   UNL     1      -6.389 -14.118 -33.210  1.00  0.00     0.116 A 
HETATM   20  C   UNL     1      -5.225 -14.720 -33.657  1.00  0.00     0.021 A 
HETATM   21  C   UNL     1      -4.964 -14.726 -35.027  1.00  0.00     0.032 A 
ENDBRANCH  13  16
ENDBRANCH  10  12
BRANCH   9  22
HETATM   22  C   UNL     1      -2.110 -14.924 -38.968  1.00  0.00     0.064 A 
HETATM   23  N   UNL     1      -1.758 -15.646 -37.867  1.00  0.00    -0.263 NA
HETATM   24  C   UNL     1      -0.491 -15.516 -37.414  1.00  0.00     0.117 A 
HETATM   25  C   UNL     1       0.462 -14.707 -38.006  1.00  0.00     0.019 A 
HETATM   26  C   UNL     1       0.099 -13.986 -39.136  1.00  0.00     0.003 A 
HETATM   27  C   UNL     1      -1.199 -14.091 -39.624  1.00  0.00     0.030 A 
ENDBRANCH   9  22
TORSDOF 3
ENDMDL
