MODEL 1
REMARK VINA RESULT:      -8.5      0.000      0.000
REMARK  7 active torsions:
REMARK  status: ('A' for Active; 'I' for Inactive)
REMARK    1  A    between atoms: C_2  and  N_3 
REMARK    2  A    between atoms: N_3  and  C_4 
REMARK    3  A    between atoms: C_6  and  N_7 
REMARK    4  A    between atoms: N_7  and  C_8 
REMARK    5  A    between atoms: C_8  and  C_9 
REMARK    6  A    between atoms: C_9  and  C_10 
REMARK    7  A    between atoms: C_11  and  O_12 
ROOT
HETATM    1  C   UNL     1      -6.496  -0.789 -33.914  1.00  0.00     0.119 A 
HETATM    2  N   UNL     1      -5.663   0.155 -33.435  1.00  0.00    -0.207 NA
HETATM    3  C   UNL     1      -4.404  -0.203 -33.156  1.00  0.00     0.181 A 
HETATM    4  N   UNL     1      -3.947  -1.440 -33.314  1.00  0.00    -0.330 N 
HETATM    5  H   UNL     1      -3.003  -1.626 -33.004  1.00  0.00     0.168 HD
HETATM    6  C   UNL     1      -4.719  -2.406 -33.821  1.00  0.00     0.048 A 
HETATM    7  C   UNL     1      -6.053  -2.108 -34.161  1.00  0.00     0.031 A 
HETATM    8  C   UNL     1      -4.198  -3.695 -34.010  1.00  0.00     0.030 A 
HETATM    9  C   UNL     1      -4.996  -4.699 -34.556  1.00  0.00     0.002 A 
HETATM   10  C   UNL     1      -6.312  -4.423 -34.915  1.00  0.00     0.001 A 
HETATM   11  C   UNL     1      -6.838  -3.143 -34.721  1.00  0.00     0.017 A 
ENDROOT
BRANCH   3  12
HETATM   12  N   UNL     1      -3.581   0.753 -32.597  1.00  0.00    -0.262 NA
HETATM   13  H   UNL     1      -3.164   0.316 -31.768  1.00  0.00     0.130 HD
BRANCH  12  14
HETATM   14  C   UNL     1      -4.133   2.080 -32.311  1.00  0.00     0.100 C 
BRANCH  14  15
HETATM   15  C   UNL     1      -3.086   3.034 -31.718  1.00  0.00     0.056 C 
BRANCH  15  16
HETATM   16  C   UNL     1      -2.516   4.136 -32.593  1.00  0.00    -0.024 A 
HETATM   17  C   UNL     1      -1.421   4.883 -32.103  1.00  0.00     0.074 A 
HETATM   18  C   UNL     1      -0.853   5.893 -32.886  1.00  0.00     0.037 A 
HETATM   19  C   UNL     1      -1.372   6.181 -34.148  1.00  0.00     0.003 A 
HETATM   20  C   UNL     1      -2.463   5.468 -34.630  1.00  0.00     0.001 A 
HETATM   21  C   UNL     1      -3.034   4.455 -33.858  1.00  0.00     0.010 A 
BRANCH  17  22
HETATM   22  O   UNL     1      -0.980   4.535 -30.850  1.00  0.00    -0.355 OA
HETATM   23  C   UNL     1       0.231   5.133 -30.398  1.00  0.00     0.210 C 
ENDBRANCH  17  22
ENDBRANCH  15  16
ENDBRANCH  14  15
ENDBRANCH  12  14
ENDBRANCH   3  12
BRANCH   1  24
HETATM   24  N   UNL     1      -7.812  -0.435 -34.223  1.00  0.00    -0.273 NA
HETATM   25  H   UNL     1      -8.395  -1.253 -34.385  1.00  0.00     0.129 HD
BRANCH  24  26
HETATM   26  C   UNL     1      -8.499   0.552 -33.379  1.00  0.00     0.053 C 
HETATM   27  C   UNL     1      -9.751  -0.053 -32.744  1.00  0.00     0.026 C 
HETATM   28  C   UNL     1      -8.887   1.737 -34.265  1.00  0.00     0.026 C 
ENDBRANCH  24  26
ENDBRANCH   1  24
TORSDOF 7
ENDMDL
MODEL 2
REMARK VINA RESULT:      -8.1      1.582      2.405
REMARK  7 active torsions:
REMARK  status: ('A' for Active; 'I' for Inactive)
REMARK    1  A    between atoms: C_2  and  N_3 
REMARK    2  A    between atoms: N_3  and  C_4 
REMARK    3  A    between atoms: C_6  and  N_7 
REMARK    4  A    between atoms: N_7  and  C_8 
REMARK    5  A    between atoms: C_8  and  C_9 
REMARK    6  A    between atoms: C_9  and  C_10 
REMARK    7  A    between atoms: C_11  and  O_12 
ROOT
HETATM    1  C   UNL     1      -6.445  -0.735 -33.999  1.00  0.00     0.119 A 
HETATM    2  N   UNL     1      -5.577   0.200 -33.569  1.00  0.00    -0.207 NA
HETATM    3  C   UNL     1      -4.323  -0.183 -33.305  1.00  0.00     0.181 A 
HETATM    4  N   UNL     1      -3.903  -1.437 -33.432  1.00  0.00    -0.330 N 
HETATM    5  H   UNL     1      -2.957  -1.639 -33.136  1.00  0.00     0.168 HD
HETATM    6  C   UNL     1      -4.711  -2.396 -33.891  1.00  0.00     0.048 A 
HETATM    7  C   UNL     1      -6.044  -2.073 -34.212  1.00  0.00     0.031 A 
HETATM    8  C   UNL     1      -4.230  -3.705 -34.050  1.00  0.00     0.030 A 
HETATM    9  C   UNL     1      -5.067  -4.703 -34.545  1.00  0.00     0.002 A 
HETATM   10  C   UNL     1      -6.383  -4.402 -34.885  1.00  0.00     0.001 A 
HETATM   11  C   UNL     1      -6.869  -3.102 -34.723  1.00  0.00     0.017 A 
ENDROOT
BRANCH   3  12
HETATM   12  N   UNL     1      -3.461   0.767 -32.794  1.00  0.00    -0.262 NA
HETATM   13  H   UNL     1      -2.518   0.379 -32.902  1.00  0.00     0.130 HD
BRANCH  12  14
HETATM   14  C   UNL     1      -3.701   1.284 -31.444  1.00  0.00     0.100 C 
BRANCH  14  15
HETATM   15  C   UNL     1      -4.165   2.748 -31.452  1.00  0.00     0.056 C 
BRANCH  15  16
HETATM   16  C   UNL     1      -3.792   3.631 -32.629  1.00  0.00    -0.024 A 
HETATM   17  C   UNL     1      -4.823   4.077 -33.487  1.00  0.00     0.074 A 
HETATM   18  C   UNL     1      -4.525   4.909 -34.571  1.00  0.00     0.037 A 
HETATM   19  C   UNL     1      -3.208   5.291 -34.823  1.00  0.00     0.003 A 
HETATM   20  C   UNL     1      -2.183   4.841 -33.999  1.00  0.00     0.001 A 
HETATM   21  C   UNL     1      -2.471   4.014 -32.912  1.00  0.00     0.010 A 
BRANCH  17  22
HETATM   22  O   UNL     1      -6.087   3.646 -33.166  1.00  0.00    -0.355 OA
HETATM   23  C   UNL     1      -7.178   4.317 -33.788  1.00  0.00     0.210 C 
ENDBRANCH  17  22
ENDBRANCH  15  16
ENDBRANCH  14  15
ENDBRANCH  12  14
ENDBRANCH   3  12
BRANCH   1  24
HETATM   24  N   UNL     1      -7.758  -0.354 -34.291  1.00  0.00    -0.273 NA
HETATM   25  H   UNL     1      -8.382  -1.156 -34.343  1.00  0.00     0.129 HD
BRANCH  24  26
HETATM   26  C   UNL     1      -8.365   0.747 -33.530  1.00  0.00     0.053 C 
HETATM   27  C   UNL     1      -8.831   0.265 -32.156  1.00  0.00     0.026 C 
HETATM   28  C   UNL     1      -9.560   1.267 -34.330  1.00  0.00     0.026 C 
ENDBRANCH  24  26
ENDBRANCH   1  24
TORSDOF 7
ENDMDL
MODEL 3
REMARK VINA RESULT:      -8.0      1.455      2.346
REMARK  7 active torsions:
REMARK  status: ('A' for Active; 'I' for Inactive)
REMARK    1  A    between atoms: C_2  and  N_3 
REMARK    2  A    between atoms: N_3  and  C_4 
REMARK    3  A    between atoms: C_6  and  N_7 
REMARK    4  A    between atoms: N_7  and  C_8 
REMARK    5  A    between atoms: C_8  and  C_9 
REMARK    6  A    between atoms: C_9  and  C_10 
REMARK    7  A    between atoms: C_11  and  O_12 
ROOT
HETATM    1  C   UNL     1      -6.973   0.732 -33.618  1.00  0.00     0.119 A 
HETATM    2  N   UNL     1      -6.429   1.682 -32.834  1.00  0.00    -0.207 NA
HETATM    3  C   UNL     1      -5.239   1.428 -32.276  1.00  0.00     0.181 A 
HETATM    4  N   UNL     1      -4.584   0.285 -32.446  1.00  0.00    -0.330 N 
HETATM    5  H   UNL     1      -3.729   0.161 -31.922  1.00  0.00     0.168 HD
HETATM    6  C   UNL     1      -5.060  -0.675 -33.244  1.00  0.00     0.048 A 
HETATM    7  C   UNL     1      -6.298  -0.480 -33.887  1.00  0.00     0.031 A 
HETATM    8  C   UNL     1      -4.329  -1.858 -33.434  1.00  0.00     0.030 A 
HETATM    9  C   UNL     1      -4.815  -2.854 -34.280  1.00  0.00     0.002 A 
HETATM   10  C   UNL     1      -6.028  -2.674 -34.938  1.00  0.00     0.001 A 
HETATM   11  C   UNL     1      -6.764  -1.502 -34.747  1.00  0.00     0.017 A 
ENDROOT
BRANCH   3  12
HETATM   12  N   UNL     1      -4.725   2.377 -31.416  1.00  0.00    -0.262 NA
HETATM   13  H   UNL     1      -5.275   3.228 -31.573  1.00  0.00     0.130 HD
BRANCH  12  14
HETATM   14  C   UNL     1      -3.282   2.636 -31.432  1.00  0.00     0.100 C 
BRANCH  14  15
HETATM   15  C   UNL     1      -2.836   3.387 -32.695  1.00  0.00     0.056 C 
BRANCH  15  16
HETATM   16  C   UNL     1      -2.032   4.666 -32.544  1.00  0.00    -0.024 A 
HETATM   17  C   UNL     1      -1.788   5.445 -33.697  1.00  0.00     0.074 A 
HETATM   18  C   UNL     1      -1.069   6.640 -33.599  1.00  0.00     0.037 A 
HETATM   19  C   UNL     1      -0.573   7.064 -32.367  1.00  0.00     0.003 A 
HETATM   20  C   UNL     1      -0.788   6.294 -31.229  1.00  0.00     0.001 A 
HETATM   21  C   UNL     1      -1.508   5.102 -31.316  1.00  0.00     0.010 A 
BRANCH  17  22
HETATM   22  O   UNL     1      -2.308   4.948 -34.868  1.00  0.00    -0.355 OA
HETATM   23  C   UNL     1      -3.615   5.379 -35.232  1.00  0.00     0.210 C 
ENDBRANCH  17  22
ENDBRANCH  15  16
ENDBRANCH  14  15
ENDBRANCH  12  14
ENDBRANCH   3  12
BRANCH   1  24
HETATM   24  N   UNL     1      -8.209   0.980 -34.221  1.00  0.00    -0.273 NA
HETATM   25  H   UNL     1      -8.408   0.314 -34.964  1.00  0.00     0.129 HD
BRANCH  24  26
HETATM   26  C   UNL     1      -9.386   1.196 -33.367  1.00  0.00     0.053 C 
HETATM   27  C   UNL     1      -9.843  -0.117 -32.730  1.00  0.00     0.026 C 
HETATM   28  C   UNL     1     -10.503   1.764 -34.243  1.00  0.00     0.026 C 
ENDBRANCH  24  26
ENDBRANCH   1  24
TORSDOF 7
ENDMDL
MODEL 4
REMARK VINA RESULT:      -7.8     14.768     17.007
REMARK  7 active torsions:
REMARK  status: ('A' for Active; 'I' for Inactive)
REMARK    1  A    between atoms: C_2  and  N_3 
REMARK    2  A    between atoms: N_3  and  C_4 
REMARK    3  A    between atoms: C_6  and  N_7 
REMARK    4  A    between atoms: N_7  and  C_8 
REMARK    5  A    between atoms: C_8  and  C_9 
REMARK    6  A    between atoms: C_9  and  C_10 
REMARK    7  A    between atoms: C_11  and  O_12 
ROOT
HETATM    1  C   UNL     1      -5.385 -12.809 -37.274  1.00  0.00     0.119 A 
HETATM    2  N   UNL     1      -4.070 -12.572 -37.437  1.00  0.00    -0.207 NA
HETATM    3  C   UNL     1      -3.645 -12.208 -38.653  1.00  0.00     0.181 A 
HETATM    4  N   UNL     1      -4.452 -12.089 -39.700  1.00  0.00    -0.330 N 
HETATM    5  H   UNL     1      -4.023 -11.882 -40.593  1.00  0.00     0.168 HD
HETATM    6  C   UNL     1      -5.770 -12.275 -39.586  1.00  0.00     0.048 A 
HETATM    7  C   UNL     1      -6.303 -12.640 -38.334  1.00  0.00     0.031 A 
HETATM    8  C   UNL     1      -6.604 -12.106 -40.702  1.00  0.00     0.030 A 
HETATM    9  C   UNL     1      -7.981 -12.283 -40.580  1.00  0.00     0.002 A 
HETATM   10  C   UNL     1      -8.531 -12.626 -39.349  1.00  0.00     0.001 A 
HETATM   11  C   UNL     1      -7.705 -12.803 -38.236  1.00  0.00     0.017 A 
ENDROOT
BRANCH   3  12
HETATM   12  N   UNL     1      -2.286 -12.039 -38.827  1.00  0.00    -0.262 NA
HETATM   13  H   UNL     1      -2.179 -11.439 -39.652  1.00  0.00     0.130 HD
BRANCH  12  14
HETATM   14  C   UNL     1      -1.429 -13.227 -38.888  1.00  0.00     0.100 C 
BRANCH  14  15
HETATM   15  C   UNL     1      -1.005 -13.569 -40.324  1.00  0.00     0.056 C 
BRANCH  15  16
HETATM   16  C   UNL     1      -1.304 -14.954 -40.869  1.00  0.00    -0.024 A 
HETATM   17  C   UNL     1      -2.384 -15.103 -41.768  1.00  0.00     0.074 A 
HETATM   18  C   UNL     1      -2.681 -16.358 -42.309  1.00  0.00     0.037 A 
HETATM   19  C   UNL     1      -1.924 -17.475 -41.953  1.00  0.00     0.003 A 
HETATM   20  C   UNL     1      -0.874 -17.344 -41.053  1.00  0.00     0.001 A 
HETATM   21  C   UNL     1      -0.567 -16.095 -40.511  1.00  0.00     0.010 A 
BRANCH  17  22
HETATM   22  O   UNL     1      -3.078 -13.953 -42.056  1.00  0.00    -0.355 OA
HETATM   23  C   UNL     1      -4.352 -14.100 -42.674  1.00  0.00     0.210 C 
ENDBRANCH  17  22
ENDBRANCH  15  16
ENDBRANCH  14  15
ENDBRANCH  12  14
ENDBRANCH   3  12
BRANCH   1  24
HETATM   24  N   UNL     1      -5.853 -13.178 -36.010  1.00  0.00    -0.273 NA
HETATM   25  H   UNL     1      -6.507 -13.956 -36.061  1.00  0.00     0.129 HD
BRANCH  24  26
HETATM   26  C   UNL     1      -4.884 -13.365 -34.920  1.00  0.00     0.053 C 
HETATM   27  C   UNL     1      -4.549 -14.845 -34.738  1.00  0.00     0.026 C 
HETATM   28  C   UNL     1      -5.510 -12.813 -33.638  1.00  0.00     0.026 C 
ENDBRANCH  24  26
ENDBRANCH   1  24
TORSDOF 7
ENDMDL
MODEL 5
REMARK VINA RESULT:      -7.8      3.067      5.735
REMARK  7 active torsions:
REMARK  status: ('A' for Active; 'I' for Inactive)
REMARK    1  A    between atoms: C_2  and  N_3 
REMARK    2  A    between atoms: N_3  and  C_4 
REMARK    3  A    between atoms: C_6  and  N_7 
REMARK    4  A    between atoms: N_7  and  C_8 
REMARK    5  A    between atoms: C_8  and  C_9 
REMARK    6  A    between atoms: C_9  and  C_10 
REMARK    7  A    between atoms: C_11  and  O_12 
ROOT
HETATM    1  C   UNL     1      -4.822  -0.964 -33.900  1.00  0.00     0.119 A 
HETATM    2  N   UNL     1      -5.874  -0.203 -34.257  1.00  0.00    -0.207 NA
HETATM    3  C   UNL     1      -6.932  -0.813 -34.805  1.00  0.00     0.181 A 
HETATM    4  N   UNL     1      -6.984  -2.121 -35.024  1.00  0.00    -0.330 N 
HETATM    5  H   UNL     1      -7.797  -2.476 -35.511  1.00  0.00     0.168 HD
HETATM    6  C   UNL     1      -5.985  -2.928 -34.654  1.00  0.00     0.048 A 
HETATM    7  C   UNL     1      -4.842  -2.368 -34.051  1.00  0.00     0.031 A 
HETATM    8  C   UNL     1      -6.084  -4.312 -34.865  1.00  0.00     0.030 A 
HETATM    9  C   UNL     1      -5.050  -5.156 -34.463  1.00  0.00     0.002 A 
HETATM   10  C   UNL     1      -3.919  -4.626 -33.850  1.00  0.00     0.001 A 
HETATM   11  C   UNL     1      -3.812  -3.249 -33.644  1.00  0.00     0.017 A 
ENDROOT
BRANCH   3  12
HETATM   12  N   UNL     1      -7.973  -0.015 -35.235  1.00  0.00    -0.262 NA
HETATM   13  H   UNL     1      -7.802   0.158 -36.232  1.00  0.00     0.130 HD
BRANCH  12  14
HETATM   14  C   UNL     1      -8.271   1.216 -34.498  1.00  0.00     0.100 C 
BRANCH  14  15
HETATM   15  C   UNL     1      -8.886   0.937 -33.118  1.00  0.00     0.056 C 
BRANCH  15  16
HETATM   16  C   UNL     1      -8.423   1.756 -31.927  1.00  0.00    -0.024 A 
HETATM   17  C   UNL     1      -9.253   2.803 -31.469  1.00  0.00     0.074 A 
HETATM   18  C   UNL     1      -8.874   3.569 -30.362  1.00  0.00     0.037 A 
HETATM   19  C   UNL     1      -7.666   3.316 -29.713  1.00  0.00     0.003 A 
HETATM   20  C   UNL     1      -6.830   2.303 -30.169  1.00  0.00     0.001 A 
HETATM   21  C   UNL     1      -7.202   1.531 -31.270  1.00  0.00     0.010 A 
BRANCH  17  22
HETATM   22  O   UNL     1     -10.420   2.985 -32.172  1.00  0.00    -0.355 OA
HETATM   23  C   UNL     1     -10.592   4.234 -32.833  1.00  0.00     0.210 C 
ENDBRANCH  17  22
ENDBRANCH  15  16
ENDBRANCH  14  15
ENDBRANCH  12  14
ENDBRANCH   3  12
BRANCH   1  24
HETATM   24  N   UNL     1      -3.712  -0.349 -33.315  1.00  0.00    -0.273 NA
HETATM   25  H   UNL     1      -3.154   0.155 -34.000  1.00  0.00     0.129 HD
BRANCH  24  26
HETATM   26  C   UNL     1      -3.900   0.445 -32.092  1.00  0.00     0.053 C 
HETATM   27  C   UNL     1      -3.618   1.924 -32.356  1.00  0.00     0.026 C 
HETATM   28  C   UNL     1      -2.934  -0.088 -31.034  1.00  0.00     0.026 C 
ENDBRANCH  24  26
ENDBRANCH   1  24
TORSDOF 7
ENDMDL
MODEL 6
REMARK VINA RESULT:      -7.7      1.657      2.490
REMARK  7 active torsions:
REMARK  status: ('A' for Active; 'I' for Inactive)
REMARK    1  A    between atoms: C_2  and  N_3 
REMARK    2  A    between atoms: N_3  and  C_4 
REMARK    3  A    between atoms: C_6  and  N_7 
REMARK    4  A    between atoms: N_7  and  C_8 
REMARK    5  A    between atoms: C_8  and  C_9 
REMARK    6  A    between atoms: C_9  and  C_10 
REMARK    7  A    between atoms: C_11  and  O_12 
ROOT
HETATM    1  C   UNL     1      -7.015   0.874 -33.831  1.00  0.00     0.119 A 
HETATM    2  N   UNL     1      -6.440   1.910 -33.190  1.00  0.00    -0.207 NA
HETATM    3  C   UNL     1      -5.208   1.736 -32.698  1.00  0.00     0.181 A 
HETATM    4  N   UNL     1      -4.539   0.593 -32.797  1.00  0.00    -0.330 N 
HETATM    5  H   UNL     1      -3.645   0.539 -32.327  1.00  0.00     0.168 HD
HETATM    6  C   UNL     1      -5.046  -0.453 -33.455  1.00  0.00     0.048 A 
HETATM    7  C   UNL     1      -6.331  -0.347 -34.023  1.00  0.00     0.031 A 
HETATM    8  C   UNL     1      -4.300  -1.636 -33.576  1.00  0.00     0.030 A 
HETATM    9  C   UNL     1      -4.821  -2.723 -34.278  1.00  0.00     0.002 A 
HETATM   10  C   UNL     1      -6.082  -2.634 -34.861  1.00  0.00     0.001 A 
HETATM   11  C   UNL     1      -6.831  -1.461 -34.737  1.00  0.00     0.017 A 
ENDROOT
BRANCH   3  12
HETATM   12  N   UNL     1      -4.657   2.778 -31.979  1.00  0.00    -0.262 NA
HETATM   13  H   UNL     1      -5.054   3.636 -32.378  1.00  0.00     0.130 HD
BRANCH  12  14
HETATM   14  C   UNL     1      -3.200   2.848 -31.842  1.00  0.00     0.100 C 
BRANCH  14  15
HETATM   15  C   UNL     1      -2.594   4.019 -32.630  1.00  0.00     0.056 C 
BRANCH  15  16
HETATM   16  C   UNL     1      -1.855   5.110 -31.876  1.00  0.00    -0.024 A 
HETATM   17  C   UNL     1      -2.612   6.032 -31.118  1.00  0.00     0.074 A 
HETATM   18  C   UNL     1      -1.970   7.040 -30.392  1.00  0.00     0.037 A 
HETATM   19  C   UNL     1      -0.580   7.153 -30.422  1.00  0.00     0.003 A 
HETATM   20  C   UNL     1       0.173   6.265 -31.182  1.00  0.00     0.001 A 
HETATM   21  C   UNL     1      -0.459   5.253 -31.907  1.00  0.00     0.010 A 
BRANCH  17  22
HETATM   22  O   UNL     1      -3.973   5.850 -31.151  1.00  0.00    -0.355 OA
HETATM   23  C   UNL     1      -4.752   6.878 -31.754  1.00  0.00     0.210 C 
ENDBRANCH  17  22
ENDBRANCH  15  16
ENDBRANCH  14  15
ENDBRANCH  12  14
ENDBRANCH   3  12
BRANCH   1  24
HETATM   24  N   UNL     1      -8.297   1.037 -34.363  1.00  0.00    -0.273 NA
HETATM   25  H   UNL     1      -8.511   0.324 -35.056  1.00  0.00     0.129 HD
BRANCH  24  26
HETATM   26  C   UNL     1      -9.426   1.249 -33.447  1.00  0.00     0.053 C 
HETATM   27  C   UNL     1      -9.751  -0.033 -32.680  1.00  0.00     0.026 C 
HETATM   28  C   UNL     1     -10.634   1.676 -34.282  1.00  0.00     0.026 C 
ENDBRANCH  24  26
ENDBRANCH   1  24
TORSDOF 7
ENDMDL
MODEL 7
REMARK VINA RESULT:      -7.7      4.162      8.000
REMARK  7 active torsions:
REMARK  status: ('A' for Active; 'I' for Inactive)
REMARK    1  A    between atoms: C_2  and  N_3 
REMARK    2  A    between atoms: N_3  and  C_4 
REMARK    3  A    between atoms: C_6  and  N_7 
REMARK    4  A    between atoms: N_7  and  C_8 
REMARK    5  A    between atoms: C_8  and  C_9 
REMARK    6  A    between atoms: C_9  and  C_10 
REMARK    7  A    between atoms: C_11  and  O_12 
ROOT
HETATM    1  C   UNL     1      -6.034  -1.665 -33.851  1.00  0.00     0.119 A 
HETATM    2  N   UNL     1      -7.311  -1.241 -33.908  1.00  0.00    -0.207 NA
HETATM    3  C   UNL     1      -7.702  -0.309 -33.030  1.00  0.00     0.181 A 
HETATM    4  N   UNL     1      -6.899   0.199 -32.103  1.00  0.00    -0.330 N 
HETATM    5  H   UNL     1      -7.310   0.842 -31.439  1.00  0.00     0.168 HD
HETATM    6  C   UNL     1      -5.614  -0.157 -32.026  1.00  0.00     0.048 A 
HETATM    7  C   UNL     1      -5.115  -1.118 -32.927  1.00  0.00     0.031 A 
HETATM    8  C   UNL     1      -4.779   0.425 -31.059  1.00  0.00     0.030 A 
HETATM    9  C   UNL     1      -3.434   0.066 -30.989  1.00  0.00     0.002 A 
HETATM   10  C   UNL     1      -2.916  -0.868 -31.881  1.00  0.00     0.001 A 
HETATM   11  C   UNL     1      -3.744  -1.456 -32.841  1.00  0.00     0.017 A 
ENDROOT
BRANCH   3  12
HETATM   12  N   UNL     1      -9.031   0.064 -33.049  1.00  0.00    -0.262 NA
HETATM   13  H   UNL     1      -9.567  -0.794 -32.882  1.00  0.00     0.130 HD
BRANCH  12  14
HETATM   14  C   UNL     1      -9.534   0.822 -34.198  1.00  0.00     0.100 C 
BRANCH  14  15
HETATM   15  C   UNL     1     -10.468   1.967 -33.780  1.00  0.00     0.056 C 
BRANCH  15  16
HETATM   16  C   UNL     1     -11.946   1.678 -33.587  1.00  0.00    -0.024 A 
HETATM   17  C   UNL     1     -12.760   2.689 -33.029  1.00  0.00     0.074 A 
HETATM   18  C   UNL     1     -14.130   2.471 -32.854  1.00  0.00     0.037 A 
HETATM   19  C   UNL     1     -14.701   1.251 -33.213  1.00  0.00     0.003 A 
HETATM   20  C   UNL     1     -13.905   0.241 -33.742  1.00  0.00     0.001 A 
HETATM   21  C   UNL     1     -12.537   0.450 -33.925  1.00  0.00     0.010 A 
BRANCH  17  22
HETATM   22  O   UNL     1     -12.113   3.856 -32.700  1.00  0.00    -0.355 OA
HETATM   23  C   UNL     1     -12.620   4.587 -31.588  1.00  0.00     0.210 C 
ENDBRANCH  17  22
ENDBRANCH  15  16
ENDBRANCH  14  15
ENDBRANCH  12  14
ENDBRANCH   3  12
BRANCH   1  24
HETATM   24  N   UNL     1      -5.601  -2.629 -34.766  1.00  0.00    -0.273 NA
HETATM   25  H   UNL     1      -4.636  -2.475 -35.048  1.00  0.00     0.129 HD
BRANCH  24  26
HETATM   26  C   UNL     1      -5.854  -4.047 -34.477  1.00  0.00     0.053 C 
HETATM   27  C   UNL     1      -4.540  -4.808 -34.295  1.00  0.00     0.026 C 
HETATM   28  C   UNL     1      -6.635  -4.633 -35.654  1.00  0.00     0.026 C 
ENDBRANCH  24  26
ENDBRANCH   1  24
TORSDOF 7
ENDMDL
MODEL 8
REMARK VINA RESULT:      -7.5      1.803      2.313
REMARK  7 active torsions:
REMARK  status: ('A' for Active; 'I' for Inactive)
REMARK    1  A    between atoms: C_2  and  N_3 
REMARK    2  A    between atoms: N_3  and  C_4 
REMARK    3  A    between atoms: C_6  and  N_7 
REMARK    4  A    between atoms: N_7  and  C_8 
REMARK    5  A    between atoms: C_8  and  C_9 
REMARK    6  A    between atoms: C_9  and  C_10 
REMARK    7  A    between atoms: C_11  and  O_12 
ROOT
HETATM    1  C   UNL     1      -7.503   1.136 -33.942  1.00  0.00     0.119 A 
HETATM    2  N   UNL     1      -7.086   2.245 -33.303  1.00  0.00    -0.207 NA
HETATM    3  C   UNL     1      -5.867   2.229 -32.749  1.00  0.00     0.181 A 
HETATM    4  N   UNL     1      -5.065   1.171 -32.787  1.00  0.00    -0.330 N 
HETATM    5  H   UNL     1      -4.196   1.233 -32.275  1.00  0.00     0.168 HD
HETATM    6  C   UNL     1      -5.413   0.059 -33.440  1.00  0.00     0.048 A 
HETATM    7  C   UNL     1      -6.672   0.000 -34.069  1.00  0.00     0.031 A 
HETATM    8  C   UNL     1      -4.530  -1.030 -33.495  1.00  0.00     0.030 A 
HETATM    9  C   UNL     1      -4.885  -2.185 -34.191  1.00  0.00     0.002 A 
HETATM   10  C   UNL     1      -6.117  -2.257 -34.834  1.00  0.00     0.001 A 
HETATM   11  C   UNL     1      -7.003  -1.179 -34.777  1.00  0.00     0.017 A 
ENDROOT
BRANCH   3  12
HETATM   12  N   UNL     1      -5.479   3.343 -32.034  1.00  0.00    -0.262 NA
HETATM   13  H   UNL     1      -5.620   3.107 -31.045  1.00  0.00     0.130 HD
BRANCH  12  14
HETATM   14  C   UNL     1      -6.057   4.643 -32.384  1.00  0.00     0.100 C 
BRANCH  14  15
HETATM   15  C   UNL     1      -5.038   5.787 -32.271  1.00  0.00     0.056 C 
BRANCH  15  16
HETATM   16  C   UNL     1      -3.735   5.690 -33.044  1.00  0.00    -0.024 A 
HETATM   17  C   UNL     1      -2.539   6.069 -32.394  1.00  0.00     0.074 A 
HETATM   18  C   UNL     1      -1.315   5.976 -33.064  1.00  0.00     0.037 A 
HETATM   19  C   UNL     1      -1.267   5.525 -34.382  1.00  0.00     0.003 A 
HETATM   20  C   UNL     1      -2.440   5.171 -35.039  1.00  0.00     0.001 A 
HETATM   21  C   UNL     1      -3.666   5.257 -34.378  1.00  0.00     0.010 A 
BRANCH  17  22
HETATM   22  O   UNL     1      -2.682   6.507 -31.100  1.00  0.00    -0.355 OA
HETATM   23  C   UNL     1      -1.992   7.698 -30.737  1.00  0.00     0.210 C 
ENDBRANCH  17  22
ENDBRANCH  15  16
ENDBRANCH  14  15
ENDBRANCH  12  14
ENDBRANCH   3  12
BRANCH   1  24
HETATM   24  N   UNL     1      -8.767   1.136 -34.538  1.00  0.00    -0.273 NA
HETATM   25  H   UNL     1      -8.873   0.369 -35.198  1.00  0.00     0.129 HD
BRANCH  24  26
HETATM   26  C   UNL     1      -9.956   1.274 -33.684  1.00  0.00     0.053 C 
HETATM   27  C   UNL     1     -10.218  -0.015 -32.905  1.00  0.00     0.026 C 
HETATM   28  C   UNL     1     -11.149   1.585 -34.589  1.00  0.00     0.026 C 
ENDBRANCH  24  26
ENDBRANCH   1  24
TORSDOF 7
ENDMDL
MODEL 9
REMARK VINA RESULT:      -7.4      4.132      7.642
REMARK  7 active torsions:
REMARK  status: ('A' for Active; 'I' for Inactive)
REMARK    1  A    between atoms: C_2  and  N_3 
REMARK    2  A    between atoms: N_3  and  C_4 
REMARK    3  A    between atoms: C_6  and  N_7 
REMARK    4  A    between atoms: N_7  and  C_8 
REMARK    5  A    between atoms: C_8  and  C_9 
REMARK    6  A    between atoms: C_9  and  C_10 
REMARK    7  A    between atoms: C_11  and  O_12 
ROOT
HETATM    1  C   UNL     1      -9.606   2.746 -32.439  1.00  0.00     0.119 A 
HETATM    2  N   UNL     1      -8.768   1.693 -32.479  1.00  0.00    -0.207 NA
HETATM    3  C   UNL     1      -9.226   0.546 -32.995  1.00  0.00     0.181 A 
HETATM    4  N   UNL     1     -10.464   0.397 -33.451  1.00  0.00    -0.330 N 
HETATM    5  H   UNL     1     -10.737  -0.530 -33.752  1.00  0.00     0.168 HD
HETATM    6  C   UNL     1     -11.325   1.419 -33.470  1.00  0.00     0.048 A 
HETATM    7  C   UNL     1     -10.916   2.668 -32.964  1.00  0.00     0.031 A 
HETATM    8  C   UNL     1     -12.616   1.241 -33.992  1.00  0.00     0.030 A 
HETATM    9  C   UNL     1     -13.509   2.311 -34.029  1.00  0.00     0.002 A 
HETATM   10  C   UNL     1     -13.120   3.558 -33.549  1.00  0.00     0.001 A 
HETATM   11  C   UNL     1     -11.838   3.738 -33.023  1.00  0.00     0.017 A 
ENDROOT
BRANCH   3  12
HETATM   12  N   UNL     1      -8.383  -0.547 -32.964  1.00  0.00    -0.262 NA
HETATM   13  H   UNL     1      -8.714  -1.135 -32.192  1.00  0.00     0.130 HD
BRANCH  12  14
HETATM   14  C   UNL     1      -6.936  -0.320 -32.913  1.00  0.00     0.100 C 
BRANCH  14  15
HETATM   15  C   UNL     1      -6.228  -0.773 -34.198  1.00  0.00     0.056 C 
BRANCH  15  16
HETATM   16  C   UNL     1      -5.862  -2.237 -34.359  1.00  0.00    -0.024 A 
HETATM   17  C   UNL     1      -4.572  -2.655 -33.962  1.00  0.00     0.074 A 
HETATM   18  C   UNL     1      -4.202  -3.999 -34.075  1.00  0.00     0.037 A 
HETATM   19  C   UNL     1      -5.097  -4.934 -34.596  1.00  0.00     0.003 A 
HETATM   20  C   UNL     1      -6.361  -4.530 -35.011  1.00  0.00     0.001 A 
HETATM   21  C   UNL     1      -6.741  -3.192 -34.898  1.00  0.00     0.010 A 
BRANCH  17  22
HETATM   22  O   UNL     1      -3.756  -1.667 -33.468  1.00  0.00    -0.355 OA
HETATM   23  C   UNL     1      -3.369  -1.768 -32.101  1.00  0.00     0.210 C 
ENDBRANCH  17  22
ENDBRANCH  15  16
ENDBRANCH  14  15
ENDBRANCH  12  14
ENDBRANCH   3  12
BRANCH   1  24
HETATM   24  N   UNL     1      -9.145   3.957 -31.914  1.00  0.00    -0.273 NA
HETATM   25  H   UNL     1      -9.149   3.954 -30.897  1.00  0.00     0.129 HD
BRANCH  24  26
HETATM   26  C   UNL     1      -7.900   4.532 -32.443  1.00  0.00     0.053 C 
HETATM   27  C   UNL     1      -7.403   5.667 -31.548  1.00  0.00     0.026 C 
HETATM   28  C   UNL     1      -8.190   5.066 -33.847  1.00  0.00     0.026 C 
ENDBRANCH  24  26
ENDBRANCH   1  24
TORSDOF 7
ENDMDL
MODEL 10
REMARK VINA RESULT:      -7.3      4.274      7.970
REMARK  7 active torsions:
REMARK  status: ('A' for Active; 'I' for Inactive)
REMARK    1  A    between atoms: C_2  and  N_3 
REMARK    2  A    between atoms: N_3  and  C_4 
REMARK    3  A    between atoms: C_6  and  N_7 
REMARK    4  A    between atoms: N_7  and  C_8 
REMARK    5  A    between atoms: C_8  and  C_9 
REMARK    6  A    between atoms: C_9  and  C_10 
REMARK    7  A    between atoms: C_11  and  O_12 
ROOT
HETATM    1  C   UNL     1      -6.177   0.798 -32.950  1.00  0.00     0.119 A 
HETATM    2  N   UNL     1      -7.340   1.305 -33.399  1.00  0.00    -0.207 NA
HETATM    3  C   UNL     1      -8.021   0.601 -34.311  1.00  0.00     0.181 A 
HETATM    4  N   UNL     1      -7.596  -0.558 -34.801  1.00  0.00    -0.330 N 
HETATM    5  H   UNL     1      -8.145  -0.975 -35.541  1.00  0.00     0.168 HD
HETATM    6  C   UNL     1      -6.468  -1.125 -34.364  1.00  0.00     0.048 A 
HETATM    7  C   UNL     1      -5.701  -0.459 -33.388  1.00  0.00     0.031 A 
HETATM    8  C   UNL     1      -6.062  -2.368 -34.873  1.00  0.00     0.030 A 
HETATM    9  C   UNL     1      -4.895  -2.969 -34.405  1.00  0.00     0.002 A 
HETATM   10  C   UNL     1      -4.132  -2.337 -33.428  1.00  0.00     0.001 A 
HETATM   11  C   UNL     1      -4.527  -1.096 -32.923  1.00  0.00     0.017 A 
ENDROOT
BRANCH   3  12
HETATM   12  N   UNL     1      -9.175   1.165 -34.818  1.00  0.00    -0.262 NA
HETATM   13  H   UNL     1      -8.904   2.087 -35.175  1.00  0.00     0.130 HD
BRANCH  12  14
HETATM   14  C   UNL     1     -10.365   1.223 -33.965  1.00  0.00     0.100 C 
BRANCH  14  15
HETATM   15  C   UNL     1     -11.233   2.456 -34.257  1.00  0.00     0.056 C 
BRANCH  15  16
HETATM   16  C   UNL     1     -12.208   2.936 -33.198  1.00  0.00    -0.024 A 
HETATM   17  C   UNL     1     -13.564   2.553 -33.309  1.00  0.00     0.074 A 
HETATM   18  C   UNL     1     -14.491   2.956 -32.343  1.00  0.00     0.037 A 
HETATM   19  C   UNL     1     -14.089   3.754 -31.272  1.00  0.00     0.003 A 
HETATM   20  C   UNL     1     -12.763   4.156 -31.164  1.00  0.00     0.001 A 
HETATM   21  C   UNL     1     -11.829   3.754 -32.121  1.00  0.00     0.010 A 
BRANCH  17  22
HETATM   22  O   UNL     1     -13.871   1.773 -34.398  1.00  0.00    -0.355 OA
HETATM   23  C   UNL     1     -14.537   0.540 -34.147  1.00  0.00     0.210 C 
ENDBRANCH  17  22
ENDBRANCH  15  16
ENDBRANCH  14  15
ENDBRANCH  12  14
ENDBRANCH   3  12
BRANCH   1  24
HETATM   24  N   UNL     1      -5.455   1.511 -31.989  1.00  0.00    -0.273 NA
HETATM   25  H   UNL     1      -5.006   2.333 -32.386  1.00  0.00     0.129 HD
BRANCH  24  26
HETATM   26  C   UNL     1      -6.097   1.821 -30.703  1.00  0.00     0.053 C 
HETATM   27  C   UNL     1      -5.501   3.088 -30.089  1.00  0.00     0.026 C 
HETATM   28  C   UNL     1      -5.869   0.633 -29.767  1.00  0.00     0.026 C 
ENDBRANCH  24  26
ENDBRANCH   1  24
TORSDOF 7
ENDMDL
