MODEL 1
REMARK VINA RESULT:     -11.3      0.000      0.000
REMARK  7 active torsions:
REMARK  status: ('A' for Active; 'I' for Inactive)
REMARK    1  A    between atoms: C_6  and  N_7 
REMARK       I    between atoms: N_7  and  C_8 
REMARK    2  A    between atoms: C_8  and  C_9 
REMARK    3  A    between atoms: C_9  and  N_10 
REMARK    4  A    between atoms: N_13  and  C_14 
REMARK    5  A    between atoms: C_14  and  C_15 
REMARK    6  A    between atoms: C_30  and  C_31 
REMARK       I    between atoms: C_31  and  N_32 
REMARK    7  A    between atoms: N_32  and  C_33 
ROOT
HETATM    1  N   UNL     1      -4.398   2.874 -31.523  1.00  0.00    -0.290 N 
HETATM    2  C   UNL     1      -3.127   3.420 -31.602  1.00  0.00     0.332 C 
HETATM    3  O   UNL     1      -2.214   2.984 -30.893  1.00  0.00    -0.246 OA
HETATM    4  N   UNL     1      -2.939   4.453 -32.506  1.00  0.00    -0.261 N 
HETATM    5  C   UNL     1      -3.959   5.086 -33.197  1.00  0.00     0.264 C 
HETATM    6  O   UNL     1      -3.785   5.997 -34.004  1.00  0.00    -0.267 OA
HETATM    7  C   UNL     1      -5.330   4.610 -32.941  1.00  0.00     0.059 A 
HETATM    8  C   UNL     1      -5.523   3.498 -32.121  1.00  0.00     0.056 A 
HETATM    9  C   UNL     1      -6.413   5.253 -33.561  1.00  0.00     0.020 A 
HETATM   10  C   UNL     1      -7.711   4.784 -33.367  1.00  0.00     0.018 A 
HETATM   11  C   UNL     1      -7.922   3.668 -32.552  1.00  0.00     0.034 A 
HETATM   12  C   UNL     1      -6.833   3.044 -31.917  1.00  0.00     0.048 A 
ENDROOT
BRANCH   1  13
HETATM   13  C   UNL     1      -4.515   1.553 -30.902  1.00  0.00     0.237 C 
BRANCH  13  14
HETATM   14  C   UNL     1      -4.237   0.366 -31.825  1.00  0.00     0.240 C 
HETATM   15  N   UNL     1      -5.231   0.162 -32.765  1.00  0.00    -0.325 N 
HETATM   16  H   UNL     1      -5.910   0.915 -32.863  1.00  0.00     0.169 HD
HETATM   17  O   UNL     1      -3.244  -0.334 -31.646  1.00  0.00    -0.271 OA
BRANCH  15  18
HETATM   18  C   UNL     1      -5.459  -0.998 -33.541  1.00  0.00     0.040 A 
HETATM   19  C   UNL     1      -6.784  -1.347 -33.877  1.00  0.00    -0.035 A 
HETATM   20  C   UNL     1      -7.032  -2.562 -34.543  1.00  0.00     0.015 A 
HETATM   21  C   UNL     1      -7.958  -0.466 -33.539  1.00  0.00     0.050 C 
HETATM   22  C   UNL     1      -5.987  -3.423 -34.894  1.00  0.00    -0.061 A 
HETATM   23  C   UNL     1      -6.255  -4.739 -35.563  1.00  0.00     0.048 C 
HETATM   24  C   UNL     1      -4.678  -3.053 -34.586  1.00  0.00     0.009 A 
HETATM   25  C   UNL     1      -4.419  -1.851 -33.921  1.00  0.00     0.030 A 
ENDBRANCH  15  18
ENDBRANCH  13  14
ENDBRANCH   1  13
BRANCH   4  26
HETATM   26  C   UNL     1      -1.564   4.840 -32.804  1.00  0.00     0.175 C 
BRANCH  26  27
HETATM   27  C   UNL     1      -1.014   5.751 -31.719  1.00  0.00    -0.037 A 
HETATM   28  C   UNL     1      -0.207   5.228 -30.694  1.00  0.00     0.048 A 
HETATM   29  C   UNL     1       0.175   6.074 -29.674  1.00  0.00     0.105 A 
HETATM   30  C   UNL     1      -0.200   7.396 -29.647  1.00  0.00     0.105 A 
HETATM   31  O   UNL     1       0.921   5.725 -28.591  1.00  0.00    -0.323 OA
HETATM   32  O   UNL     1       0.261   8.046 -28.546  1.00  0.00    -0.323 OA
HETATM   33  C   UNL     1      -0.974   7.951 -30.642  1.00  0.00     0.040 A 
HETATM   34  C   UNL     1       0.954   6.976 -27.871  1.00  0.00     0.352 A 
HETATM   35  C   UNL     1      -1.385   7.116 -31.686  1.00  0.00     0.012 A 
ENDBRANCH  26  27
ENDBRANCH   4  26
BRANCH  11  36
HETATM   36  C   UNL     1      -9.282   3.113 -32.311  1.00  0.00     0.252 C 
HETATM   37  N   UNL     1     -10.291   3.639 -33.081  1.00  0.00    -0.352 N 
HETATM   38  H   UNL     1     -10.022   4.254 -33.837  1.00  0.00     0.163 HD
HETATM   39  O   UNL     1      -9.409   2.213 -31.496  1.00  0.00    -0.268 OA
BRANCH  37  40
HETATM   40  C   UNL     1     -11.671   3.151 -33.146  1.00  0.00     0.084 C 
HETATM   41  C   UNL     1     -12.590   4.067 -33.965  1.00  0.00     0.025 C 
HETATM   42  C   UNL     1     -12.693   3.703 -35.442  1.00  0.00     0.002 C 
HETATM   43  C   UNL     1     -13.037   2.232 -35.631  1.00  0.00     0.000 C 
HETATM   44  C   UNL     1     -12.027   1.318 -34.951  1.00  0.00     0.002 C 
HETATM   45  C   UNL     1     -11.817   1.658 -33.477  1.00  0.00     0.025 C 
ENDBRANCH  37  40
ENDBRANCH  11  36
TORSDOF 7
ENDMDL
MODEL 2
REMARK VINA RESULT:     -11.0      1.869      8.865
REMARK  7 active torsions:
REMARK  status: ('A' for Active; 'I' for Inactive)
REMARK    1  A    between atoms: C_6  and  N_7 
REMARK       I    between atoms: N_7  and  C_8 
REMARK    2  A    between atoms: C_8  and  C_9 
REMARK    3  A    between atoms: C_9  and  N_10 
REMARK    4  A    between atoms: N_13  and  C_14 
REMARK    5  A    between atoms: C_14  and  C_15 
REMARK    6  A    between atoms: C_30  and  C_31 
REMARK       I    between atoms: C_31  and  N_32 
REMARK    7  A    between atoms: N_32  and  C_33 
ROOT
HETATM    1  N   UNL     1      -6.583   3.153 -30.889  1.00  0.00    -0.290 N 
HETATM    2  C   UNL     1      -7.959   3.168 -31.050  1.00  0.00     0.332 C 
HETATM    3  O   UNL     1      -8.623   2.146 -30.848  1.00  0.00    -0.246 OA
HETATM    4  N   UNL     1      -8.536   4.367 -31.434  1.00  0.00    -0.261 N 
HETATM    5  C   UNL     1      -7.826   5.488 -31.833  1.00  0.00     0.264 C 
HETATM    6  O   UNL     1      -8.345   6.552 -32.165  1.00  0.00    -0.267 OA
HETATM    7  C   UNL     1      -6.357   5.375 -31.839  1.00  0.00     0.059 A 
HETATM    8  C   UNL     1      -5.761   4.213 -31.349  1.00  0.00     0.056 A 
HETATM    9  C   UNL     1      -5.582   6.453 -32.296  1.00  0.00     0.020 A 
HETATM   10  C   UNL     1      -4.191   6.380 -32.262  1.00  0.00     0.018 A 
HETATM   11  C   UNL     1      -3.577   5.226 -31.769  1.00  0.00     0.034 A 
HETATM   12  C   UNL     1      -4.361   4.142 -31.336  1.00  0.00     0.048 A 
ENDROOT
BRANCH   1  13
HETATM   13  C   UNL     1      -6.018   2.050 -30.107  1.00  0.00     0.237 C 
BRANCH  13  14
HETATM   14  C   UNL     1      -5.446   0.892 -30.924  1.00  0.00     0.240 C 
HETATM   15  N   UNL     1      -6.037   0.756 -32.167  1.00  0.00    -0.325 N 
HETATM   16  H   UNL     1      -6.623   1.534 -32.467  1.00  0.00     0.169 HD
HETATM   17  O   UNL     1      -4.595   0.154 -30.434  1.00  0.00    -0.271 OA
BRANCH  15  18
HETATM   18  C   UNL     1      -5.989  -0.365 -33.027  1.00  0.00     0.040 A 
HETATM   19  C   UNL     1      -7.176  -0.800 -33.651  1.00  0.00    -0.035 A 
HETATM   20  C   UNL     1      -7.165  -1.986 -34.411  1.00  0.00     0.015 A 
HETATM   21  C   UNL     1      -8.473  -0.045 -33.528  1.00  0.00     0.050 C 
HETATM   22  C   UNL     1      -5.993  -2.731 -34.574  1.00  0.00    -0.061 A 
HETATM   23  C   UNL     1      -5.991  -4.018 -35.346  1.00  0.00     0.048 C 
HETATM   24  C   UNL     1      -4.817  -2.274 -33.980  1.00  0.00     0.009 A 
HETATM   25  C   UNL     1      -4.816  -1.101 -33.219  1.00  0.00     0.030 A 
ENDBRANCH  15  18
ENDBRANCH  13  14
ENDBRANCH   1  13
BRANCH   4  26
HETATM   26  C   UNL     1      -9.987   4.474 -31.331  1.00  0.00     0.175 C 
BRANCH  26  27
HETATM   27  C   UNL     1     -10.662   3.825 -32.528  1.00  0.00    -0.037 A 
HETATM   28  C   UNL     1     -11.895   3.168 -32.378  1.00  0.00     0.048 A 
HETATM   29  C   UNL     1     -12.412   2.500 -33.469  1.00  0.00     0.105 A 
HETATM   30  C   UNL     1     -11.761   2.477 -34.681  1.00  0.00     0.105 A 
HETATM   31  O   UNL     1     -13.569   1.786 -33.488  1.00  0.00    -0.323 OA
HETATM   32  O   UNL     1     -12.427   1.746 -35.614  1.00  0.00    -0.323 OA
HETATM   33  C   UNL     1     -10.562   3.124 -34.873  1.00  0.00     0.040 A 
HETATM   34  C   UNL     1     -13.561   1.294 -34.845  1.00  0.00     0.352 A 
HETATM   35  C   UNL     1     -10.008   3.802 -33.783  1.00  0.00     0.012 A 
ENDBRANCH  26  27
ENDBRANCH   4  26
BRANCH  11  36
HETATM   36  C   UNL     1      -2.097   5.088 -31.699  1.00  0.00     0.252 C 
HETATM   37  N   UNL     1      -1.437   6.051 -30.973  1.00  0.00    -0.352 N 
HETATM   38  H   UNL     1      -2.004   6.693 -30.436  1.00  0.00     0.163 HD
HETATM   39  O   UNL     1      -1.573   4.125 -32.238  1.00  0.00    -0.268 OA
BRANCH  37  40
HETATM   40  C   UNL     1      -0.014   6.045 -30.624  1.00  0.00     0.084 C 
HETATM   41  C   UNL     1       0.554   7.455 -30.412  1.00  0.00     0.025 C 
HETATM   42  C   UNL     1       0.494   7.950 -28.971  1.00  0.00     0.002 C 
HETATM   43  C   UNL     1       1.101   6.939 -28.008  1.00  0.00     0.000 C 
HETATM   44  C   UNL     1       0.422   5.580 -28.106  1.00  0.00     0.002 C 
HETATM   45  C   UNL     1       0.383   5.039 -29.534  1.00  0.00     0.025 C 
ENDBRANCH  37  40
ENDBRANCH  11  36
TORSDOF 7
ENDMDL
MODEL 3
REMARK VINA RESULT:     -10.9      2.199      2.809
REMARK  7 active torsions:
REMARK  status: ('A' for Active; 'I' for Inactive)
REMARK    1  A    between atoms: C_6  and  N_7 
REMARK       I    between atoms: N_7  and  C_8 
REMARK    2  A    between atoms: C_8  and  C_9 
REMARK    3  A    between atoms: C_9  and  N_10 
REMARK    4  A    between atoms: N_13  and  C_14 
REMARK    5  A    between atoms: C_14  and  C_15 
REMARK    6  A    between atoms: C_30  and  C_31 
REMARK       I    between atoms: C_31  and  N_32 
REMARK    7  A    between atoms: N_32  and  C_33 
ROOT
HETATM    1  N   UNL     1      -6.174   2.734 -31.411  1.00  0.00    -0.290 N 
HETATM    2  C   UNL     1      -4.862   3.153 -31.562  1.00  0.00     0.332 C 
HETATM    3  O   UNL     1      -4.022   2.896 -30.694  1.00  0.00    -0.246 OA
HETATM    4  N   UNL     1      -4.551   3.851 -32.717  1.00  0.00    -0.261 N 
HETATM    5  C   UNL     1      -5.484   4.307 -33.634  1.00  0.00     0.264 C 
HETATM    6  O   UNL     1      -5.200   4.919 -34.662  1.00  0.00    -0.267 OA
HETATM    7  C   UNL     1      -6.899   4.014 -33.343  1.00  0.00     0.059 A 
HETATM    8  C   UNL     1      -7.217   3.216 -32.244  1.00  0.00     0.056 A 
HETATM    9  C   UNL     1      -7.897   4.505 -34.199  1.00  0.00     0.020 A 
HETATM   10  C   UNL     1      -9.236   4.196 -33.964  1.00  0.00     0.018 A 
HETATM   11  C   UNL     1      -9.572   3.394 -32.871  1.00  0.00     0.034 A 
HETATM   12  C   UNL     1      -8.567   2.926 -32.005  1.00  0.00     0.048 A 
ENDROOT
BRANCH   1  13
HETATM   13  C   UNL     1      -6.425   1.672 -30.435  1.00  0.00     0.237 C 
BRANCH  13  14
HETATM   14  C   UNL     1      -6.239   0.246 -30.953  1.00  0.00     0.240 C 
HETATM   15  N   UNL     1      -5.792   0.195 -32.261  1.00  0.00    -0.325 N 
HETATM   16  H   UNL     1      -5.458   1.076 -32.651  1.00  0.00     0.169 HD
HETATM   17  O   UNL     1      -6.542  -0.711 -30.246  1.00  0.00    -0.271 OA
BRANCH  15  18
HETATM   18  C   UNL     1      -5.822  -0.911 -33.141  1.00  0.00     0.040 A 
HETATM   19  C   UNL     1      -7.027  -1.229 -33.801  1.00  0.00    -0.035 A 
HETATM   20  C   UNL     1      -7.101  -2.398 -34.582  1.00  0.00     0.015 A 
HETATM   21  C   UNL     1      -8.254  -0.363 -33.696  1.00  0.00     0.050 C 
HETATM   22  C   UNL     1      -5.996  -3.243 -34.730  1.00  0.00    -0.061 A 
HETATM   23  C   UNL     1      -6.089  -4.512 -35.525  1.00  0.00     0.048 C 
HETATM   24  C   UNL     1      -4.800  -2.903 -34.099  1.00  0.00     0.009 A 
HETATM   25  C   UNL     1      -4.715  -1.747 -33.317  1.00  0.00     0.030 A 
ENDBRANCH  15  18
ENDBRANCH  13  14
ENDBRANCH   1  13
BRANCH   4  26
HETATM   26  C   UNL     1      -3.138   4.045 -33.021  1.00  0.00     0.175 C 
BRANCH  26  27
HETATM   27  C   UNL     1      -2.713   5.473 -32.720  1.00  0.00    -0.037 A 
HETATM   28  C   UNL     1      -3.110   6.095 -31.524  1.00  0.00     0.048 A 
HETATM   29  C   UNL     1      -2.793   7.426 -31.348  1.00  0.00     0.105 A 
HETATM   30  C   UNL     1      -2.099   8.139 -32.297  1.00  0.00     0.105 A 
HETATM   31  O   UNL     1      -3.130   8.187 -30.272  1.00  0.00    -0.323 OA
HETATM   32  O   UNL     1      -1.911   9.436 -31.938  1.00  0.00    -0.323 OA
HETATM   33  C   UNL     1      -1.675   7.561 -33.472  1.00  0.00     0.040 A 
HETATM   34  C   UNL     1      -2.586   9.465 -30.663  1.00  0.00     0.352 A 
HETATM   35  C   UNL     1      -1.990   6.215 -33.684  1.00  0.00     0.012 A 
ENDBRANCH  26  27
ENDBRANCH   4  26
BRANCH  11  36
HETATM   36  C   UNL     1     -10.981   3.021 -32.569  1.00  0.00     0.252 C 
HETATM   37  N   UNL     1     -11.661   3.871 -31.729  1.00  0.00    -0.352 N 
HETATM   38  H   UNL     1     -11.210   4.743 -31.491  1.00  0.00     0.163 HD
HETATM   39  O   UNL     1     -11.452   2.032 -33.109  1.00  0.00    -0.268 OA
BRANCH  37  40
HETATM   40  C   UNL     1     -13.091   3.811 -31.414  1.00  0.00     0.084 C 
HETATM   41  C   UNL     1     -13.427   4.425 -30.048  1.00  0.00     0.025 C 
HETATM   42  C   UNL     1     -13.789   5.905 -30.092  1.00  0.00     0.002 C 
HETATM   43  C   UNL     1     -14.872   6.184 -31.125  1.00  0.00     0.000 C 
HETATM   44  C   UNL     1     -14.466   5.719 -32.517  1.00  0.00     0.002 C 
HETATM   45  C   UNL     1     -14.026   4.256 -32.548  1.00  0.00     0.025 C 
ENDBRANCH  37  40
ENDBRANCH  11  36
TORSDOF 7
ENDMDL
MODEL 4
REMARK VINA RESULT:     -10.6      2.755      8.474
REMARK  7 active torsions:
REMARK  status: ('A' for Active; 'I' for Inactive)
REMARK    1  A    between atoms: C_6  and  N_7 
REMARK       I    between atoms: N_7  and  C_8 
REMARK    2  A    between atoms: C_8  and  C_9 
REMARK    3  A    between atoms: C_9  and  N_10 
REMARK    4  A    between atoms: N_13  and  C_14 
REMARK    5  A    between atoms: C_14  and  C_15 
REMARK    6  A    between atoms: C_30  and  C_31 
REMARK       I    between atoms: C_31  and  N_32 
REMARK    7  A    between atoms: N_32  and  C_33 
ROOT
HETATM    1  N   UNL     1      -5.387   5.198 -31.781  1.00  0.00    -0.290 N 
HETATM    2  C   UNL     1      -6.272   4.826 -32.781  1.00  0.00     0.332 C 
HETATM    3  O   UNL     1      -5.905   4.799 -33.961  1.00  0.00    -0.246 OA
HETATM    4  N   UNL     1      -7.557   4.486 -32.392  1.00  0.00    -0.261 N 
HETATM    5  C   UNL     1      -8.062   4.660 -31.113  1.00  0.00     0.264 C 
HETATM    6  O   UNL     1      -9.201   4.348 -30.773  1.00  0.00    -0.267 OA
HETATM    7  C   UNL     1      -7.151   5.245 -30.114  1.00  0.00     0.059 A 
HETATM    8  C   UNL     1      -5.822   5.487 -30.462  1.00  0.00     0.056 A 
HETATM    9  C   UNL     1      -7.623   5.507 -28.818  1.00  0.00     0.020 A 
HETATM   10  C   UNL     1      -6.760   6.015 -27.847  1.00  0.00     0.018 A 
HETATM   11  C   UNL     1      -5.425   6.259 -28.178  1.00  0.00     0.034 A 
HETATM   12  C   UNL     1      -4.967   6.015 -29.485  1.00  0.00     0.048 A 
ENDROOT
BRANCH   1  13
HETATM   13  C   UNL     1      -3.960   5.158 -32.109  1.00  0.00     0.237 C 
BRANCH  13  14
HETATM   14  C   UNL     1      -3.315   3.773 -32.069  1.00  0.00     0.240 C 
HETATM   15  N   UNL     1      -4.102   2.788 -32.641  1.00  0.00    -0.325 N 
HETATM   16  H   UNL     1      -4.901   3.117 -33.181  1.00  0.00     0.169 HD
HETATM   17  O   UNL     1      -2.235   3.612 -31.508  1.00  0.00    -0.271 OA
BRANCH  15  18
HETATM   18  C   UNL     1      -3.974   1.388 -32.494  1.00  0.00     0.040 A 
HETATM   19  C   UNL     1      -4.718   0.734 -31.489  1.00  0.00    -0.035 A 
HETATM   20  C   UNL     1      -4.506  -0.638 -31.254  1.00  0.00     0.015 A 
HETATM   21  C   UNL     1      -5.733   1.455 -30.642  1.00  0.00     0.050 C 
HETATM   22  C   UNL     1      -3.584  -1.370 -32.009  1.00  0.00    -0.061 A 
HETATM   23  C   UNL     1      -3.326  -2.821 -31.728  1.00  0.00     0.048 C 
HETATM   24  C   UNL     1      -2.878  -0.720 -33.022  1.00  0.00     0.009 A 
HETATM   25  C   UNL     1      -3.075   0.643 -33.263  1.00  0.00     0.030 A 
ENDBRANCH  15  18
ENDBRANCH  13  14
ENDBRANCH   1  13
BRANCH   4  26
HETATM   26  C   UNL     1      -8.402   3.827 -33.381  1.00  0.00     0.175 C 
BRANCH  26  27
HETATM   27  C   UNL     1      -8.167   2.326 -33.376  1.00  0.00    -0.037 A 
HETATM   28  C   UNL     1      -7.161   1.763 -34.180  1.00  0.00     0.048 A 
HETATM   29  C   UNL     1      -7.060   0.387 -34.224  1.00  0.00     0.105 A 
HETATM   30  C   UNL     1      -7.900  -0.426 -33.502  1.00  0.00     0.105 A 
HETATM   31  O   UNL     1      -6.173  -0.320 -34.974  1.00  0.00    -0.323 OA
HETATM   32  O   UNL     1      -7.647  -1.746 -33.705  1.00  0.00    -0.323 OA
HETATM   33  C   UNL     1      -8.885   0.087 -32.688  1.00  0.00     0.040 A 
HETATM   34  C   UNL     1      -6.565  -1.671 -34.656  1.00  0.00     0.352 A 
HETATM   35  C   UNL     1      -9.019   1.478 -32.629  1.00  0.00     0.012 A 
ENDBRANCH  26  27
ENDBRANCH   4  26
BRANCH  11  36
HETATM   36  C   UNL     1      -4.451   6.793 -27.187  1.00  0.00     0.252 C 
HETATM   37  N   UNL     1      -3.126   6.713 -27.543  1.00  0.00    -0.352 N 
HETATM   38  H   UNL     1      -2.919   6.430 -28.491  1.00  0.00     0.163 HD
HETATM   39  O   UNL     1      -4.880   7.298 -26.161  1.00  0.00    -0.268 OA
BRANCH  37  40
HETATM   40  C   UNL     1      -2.001   7.310 -26.819  1.00  0.00     0.084 C 
HETATM   41  C   UNL     1      -0.889   6.300 -26.506  1.00  0.00     0.025 C 
HETATM   42  C   UNL     1       0.205   6.216 -27.565  1.00  0.00     0.002 C 
HETATM   43  C   UNL     1       0.763   7.592 -27.901  1.00  0.00     0.000 C 
HETATM   44  C   UNL     1      -0.325   8.549 -28.370  1.00  0.00     0.002 C 
HETATM   45  C   UNL     1      -1.494   8.643 -27.391  1.00  0.00     0.025 C 
ENDBRANCH  37  40
ENDBRANCH  11  36
TORSDOF 7
ENDMDL
MODEL 5
REMARK VINA RESULT:     -10.5      2.521      8.970
REMARK  7 active torsions:
REMARK  status: ('A' for Active; 'I' for Inactive)
REMARK    1  A    between atoms: C_6  and  N_7 
REMARK       I    between atoms: N_7  and  C_8 
REMARK    2  A    between atoms: C_8  and  C_9 
REMARK    3  A    between atoms: C_9  and  N_10 
REMARK    4  A    between atoms: N_13  and  C_14 
REMARK    5  A    between atoms: C_14  and  C_15 
REMARK    6  A    between atoms: C_30  and  C_31 
REMARK       I    between atoms: C_31  and  N_32 
REMARK    7  A    between atoms: N_32  and  C_33 
ROOT
HETATM    1  N   UNL     1      -8.625   1.926 -32.428  1.00  0.00    -0.290 N 
HETATM    2  C   UNL     1      -9.532   1.357 -33.308  1.00  0.00     0.332 C 
HETATM    3  O   UNL     1      -9.815   0.157 -33.223  1.00  0.00    -0.246 OA
HETATM    4  N   UNL     1     -10.094   2.189 -34.261  1.00  0.00    -0.261 N 
HETATM    5  C   UNL     1      -9.688   3.492 -34.504  1.00  0.00     0.264 C 
HETATM    6  O   UNL     1     -10.199   4.228 -35.346  1.00  0.00    -0.267 OA
HETATM    7  C   UNL     1      -8.582   4.007 -33.678  1.00  0.00     0.059 A 
HETATM    8  C   UNL     1      -8.082   3.219 -32.641  1.00  0.00     0.056 A 
HETATM    9  C   UNL     1      -8.080   5.295 -33.920  1.00  0.00     0.020 A 
HETATM   10  C   UNL     1      -7.066   5.815 -33.117  1.00  0.00     0.018 A 
HETATM   11  C   UNL     1      -6.557   5.042 -32.070  1.00  0.00     0.034 A 
HETATM   12  C   UNL     1      -7.050   3.743 -31.850  1.00  0.00     0.048 A 
ENDROOT
BRANCH   1  13
HETATM   13  C   UNL     1      -8.344   1.189 -31.194  1.00  0.00     0.237 C 
BRANCH  13  14
HETATM   14  C   UNL     1      -7.123   0.270 -31.242  1.00  0.00     0.240 C 
HETATM   15  N   UNL     1      -6.651   0.055 -32.524  1.00  0.00    -0.325 N 
HETATM   16  H   UNL     1      -7.031   0.668 -33.245  1.00  0.00     0.169 HD
HETATM   17  O   UNL     1      -6.700  -0.245 -30.211  1.00  0.00    -0.271 OA
BRANCH  15  18
HETATM   18  C   UNL     1      -5.772  -0.962 -32.961  1.00  0.00     0.040 A 
HETATM   19  C   UNL     1      -6.111  -1.715 -34.105  1.00  0.00    -0.035 A 
HETATM   20  C   UNL     1      -5.306  -2.809 -34.476  1.00  0.00     0.015 A 
HETATM   21  C   UNL     1      -7.318  -1.398 -34.948  1.00  0.00     0.050 C 
HETATM   22  C   UNL     1      -4.166  -3.153 -33.743  1.00  0.00    -0.061 A 
HETATM   23  C   UNL     1      -3.334  -4.346 -34.113  1.00  0.00     0.048 C 
HETATM   24  C   UNL     1      -3.823  -2.382 -32.633  1.00  0.00     0.009 A 
HETATM   25  C   UNL     1      -4.616  -1.296 -32.250  1.00  0.00     0.030 A 
ENDBRANCH  15  18
ENDBRANCH  13  14
ENDBRANCH   1  13
BRANCH   4  26
HETATM   26  C   UNL     1     -11.246   1.680 -34.998  1.00  0.00     0.175 C 
BRANCH  26  27
HETATM   27  C   UNL     1     -12.533   1.944 -34.235  1.00  0.00    -0.037 A 
HETATM   28  C   UNL     1     -12.795   3.218 -33.703  1.00  0.00     0.048 A 
HETATM   29  C   UNL     1     -13.923   3.377 -32.925  1.00  0.00     0.105 A 
HETATM   30  C   UNL     1     -14.786   2.336 -32.674  1.00  0.00     0.105 A 
HETATM   31  O   UNL     1     -14.306   4.527 -32.307  1.00  0.00    -0.323 OA
HETATM   32  O   UNL     1     -15.818   2.699 -31.868  1.00  0.00    -0.323 OA
HETATM   33  C   UNL     1     -14.574   1.078 -33.192  1.00  0.00     0.040 A 
HETATM   34  C   UNL     1     -15.496   4.083 -31.622  1.00  0.00     0.352 A 
HETATM   35  C   UNL     1     -13.434   0.883 -33.977  1.00  0.00     0.012 A 
ENDBRANCH  26  27
ENDBRANCH   4  26
BRANCH  11  36
HETATM   36  C   UNL     1      -5.481   5.541 -31.171  1.00  0.00     0.252 C 
HETATM   37  N   UNL     1      -4.195   5.394 -31.634  1.00  0.00    -0.352 N 
HETATM   38  H   UNL     1      -4.081   5.089 -32.591  1.00  0.00     0.163 HD
HETATM   39  O   UNL     1      -5.799   6.079 -30.123  1.00  0.00    -0.268 OA
BRANCH  37  40
HETATM   40  C   UNL     1      -2.987   5.945 -31.015  1.00  0.00     0.084 C 
HETATM   41  C   UNL     1      -1.750   5.062 -31.230  1.00  0.00     0.025 C 
HETATM   42  C   UNL     1      -0.932   5.410 -32.468  1.00  0.00     0.002 C 
HETATM   43  C   UNL     1      -0.589   6.893 -32.511  1.00  0.00     0.000 C 
HETATM   44  C   UNL     1      -1.834   7.768 -32.462  1.00  0.00     0.002 C 
HETATM   45  C   UNL     1      -2.744   7.438 -31.280  1.00  0.00     0.025 C 
ENDBRANCH  37  40
ENDBRANCH  11  36
TORSDOF 7
ENDMDL
MODEL 6
REMARK VINA RESULT:     -10.5      2.655      3.560
REMARK  7 active torsions:
REMARK  status: ('A' for Active; 'I' for Inactive)
REMARK    1  A    between atoms: C_6  and  N_7 
REMARK       I    between atoms: N_7  and  C_8 
REMARK    2  A    between atoms: C_8  and  C_9 
REMARK    3  A    between atoms: C_9  and  N_10 
REMARK    4  A    between atoms: N_13  and  C_14 
REMARK    5  A    between atoms: C_14  and  C_15 
REMARK    6  A    between atoms: C_30  and  C_31 
REMARK       I    between atoms: C_31  and  N_32 
REMARK    7  A    between atoms: N_32  and  C_33 
ROOT
HETATM    1  N   UNL     1      -7.287   4.927 -30.664  1.00  0.00    -0.290 N 
HETATM    2  C   UNL     1      -6.090   5.327 -30.090  1.00  0.00     0.332 C 
HETATM    3  O   UNL     1      -5.456   4.553 -29.366  1.00  0.00    -0.246 OA
HETATM    4  N   UNL     1      -5.653   6.611 -30.373  1.00  0.00    -0.261 N 
HETATM    5  C   UNL     1      -6.405   7.568 -31.036  1.00  0.00     0.264 C 
HETATM    6  O   UNL     1      -6.007   8.702 -31.292  1.00  0.00    -0.267 OA
HETATM    7  C   UNL     1      -7.758   7.170 -31.464  1.00  0.00     0.059 A 
HETATM    8  C   UNL     1      -8.168   5.849 -31.285  1.00  0.00     0.056 A 
HETATM    9  C   UNL     1      -8.593   8.114 -32.082  1.00  0.00     0.020 A 
HETATM   10  C   UNL     1      -9.857   7.741 -32.535  1.00  0.00     0.018 A 
HETATM   11  C   UNL     1     -10.282   6.420 -32.369  1.00  0.00     0.034 A 
HETATM   12  C   UNL     1      -9.448   5.487 -31.728  1.00  0.00     0.048 A 
ENDROOT
BRANCH   1  13
HETATM   13  C   UNL     1      -7.549   3.487 -30.716  1.00  0.00     0.237 C 
BRANCH  13  14
HETATM   14  C   UNL     1      -7.002   2.764 -31.948  1.00  0.00     0.240 C 
HETATM   15  N   UNL     1      -7.429   1.452 -32.044  1.00  0.00    -0.325 N 
HETATM   16  H   UNL     1      -8.189   1.185 -31.419  1.00  0.00     0.169 HD
HETATM   17  O   UNL     1      -6.213   3.334 -32.696  1.00  0.00    -0.271 OA
BRANCH  15  18
HETATM   18  C   UNL     1      -6.882   0.424 -32.845  1.00  0.00     0.040 A 
HETATM   19  C   UNL     1      -7.585   0.003 -33.993  1.00  0.00    -0.035 A 
HETATM   20  C   UNL     1      -7.113  -1.101 -34.728  1.00  0.00     0.015 A 
HETATM   21  C   UNL     1      -8.841   0.688 -34.464  1.00  0.00     0.050 C 
HETATM   22  C   UNL     1      -5.948  -1.779 -34.352  1.00  0.00    -0.061 A 
HETATM   23  C   UNL     1      -5.470  -2.982 -35.109  1.00  0.00     0.048 C 
HETATM   24  C   UNL     1      -5.243  -1.334 -33.234  1.00  0.00     0.009 A 
HETATM   25  C   UNL     1      -5.704  -0.242 -32.493  1.00  0.00     0.030 A 
ENDBRANCH  15  18
ENDBRANCH  13  14
ENDBRANCH   1  13
BRANCH   4  26
HETATM   26  C   UNL     1      -4.278   6.942 -30.017  1.00  0.00     0.175 C 
BRANCH  26  27
HETATM   27  C   UNL     1      -3.390   6.950 -31.249  1.00  0.00    -0.037 A 
HETATM   28  C   UNL     1      -3.373   5.846 -32.119  1.00  0.00     0.048 A 
HETATM   29  C   UNL     1      -2.469   5.855 -33.161  1.00  0.00     0.105 A 
HETATM   30  C   UNL     1      -1.609   6.908 -33.369  1.00  0.00     0.105 A 
HETATM   31  O   UNL     1      -2.294   4.857 -34.069  1.00  0.00    -0.323 OA
HETATM   32  O   UNL     1      -0.788   6.706 -34.432  1.00  0.00    -0.323 OA
HETATM   33  C   UNL     1      -1.608   8.015 -32.551  1.00  0.00     0.040 A 
HETATM   34  C   UNL     1      -1.213   5.396 -34.859  1.00  0.00     0.352 A 
HETATM   35  C   UNL     1      -2.507   8.032 -31.480  1.00  0.00     0.012 A 
ENDBRANCH  26  27
ENDBRANCH   4  26
BRANCH  11  36
HETATM   36  C   UNL     1     -11.616   5.956 -32.838  1.00  0.00     0.252 C 
HETATM   37  N   UNL     1     -11.636   4.745 -33.488  1.00  0.00    -0.352 N 
HETATM   38  H   UNL     1     -10.783   4.203 -33.481  1.00  0.00     0.163 HD
HETATM   39  O   UNL     1     -12.595   6.639 -32.583  1.00  0.00    -0.268 OA
BRANCH  37  40
HETATM   40  C   UNL     1     -12.833   4.004 -33.896  1.00  0.00     0.084 C 
HETATM   41  C   UNL     1     -12.853   3.681 -35.396  1.00  0.00     0.025 C 
HETATM   42  C   UNL     1     -12.241   2.333 -35.761  1.00  0.00     0.002 C 
HETATM   43  C   UNL     1     -12.836   1.207 -34.927  1.00  0.00     0.000 C 
HETATM   44  C   UNL     1     -12.669   1.454 -33.434  1.00  0.00     0.002 C 
HETATM   45  C   UNL     1     -13.201   2.817 -32.995  1.00  0.00     0.025 C 
ENDBRANCH  37  40
ENDBRANCH  11  36
TORSDOF 7
ENDMDL
MODEL 7
REMARK VINA RESULT:     -10.3      3.031     10.655
REMARK  7 active torsions:
REMARK  status: ('A' for Active; 'I' for Inactive)
REMARK    1  A    between atoms: C_6  and  N_7 
REMARK       I    between atoms: N_7  and  C_8 
REMARK    2  A    between atoms: C_8  and  C_9 
REMARK    3  A    between atoms: C_9  and  N_10 
REMARK    4  A    between atoms: N_13  and  C_14 
REMARK    5  A    between atoms: C_14  and  C_15 
REMARK    6  A    between atoms: C_30  and  C_31 
REMARK       I    between atoms: C_31  and  N_32 
REMARK    7  A    between atoms: N_32  and  C_33 
ROOT
HETATM    1  N   UNL     1      -6.753   4.542 -30.849  1.00  0.00    -0.290 N 
HETATM    2  C   UNL     1      -7.941   3.868 -30.613  1.00  0.00     0.332 C 
HETATM    3  O   UNL     1      -8.858   4.417 -29.993  1.00  0.00    -0.246 OA
HETATM    4  N   UNL     1      -8.043   2.578 -31.105  1.00  0.00    -0.261 N 
HETATM    5  C   UNL     1      -6.991   1.862 -31.655  1.00  0.00     0.264 C 
HETATM    6  O   UNL     1      -7.091   0.720 -32.099  1.00  0.00    -0.267 OA
HETATM    7  C   UNL     1      -5.685   2.541 -31.713  1.00  0.00     0.059 A 
HETATM    8  C   UNL     1      -5.594   3.878 -31.324  1.00  0.00     0.056 A 
HETATM    9  C   UNL     1      -4.565   1.847 -32.198  1.00  0.00     0.020 A 
HETATM   10  C   UNL     1      -3.333   2.490 -32.305  1.00  0.00     0.018 A 
HETATM   11  C   UNL     1      -3.226   3.830 -31.925  1.00  0.00     0.034 A 
HETATM   12  C   UNL     1      -4.347   4.511 -31.417  1.00  0.00     0.048 A 
ENDROOT
BRANCH   1  13
HETATM   13  C   UNL     1      -6.778   6.000 -30.708  1.00  0.00     0.237 C 
BRANCH  13  14
HETATM   14  C   UNL     1      -6.265   6.539 -29.372  1.00  0.00     0.240 C 
HETATM   15  N   UNL     1      -5.109   7.289 -29.495  1.00  0.00    -0.325 N 
HETATM   16  H   UNL     1      -4.852   7.556 -30.445  1.00  0.00     0.169 HD
HETATM   17  O   UNL     1      -6.834   6.238 -28.327  1.00  0.00    -0.271 OA
BRANCH  15  18
HETATM   18  C   UNL     1      -4.206   7.656 -28.471  1.00  0.00     0.040 A 
HETATM   19  C   UNL     1      -3.853   9.014 -28.324  1.00  0.00    -0.035 A 
HETATM   20  C   UNL     1      -2.862   9.374 -27.390  1.00  0.00     0.015 A 
HETATM   21  C   UNL     1      -4.491  10.105 -29.143  1.00  0.00     0.050 C 
HETATM   22  C   UNL     1      -2.235   8.413 -26.591  1.00  0.00    -0.061 A 
HETATM   23  C   UNL     1      -1.148   8.791 -25.628  1.00  0.00     0.048 C 
HETATM   24  C   UNL     1      -2.615   7.078 -26.722  1.00  0.00     0.009 A 
HETATM   25  C   UNL     1      -3.593   6.706 -27.649  1.00  0.00     0.030 A 
ENDBRANCH  15  18
ENDBRANCH  13  14
ENDBRANCH   1  13
BRANCH   4  26
HETATM   26  C   UNL     1      -9.368   1.968 -31.116  1.00  0.00     0.175 C 
BRANCH  26  27
HETATM   27  C   UNL     1     -10.082   2.256 -32.425  1.00  0.00    -0.037 A 
HETATM   28  C   UNL     1     -10.733   3.486 -32.624  1.00  0.00     0.048 A 
HETATM   29  C   UNL     1     -11.459   3.656 -33.785  1.00  0.00     0.105 A 
HETATM   30  C   UNL     1     -11.548   2.668 -34.737  1.00  0.00     0.105 A 
HETATM   31  O   UNL     1     -12.176   4.763 -34.118  1.00  0.00    -0.323 OA
HETATM   32  O   UNL     1     -12.329   3.029 -35.789  1.00  0.00    -0.323 OA
HETATM   33  C   UNL     1     -10.910   1.457 -34.589  1.00  0.00     0.040 A 
HETATM   34  C   UNL     1     -12.741   4.350 -35.380  1.00  0.00     0.352 A 
HETATM   35  C   UNL     1     -10.173   1.252 -33.418  1.00  0.00     0.012 A 
ENDBRANCH  26  27
ENDBRANCH   4  26
BRANCH  11  36
HETATM   36  C   UNL     1      -1.941   4.577 -32.021  1.00  0.00     0.252 C 
HETATM   37  N   UNL     1      -1.333   4.882 -30.826  1.00  0.00    -0.352 N 
HETATM   38  H   UNL     1      -1.722   4.467 -29.991  1.00  0.00     0.163 HD
HETATM   39  O   UNL     1      -1.493   4.828 -33.128  1.00  0.00    -0.268 OA
BRANCH  37  40
HETATM   40  C   UNL     1       0.003   5.462 -30.662  1.00  0.00     0.084 C 
HETATM   41  C   UNL     1       0.033   6.974 -30.918  1.00  0.00     0.025 C 
HETATM   42  C   UNL     1      -0.181   7.831 -29.676  1.00  0.00     0.002 C 
HETATM   43  C   UNL     1       0.759   7.424 -28.549  1.00  0.00     0.000 C 
HETATM   44  C   UNL     1       0.609   5.953 -28.185  1.00  0.00     0.002 C 
HETATM   45  C   UNL     1       0.748   5.027 -29.391  1.00  0.00     0.025 C 
ENDBRANCH  37  40
ENDBRANCH  11  36
TORSDOF 7
ENDMDL
MODEL 8
REMARK VINA RESULT:     -10.2      3.344      8.224
REMARK  7 active torsions:
REMARK  status: ('A' for Active; 'I' for Inactive)
REMARK    1  A    between atoms: C_6  and  N_7 
REMARK       I    between atoms: N_7  and  C_8 
REMARK    2  A    between atoms: C_8  and  C_9 
REMARK    3  A    between atoms: C_9  and  N_10 
REMARK    4  A    between atoms: N_13  and  C_14 
REMARK    5  A    between atoms: C_14  and  C_15 
REMARK    6  A    between atoms: C_30  and  C_31 
REMARK       I    between atoms: C_31  and  N_32 
REMARK    7  A    between atoms: N_32  and  C_33 
ROOT
HETATM    1  N   UNL     1      -7.880   4.208 -32.110  1.00  0.00    -0.290 N 
HETATM    2  C   UNL     1      -7.502   2.912 -31.795  1.00  0.00     0.332 C 
HETATM    3  O   UNL     1      -6.470   2.703 -31.150  1.00  0.00    -0.246 OA
HETATM    4  N   UNL     1      -8.330   1.891 -32.229  1.00  0.00    -0.261 N 
HETATM    5  C   UNL     1      -9.400   2.061 -33.094  1.00  0.00     0.264 C 
HETATM    6  O   UNL     1     -10.137   1.151 -33.467  1.00  0.00    -0.267 OA
HETATM    7  C   UNL     1      -9.658   3.432 -33.569  1.00  0.00     0.059 A 
HETATM    8  C   UNL     1      -8.902   4.485 -33.053  1.00  0.00     0.056 A 
HETATM    9  C   UNL     1     -10.686   3.660 -34.497  1.00  0.00     0.020 A 
HETATM   10  C   UNL     1     -10.974   4.957 -34.919  1.00  0.00     0.018 A 
HETATM   11  C   UNL     1     -10.230   6.024 -34.409  1.00  0.00     0.034 A 
HETATM   12  C   UNL     1      -9.187   5.784 -33.497  1.00  0.00     0.048 A 
ENDROOT
BRANCH   1  13
HETATM   13  C   UNL     1      -7.265   5.286 -31.331  1.00  0.00     0.237 C 
BRANCH  13  14
HETATM   14  C   UNL     1      -5.929   5.802 -31.865  1.00  0.00     0.240 C 
HETATM   15  N   UNL     1      -4.834   5.208 -31.264  1.00  0.00    -0.325 N 
HETATM   16  H   UNL     1      -5.033   4.382 -30.699  1.00  0.00     0.169 HD
HETATM   17  O   UNL     1      -5.905   6.706 -32.696  1.00  0.00    -0.271 OA
BRANCH  15  18
HETATM   18  C   UNL     1      -3.494   5.657 -31.274  1.00  0.00     0.040 A 
HETATM   19  C   UNL     1      -2.524   4.902 -31.967  1.00  0.00    -0.035 A 
HETATM   20  C   UNL     1      -1.168   5.272 -31.881  1.00  0.00     0.015 A 
HETATM   21  C   UNL     1      -2.884   3.696 -32.794  1.00  0.00     0.050 C 
HETATM   22  C   UNL     1      -0.766   6.386 -31.137  1.00  0.00    -0.061 A 
HETATM   23  C   UNL     1       0.683   6.753 -31.009  1.00  0.00     0.048 C 
HETATM   24  C   UNL     1      -1.737   7.144 -30.483  1.00  0.00     0.009 A 
HETATM   25  C   UNL     1      -3.086   6.785 -30.555  1.00  0.00     0.030 A 
ENDBRANCH  15  18
ENDBRANCH  13  14
ENDBRANCH   1  13
BRANCH   4  26
HETATM   26  C   UNL     1      -8.103   0.563 -31.670  1.00  0.00     0.175 C 
BRANCH  26  27
HETATM   27  C   UNL     1      -7.102  -0.211 -32.510  1.00  0.00    -0.037 A 
HETATM   28  C   UNL     1      -7.545  -1.151 -33.457  1.00  0.00     0.048 A 
HETATM   29  C   UNL     1      -6.596  -1.906 -34.114  1.00  0.00     0.105 A 
HETATM   30  C   UNL     1      -5.251  -1.752 -33.875  1.00  0.00     0.105 A 
HETATM   31  O   UNL     1      -6.851  -2.880 -35.029  1.00  0.00    -0.323 OA
HETATM   32  O   UNL     1      -4.491  -2.608 -34.608  1.00  0.00    -0.323 OA
HETATM   33  C   UNL     1      -4.776  -0.830 -32.970  1.00  0.00     0.040 A 
HETATM   34  C   UNL     1      -5.513  -3.334 -35.322  1.00  0.00     0.352 A 
HETATM   35  C   UNL     1      -5.714  -0.055 -32.280  1.00  0.00     0.012 A 
ENDBRANCH  26  27
ENDBRANCH   4  26
BRANCH  11  36
HETATM   36  C   UNL     1     -10.492   7.433 -34.813  1.00  0.00     0.252 C 
HETATM   37  N   UNL     1     -11.100   7.605 -36.034  1.00  0.00    -0.352 N 
HETATM   38  H   UNL     1     -11.443   6.776 -36.499  1.00  0.00     0.163 HD
HETATM   39  O   UNL     1     -10.200   8.327 -34.035  1.00  0.00    -0.268 OA
BRANCH  37  40
HETATM   40  C   UNL     1     -11.604   8.869 -36.576  1.00  0.00     0.084 C 
HETATM   41  C   UNL     1     -10.486   9.785 -37.092  1.00  0.00     0.025 C 
HETATM   42  C   UNL     1     -10.157   9.610 -38.570  1.00  0.00     0.002 C 
HETATM   43  C   UNL     1     -11.408   9.694 -39.434  1.00  0.00     0.000 C 
HETATM   44  C   UNL     1     -12.456   8.669 -39.022  1.00  0.00     0.002 C 
HETATM   45  C   UNL     1     -12.797   8.736 -37.534  1.00  0.00     0.025 C 
ENDBRANCH  37  40
ENDBRANCH  11  36
TORSDOF 7
ENDMDL
MODEL 9
REMARK VINA RESULT:     -10.2      2.902      9.977
REMARK  7 active torsions:
REMARK  status: ('A' for Active; 'I' for Inactive)
REMARK    1  A    between atoms: C_6  and  N_7 
REMARK       I    between atoms: N_7  and  C_8 
REMARK    2  A    between atoms: C_8  and  C_9 
REMARK    3  A    between atoms: C_9  and  N_10 
REMARK    4  A    between atoms: N_13  and  C_14 
REMARK    5  A    between atoms: C_14  and  C_15 
REMARK    6  A    between atoms: C_30  and  C_31 
REMARK       I    between atoms: C_31  and  N_32 
REMARK    7  A    between atoms: N_32  and  C_33 
ROOT
HETATM    1  N   UNL     1      -6.581   4.093 -30.653  1.00  0.00    -0.290 N 
HETATM    2  C   UNL     1      -7.714   3.319 -30.464  1.00  0.00     0.332 C 
HETATM    3  O   UNL     1      -8.628   3.717 -29.735  1.00  0.00    -0.246 OA
HETATM    4  N   UNL     1      -7.767   2.105 -31.129  1.00  0.00    -0.261 N 
HETATM    5  C   UNL     1      -6.706   1.541 -31.819  1.00  0.00     0.264 C 
HETATM    6  O   UNL     1      -6.763   0.467 -32.415  1.00  0.00    -0.267 OA
HETATM    7  C   UNL     1      -5.445   2.304 -31.836  1.00  0.00     0.059 A 
HETATM    8  C   UNL     1      -5.411   3.577 -31.267  1.00  0.00     0.056 A 
HETATM    9  C   UNL     1      -4.314   1.756 -32.462  1.00  0.00     0.020 A 
HETATM   10  C   UNL     1      -3.128   2.485 -32.528  1.00  0.00     0.018 A 
HETATM   11  C   UNL     1      -3.077   3.764 -31.968  1.00  0.00     0.034 A 
HETATM   12  C   UNL     1      -4.209   4.295 -31.322  1.00  0.00     0.048 A 
ENDROOT
BRANCH   1  13
HETATM   13  C   UNL     1      -6.682   5.513 -30.307  1.00  0.00     0.237 C 
BRANCH  13  14
HETATM   14  C   UNL     1      -7.352   6.399 -31.357  1.00  0.00     0.240 C 
HETATM   15  N   UNL     1      -8.663   6.041 -31.616  1.00  0.00    -0.325 N 
HETATM   16  H   UNL     1      -9.081   5.381 -30.960  1.00  0.00     0.169 HD
HETATM   17  O   UNL     1      -6.709   7.279 -31.922  1.00  0.00    -0.271 OA
BRANCH  15  18
HETATM   18  C   UNL     1      -9.457   6.417 -32.723  1.00  0.00     0.040 A 
HETATM   19  C   UNL     1      -9.235   5.793 -33.969  1.00  0.00    -0.035 A 
HETATM   20  C   UNL     1      -9.934   6.245 -35.104  1.00  0.00     0.015 A 
HETATM   21  C   UNL     1      -8.262   4.656 -34.136  1.00  0.00     0.050 C 
HETATM   22  C   UNL     1     -10.859   7.291 -35.018  1.00  0.00    -0.061 A 
HETATM   23  C   UNL     1     -11.570   7.803 -36.236  1.00  0.00     0.048 C 
HETATM   24  C   UNL     1     -11.095   7.879 -33.776  1.00  0.00     0.009 A 
HETATM   25  C   UNL     1     -10.404   7.443 -32.641  1.00  0.00     0.030 A 
ENDBRANCH  15  18
ENDBRANCH  13  14
ENDBRANCH   1  13
BRANCH   4  26
HETATM   26  C   UNL     1      -9.054   1.420 -31.170  1.00  0.00     0.175 C 
BRANCH  26  27
HETATM   27  C   UNL     1      -9.906   1.941 -32.315  1.00  0.00    -0.037 A 
HETATM   28  C   UNL     1     -10.761   3.039 -32.122  1.00  0.00     0.048 A 
HETATM   29  C   UNL     1     -11.594   3.404 -33.159  1.00  0.00     0.105 A 
HETATM   30  C   UNL     1     -11.595   2.734 -34.360  1.00  0.00     0.105 A 
HETATM   31  O   UNL     1     -12.505   4.413 -33.129  1.00  0.00    -0.323 OA
HETATM   32  O   UNL     1     -12.504   3.237 -35.236  1.00  0.00    -0.323 OA
HETATM   33  C   UNL     1     -10.758   1.666 -34.596  1.00  0.00     0.040 A 
HETATM   34  C   UNL     1     -13.092   4.288 -34.441  1.00  0.00     0.352 A 
HETATM   35  C   UNL     1      -9.908   1.267 -33.559  1.00  0.00     0.012 A 
ENDBRANCH  26  27
ENDBRANCH   4  26
BRANCH  11  36
HETATM   36  C   UNL     1      -1.845   4.597 -32.012  1.00  0.00     0.252 C 
HETATM   37  N   UNL     1      -1.251   4.856 -30.799  1.00  0.00    -0.352 N 
HETATM   38  H   UNL     1      -1.608   4.359 -29.995  1.00  0.00     0.163 HD
HETATM   39  O   UNL     1      -1.419   4.953 -33.099  1.00  0.00    -0.268 OA
BRANCH  37  40
HETATM   40  C   UNL     1       0.045   5.508 -30.595  1.00  0.00     0.084 C 
HETATM   41  C   UNL     1      -0.021   7.032 -30.758  1.00  0.00     0.025 C 
HETATM   42  C   UNL     1      -0.288   7.795 -29.465  1.00  0.00     0.002 C 
HETATM   43  C   UNL     1       0.678   7.380 -28.363  1.00  0.00     0.000 C 
HETATM   44  C   UNL     1       0.622   5.883 -28.091  1.00  0.00     0.002 C 
HETATM   45  C   UNL     1       0.818   5.043 -29.352  1.00  0.00     0.025 C 
ENDBRANCH  37  40
ENDBRANCH  11  36
TORSDOF 7
ENDMDL
MODEL 10
REMARK VINA RESULT:     -10.0      2.546      3.595
REMARK  7 active torsions:
REMARK  status: ('A' for Active; 'I' for Inactive)
REMARK    1  A    between atoms: C_6  and  N_7 
REMARK       I    between atoms: N_7  and  C_8 
REMARK    2  A    between atoms: C_8  and  C_9 
REMARK    3  A    between atoms: C_9  and  N_10 
REMARK    4  A    between atoms: N_13  and  C_14 
REMARK    5  A    between atoms: C_14  and  C_15 
REMARK    6  A    between atoms: C_30  and  C_31 
REMARK       I    between atoms: C_31  and  N_32 
REMARK    7  A    between atoms: N_32  and  C_33 
ROOT
HETATM    1  N   UNL     1      -7.460   4.099 -31.512  1.00  0.00    -0.290 N 
HETATM    2  C   UNL     1      -6.287   4.231 -30.786  1.00  0.00     0.332 C 
HETATM    3  O   UNL     1      -5.344   3.456 -30.977  1.00  0.00    -0.246 OA
HETATM    4  N   UNL     1      -6.229   5.261 -29.862  1.00  0.00    -0.261 N 
HETATM    5  C   UNL     1      -7.310   6.046 -29.493  1.00  0.00     0.264 C 
HETATM    6  O   UNL     1      -7.249   6.964 -28.678  1.00  0.00    -0.267 OA
HETATM    7  C   UNL     1      -8.598   5.750 -30.143  1.00  0.00     0.059 A 
HETATM    8  C   UNL     1      -8.646   4.792 -31.156  1.00  0.00     0.056 A 
HETATM    9  C   UNL     1      -9.745   6.466 -29.765  1.00  0.00     0.020 A 
HETATM   10  C   UNL     1     -10.961   6.232 -30.405  1.00  0.00     0.018 A 
HETATM   11  C   UNL     1     -11.025   5.279 -31.425  1.00  0.00     0.034 A 
HETATM   12  C   UNL     1      -9.877   4.550 -31.782  1.00  0.00     0.048 A 
ENDROOT
BRANCH   1  13
HETATM   13  C   UNL     1      -7.393   3.310 -32.744  1.00  0.00     0.237 C 
BRANCH  13  14
HETATM   14  C   UNL     1      -7.320   1.795 -32.550  1.00  0.00     0.240 C 
HETATM   15  N   UNL     1      -6.322   1.197 -33.298  1.00  0.00    -0.325 N 
HETATM   16  H   UNL     1      -5.645   1.831 -33.722  1.00  0.00     0.169 HD
HETATM   17  O   UNL     1      -8.143   1.225 -31.839  1.00  0.00    -0.271 OA
BRANCH  15  18
HETATM   18  C   UNL     1      -6.180  -0.175 -33.607  1.00  0.00     0.040 A 
HETATM   19  C   UNL     1      -4.930  -0.797 -33.406  1.00  0.00    -0.035 A 
HETATM   20  C   UNL     1      -4.744  -2.128 -33.825  1.00  0.00     0.015 A 
HETATM   21  C   UNL     1      -3.771  -0.083 -32.762  1.00  0.00     0.050 C 
HETATM   22  C   UNL     1      -5.781  -2.853 -34.422  1.00  0.00    -0.061 A 
HETATM   23  C   UNL     1      -5.569  -4.255 -34.909  1.00  0.00     0.048 C 
HETATM   24  C   UNL     1      -7.022  -2.238 -34.587  1.00  0.00     0.009 A 
HETATM   25  C   UNL     1      -7.219  -0.916 -34.180  1.00  0.00     0.030 A 
ENDBRANCH  15  18
ENDBRANCH  13  14
ENDBRANCH   1  13
BRANCH   4  26
HETATM   26  C   UNL     1      -4.921   5.586 -29.304  1.00  0.00     0.175 C 
BRANCH  26  27
HETATM   27  C   UNL     1      -4.093   6.379 -30.302  1.00  0.00    -0.037 A 
HETATM   28  C   UNL     1      -3.084   5.747 -31.048  1.00  0.00     0.048 A 
HETATM   29  C   UNL     1      -2.288   6.531 -31.857  1.00  0.00     0.105 A 
HETATM   30  C   UNL     1      -2.467   7.890 -31.955  1.00  0.00     0.105 A 
HETATM   31  O   UNL     1      -1.247   6.089 -32.614  1.00  0.00    -0.323 OA
HETATM   32  O   UNL     1      -1.564   8.475 -32.786  1.00  0.00    -0.323 OA
HETATM   33  C   UNL     1      -3.456   8.544 -31.256  1.00  0.00     0.040 A 
HETATM   34  C   UNL     1      -0.781   7.331 -33.184  1.00  0.00     0.352 A 
HETATM   35  C   UNL     1      -4.274   7.778 -30.419  1.00  0.00     0.012 A 
ENDBRANCH  26  27
ENDBRANCH   4  26
BRANCH  11  36
HETATM   36  C   UNL     1     -12.290   4.987 -32.153  1.00  0.00     0.252 C 
HETATM   37  N   UNL     1     -12.199   4.066 -33.170  1.00  0.00    -0.352 N 
HETATM   38  H   UNL     1     -11.328   3.562 -33.260  1.00  0.00     0.163 HD
HETATM   39  O   UNL     1     -13.317   5.534 -31.783  1.00  0.00    -0.268 OA
BRANCH  37  40
HETATM   40  C   UNL     1     -13.321   3.496 -33.920  1.00  0.00     0.084 C 
HETATM   41  C   UNL     1     -12.896   2.899 -35.268  1.00  0.00     0.025 C 
HETATM   42  C   UNL     1     -12.543   1.416 -35.221  1.00  0.00     0.002 C 
HETATM   43  C   UNL     1     -13.646   0.602 -34.558  1.00  0.00     0.000 C 
HETATM   44  C   UNL     1     -13.954   1.097 -33.152  1.00  0.00     0.002 C 
HETATM   45  C   UNL     1     -14.257   2.593 -33.103  1.00  0.00     0.025 C 
ENDBRANCH  37  40
ENDBRANCH  11  36
TORSDOF 7
ENDMDL
