MODEL 1
REMARK VINA RESULT:      -9.5      0.000      0.000
REMARK  3 active torsions:
REMARK  status: ('A' for Active; 'I' for Inactive)
REMARK    1  A    between atoms: O_2  and  C_3 
REMARK    2  A    between atoms: C_4  and  N_5 
REMARK       I    between atoms: N_5  and  C_6 
REMARK       I    between atoms: C_6  and  N_7 
REMARK    3  A    between atoms: C_8  and  C_9 
ROOT
HETATM    1  N   UNL     1      -5.901  -1.085 -33.076  1.00  0.00    -0.306 N 
HETATM    2  C   UNL     1      -6.994  -0.260 -33.254  1.00  0.00     0.323 C 
HETATM    3  N   UNL     1      -7.151   0.736 -32.259  1.00  0.00    -0.324 N 
HETATM    4  C   UNL     1      -7.864   1.983 -32.642  1.00  0.00     0.139 C 
HETATM    5  C   UNL     1      -8.078   2.981 -31.476  1.00  0.00     0.032 C 
HETATM    6  C   UNL     1      -6.871   3.133 -30.574  1.00  0.00     0.004 C 
HETATM    7  C   UNL     1      -6.498   1.764 -30.046  1.00  0.00     0.020 C 
HETATM    8  C   UNL     1      -6.136   0.849 -31.202  1.00  0.00     0.128 C 
HETATM    9  O   UNL     1      -7.750  -0.391 -34.212  1.00  0.00    -0.247 OA
HETATM   10  H   UNL     1      -5.067  -0.664 -32.695  1.00  0.00     0.171 HD
ENDROOT
BRANCH   4  11
HETATM   11  C   UNL     1      -9.225   1.752 -33.239  1.00  0.00     0.033 A 
HETATM   12  N   UNL     1     -10.080   0.763 -32.811  1.00  0.00    -0.357 N 
HETATM   13  H   UNL     1      -9.839   0.056 -32.130  1.00  0.00     0.166 HD
HETATM   14  C   UNL     1     -11.288   0.847 -33.466  1.00  0.00     0.042 A 
HETATM   15  C   UNL     1     -11.189   1.901 -34.372  1.00  0.00    -0.007 A 
HETATM   16  C   UNL     1     -12.446   0.071 -33.336  1.00  0.00     0.030 A 
HETATM   17  C   UNL     1      -9.889   2.454 -34.230  1.00  0.00     0.041 A 
HETATM   18  C   UNL     1     -12.297   2.202 -35.189  1.00  0.00     0.014 A 
HETATM   19  C   UNL     1     -13.463   1.440 -35.068  1.00  0.00     0.001 A 
HETATM   20  C   UNL     1     -13.534   0.391 -34.153  1.00  0.00     0.002 A 
ENDBRANCH   4  11
BRANCH   1  21
HETATM   21  C   UNL     1      -5.648  -2.293 -33.764  1.00  0.00     0.072 A 
HETATM   22  C   UNL     1      -4.396  -2.903 -33.570  1.00  0.00     0.095 A 
HETATM   23  C   UNL     1      -4.101  -4.147 -34.131  1.00  0.00     0.042 A 
HETATM   24  C   UNL     1      -5.056  -4.775 -34.926  1.00  0.00     0.045 A 
HETATM   25  C   UNL     1      -6.286  -4.158 -35.142  1.00  0.00     0.118 A 
HETATM   26  C   UNL     1      -6.593  -2.926 -34.570  1.00  0.00     0.074 A 
HETATM   27  F   UNL     1      -7.201  -4.779 -35.899  1.00  0.00    -0.206 F 
BRANCH  22  28
HETATM   28  O   UNL     1      -3.450  -2.277 -32.792  1.00  0.00    -0.354 OA
HETATM   29  C   UNL     1      -2.950  -3.198 -31.816  1.00  0.00     0.210 C 
ENDBRANCH  22  28
ENDBRANCH   1  21
TORSDOF 3
ENDMDL
MODEL 2
REMARK VINA RESULT:      -9.3      4.635      7.768
REMARK  3 active torsions:
REMARK  status: ('A' for Active; 'I' for Inactive)
REMARK    1  A    between atoms: O_2  and  C_3 
REMARK    2  A    between atoms: C_4  and  N_5 
REMARK       I    between atoms: N_5  and  C_6 
REMARK       I    between atoms: C_6  and  N_7 
REMARK    3  A    between atoms: C_8  and  C_9 
ROOT
HETATM    1  N   UNL     1      -4.260   4.435 -31.906  1.00  0.00    -0.306 N 
HETATM    2  C   UNL     1      -4.689   3.167 -32.246  1.00  0.00     0.323 C 
HETATM    3  N   UNL     1      -5.899   2.766 -31.626  1.00  0.00    -0.324 N 
HETATM    4  C   UNL     1      -6.731   1.758 -32.332  1.00  0.00     0.139 C 
HETATM    5  C   UNL     1      -7.986   1.302 -31.546  1.00  0.00     0.032 C 
HETATM    6  C   UNL     1      -8.721   2.435 -30.860  1.00  0.00     0.004 C 
HETATM    7  C   UNL     1      -7.746   3.147 -29.946  1.00  0.00     0.020 C 
HETATM    8  C   UNL     1      -6.605   3.724 -30.764  1.00  0.00     0.128 C 
HETATM    9  O   UNL     1      -4.062   2.465 -33.034  1.00  0.00    -0.247 OA
HETATM   10  H   UNL     1      -4.972   5.136 -31.765  1.00  0.00     0.171 HD
ENDROOT
BRANCH   4  11
HETATM   11  C   UNL     1      -5.993   0.497 -32.691  1.00  0.00     0.033 A 
HETATM   12  N   UNL     1      -4.992  -0.040 -31.915  1.00  0.00    -0.357 N 
HETATM   13  H   UNL     1      -4.606   0.405 -31.094  1.00  0.00     0.166 HD
HETATM   14  C   UNL     1      -4.566  -1.242 -32.435  1.00  0.00     0.042 A 
HETATM   15  C   UNL     1      -5.291  -1.462 -33.604  1.00  0.00    -0.007 A 
HETATM   16  C   UNL     1      -3.595  -2.137 -31.970  1.00  0.00     0.030 A 
HETATM   17  C   UNL     1      -6.174  -0.361 -33.762  1.00  0.00     0.041 A 
HETATM   18  C   UNL     1      -5.041  -2.631 -34.349  1.00  0.00     0.014 A 
HETATM   19  C   UNL     1      -4.078  -3.539 -33.896  1.00  0.00     0.001 A 
HETATM   20  C   UNL     1      -3.368  -3.293 -32.723  1.00  0.00     0.002 A 
ENDBRANCH   4  11
BRANCH   1  21
HETATM   21  C   UNL     1      -2.987   4.984 -32.177  1.00  0.00     0.072 A 
HETATM   22  C   UNL     1      -2.858   5.801 -33.315  1.00  0.00     0.095 A 
HETATM   23  C   UNL     1      -1.663   6.464 -33.600  1.00  0.00     0.042 A 
HETATM   24  C   UNL     1      -0.569   6.282 -32.757  1.00  0.00     0.045 A 
HETATM   25  C   UNL     1      -0.688   5.451 -31.646  1.00  0.00     0.118 A 
HETATM   26  C   UNL     1      -1.883   4.801 -31.346  1.00  0.00     0.074 A 
HETATM   27  F   UNL     1       0.368   5.293 -30.836  1.00  0.00    -0.206 F 
BRANCH  22  28
HETATM   28  O   UNL     1      -3.936   5.972 -34.152  1.00  0.00    -0.354 OA
HETATM   29  C   UNL     1      -3.741   5.204 -35.344  1.00  0.00     0.210 C 
ENDBRANCH  22  28
ENDBRANCH   1  21
TORSDOF 3
ENDMDL
MODEL 3
REMARK VINA RESULT:      -9.0     13.227     15.679
REMARK  3 active torsions:
REMARK  status: ('A' for Active; 'I' for Inactive)
REMARK    1  A    between atoms: O_2  and  C_3 
REMARK    2  A    between atoms: C_4  and  N_5 
REMARK       I    between atoms: N_5  and  C_6 
REMARK       I    between atoms: C_6  and  N_7 
REMARK    3  A    between atoms: C_8  and  C_9 
ROOT
HETATM    1  N   UNL     1      -6.791 -13.273 -40.176  1.00  0.00    -0.306 N 
HETATM    2  C   UNL     1      -6.065 -13.319 -39.002  1.00  0.00     0.323 C 
HETATM    3  N   UNL     1      -4.688 -13.613 -39.170  1.00  0.00    -0.324 N 
HETATM    4  C   UNL     1      -3.748 -13.113 -38.134  1.00  0.00     0.139 C 
HETATM    5  C   UNL     1      -2.277 -13.556 -38.338  1.00  0.00     0.032 C 
HETATM    6  C   UNL     1      -1.812 -13.481 -39.777  1.00  0.00     0.004 C 
HETATM    7  C   UNL     1      -2.747 -14.320 -40.622  1.00  0.00     0.020 C 
HETATM    8  C   UNL     1      -4.157 -13.765 -40.532  1.00  0.00     0.128 C 
HETATM    9  O   UNL     1      -6.588 -13.108 -37.913  1.00  0.00    -0.247 OA
HETATM   10  H   UNL     1      -6.324 -12.897 -40.988  1.00  0.00     0.171 HD
ENDROOT
BRANCH   4  11
HETATM   11  C   UNL     1      -4.108 -13.521 -36.731  1.00  0.00     0.033 A 
HETATM   12  N   UNL     1      -4.640 -12.653 -35.806  1.00  0.00    -0.357 N 
HETATM   13  H   UNL     1      -4.751 -11.660 -35.953  1.00  0.00     0.166 HD
HETATM   14  C   UNL     1      -4.960 -13.319 -34.644  1.00  0.00     0.042 A 
HETATM   15  C   UNL     1      -4.583 -14.650 -34.818  1.00  0.00    -0.007 A 
HETATM   16  C   UNL     1      -5.538 -12.848 -33.459  1.00  0.00     0.030 A 
HETATM   17  C   UNL     1      -4.040 -14.762 -36.125  1.00  0.00     0.041 A 
HETATM   18  C   UNL     1      -4.793 -15.559 -33.763  1.00  0.00     0.014 A 
HETATM   19  C   UNL     1      -5.374 -15.106 -32.574  1.00  0.00     0.001 A 
HETATM   20  C   UNL     1      -5.741 -13.770 -32.428  1.00  0.00     0.002 A 
ENDBRANCH   4  11
BRANCH   1  21
HETATM   21  C   UNL     1      -8.199 -13.245 -40.284  1.00  0.00     0.072 A 
HETATM   22  C   UNL     1      -8.873 -14.478 -40.336  1.00  0.00     0.095 A 
HETATM   23  C   UNL     1     -10.267 -14.543 -40.341  1.00  0.00     0.042 A 
HETATM   24  C   UNL     1     -11.001 -13.359 -40.330  1.00  0.00     0.045 A 
HETATM   25  C   UNL     1     -10.334 -12.137 -40.307  1.00  0.00     0.118 A 
HETATM   26  C   UNL     1      -8.943 -12.066 -40.284  1.00  0.00     0.074 A 
HETATM   27  F   UNL     1     -11.050 -11.005 -40.285  1.00  0.00    -0.206 F 
BRANCH  22  28
HETATM   28  O   UNL     1      -8.148 -15.647 -40.356  1.00  0.00    -0.354 OA
HETATM   29  C   UNL     1      -8.422 -16.399 -39.169  1.00  0.00     0.210 C 
ENDBRANCH  22  28
ENDBRANCH   1  21
TORSDOF 3
ENDMDL
MODEL 4
REMARK VINA RESULT:      -8.9      3.564      6.390
REMARK  3 active torsions:
REMARK  status: ('A' for Active; 'I' for Inactive)
REMARK    1  A    between atoms: O_2  and  C_3 
REMARK    2  A    between atoms: C_4  and  N_5 
REMARK       I    between atoms: N_5  and  C_6 
REMARK       I    between atoms: C_6  and  N_7 
REMARK    3  A    between atoms: C_8  and  C_9 
ROOT
HETATM    1  N   UNL     1      -6.291   0.239 -32.063  1.00  0.00    -0.306 N 
HETATM    2  C   UNL     1      -5.677   1.469 -31.927  1.00  0.00     0.323 C 
HETATM    3  N   UNL     1      -6.511   2.491 -31.408  1.00  0.00    -0.324 N 
HETATM    4  C   UNL     1      -5.855   3.609 -30.681  1.00  0.00     0.139 C 
HETATM    5  C   UNL     1      -6.821   4.732 -30.229  1.00  0.00     0.032 C 
HETATM    6  C   UNL     1      -8.128   4.220 -29.660  1.00  0.00     0.004 C 
HETATM    7  C   UNL     1      -8.783   3.335 -30.699  1.00  0.00     0.020 C 
HETATM    8  C   UNL     1      -7.883   2.152 -31.007  1.00  0.00     0.128 C 
HETATM    9  O   UNL     1      -4.500   1.637 -32.227  1.00  0.00    -0.247 OA
HETATM   10  H   UNL     1      -6.966  -0.016 -31.358  1.00  0.00     0.171 HD
ENDROOT
BRANCH   4  11
HETATM   11  C   UNL     1      -4.767   4.295 -31.463  1.00  0.00     0.033 A 
HETATM   12  N   UNL     1      -3.437   4.238 -31.115  1.00  0.00    -0.357 N 
HETATM   13  H   UNL     1      -3.087   3.814 -30.268  1.00  0.00     0.166 HD
HETATM   14  C   UNL     1      -2.661   4.872 -32.059  1.00  0.00     0.042 A 
HETATM   15  C   UNL     1      -3.528   5.386 -33.023  1.00  0.00    -0.007 A 
HETATM   16  C   UNL     1      -1.273   5.039 -32.128  1.00  0.00     0.030 A 
HETATM   17  C   UNL     1      -4.845   5.028 -32.633  1.00  0.00     0.041 A 
HETATM   18  C   UNL     1      -2.988   6.099 -34.111  1.00  0.00     0.014 A 
HETATM   19  C   UNL     1      -1.603   6.271 -34.198  1.00  0.00     0.001 A 
HETATM   20  C   UNL     1      -0.760   5.747 -33.220  1.00  0.00     0.002 A 
ENDBRANCH   4  11
BRANCH   1  21
HETATM   21  C   UNL     1      -5.782  -0.873 -32.770  1.00  0.00     0.072 A 
HETATM   22  C   UNL     1      -6.422  -1.232 -33.969  1.00  0.00     0.095 A 
HETATM   23  C   UNL     1      -5.924  -2.253 -34.780  1.00  0.00     0.042 A 
HETATM   24  C   UNL     1      -4.789  -2.950 -34.371  1.00  0.00     0.045 A 
HETATM   25  C   UNL     1      -4.170  -2.613 -33.170  1.00  0.00     0.118 A 
HETATM   26  C   UNL     1      -4.653  -1.583 -32.366  1.00  0.00     0.074 A 
HETATM   27  F   UNL     1      -3.072  -3.282 -32.794  1.00  0.00    -0.206 F 
BRANCH  22  28
HETATM   28  O   UNL     1      -7.549  -0.550 -34.367  1.00  0.00    -0.354 OA
HETATM   29  C   UNL     1      -7.208   0.360 -35.419  1.00  0.00     0.210 C 
ENDBRANCH  22  28
ENDBRANCH   1  21
TORSDOF 3
ENDMDL
MODEL 5
REMARK VINA RESULT:      -8.6      4.659      7.525
REMARK  3 active torsions:
REMARK  status: ('A' for Active; 'I' for Inactive)
REMARK    1  A    between atoms: O_2  and  C_3 
REMARK    2  A    between atoms: C_4  and  N_5 
REMARK       I    between atoms: N_5  and  C_6 
REMARK       I    between atoms: C_6  and  N_7 
REMARK    3  A    between atoms: C_8  and  C_9 
ROOT
HETATM    1  N   UNL     1      -4.797   5.252 -32.396  1.00  0.00    -0.306 N 
HETATM    2  C   UNL     1      -5.338   4.013 -32.673  1.00  0.00     0.323 C 
HETATM    3  N   UNL     1      -6.367   3.605 -31.786  1.00  0.00    -0.324 N 
HETATM    4  C   UNL     1      -7.382   2.652 -32.304  1.00  0.00     0.139 C 
HETATM    5  C   UNL     1      -8.415   2.182 -31.249  1.00  0.00     0.032 C 
HETATM    6  C   UNL     1      -8.916   3.294 -30.350  1.00  0.00     0.004 C 
HETATM    7  C   UNL     1      -7.721   3.938 -29.680  1.00  0.00     0.020 C 
HETATM    8  C   UNL     1      -6.802   4.533 -30.733  1.00  0.00     0.128 C 
HETATM    9  O   UNL     1      -4.953   3.339 -33.623  1.00  0.00    -0.247 OA
HETATM   10  H   UNL     1      -5.427   5.960 -32.048  1.00  0.00     0.171 HD
ENDROOT
BRANCH   4  11
HETATM   11  C   UNL     1      -6.800   1.396 -32.894  1.00  0.00     0.033 A 
HETATM   12  N   UNL     1      -5.679   0.776 -32.392  1.00  0.00    -0.357 N 
HETATM   13  H   UNL     1      -5.102   1.151 -31.652  1.00  0.00     0.166 HD
HETATM   14  C   UNL     1      -5.432  -0.400 -33.065  1.00  0.00     0.042 A 
HETATM   15  C   UNL     1      -6.406  -0.516 -34.056  1.00  0.00    -0.007 A 
HETATM   16  C   UNL     1      -4.426  -1.355 -32.882  1.00  0.00     0.030 A 
HETATM   17  C   UNL     1      -7.250   0.620 -33.947  1.00  0.00     0.041 A 
HETATM   18  C   UNL     1      -6.379  -1.638 -34.906  1.00  0.00     0.014 A 
HETATM   19  C   UNL     1      -5.383  -2.605 -34.734  1.00  0.00     0.001 A 
HETATM   20  C   UNL     1      -4.422  -2.463 -33.735  1.00  0.00     0.002 A 
ENDBRANCH   4  11
BRANCH   1  21
HETATM   21  C   UNL     1      -3.615   5.789 -32.954  1.00  0.00     0.072 A 
HETATM   22  C   UNL     1      -3.108   6.973 -32.392  1.00  0.00     0.095 A 
HETATM   23  C   UNL     1      -1.893   7.515 -32.815  1.00  0.00     0.042 A 
HETATM   24  C   UNL     1      -1.191   6.885 -33.840  1.00  0.00     0.045 A 
HETATM   25  C   UNL     1      -1.706   5.727 -34.416  1.00  0.00     0.118 A 
HETATM   26  C   UNL     1      -2.909   5.172 -33.986  1.00  0.00     0.074 A 
HETATM   27  F   UNL     1      -1.015   5.123 -35.393  1.00  0.00    -0.206 F 
BRANCH  22  28
HETATM   28  O   UNL     1      -3.807   7.600 -31.386  1.00  0.00    -0.354 OA
HETATM   29  C   UNL     1      -3.071   7.504 -30.162  1.00  0.00     0.210 C 
ENDBRANCH  22  28
ENDBRANCH   1  21
TORSDOF 3
ENDMDL
MODEL 6
REMARK VINA RESULT:      -8.5      5.425      7.859
REMARK  3 active torsions:
REMARK  status: ('A' for Active; 'I' for Inactive)
REMARK    1  A    between atoms: O_2  and  C_3 
REMARK    2  A    between atoms: C_4  and  N_5 
REMARK       I    between atoms: N_5  and  C_6 
REMARK       I    between atoms: C_6  and  N_7 
REMARK    3  A    between atoms: C_8  and  C_9 
ROOT
HETATM    1  N   UNL     1      -2.686   3.593 -32.092  1.00  0.00    -0.306 N 
HETATM    2  C   UNL     1      -3.898   3.588 -31.432  1.00  0.00     0.323 C 
HETATM    3  N   UNL     1      -4.630   2.380 -31.549  1.00  0.00    -0.324 N 
HETATM    4  C   UNL     1      -5.581   2.044 -30.458  1.00  0.00     0.139 C 
HETATM    5  C   UNL     1      -6.411   0.759 -30.706  1.00  0.00     0.032 C 
HETATM    6  C   UNL     1      -5.605  -0.385 -31.287  1.00  0.00     0.004 C 
HETATM    7  C   UNL     1      -4.961   0.094 -32.572  1.00  0.00     0.020 C 
HETATM    8  C   UNL     1      -4.027   1.253 -32.275  1.00  0.00     0.128 C 
HETATM    9  O   UNL     1      -4.287   4.559 -30.790  1.00  0.00    -0.247 OA
HETATM   10  H   UNL     1      -2.167   2.727 -32.104  1.00  0.00     0.171 HD
ENDROOT
BRANCH   4  11
HETATM   11  C   UNL     1      -6.582   3.127 -30.162  1.00  0.00     0.033 A 
HETATM   12  N   UNL     1      -6.481   3.973 -29.082  1.00  0.00    -0.357 N 
HETATM   13  H   UNL     1      -5.787   3.888 -28.353  1.00  0.00     0.166 HD
HETATM   14  C   UNL     1      -7.478   4.923 -29.115  1.00  0.00     0.042 A 
HETATM   15  C   UNL     1      -8.266   4.650 -30.232  1.00  0.00    -0.007 A 
HETATM   16  C   UNL     1      -7.747   5.986 -28.245  1.00  0.00     0.030 A 
HETATM   17  C   UNL     1      -7.703   3.516 -30.874  1.00  0.00     0.041 A 
HETATM   18  C   UNL     1      -9.376   5.475 -30.499  1.00  0.00     0.014 A 
HETATM   19  C   UNL     1      -9.656   6.545 -29.642  1.00  0.00     0.001 A 
HETATM   20  C   UNL     1      -8.851   6.794 -28.532  1.00  0.00     0.002 A 
ENDBRANCH   4  11
BRANCH   1  21
HETATM   21  C   UNL     1      -1.879   4.725 -32.344  1.00  0.00     0.072 A 
HETATM   22  C   UNL     1      -1.873   5.243 -33.652  1.00  0.00     0.095 A 
HETATM   23  C   UNL     1      -1.185   6.417 -33.963  1.00  0.00     0.042 A 
HETATM   24  C   UNL     1      -0.462   7.065 -32.964  1.00  0.00     0.045 A 
HETATM   25  C   UNL     1      -0.445   6.537 -31.676  1.00  0.00     0.118 A 
HETATM   26  C   UNL     1      -1.144   5.376 -31.354  1.00  0.00     0.074 A 
HETATM   27  F   UNL     1       0.244   7.176 -30.720  1.00  0.00    -0.206 F 
BRANCH  22  28
HETATM   28  O   UNL     1      -2.579   4.598 -34.640  1.00  0.00    -0.354 OA
HETATM   29  C   UNL     1      -3.702   5.398 -35.024  1.00  0.00     0.210 C 
ENDBRANCH  22  28
ENDBRANCH   1  21
TORSDOF 3
ENDMDL
MODEL 7
REMARK VINA RESULT:      -8.4      3.536      6.384
REMARK  3 active torsions:
REMARK  status: ('A' for Active; 'I' for Inactive)
REMARK    1  A    between atoms: O_2  and  C_3 
REMARK    2  A    between atoms: C_4  and  N_5 
REMARK       I    between atoms: N_5  and  C_6 
REMARK       I    between atoms: C_6  and  N_7 
REMARK    3  A    between atoms: C_8  and  C_9 
ROOT
HETATM    1  N   UNL     1      -5.744  -0.850 -33.016  1.00  0.00    -0.306 N 
HETATM    2  C   UNL     1      -5.329   0.448 -32.791  1.00  0.00     0.323 C 
HETATM    3  N   UNL     1      -6.288   1.440 -33.116  1.00  0.00    -0.324 N 
HETATM    4  C   UNL     1      -6.210   2.734 -32.391  1.00  0.00     0.139 C 
HETATM    5  C   UNL     1      -7.230   3.798 -32.869  1.00  0.00     0.032 C 
HETATM    6  C   UNL     1      -8.615   3.241 -33.127  1.00  0.00     0.004 C 
HETATM    7  C   UNL     1      -8.495   2.120 -34.138  1.00  0.00     0.020 C 
HETATM    8  C   UNL     1      -7.618   1.016 -33.577  1.00  0.00     0.128 C 
HETATM    9  O   UNL     1      -4.218   0.699 -32.335  1.00  0.00    -0.247 OA
HETATM   10  H   UNL     1      -6.716  -1.057 -32.836  1.00  0.00     0.171 HD
ENDROOT
BRANCH   4  11
HETATM   11  C   UNL     1      -4.861   3.398 -32.466  1.00  0.00     0.033 A 
HETATM   12  N   UNL     1      -4.306   3.850 -33.640  1.00  0.00    -0.357 N 
HETATM   13  H   UNL     1      -4.706   3.699 -34.555  1.00  0.00     0.166 HD
HETATM   14  C   UNL     1      -3.117   4.499 -33.397  1.00  0.00     0.042 A 
HETATM   15  C   UNL     1      -2.883   4.424 -32.025  1.00  0.00    -0.007 A 
HETATM   16  C   UNL     1      -2.231   5.130 -34.279  1.00  0.00     0.030 A 
HETATM   17  C   UNL     1      -3.977   3.723 -31.453  1.00  0.00     0.041 A 
HETATM   18  C   UNL     1      -1.713   5.008 -31.502  1.00  0.00     0.014 A 
HETATM   19  C   UNL     1      -0.820   5.647 -32.368  1.00  0.00     0.001 A 
HETATM   20  C   UNL     1      -1.079   5.706 -33.736  1.00  0.00     0.002 A 
ENDBRANCH   4  11
BRANCH   1  21
HETATM   21  C   UNL     1      -4.923  -2.000 -33.014  1.00  0.00     0.072 A 
HETATM   22  C   UNL     1      -5.083  -2.917 -34.067  1.00  0.00     0.095 A 
HETATM   23  C   UNL     1      -4.246  -4.026 -34.196  1.00  0.00     0.042 A 
HETATM   24  C   UNL     1      -3.255  -4.243 -33.241  1.00  0.00     0.045 A 
HETATM   25  C   UNL     1      -3.114  -3.350 -32.182  1.00  0.00     0.118 A 
HETATM   26  C   UNL     1      -3.936  -2.231 -32.057  1.00  0.00     0.074 A 
HETATM   27  F   UNL     1      -2.150  -3.562 -31.276  1.00  0.00    -0.206 F 
BRANCH  22  28
HETATM   28  O   UNL     1      -6.068  -2.708 -35.004  1.00  0.00    -0.354 OA
HETATM   29  C   UNL     1      -6.696  -3.954 -35.323  1.00  0.00     0.210 C 
ENDBRANCH  22  28
ENDBRANCH   1  21
TORSDOF 3
ENDMDL
MODEL 8
REMARK VINA RESULT:      -8.3     14.014     16.097
REMARK  3 active torsions:
REMARK  status: ('A' for Active; 'I' for Inactive)
REMARK    1  A    between atoms: O_2  and  C_3 
REMARK    2  A    between atoms: C_4  and  N_5 
REMARK       I    between atoms: N_5  and  C_6 
REMARK       I    between atoms: C_6  and  N_7 
REMARK    3  A    between atoms: C_8  and  C_9 
ROOT
HETATM    1  N   UNL     1      -7.139 -14.052 -36.154  1.00  0.00    -0.306 N 
HETATM    2  C   UNL     1      -6.171 -13.760 -37.094  1.00  0.00     0.323 C 
HETATM    3  N   UNL     1      -6.675 -13.391 -38.367  1.00  0.00    -0.324 N 
HETATM    4  C   UNL     1      -5.825 -12.514 -39.214  1.00  0.00     0.139 C 
HETATM    5  C   UNL     1      -6.401 -12.234 -40.624  1.00  0.00     0.032 C 
HETATM    6  C   UNL     1      -7.890 -11.955 -40.630  1.00  0.00     0.004 C 
HETATM    7  C   UNL     1      -8.596 -13.130 -39.986  1.00  0.00     0.020 C 
HETATM    8  C   UNL     1      -8.129 -13.283 -38.549  1.00  0.00     0.128 C 
HETATM    9  O   UNL     1      -4.975 -13.811 -36.825  1.00  0.00    -0.247 OA
HETATM   10  H   UNL     1      -7.987 -13.505 -36.185  1.00  0.00     0.171 HD
ENDROOT
BRANCH   4  11
HETATM   11  C   UNL     1      -4.433 -13.040 -39.438  1.00  0.00     0.033 A 
HETATM   12  N   UNL     1      -3.331 -12.572 -38.762  1.00  0.00    -0.357 N 
HETATM   13  H   UNL     1      -3.342 -11.783 -38.130  1.00  0.00     0.166 HD
HETATM   14  C   UNL     1      -2.210 -13.299 -39.095  1.00  0.00     0.042 A 
HETATM   15  C   UNL     1      -2.602 -14.239 -40.047  1.00  0.00    -0.007 A 
HETATM   16  C   UNL     1      -0.891 -13.191 -38.642  1.00  0.00     0.030 A 
HETATM   17  C   UNL     1      -3.994 -14.061 -40.263  1.00  0.00     0.041 A 
HETATM   18  C   UNL     1      -1.635 -15.118 -40.573  1.00  0.00     0.014 A 
HETATM   19  C   UNL     1      -0.312 -15.027 -40.127  1.00  0.00     0.001 A 
HETATM   20  C   UNL     1       0.051 -14.077 -39.174  1.00  0.00     0.002 A 
ENDBRANCH   4  11
BRANCH   1  21
HETATM   21  C   UNL     1      -6.926 -14.673 -34.904  1.00  0.00     0.072 A 
HETATM   22  C   UNL     1      -7.118 -16.064 -34.825  1.00  0.00     0.095 A 
HETATM   23  C   UNL     1      -6.832 -16.771 -33.656  1.00  0.00     0.042 A 
HETATM   24  C   UNL     1      -6.381 -16.075 -32.537  1.00  0.00     0.045 A 
HETATM   25  C   UNL     1      -6.218 -14.694 -32.605  1.00  0.00     0.118 A 
HETATM   26  C   UNL     1      -6.484 -13.986 -33.774  1.00  0.00     0.074 A 
HETATM   27  F   UNL     1      -5.772 -14.038 -31.525  1.00  0.00    -0.206 F 
BRANCH  22  28
HETATM   28  O   UNL     1      -7.572 -16.749 -35.928  1.00  0.00    -0.354 OA
HETATM   29  C   UNL     1      -6.558 -17.655 -36.378  1.00  0.00     0.210 C 
ENDBRANCH  22  28
ENDBRANCH   1  21
TORSDOF 3
ENDMDL
MODEL 9
REMARK VINA RESULT:      -8.2      5.126      7.265
REMARK  3 active torsions:
REMARK  status: ('A' for Active; 'I' for Inactive)
REMARK    1  A    between atoms: O_2  and  C_3 
REMARK    2  A    between atoms: C_4  and  N_5 
REMARK       I    between atoms: N_5  and  C_6 
REMARK       I    between atoms: C_6  and  N_7 
REMARK    3  A    between atoms: C_8  and  C_9 
ROOT
HETATM    1  N   UNL     1      -2.627   3.436 -32.249  1.00  0.00    -0.306 N 
HETATM    2  C   UNL     1      -3.951   3.208 -31.928  1.00  0.00     0.323 C 
HETATM    3  N   UNL     1      -4.393   1.880 -32.152  1.00  0.00    -0.324 N 
HETATM    4  C   UNL     1      -5.524   1.385 -31.326  1.00  0.00     0.139 C 
HETATM    5  C   UNL     1      -6.011  -0.039 -31.695  1.00  0.00     0.032 C 
HETATM    6  C   UNL     1      -4.886  -1.016 -31.969  1.00  0.00     0.004 C 
HETATM    7  C   UNL     1      -4.018  -0.443 -33.071  1.00  0.00     0.020 C 
HETATM    8  C   UNL     1      -3.423   0.879 -32.619  1.00  0.00     0.128 C 
HETATM    9  O   UNL     1      -4.666   4.097 -31.477  1.00  0.00    -0.247 OA
HETATM   10  H   UNL     1      -1.977   2.685 -32.067  1.00  0.00     0.171 HD
ENDROOT
BRANCH   4  11
HETATM   11  C   UNL     1      -6.748   2.260 -31.374  1.00  0.00     0.033 A 
HETATM   12  N   UNL     1      -7.331   2.678 -32.547  1.00  0.00    -0.357 N 
HETATM   13  H   UNL     1      -6.946   2.514 -33.466  1.00  0.00     0.166 HD
HETATM   14  C   UNL     1      -8.487   3.382 -32.291  1.00  0.00     0.042 A 
HETATM   15  C   UNL     1      -8.625   3.451 -30.906  1.00  0.00    -0.007 A 
HETATM   16  C   UNL     1      -9.405   3.969 -33.170  1.00  0.00     0.030 A 
HETATM   17  C   UNL     1      -7.524   2.754 -30.341  1.00  0.00     0.041 A 
HETATM   18  C   UNL     1      -9.732   4.134 -30.366  1.00  0.00     0.014 A 
HETATM   19  C   UNL     1     -10.662   4.721 -31.230  1.00  0.00     0.001 A 
HETATM   20  C   UNL     1     -10.498   4.637 -32.611  1.00  0.00     0.002 A 
ENDBRANCH   4  11
BRANCH   1  21
HETATM   21  C   UNL     1      -2.001   4.698 -32.357  1.00  0.00     0.072 A 
HETATM   22  C   UNL     1      -1.991   5.314 -33.621  1.00  0.00     0.095 A 
HETATM   23  C   UNL     1      -1.484   6.603 -33.795  1.00  0.00     0.042 A 
HETATM   24  C   UNL     1      -0.947   7.274 -32.699  1.00  0.00     0.045 A 
HETATM   25  C   UNL     1      -0.931   6.653 -31.452  1.00  0.00     0.118 A 
HETATM   26  C   UNL     1      -1.451   5.374 -31.269  1.00  0.00     0.074 A 
HETATM   27  F   UNL     1      -0.422   7.313 -30.403  1.00  0.00    -0.206 F 
BRANCH  22  28
HETATM   28  O   UNL     1      -2.513   4.647 -34.705  1.00  0.00    -0.354 OA
HETATM   29  C   UNL     1      -3.713   5.301 -35.134  1.00  0.00     0.210 C 
ENDBRANCH  22  28
ENDBRANCH   1  21
TORSDOF 3
ENDMDL
MODEL 10
REMARK VINA RESULT:      -8.2      3.419      6.202
REMARK  3 active torsions:
REMARK  status: ('A' for Active; 'I' for Inactive)
REMARK    1  A    between atoms: O_2  and  C_3 
REMARK    2  A    between atoms: C_4  and  N_5 
REMARK       I    between atoms: N_5  and  C_6 
REMARK       I    between atoms: C_6  and  N_7 
REMARK    3  A    between atoms: C_8  and  C_9 
ROOT
HETATM    1  N   UNL     1      -5.586   2.447 -31.531  1.00  0.00    -0.306 N 
HETATM    2  C   UNL     1      -6.769   1.925 -32.015  1.00  0.00     0.323 C 
HETATM    3  N   UNL     1      -6.616   0.798 -32.860  1.00  0.00    -0.324 N 
HETATM    4  C   UNL     1      -7.746  -0.164 -32.934  1.00  0.00     0.139 C 
HETATM    5  C   UNL     1      -7.541  -1.316 -33.949  1.00  0.00     0.032 C 
HETATM    6  C   UNL     1      -6.144  -1.902 -33.932  1.00  0.00     0.004 C 
HETATM    7  C   UNL     1      -5.157  -0.782 -34.185  1.00  0.00     0.020 C 
HETATM    8  C   UNL     1      -5.268   0.257 -33.083  1.00  0.00     0.128 C 
HETATM    9  O   UNL     1      -7.856   2.407 -31.714  1.00  0.00    -0.247 OA
HETATM   10  H   UNL     1      -4.851   1.790 -31.313  1.00  0.00     0.171 HD
ENDROOT
BRANCH   4  11
HETATM   11  C   UNL     1      -9.065   0.466 -33.291  1.00  0.00     0.033 A 
HETATM   12  N   UNL     1      -9.181   1.556 -34.122  1.00  0.00    -0.357 N 
HETATM   13  H   UNL     1      -8.399   2.078 -34.489  1.00  0.00     0.166 HD
HETATM   14  C   UNL     1     -10.506   1.855 -34.348  1.00  0.00     0.042 A 
HETATM   15  C   UNL     1     -11.263   0.951 -33.605  1.00  0.00    -0.007 A 
HETATM   16  C   UNL     1     -11.087   2.855 -35.137  1.00  0.00     0.030 A 
HETATM   17  C   UNL     1     -10.350   0.092 -32.938  1.00  0.00     0.041 A 
HETATM   18  C   UNL     1     -12.667   1.042 -33.649  1.00  0.00     0.014 A 
HETATM   19  C   UNL     1     -13.265   2.031 -34.437  1.00  0.00     0.001 A 
HETATM   20  C   UNL     1     -12.484   2.923 -35.169  1.00  0.00     0.002 A 
ENDBRANCH   4  11
BRANCH   1  21
HETATM   21  C   UNL     1      -5.428   3.691 -30.881  1.00  0.00     0.072 A 
HETATM   22  C   UNL     1      -4.837   4.738 -31.611  1.00  0.00     0.095 A 
HETATM   23  C   UNL     1      -4.736   6.025 -31.080  1.00  0.00     0.042 A 
HETATM   24  C   UNL     1      -5.199   6.263 -29.788  1.00  0.00     0.045 A 
HETATM   25  C   UNL     1      -5.758   5.221 -29.054  1.00  0.00     0.118 A 
HETATM   26  C   UNL     1      -5.879   3.938 -29.585  1.00  0.00     0.074 A 
HETATM   27  F   UNL     1      -6.211   5.465 -27.817  1.00  0.00    -0.206 F 
BRANCH  22  28
HETATM   28  O   UNL     1      -4.372   4.499 -32.883  1.00  0.00    -0.354 OA
HETATM   29  C   UNL     1      -5.176   5.216 -33.827  1.00  0.00     0.210 C 
ENDBRANCH  22  28
ENDBRANCH   1  21
TORSDOF 3
ENDMDL
