MODEL 1
REMARK VINA RESULT:      -7.8      0.000      0.000
REMARK  3 active torsions:
REMARK  status: ('A' for Active; 'I' for Inactive)
REMARK    1  A    between atoms: C_6  and  C_7 
REMARK       I    between atoms: C_7  and  N_8 
REMARK    2  A    between atoms: N_8  and  C_9 
REMARK    3  A    between atoms: C_12  and  C_13 
REMARK       I    between atoms: C_13  and  N_14 
ROOT
HETATM    1  C   UNL     1      -5.458   0.134 -32.235  1.00  0.00     0.257 C 
HETATM    2  N   UNL     1      -4.933   1.227 -32.897  1.00  0.00    -0.322 N 
HETATM    3  O   UNL     1      -5.739   0.055 -31.048  1.00  0.00    -0.267 OA
HETATM    4  H   UNL     1      -4.751   1.117 -33.888  1.00  0.00     0.169 HD
ENDROOT
BRANCH   2   5
HETATM    5  C   UNL     1      -4.622   2.477 -32.326  1.00  0.00     0.052 A 
HETATM    6  C   UNL     1      -5.558   3.454 -31.982  1.00  0.00     0.147 A 
HETATM    7  N   UNL     1      -5.245   4.652 -31.422  1.00  0.00    -0.253 NA
HETATM    8  C   UNL     1      -3.924   4.890 -31.201  1.00  0.00     0.124 A 
HETATM    9  C   UNL     1      -2.916   3.988 -31.513  1.00  0.00     0.039 A 
HETATM   10  C   UNL     1      -3.277   2.765 -32.079  1.00  0.00     0.033 A 
BRANCH   8  11
HETATM   11  C   UNL     1      -3.581   6.208 -30.580  1.00  0.00     0.268 C 
HETATM   12  N   UNL     1      -2.375   6.249 -29.933  1.00  0.00    -0.365 N 
HETATM   13  H   UNL     1      -1.798   5.415 -29.906  1.00  0.00     0.159 HD
HETATM   14  H   UNL     1      -2.069   7.103 -29.492  1.00  0.00     0.159 HD
HETATM   15  O   UNL     1      -4.317   7.184 -30.648  1.00  0.00    -0.266 OA
ENDBRANCH   8  11
ENDBRANCH   2   5
BRANCH   1  16
HETATM   16  C   UNL     1      -5.664  -1.056 -33.104  1.00  0.00     0.044 A 
HETATM   17  C   UNL     1      -4.603  -1.972 -33.260  1.00  0.00    -0.045 A 
HETATM   18  C   UNL     1      -4.800  -3.107 -34.061  1.00  0.00     0.014 A 
HETATM   19  C   UNL     1      -3.280  -1.785 -32.565  1.00  0.00     0.049 C 
HETATM   20  C   UNL     1      -6.023  -3.332 -34.704  1.00  0.00    -0.061 A 
HETATM   21  C   UNL     1      -6.204  -4.539 -35.579  1.00  0.00     0.048 C 
HETATM   22  C   UNL     1      -7.057  -2.401 -34.557  1.00  0.00     0.014 A 
HETATM   23  C   UNL     1      -6.905  -1.269 -33.740  1.00  0.00    -0.045 A 
HETATM   24  C   UNL     1      -8.066  -0.326 -33.584  1.00  0.00     0.049 C 
ENDBRANCH   1  16
TORSDOF 3
ENDMDL
MODEL 2
REMARK VINA RESULT:      -7.8      0.086      1.903
REMARK  3 active torsions:
REMARK  status: ('A' for Active; 'I' for Inactive)
REMARK    1  A    between atoms: C_6  and  C_7 
REMARK       I    between atoms: C_7  and  N_8 
REMARK    2  A    between atoms: N_8  and  C_9 
REMARK    3  A    between atoms: C_12  and  C_13 
REMARK       I    between atoms: C_13  and  N_14 
ROOT
HETATM    1  C   UNL     1      -5.473   0.147 -32.239  1.00  0.00     0.257 C 
HETATM    2  N   UNL     1      -4.920   1.223 -32.907  1.00  0.00    -0.322 N 
HETATM    3  O   UNL     1      -5.801   0.100 -31.062  1.00  0.00    -0.267 OA
HETATM    4  H   UNL     1      -4.699   1.087 -33.887  1.00  0.00     0.169 HD
ENDROOT
BRANCH   2   5
HETATM    5  C   UNL     1      -4.629   2.487 -32.357  1.00  0.00     0.052 A 
HETATM    6  C   UNL     1      -5.574   3.477 -32.084  1.00  0.00     0.147 A 
HETATM    7  N   UNL     1      -5.281   4.688 -31.543  1.00  0.00    -0.253 NA
HETATM    8  C   UNL     1      -3.971   4.926 -31.266  1.00  0.00     0.124 A 
HETATM    9  C   UNL     1      -2.955   4.011 -31.505  1.00  0.00     0.039 A 
HETATM   10  C   UNL     1      -3.295   2.775 -32.054  1.00  0.00     0.033 A 
BRANCH   8  11
HETATM   11  C   UNL     1      -3.650   6.259 -30.666  1.00  0.00     0.268 C 
HETATM   12  N   UNL     1      -2.530   6.288 -29.879  1.00  0.00    -0.365 N 
HETATM   13  H   UNL     1      -1.995   5.436 -29.746  1.00  0.00     0.159 HD
HETATM   14  H   UNL     1      -2.243   7.151 -29.441  1.00  0.00     0.159 HD
HETATM   15  O   UNL     1      -4.331   7.256 -30.865  1.00  0.00    -0.266 OA
ENDBRANCH   8  11
ENDBRANCH   2   5
BRANCH   1  16
HETATM   16  C   UNL     1      -5.647  -1.064 -33.084  1.00  0.00     0.044 A 
HETATM   17  C   UNL     1      -6.878  -1.260 -33.743  1.00  0.00    -0.045 A 
HETATM   18  C   UNL     1      -7.038  -2.391 -34.558  1.00  0.00     0.014 A 
HETATM   19  C   UNL     1      -8.011  -0.275 -33.625  1.00  0.00     0.049 C 
HETATM   20  C   UNL     1      -6.001  -3.318 -34.716  1.00  0.00    -0.061 A 
HETATM   21  C   UNL     1      -6.202  -4.536 -35.572  1.00  0.00     0.048 C 
HETATM   22  C   UNL     1      -4.794  -3.121 -34.037  1.00  0.00     0.014 A 
HETATM   23  C   UNL     1      -4.589  -1.985 -33.236  1.00  0.00    -0.045 A 
HETATM   24  C   UNL     1      -3.255  -1.803 -32.566  1.00  0.00     0.049 C 
ENDBRANCH   1  16
TORSDOF 3
ENDMDL
MODEL 3
REMARK VINA RESULT:      -7.6      3.469      4.220
REMARK  3 active torsions:
REMARK  status: ('A' for Active; 'I' for Inactive)
REMARK    1  A    between atoms: C_6  and  C_7 
REMARK       I    between atoms: C_7  and  N_8 
REMARK    2  A    between atoms: N_8  and  C_9 
REMARK    3  A    between atoms: C_12  and  C_13 
REMARK       I    between atoms: C_13  and  N_14 
ROOT
HETATM    1  C   UNL     1      -5.989   0.277 -32.928  1.00  0.00     0.257 C 
HETATM    2  N   UNL     1      -7.090   0.178 -32.099  1.00  0.00    -0.322 N 
HETATM    3  O   UNL     1      -5.564   1.286 -33.473  1.00  0.00    -0.267 OA
HETATM    4  H   UNL     1      -7.307  -0.743 -31.737  1.00  0.00     0.169 HD
ENDROOT
BRANCH   2   5
HETATM    5  C   UNL     1      -7.940   1.233 -31.713  1.00  0.00     0.052 A 
HETATM    6  C   UNL     1      -9.200   1.485 -32.259  1.00  0.00     0.147 A 
HETATM    7  N   UNL     1     -10.015   2.500 -31.869  1.00  0.00    -0.253 NA
HETATM    8  C   UNL     1      -9.542   3.312 -30.885  1.00  0.00     0.124 A 
HETATM    9  C   UNL     1      -8.302   3.151 -30.283  1.00  0.00     0.039 A 
HETATM   10  C   UNL     1      -7.497   2.092 -30.704  1.00  0.00     0.033 A 
BRANCH   8  11
HETATM   11  C   UNL     1     -10.442   4.428 -30.454  1.00  0.00     0.268 C 
HETATM   12  N   UNL     1     -11.708   4.049 -30.096  1.00  0.00    -0.365 N 
HETATM   13  H   UNL     1     -11.963   3.067 -30.141  1.00  0.00     0.159 HD
HETATM   14  H   UNL     1     -12.374   4.741 -29.790  1.00  0.00     0.159 HD
HETATM   15  O   UNL     1     -10.077   5.596 -30.417  1.00  0.00    -0.266 OA
ENDBRANCH   8  11
ENDBRANCH   2   5
BRANCH   1  16
HETATM   16  C   UNL     1      -5.295  -1.017 -33.168  1.00  0.00     0.044 A 
HETATM   17  C   UNL     1      -4.195  -1.357 -32.353  1.00  0.00    -0.045 A 
HETATM   18  C   UNL     1      -3.552  -2.587 -32.563  1.00  0.00     0.014 A 
HETATM   19  C   UNL     1      -3.716  -0.458 -31.245  1.00  0.00     0.049 C 
HETATM   20  C   UNL     1      -3.983  -3.464 -33.564  1.00  0.00    -0.061 A 
HETATM   21  C   UNL     1      -3.263  -4.763 -33.789  1.00  0.00     0.048 C 
HETATM   22  C   UNL     1      -5.061  -3.100 -34.379  1.00  0.00     0.014 A 
HETATM   23  C   UNL     1      -5.746  -1.891 -34.179  1.00  0.00    -0.045 A 
HETATM   24  C   UNL     1      -6.926  -1.573 -35.056  1.00  0.00     0.049 C 
ENDBRANCH   1  16
TORSDOF 3
ENDMDL
MODEL 4
REMARK VINA RESULT:      -7.5      2.450      3.527
REMARK  3 active torsions:
REMARK  status: ('A' for Active; 'I' for Inactive)
REMARK    1  A    between atoms: C_6  and  C_7 
REMARK       I    between atoms: C_7  and  N_8 
REMARK    2  A    between atoms: N_8  and  C_9 
REMARK    3  A    between atoms: C_12  and  C_13 
REMARK       I    between atoms: C_13  and  N_14 
ROOT
HETATM    1  C   UNL     1      -6.035   1.165 -32.832  1.00  0.00     0.257 C 
HETATM    2  N   UNL     1      -6.541   1.192 -31.546  1.00  0.00    -0.322 N 
HETATM    3  O   UNL     1      -5.678   2.121 -33.504  1.00  0.00    -0.267 OA
HETATM    4  H   UNL     1      -6.797   0.301 -31.137  1.00  0.00     0.169 HD
ENDROOT
BRANCH   2   5
HETATM    5  C   UNL     1      -6.739   2.339 -30.752  1.00  0.00     0.052 A 
HETATM    6  C   UNL     1      -5.726   3.047 -30.103  1.00  0.00     0.147 A 
HETATM    7  N   UNL     1      -5.931   4.158 -29.348  1.00  0.00    -0.253 NA
HETATM    8  C   UNL     1      -7.218   4.581 -29.229  1.00  0.00     0.124 A 
HETATM    9  C   UNL     1      -8.296   3.944 -29.829  1.00  0.00     0.039 A 
HETATM   10  C   UNL     1      -8.046   2.811 -30.603  1.00  0.00     0.033 A 
BRANCH   8  11
HETATM   11  C   UNL     1      -7.442   5.807 -28.401  1.00  0.00     0.268 C 
HETATM   12  N   UNL     1      -8.711   6.316 -28.446  1.00  0.00    -0.365 N 
HETATM   13  H   UNL     1      -9.411   5.854 -29.018  1.00  0.00     0.159 HD
HETATM   14  H   UNL     1      -8.945   7.139 -27.911  1.00  0.00     0.159 HD
HETATM   15  O   UNL     1      -6.558   6.320 -27.726  1.00  0.00    -0.266 OA
ENDBRANCH   8  11
ENDBRANCH   2   5
BRANCH   1  16
HETATM   16  C   UNL     1      -5.959  -0.198 -33.422  1.00  0.00     0.044 A 
HETATM   17  C   UNL     1      -7.089  -0.711 -34.091  1.00  0.00    -0.045 A 
HETATM   18  C   UNL     1      -7.014  -1.988 -34.667  1.00  0.00     0.014 A 
HETATM   19  C   UNL     1      -8.360   0.084 -34.233  1.00  0.00     0.049 C 
HETATM   20  C   UNL     1      -5.843  -2.751 -34.581  1.00  0.00    -0.061 A 
HETATM   21  C   UNL     1      -5.793  -4.126 -35.182  1.00  0.00     0.048 C 
HETATM   22  C   UNL     1      -4.738  -2.236 -33.894  1.00  0.00     0.014 A 
HETATM   23  C   UNL     1      -4.768  -0.950 -33.329  1.00  0.00    -0.045 A 
HETATM   24  C   UNL     1      -3.535  -0.432 -32.641  1.00  0.00     0.049 C 
ENDBRANCH   1  16
TORSDOF 3
ENDMDL
MODEL 5
REMARK VINA RESULT:      -7.4      1.830      2.852
REMARK  3 active torsions:
REMARK  status: ('A' for Active; 'I' for Inactive)
REMARK    1  A    between atoms: C_6  and  C_7 
REMARK       I    between atoms: C_7  and  N_8 
REMARK    2  A    between atoms: N_8  and  C_9 
REMARK    3  A    between atoms: C_12  and  C_13 
REMARK       I    between atoms: C_13  and  N_14 
ROOT
HETATM    1  C   UNL     1      -4.792   2.079 -32.284  1.00  0.00     0.257 C 
HETATM    2  N   UNL     1      -3.872   2.835 -32.984  1.00  0.00    -0.322 N 
HETATM    3  O   UNL     1      -5.361   2.385 -31.246  1.00  0.00    -0.267 OA
HETATM    4  H   UNL     1      -3.490   2.424 -33.827  1.00  0.00     0.169 HD
ENDROOT
BRANCH   2   5
HETATM    5  C   UNL     1      -3.412   4.121 -32.637  1.00  0.00     0.052 A 
HETATM    6  C   UNL     1      -3.975   5.319 -33.080  1.00  0.00     0.147 A 
HETATM    7  N   UNL     1      -3.527   6.552 -32.728  1.00  0.00    -0.253 NA
HETATM    8  C   UNL     1      -2.454   6.591 -31.894  1.00  0.00     0.124 A 
HETATM    9  C   UNL     1      -1.818   5.459 -31.403  1.00  0.00     0.039 A 
HETATM   10  C   UNL     1      -2.311   4.210 -31.780  1.00  0.00     0.033 A 
BRANCH   8  11
HETATM   11  C   UNL     1      -1.964   7.951 -31.503  1.00  0.00     0.268 C 
HETATM   12  N   UNL     1      -1.577   8.077 -30.197  1.00  0.00    -0.365 N 
HETATM   13  H   UNL     1      -1.642   7.273 -29.580  1.00  0.00     0.159 HD
HETATM   14  H   UNL     1      -1.231   8.961 -29.856  1.00  0.00     0.159 HD
HETATM   15  O   UNL     1      -1.904   8.885 -32.293  1.00  0.00    -0.266 OA
ENDBRANCH   8  11
ENDBRANCH   2   5
BRANCH   1  16
HETATM   16  C   UNL     1      -5.067   0.749 -32.890  1.00  0.00     0.044 A 
HETATM   17  C   UNL     1      -6.117   0.634 -33.826  1.00  0.00    -0.045 A 
HETATM   18  C   UNL     1      -6.365  -0.615 -34.415  1.00  0.00     0.014 A 
HETATM   19  C   UNL     1      -6.953   1.818 -34.234  1.00  0.00     0.049 C 
HETATM   20  C   UNL     1      -5.594  -1.735 -34.084  1.00  0.00    -0.061 A 
HETATM   21  C   UNL     1      -5.894  -3.068 -34.707  1.00  0.00     0.048 C 
HETATM   22  C   UNL     1      -4.572  -1.608 -33.136  1.00  0.00     0.014 A 
HETATM   23  C   UNL     1      -4.277  -0.368 -32.548  1.00  0.00    -0.045 A 
HETATM   24  C   UNL     1      -3.137  -0.284 -31.569  1.00  0.00     0.049 C 
ENDBRANCH   1  16
TORSDOF 3
ENDMDL
MODEL 6
REMARK VINA RESULT:      -7.4      2.573      2.885
REMARK  3 active torsions:
REMARK  status: ('A' for Active; 'I' for Inactive)
REMARK    1  A    between atoms: C_6  and  C_7 
REMARK       I    between atoms: C_7  and  N_8 
REMARK    2  A    between atoms: N_8  and  C_9 
REMARK    3  A    between atoms: C_12  and  C_13 
REMARK       I    between atoms: C_13  and  N_14 
ROOT
HETATM    1  C   UNL     1      -6.055   1.374 -32.863  1.00  0.00     0.257 C 
HETATM    2  N   UNL     1      -6.606   1.378 -31.596  1.00  0.00    -0.322 N 
HETATM    3  O   UNL     1      -5.690   2.344 -33.511  1.00  0.00    -0.267 OA
HETATM    4  H   UNL     1      -6.863   0.478 -31.207  1.00  0.00     0.169 HD
ENDROOT
BRANCH   2   5
HETATM    5  C   UNL     1      -6.851   2.512 -30.796  1.00  0.00     0.052 A 
HETATM    6  C   UNL     1      -8.109   3.067 -30.558  1.00  0.00     0.147 A 
HETATM    7  N   UNL     1      -8.331   4.154 -29.775  1.00  0.00    -0.253 NA
HETATM    8  C   UNL     1      -7.235   4.724 -29.206  1.00  0.00     0.124 A 
HETATM    9  C   UNL     1      -5.942   4.255 -29.386  1.00  0.00     0.039 A 
HETATM   10  C   UNL     1      -5.754   3.130 -30.189  1.00  0.00     0.033 A 
BRANCH   8  11
HETATM   11  C   UNL     1      -7.481   5.921 -28.341  1.00  0.00     0.268 C 
HETATM   12  N   UNL     1      -8.766   6.394 -28.355  1.00  0.00    -0.365 N 
HETATM   13  H   UNL     1      -9.460   5.929 -28.931  1.00  0.00     0.159 HD
HETATM   14  H   UNL     1      -9.014   7.195 -27.795  1.00  0.00     0.159 HD
HETATM   15  O   UNL     1      -6.604   6.439 -27.662  1.00  0.00    -0.266 OA
ENDBRANCH   8  11
ENDBRANCH   2   5
BRANCH   1  16
HETATM   16  C   UNL     1      -5.937   0.020 -33.466  1.00  0.00     0.044 A 
HETATM   17  C   UNL     1      -4.776  -0.739 -33.207  1.00  0.00    -0.045 A 
HETATM   18  C   UNL     1      -4.671  -2.025 -33.757  1.00  0.00     0.014 A 
HETATM   19  C   UNL     1      -3.666  -0.222 -32.331  1.00  0.00     0.049 C 
HETATM   20  C   UNL     1      -5.691  -2.554 -34.556  1.00  0.00    -0.061 A 
HETATM   21  C   UNL     1      -5.547  -3.923 -35.156  1.00  0.00     0.048 C 
HETATM   22  C   UNL     1      -6.826  -1.779 -34.822  1.00  0.00     0.014 A 
HETATM   23  C   UNL     1      -6.978  -0.499 -34.264  1.00  0.00    -0.045 A 
HETATM   24  C   UNL     1      -8.239   0.270 -34.550  1.00  0.00     0.049 C 
ENDBRANCH   1  16
TORSDOF 3
ENDMDL
MODEL 7
REMARK VINA RESULT:      -7.2      4.153      6.313
REMARK  3 active torsions:
REMARK  status: ('A' for Active; 'I' for Inactive)
REMARK    1  A    between atoms: C_6  and  C_7 
REMARK       I    between atoms: C_7  and  N_8 
REMARK    2  A    between atoms: N_8  and  C_9 
REMARK    3  A    between atoms: C_12  and  C_13 
REMARK       I    between atoms: C_13  and  N_14 
ROOT
HETATM    1  C   UNL     1      -7.304   1.106 -33.193  1.00  0.00     0.257 C 
HETATM    2  N   UNL     1      -8.510   0.787 -32.600  1.00  0.00    -0.322 N 
HETATM    3  O   UNL     1      -7.080   2.036 -33.955  1.00  0.00    -0.267 OA
HETATM    4  H   UNL     1      -8.522  -0.028 -31.998  1.00  0.00     0.169 HD
ENDROOT
BRANCH   2   5
HETATM    5  C   UNL     1      -9.726   1.483 -32.755  1.00  0.00     0.052 A 
HETATM    6  C   UNL     1     -10.014   2.726 -32.189  1.00  0.00     0.147 A 
HETATM    7  N   UNL     1     -11.187   3.391 -32.356  1.00  0.00    -0.253 NA
HETATM    8  C   UNL     1     -12.127   2.776 -33.124  1.00  0.00     0.124 A 
HETATM    9  C   UNL     1     -11.942   1.539 -33.725  1.00  0.00     0.039 A 
HETATM   10  C   UNL     1     -10.721   0.890 -33.538  1.00  0.00     0.033 A 
BRANCH   8  11
HETATM   11  C   UNL     1     -13.417   3.512 -33.310  1.00  0.00     0.268 C 
HETATM   12  N   UNL     1     -13.475   4.314 -34.417  1.00  0.00    -0.365 N 
HETATM   13  H   UNL     1     -12.669   4.370 -35.032  1.00  0.00     0.159 HD
HETATM   14  H   UNL     1     -14.312   4.841 -34.616  1.00  0.00     0.159 HD
HETATM   15  O   UNL     1     -14.359   3.402 -32.535  1.00  0.00    -0.266 OA
ENDBRANCH   8  11
ENDBRANCH   2   5
BRANCH   1  16
HETATM   16  C   UNL     1      -6.198   0.172 -32.852  1.00  0.00     0.044 A 
HETATM   17  C   UNL     1      -5.972  -0.943 -33.685  1.00  0.00    -0.045 A 
HETATM   18  C   UNL     1      -4.915  -1.815 -33.379  1.00  0.00     0.014 A 
HETATM   19  C   UNL     1      -6.807  -1.205 -34.910  1.00  0.00     0.049 C 
HETATM   20  C   UNL     1      -4.098  -1.593 -32.264  1.00  0.00    -0.061 A 
HETATM   21  C   UNL     1      -2.990  -2.553 -31.939  1.00  0.00     0.048 C 
HETATM   22  C   UNL     1      -4.351  -0.495 -31.435  1.00  0.00     0.014 A 
HETATM   23  C   UNL     1      -5.381   0.414 -31.728  1.00  0.00    -0.045 A 
HETATM   24  C   UNL     1      -5.577   1.602 -30.826  1.00  0.00     0.049 C 
ENDBRANCH   1  16
TORSDOF 3
ENDMDL
MODEL 8
REMARK VINA RESULT:      -7.2      4.161      6.257
REMARK  3 active torsions:
REMARK  status: ('A' for Active; 'I' for Inactive)
REMARK    1  A    between atoms: C_6  and  C_7 
REMARK       I    between atoms: C_7  and  N_8 
REMARK    2  A    between atoms: N_8  and  C_9 
REMARK    3  A    between atoms: C_12  and  C_13 
REMARK       I    between atoms: C_13  and  N_14 
ROOT
HETATM    1  C   UNL     1      -7.281   1.191 -33.166  1.00  0.00     0.257 C 
HETATM    2  N   UNL     1      -8.500   0.817 -32.633  1.00  0.00    -0.322 N 
HETATM    3  O   UNL     1      -7.048   2.175 -33.853  1.00  0.00    -0.267 OA
HETATM    4  H   UNL     1      -8.518  -0.039 -32.091  1.00  0.00     0.169 HD
ENDROOT
BRANCH   2   5
HETATM    5  C   UNL     1      -9.719   1.509 -32.773  1.00  0.00     0.052 A 
HETATM    6  C   UNL     1     -10.014   2.738 -32.181  1.00  0.00     0.147 A 
HETATM    7  N   UNL     1     -11.191   3.400 -32.334  1.00  0.00    -0.253 NA
HETATM    8  C   UNL     1     -12.127   2.796 -33.114  1.00  0.00     0.124 A 
HETATM    9  C   UNL     1     -11.935   1.573 -33.741  1.00  0.00     0.039 A 
HETATM   10  C   UNL     1     -10.711   0.927 -33.568  1.00  0.00     0.033 A 
BRANCH   8  11
HETATM   11  C   UNL     1     -13.422   3.528 -33.285  1.00  0.00     0.268 C 
HETATM   12  N   UNL     1     -13.505   4.310 -34.405  1.00  0.00    -0.365 N 
HETATM   13  H   UNL     1     -12.713   4.355 -35.039  1.00  0.00     0.159 HD
HETATM   14  H   UNL     1     -14.346   4.833 -34.595  1.00  0.00     0.159 HD
HETATM   15  O   UNL     1     -14.346   3.433 -32.488  1.00  0.00    -0.266 OA
ENDBRANCH   8  11
ENDBRANCH   2   5
BRANCH   1  16
HETATM   16  C   UNL     1      -6.173   0.247 -32.861  1.00  0.00     0.044 A 
HETATM   17  C   UNL     1      -5.398   0.463 -31.703  1.00  0.00    -0.045 A 
HETATM   18  C   UNL     1      -4.366  -0.438 -31.400  1.00  0.00     0.014 A 
HETATM   19  C   UNL     1      -5.669   1.611 -30.766  1.00  0.00     0.049 C 
HETATM   20  C   UNL     1      -4.097  -1.532 -32.230  1.00  0.00    -0.061 A 
HETATM   21  C   UNL     1      -2.971  -2.469 -31.902  1.00  0.00     0.048 C 
HETATM   22  C   UNL     1      -4.861  -1.719 -33.387  1.00  0.00     0.014 A 
HETATM   23  C   UNL     1      -5.921  -0.854 -33.706  1.00  0.00    -0.045 A 
HETATM   24  C   UNL     1      -6.736  -1.131 -34.940  1.00  0.00     0.049 C 
ENDBRANCH   1  16
TORSDOF 3
ENDMDL
MODEL 9
REMARK VINA RESULT:      -7.1      1.873      3.006
REMARK  3 active torsions:
REMARK  status: ('A' for Active; 'I' for Inactive)
REMARK    1  A    between atoms: C_6  and  C_7 
REMARK       I    between atoms: C_7  and  N_8 
REMARK    2  A    between atoms: N_8  and  C_9 
REMARK    3  A    between atoms: C_12  and  C_13 
REMARK       I    between atoms: C_13  and  N_14 
ROOT
HETATM    1  C   UNL     1      -6.014   0.505 -32.609  1.00  0.00     0.257 C 
HETATM    2  N   UNL     1      -5.314   1.617 -33.036  1.00  0.00    -0.322 N 
HETATM    3  O   UNL     1      -7.053   0.490 -31.966  1.00  0.00    -0.267 OA
HETATM    4  H   UNL     1      -4.460   1.447 -33.555  1.00  0.00     0.169 HD
ENDROOT
BRANCH   2   5
HETATM    5  C   UNL     1      -5.670   2.962 -32.816  1.00  0.00     0.052 A 
HETATM    6  C   UNL     1      -5.686   3.592 -31.570  1.00  0.00     0.147 A 
HETATM    7  N   UNL     1      -6.021   4.893 -31.374  1.00  0.00    -0.253 NA
HETATM    8  C   UNL     1      -6.368   5.603 -32.482  1.00  0.00     0.124 A 
HETATM    9  C   UNL     1      -6.392   5.068 -33.762  1.00  0.00     0.039 A 
HETATM   10  C   UNL     1      -6.033   3.730 -33.926  1.00  0.00     0.033 A 
BRANCH   8  11
HETATM   11  C   UNL     1      -6.734   7.038 -32.264  1.00  0.00     0.268 C 
HETATM   12  N   UNL     1      -7.975   7.396 -32.717  1.00  0.00    -0.365 N 
HETATM   13  H   UNL     1      -8.562   6.698 -33.162  1.00  0.00     0.159 HD
HETATM   14  H   UNL     1      -8.299   8.345 -32.604  1.00  0.00     0.159 HD
HETATM   15  O   UNL     1      -5.985   7.836 -31.717  1.00  0.00    -0.266 OA
ENDBRANCH   8  11
ENDBRANCH   2   5
BRANCH   1  16
HETATM   16  C   UNL     1      -5.378  -0.788 -32.979  1.00  0.00     0.044 A 
HETATM   17  C   UNL     1      -5.921  -1.529 -34.049  1.00  0.00    -0.045 A 
HETATM   18  C   UNL     1      -5.311  -2.739 -34.414  1.00  0.00     0.014 A 
HETATM   19  C   UNL     1      -7.113  -1.043 -34.831  1.00  0.00     0.049 C 
HETATM   20  C   UNL     1      -4.186  -3.214 -33.731  1.00  0.00    -0.061 A 
HETATM   21  C   UNL     1      -3.564  -4.524 -34.121  1.00  0.00     0.048 C 
HETATM   22  C   UNL     1      -3.674  -2.478 -32.657  1.00  0.00     0.014 A 
HETATM   23  C   UNL     1      -4.241  -1.249 -32.282  1.00  0.00    -0.045 A 
HETATM   24  C   UNL     1      -3.621  -0.480 -31.148  1.00  0.00     0.049 C 
ENDBRANCH   1  16
TORSDOF 3
ENDMDL
MODEL 10
REMARK VINA RESULT:      -7.1      3.517      4.569
REMARK  3 active torsions:
REMARK  status: ('A' for Active; 'I' for Inactive)
REMARK    1  A    between atoms: C_6  and  C_7 
REMARK       I    between atoms: C_7  and  N_8 
REMARK    2  A    between atoms: N_8  and  C_9 
REMARK    3  A    between atoms: C_12  and  C_13 
REMARK       I    between atoms: C_13  and  N_14 
ROOT
HETATM    1  C   UNL     1      -6.104   0.490 -32.938  1.00  0.00     0.257 C 
HETATM    2  N   UNL     1      -7.261   0.399 -32.188  1.00  0.00    -0.322 N 
HETATM    3  O   UNL     1      -5.644   1.491 -33.466  1.00  0.00    -0.267 OA
HETATM    4  H   UNL     1      -7.502  -0.517 -31.829  1.00  0.00     0.169 HD
ENDROOT
BRANCH   2   5
HETATM    5  C   UNL     1      -8.140   1.457 -31.880  1.00  0.00     0.052 A 
HETATM    6  C   UNL     1      -9.299   1.768 -32.593  1.00  0.00     0.147 A 
HETATM    7  N   UNL     1     -10.143   2.784 -32.278  1.00  0.00    -0.253 NA
HETATM    8  C   UNL     1      -9.807   3.536 -31.195  1.00  0.00     0.124 A 
HETATM    9  C   UNL     1      -8.674   3.314 -30.425  1.00  0.00     0.039 A 
HETATM   10  C   UNL     1      -7.835   2.256 -30.774  1.00  0.00     0.033 A 
BRANCH   8  11
HETATM   11  C   UNL     1     -10.740   4.654 -30.847  1.00  0.00     0.268 C 
HETATM   12  N   UNL     1     -10.238   5.912 -31.041  1.00  0.00    -0.365 N 
HETATM   13  H   UNL     1      -9.293   6.020 -31.396  1.00  0.00     0.159 HD
HETATM   14  H   UNL     1     -10.806   6.720 -30.834  1.00  0.00     0.159 HD
HETATM   15  O   UNL     1     -11.873   4.463 -30.424  1.00  0.00    -0.266 OA
ENDBRANCH   8  11
ENDBRANCH   2   5
BRANCH   1  16
HETATM   16  C   UNL     1      -5.392  -0.805 -33.108  1.00  0.00     0.044 A 
HETATM   17  C   UNL     1      -5.807  -1.677 -34.136  1.00  0.00    -0.045 A 
HETATM   18  C   UNL     1      -5.124  -2.890 -34.313  1.00  0.00     0.014 A 
HETATM   19  C   UNL     1      -6.937  -1.328 -35.068  1.00  0.00     0.049 C 
HETATM   20  C   UNL     1      -4.052  -3.241 -33.485  1.00  0.00    -0.061 A 
HETATM   21  C   UNL     1      -3.352  -4.556 -33.675  1.00  0.00     0.048 C 
HETATM   22  C   UNL     1      -3.668  -2.375 -32.455  1.00  0.00     0.014 A 
HETATM   23  C   UNL     1      -4.310  -1.140 -32.267  1.00  0.00    -0.045 A 
HETATM   24  C   UNL     1      -3.825  -0.231 -31.172  1.00  0.00     0.049 C 
ENDBRANCH   1  16
TORSDOF 3
ENDMDL
