MODEL 1
REMARK VINA RESULT:      -9.4      0.000      0.000
REMARK  7 active torsions:
REMARK  status: ('A' for Active; 'I' for Inactive)
REMARK    1  A    between atoms: C_2  and  C_3 
REMARK    2  A    between atoms: C_3  and  N_4 
REMARK    3  A    between atoms: C_8  and  C_27 
REMARK    4  A    between atoms: C_8  and  C_9 
REMARK    5  A    between atoms: N_12  and  C_14 
REMARK    6  A    between atoms: C_14  and  C_15 
REMARK    7  A    between atoms: C_27  and  C_28 
ROOT
HETATM    1  N   UNL     1     -11.454   1.134 -33.843  1.00  0.00    -0.268 N 
HETATM    2  C   UNL     1     -10.778   0.251 -33.064  1.00  0.00     0.326 C 
HETATM    3  O   UNL     1     -11.086  -0.888 -32.767  1.00  0.00    -0.247 OA
HETATM    4  N   UNL     1      -9.605   0.844 -32.637  1.00  0.00    -0.324 N 
HETATM    5  C   UNL     1      -9.366   2.122 -33.280  1.00  0.00     0.123 C 
HETATM    6  C   UNL     1     -10.727   2.278 -34.002  1.00  0.00     0.257 C 
HETATM    7  O   UNL     1     -11.043   3.267 -34.651  1.00  0.00    -0.270 OA
HETATM    8  H   UNL     1      -8.931   0.245 -32.176  1.00  0.00     0.165 HD
ENDROOT
BRANCH   5   9
HETATM    9  C   UNL     1      -8.269   2.038 -34.368  1.00  0.00     0.080 C 
BRANCH   9  10
HETATM   10  C   UNL     1      -7.313   0.867 -34.301  1.00  0.00    -0.052 A 
HETATM   11  C   UNL     1      -6.158   0.925 -33.511  1.00  0.00     0.049 A 
HETATM   12  C   UNL     1      -5.292  -0.165 -33.465  1.00  0.00     0.116 A 
HETATM   13  F   UNL     1      -4.189  -0.090 -32.710  1.00  0.00    -0.206 F 
HETATM   14  C   UNL     1      -5.549  -1.319 -34.192  1.00  0.00     0.042 A 
HETATM   15  C   UNL     1      -6.694  -1.388 -34.983  1.00  0.00     0.003 A 
HETATM   16  C   UNL     1      -7.570  -0.302 -35.038  1.00  0.00     0.007 A 
ENDBRANCH   9  10
ENDBRANCH   5   9
BRANCH   5  17
HETATM   17  C   UNL     1      -9.217   3.267 -32.215  1.00  0.00     0.027 C 
HETATM   18  C   UNL     1      -8.209   4.380 -32.558  1.00  0.00     0.035 C 
HETATM   19  C   UNL     1      -6.750   4.070 -32.242  1.00  0.00     0.235 C 
HETATM   20  N   UNL     1      -6.587   3.580 -30.827  1.00  0.00    -0.067 N 
HETATM   21  H   UNL     1      -6.795   4.383 -30.218  1.00  0.00     0.280 HD
HETATM   22  C   UNL     1      -7.520   2.456 -30.453  1.00  0.00     0.235 C 
HETATM   23  C   UNL     1      -8.962   2.816 -30.763  1.00  0.00     0.035 C 
BRANCH  20  24
HETATM   24  C   UNL     1      -5.150   3.176 -30.500  1.00  0.00     0.273 C 
BRANCH  24  25
HETATM   25  C   UNL     1      -4.091   3.880 -31.304  1.00  0.00    -0.030 A 
HETATM   26  C   UNL     1      -3.749   5.213 -31.036  1.00  0.00     0.048 A 
HETATM   27  C   UNL     1      -2.785   5.858 -31.812  1.00  0.00     0.102 A 
HETATM   28  C   UNL     1      -2.181   5.196 -32.883  1.00  0.00     0.102 A 
HETATM   29  O   UNL     1      -2.487   7.151 -31.468  1.00  0.00    -0.346 OA
HETATM   30  O   UNL     1      -1.257   5.780 -33.707  1.00  0.00    -0.346 OA
HETATM   31  C   UNL     1      -2.503   3.869 -33.148  1.00  0.00     0.040 A 
HETATM   32  C   UNL     1      -1.225   7.203 -33.546  1.00  0.00     0.202 C 
HETATM   33  C   UNL     1      -1.256   7.579 -32.073  1.00  0.00     0.202 C 
HETATM   34  C   UNL     1      -3.451   3.211 -32.363  1.00  0.00     0.012 A 
ENDBRANCH  24  25
ENDBRANCH  20  24
ENDBRANCH   5  17
BRANCH   1  35
HETATM   35  C   UNL     1     -12.700   0.838 -34.524  1.00  0.00     0.140 C 
BRANCH  35  36
HETATM   36  C   UNL     1     -13.923   0.868 -33.594  1.00  0.00    -0.004 C 
HETATM   37  C   UNL     1     -15.195   0.626 -34.410  1.00  0.00     0.011 C 
HETATM   38  C   UNL     1     -14.031   2.194 -32.840  1.00  0.00     0.011 C 
ENDBRANCH  35  36
ENDBRANCH   1  35
TORSDOF 7
ENDMDL
MODEL 2
REMARK VINA RESULT:      -9.1      2.521      7.422
REMARK  7 active torsions:
REMARK  status: ('A' for Active; 'I' for Inactive)
REMARK    1  A    between atoms: C_2  and  C_3 
REMARK    2  A    between atoms: C_3  and  N_4 
REMARK    3  A    between atoms: C_8  and  C_27 
REMARK    4  A    between atoms: C_8  and  C_9 
REMARK    5  A    between atoms: N_12  and  C_14 
REMARK    6  A    between atoms: C_14  and  C_15 
REMARK    7  A    between atoms: C_27  and  C_28 
ROOT
HETATM    1  N   UNL     1      -4.202   3.486 -32.718  1.00  0.00    -0.268 N 
HETATM    2  C   UNL     1      -5.273   3.218 -33.509  1.00  0.00     0.326 C 
HETATM    3  O   UNL     1      -5.785   3.926 -34.356  1.00  0.00    -0.247 OA
HETATM    4  N   UNL     1      -5.726   1.945 -33.224  1.00  0.00    -0.324 N 
HETATM    5  C   UNL     1      -4.837   1.229 -32.329  1.00  0.00     0.123 C 
HETATM    6  C   UNL     1      -3.888   2.396 -31.961  1.00  0.00     0.257 C 
HETATM    7  O   UNL     1      -2.973   2.299 -31.152  1.00  0.00    -0.270 OA
HETATM    8  H   UNL     1      -6.422   1.557 -33.848  1.00  0.00     0.165 HD
ENDROOT
BRANCH   5   9
HETATM    9  C   UNL     1      -3.995   0.159 -33.065  1.00  0.00     0.080 C 
BRANCH   9  10
HETATM   10  C   UNL     1      -4.737  -1.018 -33.661  1.00  0.00    -0.052 A 
HETATM   11  C   UNL     1      -4.194  -2.308 -33.618  1.00  0.00     0.049 A 
HETATM   12  C   UNL     1      -4.894  -3.376 -34.175  1.00  0.00     0.116 A 
HETATM   13  F   UNL     1      -4.357  -4.602 -34.132  1.00  0.00    -0.206 F 
HETATM   14  C   UNL     1      -6.130  -3.189 -34.778  1.00  0.00     0.042 A 
HETATM   15  C   UNL     1      -6.681  -1.910 -34.828  1.00  0.00     0.003 A 
HETATM   16  C   UNL     1      -5.988  -0.830 -34.274  1.00  0.00     0.007 A 
ENDBRANCH   9  10
ENDBRANCH   5   9
BRANCH   5  17
HETATM   17  C   UNL     1      -5.599   0.761 -31.037  1.00  0.00     0.027 C 
HETATM   18  C   UNL     1      -7.024   0.221 -31.253  1.00  0.00     0.035 C 
HETATM   19  C   UNL     1      -8.121   1.275 -31.363  1.00  0.00     0.235 C 
HETATM   20  N   UNL     1      -8.058   2.255 -30.221  1.00  0.00    -0.067 N 
HETATM   21  H   UNL     1      -8.319   1.729 -29.375  1.00  0.00     0.280 HD
HETATM   22  C   UNL     1      -6.691   2.851 -29.995  1.00  0.00     0.235 C 
HETATM   23  C   UNL     1      -5.636   1.767 -29.869  1.00  0.00     0.035 C 
BRANCH  20  24
HETATM   24  C   UNL     1      -9.087   3.377 -30.343  1.00  0.00     0.273 C 
BRANCH  24  25
HETATM   25  C   UNL     1      -9.611   3.613 -31.733  1.00  0.00    -0.030 A 
HETATM   26  C   UNL     1     -10.850   3.093 -32.134  1.00  0.00     0.048 A 
HETATM   27  C   UNL     1     -11.306   3.298 -33.438  1.00  0.00     0.102 A 
HETATM   28  C   UNL     1     -10.518   3.988 -34.362  1.00  0.00     0.102 A 
HETATM   29  O   UNL     1     -12.539   2.783 -33.743  1.00  0.00    -0.346 OA
HETATM   30  O   UNL     1     -10.886   4.192 -35.664  1.00  0.00    -0.346 OA
HETATM   31  C   UNL     1      -9.295   4.520 -33.969  1.00  0.00     0.040 A 
HETATM   32  C   UNL     1     -11.991   3.360 -36.041  1.00  0.00     0.202 C 
HETATM   33  C   UNL     1     -13.055   3.356 -34.954  1.00  0.00     0.202 C 
HETATM   34  C   UNL     1      -8.842   4.337 -32.662  1.00  0.00     0.012 A 
ENDBRANCH  24  25
ENDBRANCH  20  24
ENDBRANCH   5  17
BRANCH   1  35
HETATM   35  C   UNL     1      -3.420   4.707 -32.784  1.00  0.00     0.140 C 
BRANCH  35  36
HETATM   36  C   UNL     1      -2.052   4.518 -33.456  1.00  0.00    -0.004 C 
HETATM   37  C   UNL     1      -0.969   5.199 -32.618  1.00  0.00     0.011 C 
HETATM   38  C   UNL     1      -2.037   5.074 -34.881  1.00  0.00     0.011 C 
ENDBRANCH  35  36
ENDBRANCH   1  35
TORSDOF 7
ENDMDL
MODEL 3
REMARK VINA RESULT:      -9.1      2.750      8.155
REMARK  7 active torsions:
REMARK  status: ('A' for Active; 'I' for Inactive)
REMARK    1  A    between atoms: C_2  and  C_3 
REMARK    2  A    between atoms: C_3  and  N_4 
REMARK    3  A    between atoms: C_8  and  C_27 
REMARK    4  A    between atoms: C_8  and  C_9 
REMARK    5  A    between atoms: N_12  and  C_14 
REMARK    6  A    between atoms: C_14  and  C_15 
REMARK    7  A    between atoms: C_27  and  C_28 
ROOT
HETATM    1  N   UNL     1      -5.297   2.683 -31.434  1.00  0.00    -0.268 N 
HETATM    2  C   UNL     1      -5.436   3.116 -32.713  1.00  0.00     0.326 C 
HETATM    3  O   UNL     1      -5.428   4.260 -33.131  1.00  0.00    -0.247 OA
HETATM    4  N   UNL     1      -5.579   2.020 -33.540  1.00  0.00    -0.324 N 
HETATM    5  C   UNL     1      -5.357   0.768 -32.841  1.00  0.00     0.123 C 
HETATM    6  C   UNL     1      -5.276   1.319 -31.396  1.00  0.00     0.257 C 
HETATM    7  O   UNL     1      -5.154   0.611 -30.404  1.00  0.00    -0.270 OA
HETATM    8  H   UNL     1      -5.536   2.189 -34.537  1.00  0.00     0.165 HD
ENDROOT
BRANCH   5   9
HETATM    9  C   UNL     1      -3.983   0.140 -33.178  1.00  0.00     0.080 C 
BRANCH   9  10
HETATM   10  C   UNL     1      -3.878  -1.368 -33.123  1.00  0.00    -0.052 A 
HETATM   11  C   UNL     1      -3.303  -2.010 -32.018  1.00  0.00     0.049 A 
HETATM   12  C   UNL     1      -3.216  -3.400 -31.989  1.00  0.00     0.116 A 
HETATM   13  F   UNL     1      -2.657  -3.997 -30.929  1.00  0.00    -0.206 F 
HETATM   14  C   UNL     1      -3.689  -4.172 -33.042  1.00  0.00     0.042 A 
HETATM   15  C   UNL     1      -4.261  -3.545 -34.146  1.00  0.00     0.003 A 
HETATM   16  C   UNL     1      -4.354  -2.152 -34.188  1.00  0.00     0.007 A 
ENDBRANCH   9  10
ENDBRANCH   5   9
BRANCH   5  17
HETATM   17  C   UNL     1      -6.610  -0.172 -32.961  1.00  0.00     0.027 C 
HETATM   18  C   UNL     1      -7.118  -0.440 -34.390  1.00  0.00     0.035 C 
HETATM   19  C   UNL     1      -8.026   0.634 -34.980  1.00  0.00     0.235 C 
HETATM   20  N   UNL     1      -9.150   0.981 -34.039  1.00  0.00    -0.067 N 
HETATM   21  H   UNL     1      -9.759   0.152 -33.999  1.00  0.00     0.280 HD
HETATM   22  C   UNL     1      -8.702   1.299 -32.635  1.00  0.00     0.235 C 
HETATM   23  C   UNL     1      -7.821   0.195 -32.079  1.00  0.00     0.035 C 
BRANCH  20  24
HETATM   24  C   UNL     1     -10.032   2.115 -34.559  1.00  0.00     0.273 C 
BRANCH  24  25
HETATM   25  C   UNL     1     -11.488   2.006 -34.200  1.00  0.00    -0.030 A 
HETATM   26  C   UNL     1     -12.063   2.861 -33.250  1.00  0.00     0.048 A 
HETATM   27  C   UNL     1     -13.410   2.725 -32.909  1.00  0.00     0.102 A 
HETATM   28  C   UNL     1     -14.185   1.715 -33.481  1.00  0.00     0.102 A 
HETATM   29  O   UNL     1     -13.903   3.618 -31.993  1.00  0.00    -0.346 OA
HETATM   30  O   UNL     1     -15.499   1.501 -33.165  1.00  0.00    -0.346 OA
HETATM   31  C   UNL     1     -13.628   0.870 -34.436  1.00  0.00     0.040 A 
HETATM   32  C   UNL     1     -15.882   2.205 -31.978  1.00  0.00     0.202 C 
HETATM   33  C   UNL     1     -15.339   3.625 -31.997  1.00  0.00     0.202 C 
HETATM   34  C   UNL     1     -12.288   1.014 -34.798  1.00  0.00     0.012 A 
ENDBRANCH  24  25
ENDBRANCH  20  24
ENDBRANCH   5  17
BRANCH   1  35
HETATM   35  C   UNL     1      -5.059   3.551 -30.296  1.00  0.00     0.140 C 
BRANCH  35  36
HETATM   36  C   UNL     1      -6.303   4.343 -29.864  1.00  0.00    -0.004 C 
HETATM   37  C   UNL     1      -5.997   5.124 -28.585  1.00  0.00     0.011 C 
HETATM   38  C   UNL     1      -7.510   3.429 -29.643  1.00  0.00     0.011 C 
ENDBRANCH  35  36
ENDBRANCH   1  35
TORSDOF 7
ENDMDL
MODEL 4
REMARK VINA RESULT:      -9.1      1.815      2.497
REMARK  7 active torsions:
REMARK  status: ('A' for Active; 'I' for Inactive)
REMARK    1  A    between atoms: C_2  and  C_3 
REMARK    2  A    between atoms: C_3  and  N_4 
REMARK    3  A    between atoms: C_8  and  C_27 
REMARK    4  A    between atoms: C_8  and  C_9 
REMARK    5  A    between atoms: N_12  and  C_14 
REMARK    6  A    between atoms: C_14  and  C_15 
REMARK    7  A    between atoms: C_27  and  C_28 
ROOT
HETATM    1  N   UNL     1     -10.449   1.140 -33.736  1.00  0.00    -0.268 N 
HETATM    2  C   UNL     1      -9.934   0.191 -32.912  1.00  0.00     0.326 C 
HETATM    3  O   UNL     1     -10.465  -0.824 -32.499  1.00  0.00    -0.247 OA
HETATM    4  N   UNL     1      -8.635   0.536 -32.595  1.00  0.00    -0.324 N 
HETATM    5  C   UNL     1      -8.163   1.674 -33.362  1.00  0.00     0.123 C 
HETATM    6  C   UNL     1      -9.500   2.075 -34.031  1.00  0.00     0.257 C 
HETATM    7  O   UNL     1      -9.632   3.056 -34.752  1.00  0.00    -0.270 OA
HETATM    8  H   UNL     1      -8.080  -0.161 -32.114  1.00  0.00     0.165 HD
ENDROOT
BRANCH   5   9
HETATM    9  C   UNL     1      -7.184   1.261 -34.488  1.00  0.00     0.080 C 
BRANCH   9  10
HETATM   10  C   UNL     1      -6.501  -0.083 -34.355  1.00  0.00    -0.052 A 
HETATM   11  C   UNL     1      -7.098  -1.247 -34.856  1.00  0.00     0.049 A 
HETATM   12  C   UNL     1      -6.451  -2.473 -34.721  1.00  0.00     0.116 A 
HETATM   13  F   UNL     1      -7.038  -3.576 -35.200  1.00  0.00    -0.206 F 
HETATM   14  C   UNL     1      -5.216  -2.569 -34.095  1.00  0.00     0.042 A 
HETATM   15  C   UNL     1      -4.613  -1.419 -33.591  1.00  0.00     0.003 A 
HETATM   16  C   UNL     1      -5.252  -0.183 -33.719  1.00  0.00     0.007 A 
ENDBRANCH   9  10
ENDBRANCH   5   9
BRANCH   5  17
HETATM   17  C   UNL     1      -7.696   2.836 -32.413  1.00  0.00     0.027 C 
HETATM   18  C   UNL     1      -7.721   4.251 -33.018  1.00  0.00     0.035 C 
HETATM   19  C   UNL     1      -6.511   4.629 -33.865  1.00  0.00     0.235 C 
HETATM   20  N   UNL     1      -5.222   4.351 -33.137  1.00  0.00    -0.067 N 
HETATM   21  H   UNL     1      -5.182   5.020 -32.356  1.00  0.00     0.280 HD
HETATM   22  C   UNL     1      -5.126   2.959 -32.564  1.00  0.00     0.235 C 
HETATM   23  C   UNL     1      -6.339   2.635 -31.710  1.00  0.00     0.035 C 
BRANCH  20  24
HETATM   24  C   UNL     1      -3.985   4.635 -33.987  1.00  0.00     0.273 C 
BRANCH  24  25
HETATM   25  C   UNL     1      -2.844   5.285 -33.255  1.00  0.00    -0.030 A 
HETATM   26  C   UNL     1      -2.156   4.604 -32.241  1.00  0.00     0.048 A 
HETATM   27  C   UNL     1      -1.118   5.235 -31.552  1.00  0.00     0.102 A 
HETATM   28  C   UNL     1      -0.782   6.560 -31.841  1.00  0.00     0.102 A 
HETATM   29  O   UNL     1      -0.477   4.492 -30.596  1.00  0.00    -0.346 OA
HETATM   30  O   UNL     1       0.198   7.250 -31.180  1.00  0.00    -0.346 OA
HETATM   31  C   UNL     1      -1.448   7.239 -32.855  1.00  0.00     0.040 A 
HETATM   32  C   UNL     1       0.602   6.582 -29.979  1.00  0.00     0.202 C 
HETATM   33  C   UNL     1       0.774   5.091 -30.225  1.00  0.00     0.202 C 
HETATM   34  C   UNL     1      -2.472   6.607 -33.562  1.00  0.00     0.012 A 
ENDBRANCH  24  25
ENDBRANCH  20  24
ENDBRANCH   5  17
BRANCH   1  35
HETATM   35  C   UNL     1     -11.771   1.079 -34.329  1.00  0.00     0.140 C 
BRANCH  35  36
HETATM   36  C   UNL     1     -12.839   1.822 -33.512  1.00  0.00    -0.004 C 
HETATM   37  C   UNL     1     -14.122   0.989 -33.464  1.00  0.00     0.011 C 
HETATM   38  C   UNL     1     -13.137   3.206 -34.090  1.00  0.00     0.011 C 
ENDBRANCH  35  36
ENDBRANCH   1  35
TORSDOF 7
ENDMDL
MODEL 5
REMARK VINA RESULT:      -8.9      2.350      3.603
REMARK  7 active torsions:
REMARK  status: ('A' for Active; 'I' for Inactive)
REMARK    1  A    between atoms: C_2  and  C_3 
REMARK    2  A    between atoms: C_3  and  N_4 
REMARK    3  A    between atoms: C_8  and  C_27 
REMARK    4  A    between atoms: C_8  and  C_9 
REMARK    5  A    between atoms: N_12  and  C_14 
REMARK    6  A    between atoms: C_14  and  C_15 
REMARK    7  A    between atoms: C_27  and  C_28 
ROOT
HETATM    1  N   UNL     1      -8.359   1.632 -33.573  1.00  0.00    -0.268 N 
HETATM    2  C   UNL     1      -9.100   0.506 -33.406  1.00  0.00     0.326 C 
HETATM    3  O   UNL     1     -10.306   0.373 -33.499  1.00  0.00    -0.247 OA
HETATM    4  N   UNL     1      -8.251  -0.544 -33.116  1.00  0.00    -0.324 N 
HETATM    5  C   UNL     1      -6.854  -0.181 -33.257  1.00  0.00     0.123 C 
HETATM    6  C   UNL     1      -7.029   1.343 -33.469  1.00  0.00     0.257 C 
HETATM    7  O   UNL     1      -6.094   2.126 -33.578  1.00  0.00    -0.270 OA
HETATM    8  H   UNL     1      -8.655  -1.473 -33.120  1.00  0.00     0.165 HD
ENDROOT
BRANCH   5   9
HETATM    9  C   UNL     1      -6.222  -0.761 -34.546  1.00  0.00     0.080 C 
BRANCH   9  10
HETATM   10  C   UNL     1      -5.876  -2.234 -34.547  1.00  0.00    -0.052 A 
HETATM   11  C   UNL     1      -4.580  -2.669 -34.238  1.00  0.00     0.049 A 
HETATM   12  C   UNL     1      -4.284  -4.030 -34.246  1.00  0.00     0.116 A 
HETATM   13  F   UNL     1      -3.039  -4.428 -33.956  1.00  0.00    -0.206 F 
HETATM   14  C   UNL     1      -5.252  -4.975 -34.557  1.00  0.00     0.042 A 
HETATM   15  C   UNL     1      -6.544  -4.554 -34.867  1.00  0.00     0.003 A 
HETATM   16  C   UNL     1      -6.854  -3.192 -34.863  1.00  0.00     0.007 A 
ENDBRANCH   9  10
ENDBRANCH   5   9
BRANCH   5  17
HETATM   17  C   UNL     1      -6.072  -0.426 -31.917  1.00  0.00     0.027 C 
HETATM   18  C   UNL     1      -6.800  -0.006 -30.626  1.00  0.00     0.035 C 
HETATM   19  C   UNL     1      -6.704   1.471 -30.264  1.00  0.00     0.235 C 
HETATM   20  N   UNL     1      -5.276   1.951 -30.286  1.00  0.00    -0.067 N 
HETATM   21  H   UNL     1      -4.802   1.484 -29.500  1.00  0.00     0.280 HD
HETATM   22  C   UNL     1      -4.530   1.607 -31.551  1.00  0.00     0.235 C 
HETATM   23  C   UNL     1      -4.633   0.124 -31.860  1.00  0.00     0.035 C 
BRANCH  20  24
HETATM   24  C   UNL     1      -5.147   3.448 -30.013  1.00  0.00     0.273 C 
BRANCH  24  25
HETATM   25  C   UNL     1      -4.591   4.259 -31.151  1.00  0.00    -0.030 A 
HETATM   26  C   UNL     1      -3.216   4.269 -31.426  1.00  0.00     0.048 A 
HETATM   27  C   UNL     1      -2.716   5.050 -32.469  1.00  0.00     0.102 A 
HETATM   28  C   UNL     1      -3.573   5.856 -33.222  1.00  0.00     0.102 A 
HETATM   29  O   UNL     1      -1.365   4.983 -32.691  1.00  0.00    -0.346 OA
HETATM   30  O   UNL     1      -3.145   6.674 -34.232  1.00  0.00    -0.346 OA
HETATM   31  C   UNL     1      -4.940   5.842 -32.967  1.00  0.00     0.040 A 
HETATM   32  C   UNL     1      -1.723   6.846 -34.211  1.00  0.00     0.202 C 
HETATM   33  C   UNL     1      -1.024   5.516 -33.980  1.00  0.00     0.202 C 
HETATM   34  C   UNL     1      -5.450   5.047 -31.940  1.00  0.00     0.012 A 
ENDBRANCH  24  25
ENDBRANCH  20  24
ENDBRANCH   5  17
BRANCH   1  35
HETATM   35  C   UNL     1      -8.902   2.922 -33.954  1.00  0.00     0.140 C 
BRANCH  35  36
HETATM   36  C   UNL     1      -8.758   3.990 -32.859  1.00  0.00    -0.004 C 
HETATM   37  C   UNL     1      -9.671   3.643 -31.680  1.00  0.00     0.011 C 
HETATM   38  C   UNL     1      -9.088   5.389 -33.381  1.00  0.00     0.011 C 
ENDBRANCH  35  36
ENDBRANCH   1  35
TORSDOF 7
ENDMDL
MODEL 6
REMARK VINA RESULT:      -8.9      2.410      7.900
REMARK  7 active torsions:
REMARK  status: ('A' for Active; 'I' for Inactive)
REMARK    1  A    between atoms: C_2  and  C_3 
REMARK    2  A    between atoms: C_3  and  N_4 
REMARK    3  A    between atoms: C_8  and  C_27 
REMARK    4  A    between atoms: C_8  and  C_9 
REMARK    5  A    between atoms: N_12  and  C_14 
REMARK    6  A    between atoms: C_14  and  C_15 
REMARK    7  A    between atoms: C_27  and  C_28 
ROOT
HETATM    1  N   UNL     1      -3.580   4.031 -33.039  1.00  0.00    -0.268 N 
HETATM    2  C   UNL     1      -4.793   4.293 -33.592  1.00  0.00     0.326 C 
HETATM    3  O   UNL     1      -5.042   4.901 -34.617  1.00  0.00    -0.247 OA
HETATM    4  N   UNL     1      -5.773   3.728 -32.801  1.00  0.00    -0.324 N 
HETATM    5  C   UNL     1      -5.222   2.892 -31.751  1.00  0.00     0.123 C 
HETATM    6  C   UNL     1      -3.725   3.246 -31.933  1.00  0.00     0.257 C 
HETATM    7  O   UNL     1      -2.834   2.821 -31.208  1.00  0.00    -0.270 OA
HETATM    8  H   UNL     1      -6.713   3.713 -33.177  1.00  0.00     0.165 HD
ENDROOT
BRANCH   5   9
HETATM    9  C   UNL     1      -5.384   1.383 -32.054  1.00  0.00     0.080 C 
BRANCH   9  10
HETATM   10  C   UNL     1      -6.477   0.982 -33.021  1.00  0.00    -0.052 A 
HETATM   11  C   UNL     1      -7.781   0.737 -32.571  1.00  0.00     0.049 A 
HETATM   12  C   UNL     1      -8.772   0.369 -33.479  1.00  0.00     0.116 A 
HETATM   13  F   UNL     1     -10.011   0.132 -33.032  1.00  0.00    -0.206 F 
HETATM   14  C   UNL     1      -8.493   0.236 -34.832  1.00  0.00     0.042 A 
HETATM   15  C   UNL     1      -7.199   0.475 -35.291  1.00  0.00     0.003 A 
HETATM   16  C   UNL     1      -6.197   0.845 -34.391  1.00  0.00     0.007 A 
ENDBRANCH   9  10
ENDBRANCH   5   9
BRANCH   5  17
HETATM   17  C   UNL     1      -5.696   3.382 -30.336  1.00  0.00     0.027 C 
HETATM   18  C   UNL     1      -6.934   2.672 -29.756  1.00  0.00     0.035 C 
HETATM   19  C   UNL     1      -8.282   3.189 -30.245  1.00  0.00     0.235 C 
HETATM   20  N   UNL     1      -8.378   4.686 -30.111  1.00  0.00    -0.067 N 
HETATM   21  H   UNL     1      -8.401   4.884 -29.101  1.00  0.00     0.280 HD
HETATM   22  C   UNL     1      -7.211   5.434 -30.705  1.00  0.00     0.235 C 
HETATM   23  C   UNL     1      -5.892   4.902 -30.174  1.00  0.00     0.035 C 
BRANCH  20  24
HETATM   24  C   UNL     1      -9.682   5.251 -30.671  1.00  0.00     0.273 C 
BRANCH  24  25
HETATM   25  C   UNL     1     -10.225   4.528 -31.873  1.00  0.00    -0.030 A 
HETATM   26  C   UNL     1     -11.431   3.816 -31.802  1.00  0.00     0.048 A 
HETATM   27  C   UNL     1     -11.905   3.127 -32.920  1.00  0.00     0.102 A 
HETATM   28  C   UNL     1     -11.165   3.109 -34.104  1.00  0.00     0.102 A 
HETATM   29  O   UNL     1     -13.104   2.480 -32.777  1.00  0.00    -0.346 OA
HETATM   30  O   UNL     1     -11.551   2.424 -35.224  1.00  0.00    -0.346 OA
HETATM   31  C   UNL     1      -9.975   3.824 -34.190  1.00  0.00     0.040 A 
HETATM   32  C   UNL     1     -12.603   1.493 -34.942  1.00  0.00     0.202 C 
HETATM   33  C   UNL     1     -13.660   2.130 -34.054  1.00  0.00     0.202 C 
HETATM   34  C   UNL     1      -9.506   4.533 -33.082  1.00  0.00     0.012 A 
ENDBRANCH  24  25
ENDBRANCH  20  24
ENDBRANCH   5  17
BRANCH   1  35
HETATM   35  C   UNL     1      -2.311   4.412 -33.629  1.00  0.00     0.140 C 
BRANCH  35  36
HETATM   36  C   UNL     1      -1.704   5.676 -33.002  1.00  0.00    -0.004 C 
HETATM   37  C   UNL     1      -1.226   6.619 -34.107  1.00  0.00     0.011 C 
HETATM   38  C   UNL     1      -0.545   5.343 -32.061  1.00  0.00     0.011 C 
ENDBRANCH  35  36
ENDBRANCH   1  35
TORSDOF 7
ENDMDL
MODEL 7
REMARK VINA RESULT:      -8.8      2.500      3.915
REMARK  7 active torsions:
REMARK  status: ('A' for Active; 'I' for Inactive)
REMARK    1  A    between atoms: C_2  and  C_3 
REMARK    2  A    between atoms: C_3  and  N_4 
REMARK    3  A    between atoms: C_8  and  C_27 
REMARK    4  A    between atoms: C_8  and  C_9 
REMARK    5  A    between atoms: N_12  and  C_14 
REMARK    6  A    between atoms: C_14  and  C_15 
REMARK    7  A    between atoms: C_27  and  C_28 
ROOT
HETATM    1  N   UNL     1      -8.173   1.802 -32.497  1.00  0.00    -0.268 N 
HETATM    2  C   UNL     1      -8.449   0.531 -32.106  1.00  0.00     0.326 C 
HETATM    3  O   UNL     1      -9.532   0.034 -31.857  1.00  0.00    -0.247 OA
HETATM    4  N   UNL     1      -7.267  -0.181 -32.041  1.00  0.00    -0.324 N 
HETATM    5  C   UNL     1      -6.144   0.566 -32.573  1.00  0.00     0.123 C 
HETATM    6  C   UNL     1      -6.841   1.936 -32.761  1.00  0.00     0.257 C 
HETATM    7  O   UNL     1      -6.263   2.946 -33.143  1.00  0.00    -0.270 OA
HETATM    8  H   UNL     1      -7.342  -1.182 -31.913  1.00  0.00     0.165 HD
ENDROOT
BRANCH   5   9
HETATM    9  C   UNL     1      -5.714   0.066 -33.974  1.00  0.00     0.080 C 
BRANCH   9  10
HETATM   10  C   UNL     1      -5.648  -1.430 -34.187  1.00  0.00    -0.052 A 
HETATM   11  C   UNL     1      -4.469  -2.142 -33.932  1.00  0.00     0.049 A 
HETATM   12  C   UNL     1      -4.430  -3.520 -34.136  1.00  0.00     0.116 A 
HETATM   13  F   UNL     1      -3.293  -4.183 -33.894  1.00  0.00    -0.206 F 
HETATM   14  C   UNL     1      -5.545  -4.210 -34.592  1.00  0.00     0.042 A 
HETATM   15  C   UNL     1      -6.723  -3.513 -34.850  1.00  0.00     0.003 A 
HETATM   16  C   UNL     1      -6.774  -2.131 -34.650  1.00  0.00     0.007 A 
ENDBRANCH   9  10
ENDBRANCH   5   9
BRANCH   5  17
HETATM   17  C   UNL     1      -5.007   0.712 -31.498  1.00  0.00     0.027 C 
HETATM   18  C   UNL     1      -5.295   1.686 -30.341  1.00  0.00     0.035 C 
HETATM   19  C   UNL     1      -5.031   3.159 -30.636  1.00  0.00     0.235 C 
HETATM   20  N   UNL     1      -3.656   3.365 -31.215  1.00  0.00    -0.067 N 
HETATM   21  H   UNL     1      -2.990   3.152 -30.460  1.00  0.00     0.280 HD
HETATM   22  C   UNL     1      -3.339   2.466 -32.384  1.00  0.00     0.235 C 
HETATM   23  C   UNL     1      -3.595   1.010 -32.039  1.00  0.00     0.035 C 
BRANCH  20  24
HETATM   24  C   UNL     1      -3.387   4.817 -31.605  1.00  0.00     0.273 C 
BRANCH  24  25
HETATM   25  C   UNL     1      -2.292   5.493 -30.826  1.00  0.00    -0.030 A 
HETATM   26  C   UNL     1      -2.589   6.451 -29.846  1.00  0.00     0.048 A 
HETATM   27  C   UNL     1      -1.558   7.088 -29.154  1.00  0.00     0.102 A 
HETATM   28  C   UNL     1      -0.224   6.807 -29.457  1.00  0.00     0.102 A 
HETATM   29  O   UNL     1      -1.931   7.990 -28.192  1.00  0.00    -0.346 OA
HETATM   30  O   UNL     1       0.835   7.422 -28.846  1.00  0.00    -0.346 OA
HETATM   31  C   UNL     1       0.082   5.848 -30.418  1.00  0.00     0.040 A 
HETATM   32  C   UNL     1       0.425   8.583 -28.113  1.00  0.00     0.202 C 
HETATM   33  C   UNL     1      -0.837   8.297 -27.315  1.00  0.00     0.202 C 
HETATM   34  C   UNL     1      -0.945   5.192 -31.098  1.00  0.00     0.012 A 
ENDBRANCH  24  25
ENDBRANCH  20  24
ENDBRANCH   5  17
BRANCH   1  35
HETATM   35  C   UNL     1      -9.176   2.821 -32.739  1.00  0.00     0.140 C 
BRANCH  35  36
HETATM   36  C   UNL     1      -9.666   2.858 -34.195  1.00  0.00    -0.004 C 
HETATM   37  C   UNL     1      -9.894   4.309 -34.623  1.00  0.00     0.011 C 
HETATM   38  C   UNL     1     -10.950   2.050 -34.384  1.00  0.00     0.011 C 
ENDBRANCH  35  36
ENDBRANCH   1  35
TORSDOF 7
ENDMDL
MODEL 8
REMARK VINA RESULT:      -8.6      2.276      8.836
REMARK  7 active torsions:
REMARK  status: ('A' for Active; 'I' for Inactive)
REMARK    1  A    between atoms: C_2  and  C_3 
REMARK    2  A    between atoms: C_3  and  N_4 
REMARK    3  A    between atoms: C_8  and  C_27 
REMARK    4  A    between atoms: C_8  and  C_9 
REMARK    5  A    between atoms: N_12  and  C_14 
REMARK    6  A    between atoms: C_14  and  C_15 
REMARK    7  A    between atoms: C_27  and  C_28 
ROOT
HETATM    1  N   UNL     1      -4.762   4.785 -32.874  1.00  0.00    -0.268 N 
HETATM    2  C   UNL     1      -5.352   4.072 -33.868  1.00  0.00     0.326 C 
HETATM    3  O   UNL     1      -5.093   4.072 -35.057  1.00  0.00    -0.247 OA
HETATM    4  N   UNL     1      -6.339   3.277 -33.318  1.00  0.00    -0.324 N 
HETATM    5  C   UNL     1      -6.324   3.302 -31.868  1.00  0.00     0.123 C 
HETATM    6  C   UNL     1      -5.286   4.433 -31.664  1.00  0.00     0.257 C 
HETATM    7  O   UNL     1      -4.971   4.877 -30.567  1.00  0.00    -0.270 OA
HETATM    8  H   UNL     1      -6.754   2.579 -33.922  1.00  0.00     0.165 HD
ENDROOT
BRANCH   5   9
HETATM    9  C   UNL     1      -5.727   2.008 -31.262  1.00  0.00     0.080 C 
BRANCH   9  10
HETATM   10  C   UNL     1      -5.585   0.814 -32.180  1.00  0.00    -0.052 A 
HETATM   11  C   UNL     1      -6.703   0.058 -32.555  1.00  0.00     0.049 A 
HETATM   12  C   UNL     1      -6.549  -1.039 -33.401  1.00  0.00     0.116 A 
HETATM   13  F   UNL     1      -7.627  -1.755 -33.744  1.00  0.00    -0.206 F 
HETATM   14  C   UNL     1      -5.300  -1.404 -33.883  1.00  0.00     0.042 A 
HETATM   15  C   UNL     1      -4.180  -0.661 -33.516  1.00  0.00     0.003 A 
HETATM   16  C   UNL     1      -4.321   0.441 -32.669  1.00  0.00     0.007 A 
ENDBRANCH   9  10
ENDBRANCH   5   9
BRANCH   5  17
HETATM   17  C   UNL     1      -7.711   3.771 -31.300  1.00  0.00     0.027 C 
HETATM   18  C   UNL     1      -8.590   2.672 -30.673  1.00  0.00     0.035 C 
HETATM   19  C   UNL     1      -9.414   1.846 -31.654  1.00  0.00     0.235 C 
HETATM   20  N   UNL     1     -10.199   2.727 -32.591  1.00  0.00    -0.067 N 
HETATM   21  H   UNL     1     -10.914   3.195 -32.016  1.00  0.00     0.280 HD
HETATM   22  C   UNL     1      -9.375   3.793 -33.269  1.00  0.00     0.235 C 
HETATM   23  C   UNL     1      -8.589   4.605 -32.254  1.00  0.00     0.035 C 
BRANCH  20  24
HETATM   24  C   UNL     1     -10.971   1.936 -33.645  1.00  0.00     0.273 C 
BRANCH  24  25
HETATM   25  C   UNL     1     -12.466   1.954 -33.487  1.00  0.00    -0.030 A 
HETATM   26  C   UNL     1     -13.098   2.935 -32.710  1.00  0.00     0.048 A 
HETATM   27  C   UNL     1     -14.485   2.918 -32.552  1.00  0.00     0.102 A 
HETATM   28  C   UNL     1     -15.250   1.904 -33.133  1.00  0.00     0.102 A 
HETATM   29  O   UNL     1     -15.028   3.928 -31.802  1.00  0.00    -0.346 OA
HETATM   30  O   UNL     1     -16.607   1.805 -32.987  1.00  0.00    -0.346 OA
HETATM   31  C   UNL     1     -14.634   0.934 -33.917  1.00  0.00     0.040 A 
HETATM   32  C   UNL     1     -17.092   2.649 -31.936  1.00  0.00     0.202 C 
HETATM   33  C   UNL     1     -16.446   4.023 -32.009  1.00  0.00     0.202 C 
HETATM   34  C   UNL     1     -13.251   0.958 -34.097  1.00  0.00     0.012 A 
ENDBRANCH  24  25
ENDBRANCH  20  24
ENDBRANCH   5  17
BRANCH   1  35
HETATM   35  C   UNL     1      -3.636   5.680 -33.065  1.00  0.00     0.140 C 
BRANCH  35  36
HETATM   36  C   UNL     1      -2.310   4.944 -33.313  1.00  0.00    -0.004 C 
HETATM   37  C   UNL     1      -1.460   4.975 -32.042  1.00  0.00     0.011 C 
HETATM   38  C   UNL     1      -1.531   5.555 -34.478  1.00  0.00     0.011 C 
ENDBRANCH  35  36
ENDBRANCH   1  35
TORSDOF 7
ENDMDL
MODEL 9
REMARK VINA RESULT:      -8.6      2.583      7.194
REMARK  7 active torsions:
REMARK  status: ('A' for Active; 'I' for Inactive)
REMARK    1  A    between atoms: C_2  and  C_3 
REMARK    2  A    between atoms: C_3  and  N_4 
REMARK    3  A    between atoms: C_8  and  C_27 
REMARK    4  A    between atoms: C_8  and  C_9 
REMARK    5  A    between atoms: N_12  and  C_14 
REMARK    6  A    between atoms: C_14  and  C_15 
REMARK    7  A    between atoms: C_27  and  C_28 
ROOT
HETATM    1  N   UNL     1      -6.300   4.173 -31.594  1.00  0.00    -0.268 N 
HETATM    2  C   UNL     1      -5.981   3.899 -32.886  1.00  0.00     0.326 C 
HETATM    3  O   UNL     1      -6.478   4.350 -33.901  1.00  0.00    -0.247 OA
HETATM    4  N   UNL     1      -4.936   2.996 -32.902  1.00  0.00    -0.324 N 
HETATM    5  C   UNL     1      -4.387   2.761 -31.581  1.00  0.00     0.123 C 
HETATM    6  C   UNL     1      -5.447   3.525 -30.749  1.00  0.00     0.257 C 
HETATM    7  O   UNL     1      -5.452   3.564 -29.525  1.00  0.00    -0.270 OA
HETATM    8  H   UNL     1      -4.495   2.823 -33.797  1.00  0.00     0.165 HD
ENDROOT
BRANCH   5   9
HETATM    9  C   UNL     1      -3.029   3.474 -31.371  1.00  0.00     0.080 C 
BRANCH   9  10
HETATM   10  C   UNL     1      -2.685   4.603 -32.319  1.00  0.00    -0.052 A 
HETATM   11  C   UNL     1      -2.011   4.354 -33.521  1.00  0.00     0.049 A 
HETATM   12  C   UNL     1      -1.703   5.408 -34.377  1.00  0.00     0.116 A 
HETATM   13  F   UNL     1      -1.052   5.153 -35.518  1.00  0.00    -0.206 F 
HETATM   14  C   UNL     1      -2.052   6.714 -34.063  1.00  0.00     0.042 A 
HETATM   15  C   UNL     1      -2.722   6.976 -32.869  1.00  0.00     0.003 A 
HETATM   16  C   UNL     1      -3.035   5.927 -32.002  1.00  0.00     0.007 A 
ENDBRANCH   9  10
ENDBRANCH   5   9
BRANCH   5  17
HETATM   17  C   UNL     1      -4.447   1.236 -31.210  1.00  0.00     0.027 C 
HETATM   18  C   UNL     1      -3.991   0.257 -32.308  1.00  0.00     0.035 C 
HETATM   19  C   UNL     1      -5.038  -0.089 -33.361  1.00  0.00     0.235 C 
HETATM   20  N   UNL     1      -6.335  -0.519 -32.726  1.00  0.00    -0.067 N 
HETATM   21  H   UNL     1      -6.148  -1.424 -32.273  1.00  0.00     0.280 HD
HETATM   22  C   UNL     1      -6.851   0.431 -31.675  1.00  0.00     0.235 C 
HETATM   23  C   UNL     1      -5.785   0.729 -30.636  1.00  0.00     0.035 C 
BRANCH  20  24
HETATM   24  C   UNL     1      -7.436  -0.791 -33.749  1.00  0.00     0.273 C 
BRANCH  24  25
HETATM   25  C   UNL     1      -8.603   0.157 -33.697  1.00  0.00    -0.030 A 
HETATM   26  C   UNL     1      -8.522   1.433 -34.272  1.00  0.00     0.048 A 
HETATM   27  C   UNL     1      -9.606   2.309 -34.187  1.00  0.00     0.102 A 
HETATM   28  C   UNL     1     -10.763   1.937 -33.499  1.00  0.00     0.102 A 
HETATM   29  O   UNL     1      -9.458   3.526 -34.799  1.00  0.00    -0.346 OA
HETATM   30  O   UNL     1     -11.846   2.759 -33.344  1.00  0.00    -0.346 OA
HETATM   31  C   UNL     1     -10.858   0.668 -32.938  1.00  0.00     0.040 A 
HETATM   32  C   UNL     1     -11.536   4.117 -33.682  1.00  0.00     0.202 C 
HETATM   33  C   UNL     1     -10.726   4.180 -34.967  1.00  0.00     0.202 C 
HETATM   34  C   UNL     1      -9.787  -0.220 -33.037  1.00  0.00     0.012 A 
ENDBRANCH  24  25
ENDBRANCH  20  24
ENDBRANCH   5  17
BRANCH   1  35
HETATM   35  C   UNL     1      -7.309   5.132 -31.185  1.00  0.00     0.140 C 
BRANCH  35  36
HETATM   36  C   UNL     1      -8.743   4.592 -31.301  1.00  0.00    -0.004 C 
HETATM   37  C   UNL     1      -9.727   5.625 -30.748  1.00  0.00     0.011 C 
HETATM   38  C   UNL     1      -8.912   3.263 -30.563  1.00  0.00     0.011 C 
ENDBRANCH  35  36
ENDBRANCH   1  35
TORSDOF 7
ENDMDL
MODEL 10
REMARK VINA RESULT:      -8.5      2.546      5.120
REMARK  7 active torsions:
REMARK  status: ('A' for Active; 'I' for Inactive)
REMARK    1  A    between atoms: C_2  and  C_3 
REMARK    2  A    between atoms: C_3  and  N_4 
REMARK    3  A    between atoms: C_8  and  C_27 
REMARK    4  A    between atoms: C_8  and  C_9 
REMARK    5  A    between atoms: N_12  and  C_14 
REMARK    6  A    between atoms: C_14  and  C_15 
REMARK    7  A    between atoms: C_27  and  C_28 
ROOT
HETATM    1  N   UNL     1      -6.844   0.944 -32.339  1.00  0.00    -0.268 N 
HETATM    2  C   UNL     1      -6.401   2.062 -32.969  1.00  0.00     0.326 C 
HETATM    3  O   UNL     1      -5.258   2.372 -33.251  1.00  0.00    -0.247 OA
HETATM    4  N   UNL     1      -7.489   2.850 -33.290  1.00  0.00    -0.324 N 
HETATM    5  C   UNL     1      -8.750   2.182 -33.034  1.00  0.00     0.123 C 
HETATM    6  C   UNL     1      -8.207   0.935 -32.293  1.00  0.00     0.257 C 
HETATM    7  O   UNL     1      -8.922   0.069 -31.804  1.00  0.00    -0.270 OA
HETATM    8  H   UNL     1      -7.319   3.640 -33.900  1.00  0.00     0.165 HD
ENDROOT
BRANCH   5   9
HETATM    9  C   UNL     1      -9.433   1.690 -34.333  1.00  0.00     0.080 C 
BRANCH   9  10
HETATM   10  C   UNL     1     -10.942   1.588 -34.329  1.00  0.00    -0.052 A 
HETATM   11  C   UNL     1     -11.589   0.520 -33.694  1.00  0.00     0.049 A 
HETATM   12  C   UNL     1     -12.981   0.446 -33.703  1.00  0.00     0.116 A 
HETATM   13  F   UNL     1     -13.583  -0.585 -33.098  1.00  0.00    -0.206 F 
HETATM   14  C   UNL     1     -13.748   1.415 -34.334  1.00  0.00     0.042 A 
HETATM   15  C   UNL     1     -13.116   2.481 -34.970  1.00  0.00     0.003 A 
HETATM   16  C   UNL     1     -11.721   2.567 -34.968  1.00  0.00     0.007 A 
ENDBRANCH   9  10
ENDBRANCH   5   9
BRANCH   5  17
HETATM   17  C   UNL     1      -9.639   3.018 -32.044  1.00  0.00     0.027 C 
HETATM   18  C   UNL     1     -10.083   4.405 -32.545  1.00  0.00     0.035 C 
HETATM   19  C   UNL     1      -9.064   5.526 -32.376  1.00  0.00     0.235 C 
HETATM   20  N   UNL     1      -8.535   5.580 -30.967  1.00  0.00    -0.067 N 
HETATM   21  H   UNL     1      -9.321   5.884 -30.375  1.00  0.00     0.280 HD
HETATM   22  C   UNL     1      -8.042   4.255 -30.443  1.00  0.00     0.235 C 
HETATM   23  C   UNL     1      -9.095   3.175 -30.610  1.00  0.00     0.035 C 
BRANCH  20  24
HETATM   24  C   UNL     1      -7.446   6.636 -30.780  1.00  0.00     0.273 C 
BRANCH  24  25
HETATM   25  C   UNL     1      -6.084   6.242 -31.282  1.00  0.00    -0.030 A 
HETATM   26  C   UNL     1      -5.839   6.081 -32.653  1.00  0.00     0.048 A 
HETATM   27  C   UNL     1      -4.575   5.687 -33.096  1.00  0.00     0.102 A 
HETATM   28  C   UNL     1      -3.558   5.414 -32.179  1.00  0.00     0.102 A 
HETATM   29  O   UNL     1      -4.408   5.580 -34.452  1.00  0.00    -0.346 OA
HETATM   30  O   UNL     1      -2.309   4.988 -32.543  1.00  0.00    -0.346 OA
HETATM   31  C   UNL     1      -3.786   5.585 -30.818  1.00  0.00     0.040 A 
HETATM   32  C   UNL     1      -2.270   4.557 -33.908  1.00  0.00     0.202 C 
HETATM   33  C   UNL     1      -3.016   5.535 -34.802  1.00  0.00     0.202 C 
HETATM   34  C   UNL     1      -5.041   5.999 -30.369  1.00  0.00     0.012 A 
ENDBRANCH  24  25
ENDBRANCH  20  24
ENDBRANCH   5  17
BRANCH   1  35
HETATM   35  C   UNL     1      -5.989  -0.148 -31.912  1.00  0.00     0.140 C 
BRANCH  35  36
HETATM   36  C   UNL     1      -5.273  -0.851 -33.077  1.00  0.00    -0.004 C 
HETATM   37  C   UNL     1      -6.273  -1.716 -33.847  1.00  0.00     0.011 C 
HETATM   38  C   UNL     1      -4.105  -1.709 -32.590  1.00  0.00     0.011 C 
ENDBRANCH  35  36
ENDBRANCH   1  35
TORSDOF 7
ENDMDL
