MODEL 1
REMARK VINA RESULT:      -8.6      0.000      0.000
REMARK  10 active torsions:
REMARK  status: ('A' for Active; 'I' for Inactive)
REMARK    1  A    between atoms: C_2  and  C_3 
REMARK    2  A    between atoms: N_4  and  N_5 
REMARK       I    between atoms: N_5  and  C_6 
REMARK    3  A    between atoms: C_6  and  C_7 
REMARK    4  A    between atoms: N_10  and  C_11 
REMARK    5  A    between atoms: C_15  and  N_16 
REMARK    6  A    between atoms: C_17  and  C_18 
REMARK    7  A    between atoms: C_18  and  N_19 
REMARK    8  A    between atoms: C_29  and  O_30 
REMARK    9  A    between atoms: O_30  and  C_31 
REMARK   10  A    between atoms: C_31  and  C_32 
ROOT
HETATM    1  N   UNL     1      -8.756   2.910 -33.820  1.00  0.00    -0.242 N 
HETATM    2  C   UNL     1      -9.110   1.576 -33.914  1.00  0.00     0.294 C 
HETATM    3  O   UNL     1     -10.290   1.240 -33.787  1.00  0.00    -0.264 OA
HETATM    4  H   UNL     1      -9.505   3.579 -33.672  1.00  0.00     0.192 HD
ENDROOT
BRANCH   2   5
HETATM    5  C   UNL     1      -8.084   0.568 -34.209  1.00  0.00     0.176 A 
HETATM    6  N   UNL     1      -7.855   0.008 -35.433  1.00  0.00    -0.124 NA
HETATM    7  N   UNL     1      -6.878  -0.871 -35.324  1.00  0.00    -0.058 NA
HETATM    8  N   UNL     1      -6.427  -0.878 -34.048  1.00  0.00    -0.191 N 
HETATM    9  C   UNL     1      -7.181   0.023 -33.299  1.00  0.00     0.102 A 
BRANCH   8  10
HETATM   10  C   UNL     1      -5.326  -1.672 -33.646  1.00  0.00     0.229 A 
HETATM   11  N   UNL     1      -4.463  -1.213 -32.734  1.00  0.00    -0.081 NA
HETATM   12  O   UNL     1      -3.532  -2.250 -32.609  1.00  0.00    -0.103 OA
HETATM   13  N   UNL     1      -3.829  -3.296 -33.470  1.00  0.00    -0.083 NA
HETATM   14  C   UNL     1      -4.939  -2.940 -34.113  1.00  0.00     0.201 A 
BRANCH  14  15
HETATM   15  N   UNL     1      -5.555  -3.685 -35.042  1.00  0.00    -0.379 N 
HETATM   16  H   UNL     1      -6.265  -3.282 -35.648  1.00  0.00     0.158 HD
HETATM   17  H   UNL     1      -5.328  -4.659 -35.234  1.00  0.00     0.158 HD
ENDBRANCH  14  15
ENDBRANCH   8  10
BRANCH   9  18
HETATM   18  C   UNL     1      -7.055   0.228 -31.836  1.00  0.00     0.296 C 
BRANCH  18  19
HETATM   19  N   UNL     1      -6.623   1.616 -31.427  1.00  0.00    -0.066 N 
HETATM   20  H   UNL     1      -6.644   2.182 -32.289  1.00  0.00     0.280 HD
HETATM   21  C   UNL     1      -7.534   2.259 -30.406  1.00  0.00     0.235 C 
HETATM   22  C   UNL     1      -7.098   3.703 -30.189  1.00  0.00     0.028 C 
HETATM   23  C   UNL     1      -5.636   3.797 -29.770  1.00  0.00     0.003 C 
HETATM   24  C   UNL     1      -4.730   3.059 -30.749  1.00  0.00     0.028 C 
HETATM   25  C   UNL     1      -5.183   1.623 -30.963  1.00  0.00     0.235 C 
ENDBRANCH  18  19
ENDBRANCH   9  18
ENDBRANCH   2   5
BRANCH   1  26
HETATM   26  N   UNL     1      -7.471   3.340 -33.854  1.00  0.00    -0.184 NA
HETATM   27  C   UNL     1      -7.274   4.602 -33.645  1.00  0.00     0.150 C 
BRANCH  27  28
HETATM   28  C   UNL     1      -5.906   5.157 -33.624  1.00  0.00    -0.017 A 
HETATM   29  C   UNL     1      -4.973   4.725 -34.566  1.00  0.00     0.016 A 
HETATM   30  C   UNL     1      -3.671   5.234 -34.525  1.00  0.00     0.037 A 
HETATM   31  C   UNL     1      -3.301   6.182 -33.564  1.00  0.00     0.069 A 
HETATM   32  C   UNL     1      -4.249   6.630 -32.645  1.00  0.00     0.037 A 
HETATM   33  C   UNL     1      -5.547   6.109 -32.666  1.00  0.00     0.016 A 
BRANCH  31  34
HETATM   34  O   UNL     1      -1.993   6.576 -33.627  1.00  0.00    -0.347 OA
BRANCH  34  35
HETATM   35  C   UNL     1      -1.656   7.823 -33.024  1.00  0.00     0.216 C 
BRANCH  35  36
HETATM   36  C   UNL     1      -1.039   7.547 -31.673  1.00  0.00    -0.012 A 
HETATM   37  C   UNL     1      -1.474   8.198 -30.505  1.00  0.00     0.044 A 
HETATM   38 CL   UNL     1      -2.743   9.370 -30.534  1.00  0.00    -0.084 Cl
HETATM   39  C   UNL     1      -0.881   7.921 -29.270  1.00  0.00     0.048 A 
HETATM   40  C   UNL     1       0.141   6.980 -29.191  1.00  0.00     0.035 A 
HETATM   41 CL   UNL     1       0.874   6.642 -27.672  1.00  0.00    -0.084 Cl
HETATM   42  C   UNL     1       0.573   6.310 -30.332  1.00  0.00     0.024 A 
HETATM   43  C   UNL     1      -0.017   6.587 -31.567  1.00  0.00     0.013 A 
ENDBRANCH  35  36
ENDBRANCH  34  35
ENDBRANCH  31  34
ENDBRANCH  27  28
ENDBRANCH   1  26
TORSDOF 10
ENDMDL
MODEL 2
REMARK VINA RESULT:      -8.6      4.662      8.953
REMARK  10 active torsions:
REMARK  status: ('A' for Active; 'I' for Inactive)
REMARK    1  A    between atoms: C_2  and  C_3 
REMARK    2  A    between atoms: N_4  and  N_5 
REMARK       I    between atoms: N_5  and  C_6 
REMARK    3  A    between atoms: C_6  and  C_7 
REMARK    4  A    between atoms: N_10  and  C_11 
REMARK    5  A    between atoms: C_15  and  N_16 
REMARK    6  A    between atoms: C_17  and  C_18 
REMARK    7  A    between atoms: C_18  and  N_19 
REMARK    8  A    between atoms: C_29  and  O_30 
REMARK    9  A    between atoms: O_30  and  C_31 
REMARK   10  A    between atoms: C_31  and  C_32 
ROOT
HETATM    1  N   UNL     1      -6.532   6.350 -27.981  1.00  0.00    -0.242 N 
HETATM    2  C   UNL     1      -5.608   7.376 -27.900  1.00  0.00     0.294 C 
HETATM    3  O   UNL     1      -5.803   8.322 -27.134  1.00  0.00    -0.264 OA
HETATM    4  H   UNL     1      -7.342   6.405 -27.372  1.00  0.00     0.192 HD
ENDROOT
BRANCH   2   5
HETATM    5  C   UNL     1      -4.376   7.313 -28.696  1.00  0.00     0.176 A 
HETATM    6  N   UNL     1      -3.135   7.018 -28.209  1.00  0.00    -0.124 NA
HETATM    7  N   UNL     1      -2.264   7.074 -29.198  1.00  0.00    -0.058 NA
HETATM    8  N   UNL     1      -2.915   7.369 -30.347  1.00  0.00    -0.191 N 
HETATM    9  C   UNL     1      -4.269   7.541 -30.066  1.00  0.00     0.102 A 
BRANCH   8  10
HETATM   10  C   UNL     1      -2.248   7.423 -31.595  1.00  0.00     0.229 A 
HETATM   11  N   UNL     1      -2.195   8.569 -32.281  1.00  0.00    -0.081 NA
HETATM   12  O   UNL     1      -1.480   8.229 -33.435  1.00  0.00    -0.103 OA
HETATM   13  N   UNL     1      -1.147   6.883 -33.440  1.00  0.00    -0.083 NA
HETATM   14  C   UNL     1      -1.622   6.382 -32.303  1.00  0.00     0.201 A 
BRANCH  14  15
HETATM   15  N   UNL     1      -1.508   5.100 -31.927  1.00  0.00    -0.379 N 
HETATM   16  H   UNL     1      -1.631   4.346 -32.598  1.00  0.00     0.158 HD
HETATM   17  H   UNL     1      -1.251   4.801 -30.988  1.00  0.00     0.158 HD
ENDBRANCH  14  15
ENDBRANCH   8  10
BRANCH   9  18
HETATM   18  C   UNL     1      -5.294   7.968 -31.048  1.00  0.00     0.296 C 
BRANCH  18  19
HETATM   19  N   UNL     1      -6.126   6.846 -31.624  1.00  0.00    -0.066 N 
HETATM   20  H   UNL     1      -6.202   6.141 -30.875  1.00  0.00     0.280 HD
HETATM   21  C   UNL     1      -7.519   7.270 -32.030  1.00  0.00     0.235 C 
HETATM   22  C   UNL     1      -8.314   6.038 -32.443  1.00  0.00     0.028 C 
HETATM   23  C   UNL     1      -7.620   5.261 -33.556  1.00  0.00     0.003 C 
HETATM   24  C   UNL     1      -6.181   4.925 -33.182  1.00  0.00     0.028 C 
HETATM   25  C   UNL     1      -5.403   6.163 -32.764  1.00  0.00     0.235 C 
ENDBRANCH  18  19
ENDBRANCH   9  18
ENDBRANCH   2   5
BRANCH   1  26
HETATM   26  N   UNL     1      -6.430   5.329 -28.868  1.00  0.00    -0.184 NA
HETATM   27  C   UNL     1      -7.463   4.559 -28.990  1.00  0.00     0.150 C 
BRANCH  27  28
HETATM   28  C   UNL     1      -7.461   3.445 -29.958  1.00  0.00    -0.017 A 
HETATM   29  C   UNL     1      -8.658   3.041 -30.547  1.00  0.00     0.016 A 
HETATM   30  C   UNL     1      -8.654   1.967 -31.443  1.00  0.00     0.037 A 
HETATM   31  C   UNL     1      -7.463   1.307 -31.767  1.00  0.00     0.069 A 
HETATM   32  C   UNL     1      -6.266   1.737 -31.196  1.00  0.00     0.037 A 
HETATM   33  C   UNL     1      -6.266   2.797 -30.282  1.00  0.00     0.016 A 
BRANCH  31  34
HETATM   34  O   UNL     1      -7.608   0.264 -32.639  1.00  0.00    -0.347 OA
BRANCH  34  35
HETATM   35  C   UNL     1      -6.804   0.277 -33.816  1.00  0.00     0.216 C 
BRANCH  35  36
HETATM   36  C   UNL     1      -6.245  -1.110 -34.026  1.00  0.00    -0.012 A 
HETATM   37  C   UNL     1      -4.914  -1.436 -33.712  1.00  0.00     0.044 A 
HETATM   38 CL   UNL     1      -3.817  -0.266 -33.066  1.00  0.00    -0.084 Cl
HETATM   39  C   UNL     1      -4.427  -2.729 -33.919  1.00  0.00     0.048 A 
HETATM   40  C   UNL     1      -5.271  -3.710 -34.430  1.00  0.00     0.035 A 
HETATM   41 CL   UNL     1      -4.670  -5.301 -34.691  1.00  0.00    -0.084 Cl
HETATM   42  C   UNL     1      -6.597  -3.414 -34.730  1.00  0.00     0.024 A 
HETATM   43  C   UNL     1      -7.085  -2.122 -34.525  1.00  0.00     0.013 A 
ENDBRANCH  35  36
ENDBRANCH  34  35
ENDBRANCH  31  34
ENDBRANCH  27  28
ENDBRANCH   1  26
TORSDOF 10
ENDMDL
MODEL 3
REMARK VINA RESULT:      -8.5      5.352      9.691
REMARK  10 active torsions:
REMARK  status: ('A' for Active; 'I' for Inactive)
REMARK    1  A    between atoms: C_2  and  C_3 
REMARK    2  A    between atoms: N_4  and  N_5 
REMARK       I    between atoms: N_5  and  C_6 
REMARK    3  A    between atoms: C_6  and  C_7 
REMARK    4  A    between atoms: N_10  and  C_11 
REMARK    5  A    between atoms: C_15  and  N_16 
REMARK    6  A    between atoms: C_17  and  C_18 
REMARK    7  A    between atoms: C_18  and  N_19 
REMARK    8  A    between atoms: C_29  and  O_30 
REMARK    9  A    between atoms: O_30  and  C_31 
REMARK   10  A    between atoms: C_31  and  C_32 
ROOT
HETATM    1  N   UNL     1      -6.388   6.220 -29.247  1.00  0.00    -0.242 N 
HETATM    2  C   UNL     1      -5.850   7.312 -28.590  1.00  0.00     0.294 C 
HETATM    3  O   UNL     1      -6.507   8.349 -28.477  1.00  0.00    -0.264 OA
HETATM    4  H   UNL     1      -7.337   6.309 -29.596  1.00  0.00     0.192 HD
ENDROOT
BRANCH   2   5
HETATM    5  C   UNL     1      -4.513   7.217 -27.991  1.00  0.00     0.176 A 
HETATM    6  N   UNL     1      -4.244   6.783 -26.724  1.00  0.00    -0.124 NA
HETATM    7  N   UNL     1      -2.943   6.852 -26.517  1.00  0.00    -0.058 NA
HETATM    8  N   UNL     1      -2.337   7.294 -27.643  1.00  0.00    -0.191 N 
HETATM    9  C   UNL     1      -3.310   7.550 -28.608  1.00  0.00     0.102 A 
BRANCH   8  10
HETATM   10  C   UNL     1      -0.929   7.399 -27.745  1.00  0.00     0.229 A 
HETATM   11  N   UNL     1      -0.181   6.300 -27.886  1.00  0.00    -0.081 NA
HETATM   12  O   UNL     1       1.127   6.795 -27.941  1.00  0.00    -0.103 OA
HETATM   13  N   UNL     1       1.146   8.174 -27.799  1.00  0.00    -0.083 NA
HETATM   14  C   UNL     1      -0.126   8.550 -27.677  1.00  0.00     0.201 A 
BRANCH  14  15
HETATM   15  N   UNL     1      -0.535   9.817 -27.516  1.00  0.00    -0.379 N 
HETATM   16  H   UNL     1      -0.603  10.230 -26.590  1.00  0.00     0.158 HD
HETATM   17  H   UNL     1      -0.752  10.448 -28.286  1.00  0.00     0.158 HD
ENDBRANCH  14  15
ENDBRANCH   8  10
BRANCH   9  18
HETATM   18  C   UNL     1      -3.050   8.140 -29.942  1.00  0.00     0.296 C 
BRANCH  18  19
HETATM   19  N   UNL     1      -2.157   7.313 -30.837  1.00  0.00    -0.066 N 
HETATM   20  H   UNL     1      -1.210   7.389 -30.435  1.00  0.00     0.280 HD
HETATM   21  C   UNL     1      -2.541   5.852 -30.895  1.00  0.00     0.235 C 
HETATM   22  C   UNL     1      -1.487   5.092 -31.690  1.00  0.00     0.028 C 
HETATM   23  C   UNL     1      -1.299   5.675 -33.086  1.00  0.00     0.003 C 
HETATM   24  C   UNL     1      -1.013   7.171 -33.027  1.00  0.00     0.028 C 
HETATM   25  C   UNL     1      -2.068   7.915 -32.222  1.00  0.00     0.235 C 
ENDBRANCH  18  19
ENDBRANCH   9  18
ENDBRANCH   2   5
BRANCH   1  26
HETATM   26  N   UNL     1      -5.690   5.084 -29.490  1.00  0.00    -0.184 NA
HETATM   27  C   UNL     1      -6.366   4.065 -29.915  1.00  0.00     0.150 C 
BRANCH  27  28
HETATM   28  C   UNL     1      -5.687   2.796 -30.244  1.00  0.00    -0.017 A 
HETATM   29  C   UNL     1      -4.465   2.822 -30.915  1.00  0.00     0.016 A 
HETATM   30  C   UNL     1      -3.839   1.616 -31.248  1.00  0.00     0.037 A 
HETATM   31  C   UNL     1      -4.416   0.388 -30.901  1.00  0.00     0.069 A 
HETATM   32  C   UNL     1      -5.624   0.373 -30.204  1.00  0.00     0.037 A 
HETATM   33  C   UNL     1      -6.266   1.575 -29.887  1.00  0.00     0.016 A 
BRANCH  31  34
HETATM   34  O   UNL     1      -3.708  -0.709 -31.306  1.00  0.00    -0.347 OA
BRANCH  34  35
HETATM   35  C   UNL     1      -3.287  -0.750 -32.668  1.00  0.00     0.216 C 
BRANCH  35  36
HETATM   36  C   UNL     1      -4.179  -1.715 -33.412  1.00  0.00    -0.012 A 
HETATM   37  C   UNL     1      -5.374  -1.305 -34.029  1.00  0.00     0.044 A 
HETATM   38 CL   UNL     1      -5.913   0.336 -33.974  1.00  0.00    -0.084 Cl
HETATM   39  C   UNL     1      -6.178  -2.224 -34.710  1.00  0.00     0.048 A 
HETATM   40  C   UNL     1      -5.787  -3.557 -34.790  1.00  0.00     0.035 A 
HETATM   41 CL   UNL     1      -6.778  -4.688 -35.623  1.00  0.00    -0.084 Cl
HETATM   42  C   UNL     1      -4.598  -3.980 -34.203  1.00  0.00     0.024 A 
HETATM   43  C   UNL     1      -3.794  -3.063 -33.521  1.00  0.00     0.013 A 
ENDBRANCH  35  36
ENDBRANCH  34  35
ENDBRANCH  31  34
ENDBRANCH  27  28
ENDBRANCH   1  26
TORSDOF 10
ENDMDL
MODEL 4
REMARK VINA RESULT:      -8.5      5.259      9.447
REMARK  10 active torsions:
REMARK  status: ('A' for Active; 'I' for Inactive)
REMARK    1  A    between atoms: C_2  and  C_3 
REMARK    2  A    between atoms: N_4  and  N_5 
REMARK       I    between atoms: N_5  and  C_6 
REMARK    3  A    between atoms: C_6  and  C_7 
REMARK    4  A    between atoms: N_10  and  C_11 
REMARK    5  A    between atoms: C_15  and  N_16 
REMARK    6  A    between atoms: C_17  and  C_18 
REMARK    7  A    between atoms: C_18  and  N_19 
REMARK    8  A    between atoms: C_29  and  O_30 
REMARK    9  A    between atoms: O_30  and  C_31 
REMARK   10  A    between atoms: C_31  and  C_32 
ROOT
HETATM    1  N   UNL     1      -5.378   8.660 -31.609  1.00  0.00    -0.242 N 
HETATM    2  C   UNL     1      -4.639   9.531 -30.830  1.00  0.00     0.294 C 
HETATM    3  O   UNL     1      -4.580  10.727 -31.127  1.00  0.00    -0.264 OA
HETATM    4  H   UNL     1      -5.876   9.053 -32.401  1.00  0.00     0.192 HD
ENDROOT
BRANCH   2   5
HETATM    5  C   UNL     1      -3.963   9.038 -29.623  1.00  0.00     0.176 A 
HETATM    6  N   UNL     1      -4.438   9.153 -28.348  1.00  0.00    -0.124 NA
HETATM    7  N   UNL     1      -3.563   8.621 -27.517  1.00  0.00    -0.058 NA
HETATM    8  N   UNL     1      -2.526   8.119 -28.227  1.00  0.00    -0.191 N 
HETATM    9  C   UNL     1      -2.739   8.375 -29.580  1.00  0.00     0.102 A 
BRANCH   8  10
HETATM   10  C   UNL     1      -1.463   7.416 -27.607  1.00  0.00     0.229 A 
HETATM   11  N   UNL     1      -0.206   7.592 -28.026  1.00  0.00    -0.081 NA
HETATM   12  O   UNL     1       0.538   6.743 -27.199  1.00  0.00    -0.103 OA
HETATM   13  N   UNL     1      -0.283   6.048 -26.325  1.00  0.00    -0.083 NA
HETATM   14  C   UNL     1      -1.523   6.463 -26.576  1.00  0.00     0.201 A 
BRANCH  14  15
HETATM   15  N   UNL     1      -2.618   6.025 -25.938  1.00  0.00    -0.379 N 
HETATM   16  H   UNL     1      -3.362   5.552 -26.444  1.00  0.00     0.158 HD
HETATM   17  H   UNL     1      -2.756   6.089 -24.931  1.00  0.00     0.158 HD
ENDBRANCH  14  15
ENDBRANCH   8  10
BRANCH   9  18
HETATM   18  C   UNL     1      -1.778   8.067 -30.666  1.00  0.00     0.296 C 
BRANCH  18  19
HETATM   19  N   UNL     1      -2.215   6.966 -31.603  1.00  0.00    -0.066 N 
HETATM   20  H   UNL     1      -3.238   6.887 -31.486  1.00  0.00     0.280 HD
HETATM   21  C   UNL     1      -1.917   7.253 -33.057  1.00  0.00     0.235 C 
HETATM   22  C   UNL     1      -2.539   6.160 -33.918  1.00  0.00     0.028 C 
HETATM   23  C   UNL     1      -2.055   4.773 -33.512  1.00  0.00     0.003 C 
HETATM   24  C   UNL     1      -2.264   4.527 -32.022  1.00  0.00     0.028 C 
HETATM   25  C   UNL     1      -1.646   5.630 -31.176  1.00  0.00     0.235 C 
ENDBRANCH  18  19
ENDBRANCH   9  18
ENDBRANCH   2   5
BRANCH   1  26
HETATM   26  N   UNL     1      -5.410   7.321 -31.396  1.00  0.00    -0.184 NA
HETATM   27  C   UNL     1      -5.816   6.585 -32.381  1.00  0.00     0.150 C 
BRANCH  27  28
HETATM   28  C   UNL     1      -5.849   5.114 -32.257  1.00  0.00    -0.017 A 
HETATM   29  C   UNL     1      -5.819   4.325 -33.406  1.00  0.00     0.016 A 
HETATM   30  C   UNL     1      -5.878   2.934 -33.284  1.00  0.00     0.037 A 
HETATM   31  C   UNL     1      -5.949   2.325 -32.025  1.00  0.00     0.069 A 
HETATM   32  C   UNL     1      -5.949   3.122 -30.880  1.00  0.00     0.037 A 
HETATM   33  C   UNL     1      -5.912   4.516 -30.996  1.00  0.00     0.016 A 
BRANCH  31  34
HETATM   34  O   UNL     1      -6.022   0.960 -32.054  1.00  0.00    -0.347 OA
BRANCH  34  35
HETATM   35  C   UNL     1      -4.811   0.245 -32.287  1.00  0.00     0.216 C 
BRANCH  35  36
HETATM   36  C   UNL     1      -5.130  -0.969 -33.127  1.00  0.00    -0.012 A 
HETATM   37  C   UNL     1      -4.334  -2.128 -33.099  1.00  0.00     0.044 A 
HETATM   38 CL   UNL     1      -2.925  -2.242 -32.104  1.00  0.00    -0.084 Cl
HETATM   39  C   UNL     1      -4.655  -3.234 -33.890  1.00  0.00     0.048 A 
HETATM   40  C   UNL     1      -5.784  -3.197 -34.704  1.00  0.00     0.035 A 
HETATM   41 CL   UNL     1      -6.177  -4.556 -35.680  1.00  0.00    -0.084 Cl
HETATM   42  C   UNL     1      -6.596  -2.067 -34.731  1.00  0.00     0.024 A 
HETATM   43  C   UNL     1      -6.275  -0.960 -33.943  1.00  0.00     0.013 A 
ENDBRANCH  35  36
ENDBRANCH  34  35
ENDBRANCH  31  34
ENDBRANCH  27  28
ENDBRANCH   1  26
TORSDOF 10
ENDMDL
MODEL 5
REMARK VINA RESULT:      -8.4      5.144      9.484
REMARK  10 active torsions:
REMARK  status: ('A' for Active; 'I' for Inactive)
REMARK    1  A    between atoms: C_2  and  C_3 
REMARK    2  A    between atoms: N_4  and  N_5 
REMARK       I    between atoms: N_5  and  C_6 
REMARK    3  A    between atoms: C_6  and  C_7 
REMARK    4  A    between atoms: N_10  and  C_11 
REMARK    5  A    between atoms: C_15  and  N_16 
REMARK    6  A    between atoms: C_17  and  C_18 
REMARK    7  A    between atoms: C_18  and  N_19 
REMARK    8  A    between atoms: C_29  and  O_30 
REMARK    9  A    between atoms: O_30  and  C_31 
REMARK   10  A    between atoms: C_31  and  C_32 
ROOT
HETATM    1  N   UNL     1      -3.212   5.042 -35.105  1.00  0.00    -0.242 N 
HETATM    2  C   UNL     1      -1.993   5.582 -34.733  1.00  0.00     0.294 C 
HETATM    3  O   UNL     1      -0.968   5.270 -35.344  1.00  0.00    -0.264 OA
HETATM    4  H   UNL     1      -3.217   4.416 -35.904  1.00  0.00     0.192 HD
ENDROOT
BRANCH   2   5
HETATM    5  C   UNL     1      -1.931   6.558 -33.638  1.00  0.00     0.176 A 
HETATM    6  N   UNL     1      -1.832   7.911 -33.791  1.00  0.00    -0.124 NA
HETATM    7  N   UNL     1      -1.777   8.472 -32.598  1.00  0.00    -0.058 NA
HETATM    8  N   UNL     1      -1.875   7.511 -31.651  1.00  0.00    -0.191 N 
HETATM    9  C   UNL     1      -1.965   6.269 -32.276  1.00  0.00     0.102 A 
BRANCH   8  10
HETATM   10  C   UNL     1      -1.922   7.821 -30.270  1.00  0.00     0.229 A 
HETATM   11  N   UNL     1      -3.044   8.302 -29.725  1.00  0.00    -0.081 NA
HETATM   12  O   UNL     1      -2.705   8.489 -28.381  1.00  0.00    -0.103 OA
HETATM   13  N   UNL     1      -1.380   8.153 -28.147  1.00  0.00    -0.083 NA
HETATM   14  C   UNL     1      -0.893   7.739 -29.315  1.00  0.00     0.201 A 
BRANCH  14  15
HETATM   15  N   UNL     1       0.366   7.324 -29.513  1.00  0.00    -0.379 N 
HETATM   16  H   UNL     1       1.034   7.300 -28.748  1.00  0.00     0.158 HD
HETATM   17  H   UNL     1       0.717   6.970 -30.402  1.00  0.00     0.158 HD
ENDBRANCH  14  15
ENDBRANCH   8  10
BRANCH   9  18
HETATM   18  C   UNL     1      -1.988   4.964 -31.575  1.00  0.00     0.296 C 
BRANCH  18  19
HETATM   19  N   UNL     1      -3.349   4.315 -31.488  1.00  0.00    -0.066 N 
HETATM   20  H   UNL     1      -3.838   4.573 -32.360  1.00  0.00     0.280 HD
HETATM   21  C   UNL     1      -3.299   2.808 -31.391  1.00  0.00     0.235 C 
HETATM   22  C   UNL     1      -4.716   2.255 -31.471  1.00  0.00     0.028 C 
HETATM   23  C   UNL     1      -5.620   2.854 -30.400  1.00  0.00     0.003 C 
HETATM   24  C   UNL     1      -5.588   4.378 -30.436  1.00  0.00     0.028 C 
HETATM   25  C   UNL     1      -4.166   4.914 -30.365  1.00  0.00     0.235 C 
ENDBRANCH  18  19
ENDBRANCH   9  18
ENDBRANCH   2   5
BRANCH   1  26
HETATM   26  N   UNL     1      -4.361   5.266 -34.421  1.00  0.00    -0.184 NA
HETATM   27  C   UNL     1      -5.297   4.382 -34.553  1.00  0.00     0.150 C 
BRANCH  27  28
HETATM   28  C   UNL     1      -6.570   4.519 -33.817  1.00  0.00    -0.017 A 
HETATM   29  C   UNL     1      -7.370   3.396 -33.610  1.00  0.00     0.016 A 
HETATM   30  C   UNL     1      -8.587   3.536 -32.936  1.00  0.00     0.037 A 
HETATM   31  C   UNL     1      -9.002   4.784 -32.454  1.00  0.00     0.069 A 
HETATM   32  C   UNL     1      -8.181   5.896 -32.641  1.00  0.00     0.037 A 
HETATM   33  C   UNL     1      -6.972   5.766 -33.333  1.00  0.00     0.016 A 
BRANCH  31  34
HETATM   34  O   UNL     1     -10.220   4.779 -31.833  1.00  0.00    -0.347 OA
BRANCH  34  35
HETATM   35  C   UNL     1     -11.321   5.335 -32.549  1.00  0.00     0.216 C 
BRANCH  35  36
HETATM   36  C   UNL     1     -12.205   4.204 -33.016  1.00  0.00    -0.012 A 
HETATM   37  C   UNL     1     -12.112   3.671 -34.314  1.00  0.00     0.044 A 
HETATM   38 CL   UNL     1     -10.982   4.278 -35.472  1.00  0.00    -0.084 Cl
HETATM   39  C   UNL     1     -12.946   2.624 -34.717  1.00  0.00     0.048 A 
HETATM   40  C   UNL     1     -13.870   2.094 -33.821  1.00  0.00     0.035 A 
HETATM   41 CL   UNL     1     -14.900   0.809 -34.318  1.00  0.00    -0.084 Cl
HETATM   42  C   UNL     1     -13.964   2.594 -32.526  1.00  0.00     0.024 A 
HETATM   43  C   UNL     1     -13.133   3.641 -32.122  1.00  0.00     0.013 A 
ENDBRANCH  35  36
ENDBRANCH  34  35
ENDBRANCH  31  34
ENDBRANCH  27  28
ENDBRANCH   1  26
TORSDOF 10
ENDMDL
MODEL 6
REMARK VINA RESULT:      -8.3      5.390      9.634
REMARK  10 active torsions:
REMARK  status: ('A' for Active; 'I' for Inactive)
REMARK    1  A    between atoms: C_2  and  C_3 
REMARK    2  A    between atoms: N_4  and  N_5 
REMARK       I    between atoms: N_5  and  C_6 
REMARK    3  A    between atoms: C_6  and  C_7 
REMARK    4  A    between atoms: N_10  and  C_11 
REMARK    5  A    between atoms: C_15  and  N_16 
REMARK    6  A    between atoms: C_17  and  C_18 
REMARK    7  A    between atoms: C_18  and  N_19 
REMARK    8  A    between atoms: C_29  and  O_30 
REMARK    9  A    between atoms: O_30  and  C_31 
REMARK   10  A    between atoms: C_31  and  C_32 
ROOT
HETATM    1  N   UNL     1      -0.616   5.884 -32.088  1.00  0.00    -0.242 N 
HETATM    2  C   UNL     1       0.268   6.483 -31.210  1.00  0.00     0.294 C 
HETATM    3  O   UNL     1       1.293   7.020 -31.637  1.00  0.00    -0.264 OA
HETATM    4  H   UNL     1      -0.394   5.934 -33.077  1.00  0.00     0.192 HD
ENDROOT
BRANCH   2   5
HETATM    5  C   UNL     1      -0.038   6.516 -29.774  1.00  0.00     0.176 A 
HETATM    6  N   UNL     1       0.631   5.820 -28.808  1.00  0.00    -0.124 NA
HETATM    7  N   UNL     1       0.073   6.070 -27.639  1.00  0.00    -0.058 NA
HETATM    8  N   UNL     1      -0.939   6.953 -27.809  1.00  0.00    -0.191 N 
HETATM    9  C   UNL     1      -1.049   7.255 -29.165  1.00  0.00     0.102 A 
BRANCH   8  10
HETATM   10  C   UNL     1      -1.677   7.468 -26.717  1.00  0.00     0.229 A 
HETATM   11  N   UNL     1      -1.815   8.789 -26.560  1.00  0.00    -0.081 NA
HETATM   12  O   UNL     1      -2.580   8.905 -25.394  1.00  0.00    -0.103 OA
HETATM   13  N   UNL     1      -2.859   7.659 -24.852  1.00  0.00    -0.083 NA
HETATM   14  C   UNL     1      -2.300   6.768 -25.669  1.00  0.00     0.201 A 
BRANCH  14  15
HETATM   15  N   UNL     1      -2.342   5.440 -25.493  1.00  0.00    -0.379 N 
HETATM   16  H   UNL     1      -2.186   4.805 -26.271  1.00  0.00     0.158 HD
HETATM   17  H   UNL     1      -2.479   4.989 -24.590  1.00  0.00     0.158 HD
ENDBRANCH  14  15
ENDBRANCH   8  10
BRANCH   9  18
HETATM   18  C   UNL     1      -2.102   8.110 -29.763  1.00  0.00     0.296 C 
BRANCH  18  19
HETATM   19  N   UNL     1      -3.332   7.367 -30.229  1.00  0.00    -0.066 N 
HETATM   20  H   UNL     1      -2.984   6.519 -30.703  1.00  0.00     0.280 HD
HETATM   21  C   UNL     1      -4.251   6.949 -29.104  1.00  0.00     0.235 C 
HETATM   22  C   UNL     1      -5.365   6.076 -29.669  1.00  0.00     0.028 C 
HETATM   23  C   UNL     1      -6.130   6.782 -30.782  1.00  0.00     0.003 C 
HETATM   24  C   UNL     1      -5.187   7.293 -31.865  1.00  0.00     0.028 C 
HETATM   25  C   UNL     1      -4.076   8.154 -31.285  1.00  0.00     0.235 C 
ENDBRANCH  18  19
ENDBRANCH   9  18
ENDBRANCH   2   5
BRANCH   1  26
HETATM   26  N   UNL     1      -1.711   5.194 -31.682  1.00  0.00    -0.184 NA
HETATM   27  C   UNL     1      -2.473   4.714 -32.611  1.00  0.00     0.150 C 
BRANCH  27  28
HETATM   28  C   UNL     1      -3.667   3.916 -32.267  1.00  0.00    -0.017 A 
HETATM   29  C   UNL     1      -4.753   3.889 -33.141  1.00  0.00     0.016 A 
HETATM   30  C   UNL     1      -5.891   3.153 -32.798  1.00  0.00     0.037 A 
HETATM   31  C   UNL     1      -5.946   2.433 -31.598  1.00  0.00     0.069 A 
HETATM   32  C   UNL     1      -4.844   2.443 -30.744  1.00  0.00     0.037 A 
HETATM   33  C   UNL     1      -3.710   3.194 -31.071  1.00  0.00     0.016 A 
BRANCH  31  34
HETATM   34  O   UNL     1      -7.126   1.777 -31.381  1.00  0.00    -0.347 OA
BRANCH  34  35
HETATM   35  C   UNL     1      -7.051   0.421 -30.945  1.00  0.00     0.216 C 
BRANCH  35  36
HETATM   36  C   UNL     1      -6.597  -0.427 -32.109  1.00  0.00    -0.012 A 
HETATM   37  C   UNL     1      -7.435  -0.706 -33.203  1.00  0.00     0.044 A 
HETATM   38 CL   UNL     1      -9.051  -0.100 -33.292  1.00  0.00    -0.084 Cl
HETATM   39  C   UNL     1      -6.985  -1.496 -34.265  1.00  0.00     0.048 A 
HETATM   40  C   UNL     1      -5.689  -2.003 -34.246  1.00  0.00     0.035 A 
HETATM   41 CL   UNL     1      -5.136  -2.980 -35.550  1.00  0.00    -0.084 Cl
HETATM   42  C   UNL     1      -4.837  -1.724 -33.182  1.00  0.00     0.024 A 
HETATM   43  C   UNL     1      -5.285  -0.935 -32.120  1.00  0.00     0.013 A 
ENDBRANCH  35  36
ENDBRANCH  34  35
ENDBRANCH  31  34
ENDBRANCH  27  28
ENDBRANCH   1  26
TORSDOF 10
ENDMDL
MODEL 7
REMARK VINA RESULT:      -8.2      3.606      6.782
REMARK  10 active torsions:
REMARK  status: ('A' for Active; 'I' for Inactive)
REMARK    1  A    between atoms: C_2  and  C_3 
REMARK    2  A    between atoms: N_4  and  N_5 
REMARK       I    between atoms: N_5  and  C_6 
REMARK    3  A    between atoms: C_6  and  C_7 
REMARK    4  A    between atoms: N_10  and  C_11 
REMARK    5  A    between atoms: C_15  and  N_16 
REMARK    6  A    between atoms: C_17  and  C_18 
REMARK    7  A    between atoms: C_18  and  N_19 
REMARK    8  A    between atoms: C_29  and  O_30 
REMARK    9  A    between atoms: O_30  and  C_31 
REMARK   10  A    between atoms: C_31  and  C_32 
ROOT
HETATM    1  N   UNL     1     -11.887   0.103 -33.116  1.00  0.00    -0.242 N 
HETATM    2  C   UNL     1     -12.947   0.730 -33.746  1.00  0.00     0.294 C 
HETATM    3  O   UNL     1     -14.099   0.333 -33.558  1.00  0.00    -0.264 OA
HETATM    4  H   UNL     1     -12.108  -0.663 -32.488  1.00  0.00     0.192 HD
ENDROOT
BRANCH   2   5
HETATM    5  C   UNL     1     -12.700   1.896 -34.603  1.00  0.00     0.176 A 
HETATM    6  N   UNL     1     -12.708   1.888 -35.969  1.00  0.00    -0.124 NA
HETATM    7  N   UNL     1     -12.425   3.101 -36.404  1.00  0.00    -0.058 NA
HETATM    8  N   UNL     1     -12.264   3.927 -35.344  1.00  0.00    -0.191 N 
HETATM    9  C   UNL     1     -12.421   3.191 -34.171  1.00  0.00     0.102 A 
BRANCH   8  10
HETATM   10  C   UNL     1     -12.026   5.314 -35.503  1.00  0.00     0.229 A 
HETATM   11  N   UNL     1     -10.780   5.767 -35.677  1.00  0.00    -0.081 NA
HETATM   12  O   UNL     1     -10.945   7.152 -35.784  1.00  0.00    -0.103 OA
HETATM   13  N   UNL     1     -12.277   7.511 -35.638  1.00  0.00    -0.083 NA
HETATM   14  C   UNL     1     -12.947   6.374 -35.463  1.00  0.00     0.201 A 
BRANCH  14  15
HETATM   15  N   UNL     1     -14.273   6.290 -35.281  1.00  0.00    -0.379 N 
HETATM   16  H   UNL     1     -14.725   6.770 -34.507  1.00  0.00     0.158 HD
HETATM   17  H   UNL     1     -14.905   5.799 -35.910  1.00  0.00     0.158 HD
ENDBRANCH  14  15
ENDBRANCH   8  10
BRANCH   9  18
HETATM   18  C   UNL     1     -12.223   3.720 -32.802  1.00  0.00     0.296 C 
BRANCH  18  19
HETATM   19  N   UNL     1     -10.834   3.522 -32.241  1.00  0.00    -0.066 N 
HETATM   20  H   UNL     1     -10.596   2.535 -32.425  1.00  0.00     0.280 HD
HETATM   21  C   UNL     1      -9.787   4.399 -32.889  1.00  0.00     0.235 C 
HETATM   22  C   UNL     1      -8.412   4.005 -32.365  1.00  0.00     0.028 C 
HETATM   23  C   UNL     1      -8.342   4.081 -30.844  1.00  0.00     0.003 C 
HETATM   24  C   UNL     1      -9.463   3.277 -30.196  1.00  0.00     0.028 C 
HETATM   25  C   UNL     1     -10.828   3.676 -30.736  1.00  0.00     0.235 C 
ENDBRANCH  18  19
ENDBRANCH   9  18
ENDBRANCH   2   5
BRANCH   1  26
HETATM   26  N   UNL     1     -10.591   0.424 -33.350  1.00  0.00    -0.184 NA
HETATM   27  C   UNL     1      -9.740   0.116 -32.425  1.00  0.00     0.150 C 
BRANCH  27  28
HETATM   28  C   UNL     1      -8.300   0.391 -32.605  1.00  0.00    -0.017 A 
HETATM   29  C   UNL     1      -7.439   0.296 -31.513  1.00  0.00     0.016 A 
HETATM   30  C   UNL     1      -6.081   0.584 -31.684  1.00  0.00     0.037 A 
HETATM   31  C   UNL     1      -5.576   0.949 -32.938  1.00  0.00     0.069 A 
HETATM   32  C   UNL     1      -6.441   1.013 -34.030  1.00  0.00     0.037 A 
HETATM   33  C   UNL     1      -7.804   0.748 -33.862  1.00  0.00     0.016 A 
BRANCH  31  34
HETATM   34  O   UNL     1      -4.237   1.223 -32.956  1.00  0.00    -0.347 OA
BRANCH  34  35
HETATM   35  C   UNL     1      -3.649   1.693 -31.745  1.00  0.00     0.216 C 
BRANCH  35  36
HETATM   36  C   UNL     1      -3.474   3.189 -31.852  1.00  0.00    -0.012 A 
HETATM   37  C   UNL     1      -4.164   4.084 -31.015  1.00  0.00     0.044 A 
HETATM   38 CL   UNL     1      -5.269   3.534 -29.806  1.00  0.00    -0.084 Cl
HETATM   39  C   UNL     1      -3.980   5.464 -31.139  1.00  0.00     0.048 A 
HETATM   40  C   UNL     1      -3.096   5.959 -32.093  1.00  0.00     0.035 A 
HETATM   41 CL   UNL     1      -2.874   7.658 -32.250  1.00  0.00    -0.084 Cl
HETATM   42  C   UNL     1      -2.388   5.090 -32.918  1.00  0.00     0.024 A 
HETATM   43  C   UNL     1      -2.571   3.711 -32.796  1.00  0.00     0.013 A 
ENDBRANCH  35  36
ENDBRANCH  34  35
ENDBRANCH  31  34
ENDBRANCH  27  28
ENDBRANCH   1  26
TORSDOF 10
ENDMDL
MODEL 8
REMARK VINA RESULT:      -8.1      5.320      9.893
REMARK  10 active torsions:
REMARK  status: ('A' for Active; 'I' for Inactive)
REMARK    1  A    between atoms: C_2  and  C_3 
REMARK    2  A    between atoms: N_4  and  N_5 
REMARK       I    between atoms: N_5  and  C_6 
REMARK    3  A    between atoms: C_6  and  C_7 
REMARK    4  A    between atoms: N_10  and  C_11 
REMARK    5  A    between atoms: C_15  and  N_16 
REMARK    6  A    between atoms: C_17  and  C_18 
REMARK    7  A    between atoms: C_18  and  N_19 
REMARK    8  A    between atoms: C_29  and  O_30 
REMARK    9  A    between atoms: O_30  and  C_31 
REMARK   10  A    between atoms: C_31  and  C_32 
ROOT
HETATM    1  N   UNL     1      -0.456   5.504 -31.973  1.00  0.00    -0.242 N 
HETATM    2  C   UNL     1       0.290   6.343 -31.165  1.00  0.00     0.294 C 
HETATM    3  O   UNL     1       1.158   7.065 -31.660  1.00  0.00    -0.264 OA
HETATM    4  H   UNL     1      -0.272   5.536 -32.971  1.00  0.00     0.192 HD
ENDROOT
BRANCH   2   5
HETATM    5  C   UNL     1       0.016   6.402 -29.724  1.00  0.00     0.176 A 
HETATM    6  N   UNL     1       0.657   5.670 -28.767  1.00  0.00    -0.124 NA
HETATM    7  N   UNL     1       0.140   5.961 -27.588  1.00  0.00    -0.058 NA
HETATM    8  N   UNL     1      -0.815   6.907 -27.745  1.00  0.00    -0.191 N 
HETATM    9  C   UNL     1      -0.933   7.209 -29.100  1.00  0.00     0.102 A 
BRANCH   8  10
HETATM   10  C   UNL     1      -1.497   7.474 -26.641  1.00  0.00     0.229 A 
HETATM   11  N   UNL     1      -1.395   8.783 -26.387  1.00  0.00    -0.081 NA
HETATM   12  O   UNL     1      -2.180   8.959 -25.242  1.00  0.00    -0.103 OA
HETATM   13  N   UNL     1      -2.710   7.754 -24.808  1.00  0.00    -0.083 NA
HETATM   14  C   UNL     1      -2.288   6.833 -25.672  1.00  0.00     0.201 A 
BRANCH  14  15
HETATM   15  N   UNL     1      -2.583   5.527 -25.600  1.00  0.00    -0.379 N 
HETATM   16  H   UNL     1      -2.774   5.083 -24.706  1.00  0.00     0.158 HD
HETATM   17  H   UNL     1      -2.682   4.919 -26.412  1.00  0.00     0.158 HD
ENDBRANCH  14  15
ENDBRANCH   8  10
BRANCH   9  18
HETATM   18  C   UNL     1      -1.940   8.127 -29.682  1.00  0.00     0.296 C 
BRANCH  18  19
HETATM   19  N   UNL     1      -3.252   7.475 -30.054  1.00  0.00    -0.066 N 
HETATM   20  H   UNL     1      -3.059   6.462 -30.095  1.00  0.00     0.280 HD
HETATM   21  C   UNL     1      -4.355   7.716 -29.049  1.00  0.00     0.235 C 
HETATM   22  C   UNL     1      -5.573   6.887 -29.439  1.00  0.00     0.028 C 
HETATM   23  C   UNL     1      -6.035   7.191 -30.860  1.00  0.00     0.003 C 
HETATM   24  C   UNL     1      -4.891   7.046 -31.857  1.00  0.00     0.028 C 
HETATM   25  C   UNL     1      -3.680   7.871 -31.449  1.00  0.00     0.235 C 
ENDBRANCH  18  19
ENDBRANCH   9  18
ENDBRANCH   2   5
BRANCH   1  26
HETATM   26  N   UNL     1      -1.358   4.616 -31.487  1.00  0.00    -0.184 NA
HETATM   27  C   UNL     1      -2.342   4.300 -32.267  1.00  0.00     0.150 C 
BRANCH  27  28
HETATM   28  C   UNL     1      -3.353   3.313 -31.840  1.00  0.00    -0.017 A 
HETATM   29  C   UNL     1      -4.347   3.691 -30.938  1.00  0.00     0.016 A 
HETATM   30  C   UNL     1      -5.286   2.744 -30.516  1.00  0.00     0.037 A 
HETATM   31  C   UNL     1      -5.251   1.432 -31.002  1.00  0.00     0.069 A 
HETATM   32  C   UNL     1      -4.270   1.071 -31.926  1.00  0.00     0.037 A 
HETATM   33  C   UNL     1      -3.315   2.007 -32.335  1.00  0.00     0.016 A 
BRANCH  31  34
HETATM   34  O   UNL     1      -6.215   0.608 -30.490  1.00  0.00    -0.347 OA
BRANCH  34  35
HETATM   35  C   UNL     1      -6.689  -0.444 -31.327  1.00  0.00     0.216 C 
BRANCH  35  36
HETATM   36  C   UNL     1      -7.773   0.111 -32.221  1.00  0.00    -0.012 A 
HETATM   37  C   UNL     1      -7.707   0.017 -33.622  1.00  0.00     0.044 A 
HETATM   38 CL   UNL     1      -6.375  -0.737 -34.424  1.00  0.00    -0.084 Cl
HETATM   39  C   UNL     1      -8.726   0.542 -34.422  1.00  0.00     0.048 A 
HETATM   40  C   UNL     1      -9.825   1.154 -33.825  1.00  0.00     0.035 A 
HETATM   41 CL   UNL     1     -11.077   1.805 -34.809  1.00  0.00    -0.084 Cl
HETATM   42  C   UNL     1      -9.918   1.241 -32.439  1.00  0.00     0.024 A 
HETATM   43  C   UNL     1      -8.900   0.718 -31.639  1.00  0.00     0.013 A 
ENDBRANCH  35  36
ENDBRANCH  34  35
ENDBRANCH  31  34
ENDBRANCH  27  28
ENDBRANCH   1  26
TORSDOF 10
ENDMDL
MODEL 9
REMARK VINA RESULT:      -8.1      4.979      8.832
REMARK  10 active torsions:
REMARK  status: ('A' for Active; 'I' for Inactive)
REMARK    1  A    between atoms: C_2  and  C_3 
REMARK    2  A    between atoms: N_4  and  N_5 
REMARK       I    between atoms: N_5  and  C_6 
REMARK    3  A    between atoms: C_6  and  C_7 
REMARK    4  A    between atoms: N_10  and  C_11 
REMARK    5  A    between atoms: C_15  and  N_16 
REMARK    6  A    between atoms: C_17  and  C_18 
REMARK    7  A    between atoms: C_18  and  N_19 
REMARK    8  A    between atoms: C_29  and  O_30 
REMARK    9  A    between atoms: O_30  and  C_31 
REMARK   10  A    between atoms: C_31  and  C_32 
ROOT
HETATM    1  N   UNL     1      -8.516   0.697 -31.252  1.00  0.00    -0.242 N 
HETATM    2  C   UNL     1      -7.170   0.815 -30.953  1.00  0.00     0.294 C 
HETATM    3  O   UNL     1      -6.588  -0.097 -30.361  1.00  0.00    -0.264 OA
HETATM    4  H   UNL     1      -8.976  -0.168 -30.990  1.00  0.00     0.192 HD
ENDROOT
BRANCH   2   5
HETATM    5  C   UNL     1      -6.429   2.008 -31.379  1.00  0.00     0.176 A 
HETATM    6  N   UNL     1      -6.076   3.050 -30.569  1.00  0.00    -0.124 NA
HETATM    7  N   UNL     1      -5.442   3.954 -31.290  1.00  0.00    -0.058 NA
HETATM    8  N   UNL     1      -5.336   3.512 -32.565  1.00  0.00    -0.191 N 
HETATM    9  C   UNL     1      -5.965   2.273 -32.665  1.00  0.00     0.102 A 
BRANCH   8  10
HETATM   10  C   UNL     1      -4.634   4.240 -33.556  1.00  0.00     0.229 A 
HETATM   11  N   UNL     1      -5.279   4.715 -34.626  1.00  0.00    -0.081 NA
HETATM   12  O   UNL     1      -4.274   5.352 -35.362  1.00  0.00    -0.103 OA
HETATM   13  N   UNL     1      -3.040   5.220 -34.742  1.00  0.00    -0.083 NA
HETATM   14  C   UNL     1      -3.261   4.532 -33.624  1.00  0.00     0.201 A 
BRANCH  14  15
HETATM   15  N   UNL     1      -2.313   4.191 -32.739  1.00  0.00    -0.379 N 
HETATM   16  H   UNL     1      -2.405   3.351 -32.174  1.00  0.00     0.158 HD
HETATM   17  H   UNL     1      -1.443   4.703 -32.610  1.00  0.00     0.158 HD
ENDBRANCH  14  15
ENDBRANCH   8  10
BRANCH   9  18
HETATM   18  C   UNL     1      -6.146   1.510 -33.923  1.00  0.00     0.296 C 
BRANCH  18  19
HETATM   19  N   UNL     1      -6.012   0.012 -33.781  1.00  0.00    -0.066 N 
HETATM   20  H   UNL     1      -6.511  -0.232 -32.911  1.00  0.00     0.280 HD
HETATM   21  C   UNL     1      -6.626  -0.763 -34.924  1.00  0.00     0.235 C 
HETATM   22  C   UNL     1      -6.575  -2.251 -34.600  1.00  0.00     0.028 C 
HETATM   23  C   UNL     1      -5.155  -2.720 -34.305  1.00  0.00     0.003 C 
HETATM   24  C   UNL     1      -4.503  -1.868 -33.222  1.00  0.00     0.028 C 
HETATM   25  C   UNL     1      -4.570  -0.385 -33.556  1.00  0.00     0.235 C 
ENDBRANCH  18  19
ENDBRANCH   9  18
ENDBRANCH   2   5
BRANCH   1  26
HETATM   26  N   UNL     1      -9.239   1.697 -31.814  1.00  0.00    -0.184 NA
HETATM   27  C   UNL     1      -9.726   1.471 -32.993  1.00  0.00     0.150 C 
BRANCH  27  28
HETATM   28  C   UNL     1     -10.559   2.485 -33.669  1.00  0.00    -0.017 A 
HETATM   29  C   UNL     1     -11.943   2.465 -33.498  1.00  0.00     0.016 A 
HETATM   30  C   UNL     1     -12.730   3.410 -34.163  1.00  0.00     0.037 A 
HETATM   31  C   UNL     1     -12.145   4.384 -34.981  1.00  0.00     0.069 A 
HETATM   32  C   UNL     1     -10.757   4.414 -35.122  1.00  0.00     0.037 A 
HETATM   33  C   UNL     1      -9.966   3.458 -34.478  1.00  0.00     0.016 A 
BRANCH  31  34
HETATM   34  O   UNL     1     -13.033   5.230 -35.585  1.00  0.00    -0.347 OA
BRANCH  34  35
HETATM   35  C   UNL     1     -13.023   6.594 -35.170  1.00  0.00     0.216 C 
BRANCH  35  36
HETATM   36  C   UNL     1     -12.651   7.450 -36.358  1.00  0.00    -0.012 A 
HETATM   37  C   UNL     1     -13.572   7.759 -37.374  1.00  0.00     0.044 A 
HETATM   38 CL   UNL     1     -15.199   7.175 -37.339  1.00  0.00    -0.084 Cl
HETATM   39  C   UNL     1     -13.197   8.552 -38.462  1.00  0.00     0.048 A 
HETATM   40  C   UNL     1     -11.901   9.054 -38.534  1.00  0.00     0.035 A 
HETATM   41 CL   UNL     1     -11.436  10.026 -39.875  1.00  0.00    -0.084 Cl
HETATM   42  C   UNL     1     -10.979   8.776 -37.529  1.00  0.00     0.024 A 
HETATM   43  C   UNL     1     -11.352   7.982 -36.443  1.00  0.00     0.013 A 
ENDBRANCH  35  36
ENDBRANCH  34  35
ENDBRANCH  31  34
ENDBRANCH  27  28
ENDBRANCH   1  26
TORSDOF 10
ENDMDL
MODEL 10
REMARK VINA RESULT:      -8.0      5.081      9.839
REMARK  10 active torsions:
REMARK  status: ('A' for Active; 'I' for Inactive)
REMARK    1  A    between atoms: C_2  and  C_3 
REMARK    2  A    between atoms: N_4  and  N_5 
REMARK       I    between atoms: N_5  and  C_6 
REMARK    3  A    between atoms: C_6  and  C_7 
REMARK    4  A    between atoms: N_10  and  C_11 
REMARK    5  A    between atoms: C_15  and  N_16 
REMARK    6  A    between atoms: C_17  and  C_18 
REMARK    7  A    between atoms: C_18  and  N_19 
REMARK    8  A    between atoms: C_29  and  O_30 
REMARK    9  A    between atoms: O_30  and  C_31 
REMARK   10  A    between atoms: C_31  and  C_32 
ROOT
HETATM    1  N   UNL     1      -0.694   5.508 -32.226  1.00  0.00    -0.242 N 
HETATM    2  C   UNL     1      -0.373   6.686 -31.576  1.00  0.00     0.294 C 
HETATM    3  O   UNL     1       0.796   6.916 -31.257  1.00  0.00    -0.264 OA
HETATM    4  H   UNL     1       0.069   4.875 -32.443  1.00  0.00     0.192 HD
ENDROOT
BRANCH   2   5
HETATM    5  C   UNL     1      -1.419   7.680 -31.306  1.00  0.00     0.176 A 
HETATM    6  N   UNL     1      -1.843   8.638 -32.181  1.00  0.00    -0.124 NA
HETATM    7  N   UNL     1      -2.775   9.367 -31.598  1.00  0.00    -0.058 NA
HETATM    8  N   UNL     1      -3.005   8.882 -30.356  1.00  0.00    -0.191 N 
HETATM    9  C   UNL     1      -2.148   7.807 -30.126  1.00  0.00     0.102 A 
BRANCH   8  10
HETATM   10  C   UNL     1      -4.012   9.417 -29.516  1.00  0.00     0.229 A 
HETATM   11  N   UNL     1      -3.804  10.565 -28.863  1.00  0.00    -0.081 NA
HETATM   12  O   UNL     1      -4.992  10.757 -28.148  1.00  0.00    -0.103 OA
HETATM   13  N   UNL     1      -5.875   9.709 -28.354  1.00  0.00    -0.083 NA
HETATM   14  C   UNL     1      -5.271   8.878 -29.200  1.00  0.00     0.201 A 
BRANCH  14  15
HETATM   15  N   UNL     1      -5.799   7.731 -29.651  1.00  0.00    -0.379 N 
HETATM   16  H   UNL     1      -5.221   6.905 -29.779  1.00  0.00     0.158 HD
HETATM   17  H   UNL     1      -6.790   7.597 -29.845  1.00  0.00     0.158 HD
ENDBRANCH  14  15
ENDBRANCH   8  10
BRANCH   9  18
HETATM   18  C   UNL     1      -2.030   7.073 -28.844  1.00  0.00     0.296 C 
BRANCH  18  19
HETATM   19  N   UNL     1      -0.924   7.559 -27.936  1.00  0.00    -0.066 N 
HETATM   20  H   UNL     1      -1.329   7.575 -26.987  1.00  0.00     0.280 HD
HETATM   21  C   UNL     1       0.292   6.662 -27.927  1.00  0.00     0.235 C 
HETATM   22  C   UNL     1       1.268   7.157 -26.866  1.00  0.00     0.028 C 
HETATM   23  C   UNL     1       1.651   8.616 -27.084  1.00  0.00     0.003 C 
HETATM   24  C   UNL     1       0.416   9.503 -27.196  1.00  0.00     0.028 C 
HETATM   25  C   UNL     1      -0.552   8.991 -28.251  1.00  0.00     0.235 C 
ENDBRANCH  18  19
ENDBRANCH   9  18
ENDBRANCH   2   5
BRANCH   1  26
HETATM   26  N   UNL     1      -1.967   5.148 -32.520  1.00  0.00    -0.184 NA
HETATM   27  C   UNL     1      -2.571   4.391 -31.661  1.00  0.00     0.150 C 
BRANCH  27  28
HETATM   28  C   UNL     1      -3.972   3.978 -31.876  1.00  0.00    -0.017 A 
HETATM   29  C   UNL     1      -4.434   3.757 -33.173  1.00  0.00     0.016 A 
HETATM   30  C   UNL     1      -5.769   3.392 -33.372  1.00  0.00     0.037 A 
HETATM   31  C   UNL     1      -6.640   3.231 -32.287  1.00  0.00     0.069 A 
HETATM   32  C   UNL     1      -6.160   3.426 -30.992  1.00  0.00     0.037 A 
HETATM   33  C   UNL     1      -4.832   3.812 -30.787  1.00  0.00     0.016 A 
BRANCH  31  34
HETATM   34  O   UNL     1      -7.920   2.893 -32.629  1.00  0.00    -0.347 OA
BRANCH  34  35
HETATM   35  C   UNL     1      -8.408   1.633 -32.174  1.00  0.00     0.216 C 
BRANCH  35  36
HETATM   36  C   UNL     1      -7.674   0.543 -32.917  1.00  0.00    -0.012 A 
HETATM   37  C   UNL     1      -6.721  -0.279 -32.288  1.00  0.00     0.044 A 
HETATM   38 CL   UNL     1      -6.318  -0.095 -30.618  1.00  0.00    -0.084 Cl
HETATM   39  C   UNL     1      -6.058  -1.280 -33.004  1.00  0.00     0.048 A 
HETATM   40  C   UNL     1      -6.351  -1.475 -34.350  1.00  0.00     0.035 A 
HETATM   41 CL   UNL     1      -5.531  -2.702 -35.233  1.00  0.00    -0.084 Cl
HETATM   42  C   UNL     1      -7.304  -0.685 -34.987  1.00  0.00     0.024 A 
HETATM   43  C   UNL     1      -7.967   0.316 -34.273  1.00  0.00     0.013 A 
ENDBRANCH  35  36
ENDBRANCH  34  35
ENDBRANCH  31  34
ENDBRANCH  27  28
ENDBRANCH   1  26
TORSDOF 10
ENDMDL
