MODEL 1
REMARK VINA RESULT:      -8.9      0.000      0.000
REMARK  4 active torsions:
REMARK  status: ('A' for Active; 'I' for Inactive)
REMARK    1  A    between atoms: C_6  and  N_7 
REMARK       I    between atoms: N_7  and  C_8 
REMARK    2  A    between atoms: C_8  and  C_9 
REMARK    3  A    between atoms: C_10  and  C_11 
REMARK    4  A    between atoms: C_14  and  O_15 
ROOT
HETATM    1  C   UNL     1      -7.545   3.597 -32.876  1.00  0.00     0.062 A 
HETATM    2  C   UNL     1      -6.404   2.646 -32.543  1.00  0.00     0.202 A 
HETATM    3  N   UNL     1      -5.100   3.248 -32.854  1.00  0.00    -0.084 N 
HETATM    4  C   UNL     1      -4.940   4.496 -33.394  1.00  0.00     0.725 A 
HETATM    5  N   UNL     1      -6.027   5.236 -33.682  1.00  0.00    -0.192 N 
HETATM    6  N   UNL     1      -3.909   2.721 -32.492  1.00  0.00    -0.149 NA
HETATM    7  C   UNL     1      -3.074   3.658 -32.956  1.00  0.00     0.275 A 
HETATM    8  N   UNL     1      -3.665   4.768 -33.502  1.00  0.00    -0.054 NA
HETATM    9  C   UNL     1      -7.327   4.818 -33.424  1.00  0.00     0.037 A 
HETATM   10  C   UNL     1      -8.413   5.804 -33.776  1.00  0.00     0.070 C 
HETATM   11  H   UNL     1      -5.898   6.158 -34.088  1.00  0.00     0.184 HD
ENDROOT
BRANCH   1  12
HETATM   12  C   UNL     1      -8.932   3.109 -32.667  1.00  0.00     0.256 C 
HETATM   13  N   UNL     1      -9.557   2.744 -33.839  1.00  0.00    -0.323 N 
HETATM   14  H   UNL     1      -9.023   2.825 -34.692  1.00  0.00     0.169 HD
HETATM   15  O   UNL     1      -9.372   3.048 -31.526  1.00  0.00    -0.267 OA
BRANCH  13  16
HETATM   16  C   UNL     1     -10.864   2.215 -33.986  1.00  0.00     0.041 A 
HETATM   17  C   UNL     1     -11.118   0.893 -33.562  1.00  0.00    -0.035 A 
HETATM   18  C   UNL     1     -12.420   0.366 -33.674  1.00  0.00     0.015 A 
HETATM   19  C   UNL     1     -10.043   0.007 -32.990  1.00  0.00     0.050 C 
HETATM   20  C   UNL     1     -13.466   1.121 -34.213  1.00  0.00    -0.061 A 
HETATM   21  C   UNL     1     -14.858   0.566 -34.289  1.00  0.00     0.048 C 
HETATM   22  C   UNL     1     -13.205   2.425 -34.630  1.00  0.00     0.009 A 
HETATM   23  C   UNL     1     -11.919   2.962 -34.523  1.00  0.00     0.030 A 
ENDBRANCH  13  16
ENDBRANCH   1  12
BRANCH   2  24
HETATM   24  C   UNL     1      -6.506   1.263 -33.178  1.00  0.00    -0.028 A 
HETATM   25  C   UNL     1      -6.393   0.081 -32.429  1.00  0.00     0.012 A 
HETATM   26  C   UNL     1      -6.500  -1.166 -33.052  1.00  0.00     0.037 A 
HETATM   27  C   UNL     1      -6.745  -1.264 -34.423  1.00  0.00     0.068 A 
HETATM   28  C   UNL     1      -6.878  -0.099 -35.173  1.00  0.00     0.037 A 
HETATM   29  C   UNL     1      -6.760   1.152 -34.556  1.00  0.00     0.012 A 
BRANCH  27  30
HETATM   30  O   UNL     1      -6.835  -2.543 -34.900  1.00  0.00    -0.356 OA
HETATM   31  C   UNL     1      -5.637  -3.310 -34.910  1.00  0.00     0.210 C 
ENDBRANCH  27  30
ENDBRANCH   2  24
TORSDOF 4
ENDMDL
MODEL 2
REMARK VINA RESULT:      -8.8      2.955      6.052
REMARK  4 active torsions:
REMARK  status: ('A' for Active; 'I' for Inactive)
REMARK    1  A    between atoms: C_6  and  N_7 
REMARK       I    between atoms: N_7  and  C_8 
REMARK    2  A    between atoms: C_8  and  C_9 
REMARK    3  A    between atoms: C_10  and  C_11 
REMARK    4  A    between atoms: C_14  and  O_15 
ROOT
HETATM    1  C   UNL     1      -7.130   2.575 -31.796  1.00  0.00     0.062 A 
HETATM    2  C   UNL     1      -5.918   3.201 -31.120  1.00  0.00     0.202 A 
HETATM    3  N   UNL     1      -6.322   4.187 -30.109  1.00  0.00    -0.084 N 
HETATM    4  C   UNL     1      -7.622   4.511 -29.829  1.00  0.00     0.725 A 
HETATM    5  N   UNL     1      -8.614   3.917 -30.519  1.00  0.00    -0.192 N 
HETATM    6  N   UNL     1      -5.478   4.761 -29.222  1.00  0.00    -0.149 NA
HETATM    7  C   UNL     1      -6.335   5.510 -28.518  1.00  0.00     0.275 A 
HETATM    8  N   UNL     1      -7.658   5.375 -28.848  1.00  0.00    -0.054 NA
HETATM    9  C   UNL     1      -8.397   2.947 -31.489  1.00  0.00     0.037 A 
HETATM   10  C   UNL     1      -9.637   2.364 -32.121  1.00  0.00     0.070 C 
HETATM   11  H   UNL     1      -9.576   4.169 -30.309  1.00  0.00     0.184 HD
ENDROOT
BRANCH   1  12
HETATM   12  C   UNL     1      -6.881   1.594 -32.884  1.00  0.00     0.256 C 
HETATM   13  N   UNL     1      -6.595   0.331 -32.415  1.00  0.00    -0.323 N 
HETATM   14  H   UNL     1      -6.601   0.197 -31.415  1.00  0.00     0.169 HD
HETATM   15  O   UNL     1      -6.973   1.965 -34.048  1.00  0.00    -0.267 OA
BRANCH  13  16
HETATM   16  C   UNL     1      -6.337  -0.832 -33.184  1.00  0.00     0.041 A 
HETATM   17  C   UNL     1      -5.005  -1.281 -33.319  1.00  0.00    -0.035 A 
HETATM   18  C   UNL     1      -4.739  -2.453 -34.054  1.00  0.00     0.015 A 
HETATM   19  C   UNL     1      -3.840  -0.551 -32.705  1.00  0.00     0.050 C 
HETATM   20  C   UNL     1      -5.767  -3.175 -34.670  1.00  0.00    -0.061 A 
HETATM   21  C   UNL     1      -5.478  -4.444 -35.415  1.00  0.00     0.048 C 
HETATM   22  C   UNL     1      -7.078  -2.723 -34.532  1.00  0.00     0.009 A 
HETATM   23  C   UNL     1      -7.358  -1.563 -33.803  1.00  0.00     0.030 A 
ENDBRANCH  13  16
ENDBRANCH   1  12
BRANCH   2  24
HETATM   24  C   UNL     1      -4.891   3.814 -32.067  1.00  0.00    -0.028 A 
HETATM   25  C   UNL     1      -3.580   3.326 -32.173  1.00  0.00     0.012 A 
HETATM   26  C   UNL     1      -2.674   3.916 -33.061  1.00  0.00     0.037 A 
HETATM   27  C   UNL     1      -3.059   4.981 -33.877  1.00  0.00     0.068 A 
HETATM   28  C   UNL     1      -4.363   5.461 -33.794  1.00  0.00     0.037 A 
HETATM   29  C   UNL     1      -5.270   4.882 -32.899  1.00  0.00     0.012 A 
BRANCH  27  30
HETATM   30  O   UNL     1      -2.077   5.456 -34.703  1.00  0.00    -0.356 OA
HETATM   31  C   UNL     1      -1.216   6.454 -34.168  1.00  0.00     0.210 C 
ENDBRANCH  27  30
ENDBRANCH   2  24
TORSDOF 4
ENDMDL
MODEL 3
REMARK VINA RESULT:      -8.5      2.768      6.175
REMARK  4 active torsions:
REMARK  status: ('A' for Active; 'I' for Inactive)
REMARK    1  A    between atoms: C_6  and  N_7 
REMARK       I    between atoms: N_7  and  C_8 
REMARK    2  A    between atoms: C_8  and  C_9 
REMARK    3  A    between atoms: C_10  and  C_11 
REMARK    4  A    between atoms: C_14  and  O_15 
ROOT
HETATM    1  C   UNL     1      -8.220   1.677 -31.808  1.00  0.00     0.062 A 
HETATM    2  C   UNL     1      -7.557   2.876 -31.143  1.00  0.00     0.202 A 
HETATM    3  N   UNL     1      -8.416   4.066 -31.216  1.00  0.00    -0.084 N 
HETATM    4  C   UNL     1      -9.642   4.093 -31.823  1.00  0.00     0.725 A 
HETATM    5  N   UNL     1     -10.112   2.977 -32.412  1.00  0.00    -0.192 N 
HETATM    6  N   UNL     1      -8.178   5.220 -30.552  1.00  0.00    -0.149 NA
HETATM    7  C   UNL     1      -9.253   5.933 -30.907  1.00  0.00     0.275 A 
HETATM    8  N   UNL     1     -10.181   5.275 -31.672  1.00  0.00    -0.054 NA
HETATM    9  C   UNL     1      -9.432   1.766 -32.408  1.00  0.00     0.037 A 
HETATM   10  C   UNL     1     -10.140   0.616 -33.082  1.00  0.00     0.070 C 
HETATM   11  H   UNL     1     -11.021   3.009 -32.865  1.00  0.00     0.184 HD
ENDROOT
BRANCH   1  12
HETATM   12  C   UNL     1      -7.449   0.408 -31.864  1.00  0.00     0.256 C 
HETATM   13  N   UNL     1      -7.089   0.053 -33.145  1.00  0.00    -0.323 N 
HETATM   14  H   UNL     1      -7.358   0.677 -33.891  1.00  0.00     0.169 HD
HETATM   15  O   UNL     1      -7.189  -0.173 -30.817  1.00  0.00    -0.267 OA
BRANCH  13  16
HETATM   16  C   UNL     1      -6.331  -1.079 -33.541  1.00  0.00     0.041 A 
HETATM   17  C   UNL     1      -4.936  -1.077 -33.324  1.00  0.00    -0.035 A 
HETATM   18  C   UNL     1      -4.176  -2.207 -33.684  1.00  0.00     0.015 A 
HETATM   19  C   UNL     1      -4.214   0.097 -32.717  1.00  0.00     0.050 C 
HETATM   20  C   UNL     1      -4.772  -3.328 -34.270  1.00  0.00    -0.061 A 
HETATM   21  C   UNL     1      -3.962  -4.542 -34.611  1.00  0.00     0.048 C 
HETATM   22  C   UNL     1      -6.150  -3.319 -34.482  1.00  0.00     0.009 A 
HETATM   23  C   UNL     1      -6.917  -2.206 -34.127  1.00  0.00     0.030 A 
ENDBRANCH  13  16
ENDBRANCH   1  12
BRANCH   2  24
HETATM   24  C   UNL     1      -6.158   3.208 -31.650  1.00  0.00    -0.028 A 
HETATM   25  C   UNL     1      -5.023   3.136 -30.828  1.00  0.00     0.012 A 
HETATM   26  C   UNL     1      -3.757   3.443 -31.338  1.00  0.00     0.037 A 
HETATM   27  C   UNL     1      -3.592   3.803 -32.677  1.00  0.00     0.068 A 
HETATM   28  C   UNL     1      -4.708   3.859 -33.507  1.00  0.00     0.037 A 
HETATM   29  C   UNL     1      -5.978   3.564 -32.998  1.00  0.00     0.012 A 
BRANCH  27  30
HETATM   30  O   UNL     1      -2.301   4.069 -33.045  1.00  0.00    -0.356 OA
HETATM   31  C   UNL     1      -2.117   4.915 -34.174  1.00  0.00     0.210 C 
ENDBRANCH  27  30
ENDBRANCH   2  24
TORSDOF 4
ENDMDL
MODEL 4
REMARK VINA RESULT:      -8.4      3.180      5.878
REMARK  4 active torsions:
REMARK  status: ('A' for Active; 'I' for Inactive)
REMARK    1  A    between atoms: C_6  and  N_7 
REMARK       I    between atoms: N_7  and  C_8 
REMARK    2  A    between atoms: C_8  and  C_9 
REMARK    3  A    between atoms: C_10  and  C_11 
REMARK    4  A    between atoms: C_14  and  O_15 
ROOT
HETATM    1  C   UNL     1      -6.971   3.304 -30.501  1.00  0.00     0.062 A 
HETATM    2  C   UNL     1      -5.836   4.301 -30.310  1.00  0.00     0.202 A 
HETATM    3  N   UNL     1      -6.352   5.646 -30.018  1.00  0.00    -0.084 N 
HETATM    4  C   UNL     1      -7.683   5.959 -29.948  1.00  0.00     0.725 A 
HETATM    5  N   UNL     1      -8.600   4.999 -30.171  1.00  0.00    -0.192 N 
HETATM    6  N   UNL     1      -5.588   6.687 -29.618  1.00  0.00    -0.149 NA
HETATM    7  C   UNL     1      -6.525   7.626 -29.441  1.00  0.00     0.275 A 
HETATM    8  N   UNL     1      -7.821   7.217 -29.618  1.00  0.00    -0.054 NA
HETATM    9  C   UNL     1      -8.273   3.675 -30.435  1.00  0.00     0.037 A 
HETATM   10  C   UNL     1      -9.441   2.736 -30.613  1.00  0.00     0.070 C 
HETATM   11  H   UNL     1      -9.586   5.243 -30.123  1.00  0.00     0.184 HD
ENDROOT
BRANCH   1  12
HETATM   12  C   UNL     1      -6.608   1.909 -30.857  1.00  0.00     0.256 C 
HETATM   13  N   UNL     1      -6.729   1.648 -32.204  1.00  0.00    -0.323 N 
HETATM   14  H   UNL     1      -7.023   2.410 -32.797  1.00  0.00     0.169 HD
HETATM   15  O   UNL     1      -6.226   1.152 -29.973  1.00  0.00    -0.267 OA
BRANCH  13  16
HETATM   16  C   UNL     1      -6.437   0.433 -32.873  1.00  0.00     0.041 A 
HETATM   17  C   UNL     1      -7.506  -0.372 -33.325  1.00  0.00    -0.035 A 
HETATM   18  C   UNL     1      -7.230  -1.567 -34.019  1.00  0.00     0.015 A 
HETATM   19  C   UNL     1      -8.948  -0.006 -33.092  1.00  0.00     0.050 C 
HETATM   20  C   UNL     1      -5.916  -1.983 -34.256  1.00  0.00    -0.061 A 
HETATM   21  C   UNL     1      -5.632  -3.235 -35.031  1.00  0.00     0.048 C 
HETATM   22  C   UNL     1      -4.868  -1.182 -33.805  1.00  0.00     0.009 A 
HETATM   23  C   UNL     1      -5.127   0.007 -33.118  1.00  0.00     0.030 A 
ENDBRANCH  13  16
ENDBRANCH   1  12
BRANCH   2  24
HETATM   24  C   UNL     1      -4.830   4.364 -31.454  1.00  0.00    -0.028 A 
HETATM   25  C   UNL     1      -5.138   4.937 -32.698  1.00  0.00     0.012 A 
HETATM   26  C   UNL     1      -4.180   4.979 -33.716  1.00  0.00     0.037 A 
HETATM   27  C   UNL     1      -2.894   4.477 -33.512  1.00  0.00     0.068 A 
HETATM   28  C   UNL     1      -2.570   3.924 -32.276  1.00  0.00     0.037 A 
HETATM   29  C   UNL     1      -3.529   3.869 -31.257  1.00  0.00     0.012 A 
BRANCH  27  30
HETATM   30  O   UNL     1      -2.056   4.589 -34.588  1.00  0.00    -0.356 OA
HETATM   31  C   UNL     1      -1.212   5.734 -34.626  1.00  0.00     0.210 C 
ENDBRANCH  27  30
ENDBRANCH   2  24
TORSDOF 4
ENDMDL
MODEL 5
REMARK VINA RESULT:      -8.3      3.186      6.265
REMARK  4 active torsions:
REMARK  status: ('A' for Active; 'I' for Inactive)
REMARK    1  A    between atoms: C_6  and  N_7 
REMARK       I    between atoms: N_7  and  C_8 
REMARK    2  A    between atoms: C_8  and  C_9 
REMARK    3  A    between atoms: C_10  and  C_11 
REMARK    4  A    between atoms: C_14  and  O_15 
ROOT
HETATM    1  C   UNL     1      -5.655  -0.029 -31.868  1.00  0.00     0.062 A 
HETATM    2  C   UNL     1      -6.774  -0.818 -32.536  1.00  0.00     0.202 A 
HETATM    3  N   UNL     1      -6.252  -1.684 -33.602  1.00  0.00    -0.084 N 
HETATM    4  C   UNL     1      -4.932  -1.753 -33.959  1.00  0.00     0.725 A 
HETATM    5  N   UNL     1      -4.034  -0.979 -33.320  1.00  0.00    -0.192 N 
HETATM    6  N   UNL     1      -6.976  -2.633 -34.237  1.00  0.00    -0.149 NA
HETATM    7  C   UNL     1      -6.045  -3.151 -35.047  1.00  0.00     0.275 A 
HETATM    8  N   UNL     1      -4.777  -2.650 -34.897  1.00  0.00    -0.054 NA
HETATM    9  C   UNL     1      -4.365  -0.127 -32.274  1.00  0.00     0.037 A 
HETATM   10  C   UNL     1      -3.214   0.626 -31.655  1.00  0.00     0.070 C 
HETATM   11  H   UNL     1      -3.058  -1.032 -33.597  1.00  0.00     0.184 HD
ENDROOT
BRANCH   1  12
HETATM   12  C   UNL     1      -6.033   0.934 -30.803  1.00  0.00     0.256 C 
HETATM   13  N   UNL     1      -6.050   2.241 -31.241  1.00  0.00    -0.323 N 
HETATM   14  H   UNL     1      -5.830   2.406 -32.212  1.00  0.00     0.169 HD
HETATM   15  O   UNL     1      -6.310   0.507 -29.689  1.00  0.00    -0.267 OA
BRANCH  13  16
HETATM   16  C   UNL     1      -6.393   3.393 -30.489  1.00  0.00     0.041 A 
HETATM   17  C   UNL     1      -7.756   3.685 -30.269  1.00  0.00    -0.035 A 
HETATM   18  C   UNL     1      -8.110   4.810 -29.497  1.00  0.00     0.015 A 
HETATM   19  C   UNL     1      -8.866   2.837 -30.833  1.00  0.00     0.050 C 
HETATM   20  C   UNL     1      -7.136   5.656 -28.956  1.00  0.00    -0.061 A 
HETATM   21  C   UNL     1      -7.521   6.826 -28.102  1.00  0.00     0.048 C 
HETATM   22  C   UNL     1      -5.793   5.359 -29.180  1.00  0.00     0.009 A 
HETATM   23  C   UNL     1      -5.427   4.246 -29.942  1.00  0.00     0.030 A 
ENDBRANCH  13  16
ENDBRANCH   1  12
BRANCH   2  24
HETATM   24  C   UNL     1      -7.933   0.021 -33.063  1.00  0.00    -0.028 A 
HETATM   25  C   UNL     1      -7.752   1.056 -33.992  1.00  0.00     0.012 A 
HETATM   26  C   UNL     1      -8.846   1.795 -34.454  1.00  0.00     0.037 A 
HETATM   27  C   UNL     1     -10.141   1.504 -34.021  1.00  0.00     0.068 A 
HETATM   28  C   UNL     1     -10.336   0.467 -33.113  1.00  0.00     0.037 A 
HETATM   29  C   UNL     1      -9.243  -0.268 -32.640  1.00  0.00     0.012 A 
BRANCH  27  30
HETATM   30  O   UNL     1     -11.117   2.298 -34.557  1.00  0.00    -0.356 OA
HETATM   31  C   UNL     1     -12.184   1.638 -35.229  1.00  0.00     0.210 C 
ENDBRANCH  27  30
ENDBRANCH   2  24
TORSDOF 4
ENDMDL
MODEL 6
REMARK VINA RESULT:      -8.2      2.160      5.863
REMARK  4 active torsions:
REMARK  status: ('A' for Active; 'I' for Inactive)
REMARK    1  A    between atoms: C_6  and  N_7 
REMARK       I    between atoms: N_7  and  C_8 
REMARK    2  A    between atoms: C_8  and  C_9 
REMARK    3  A    between atoms: C_10  and  C_11 
REMARK    4  A    between atoms: C_14  and  O_15 
ROOT
HETATM    1  C   UNL     1      -7.081   2.421 -32.066  1.00  0.00     0.062 A 
HETATM    2  C   UNL     1      -7.909   3.275 -33.017  1.00  0.00     0.202 A 
HETATM    3  N   UNL     1      -7.837   4.697 -32.654  1.00  0.00    -0.084 N 
HETATM    4  C   UNL     1      -7.132   5.182 -31.586  1.00  0.00     0.725 A 
HETATM    5  N   UNL     1      -6.465   4.325 -30.791  1.00  0.00    -0.192 N 
HETATM    6  N   UNL     1      -8.310   5.705 -33.421  1.00  0.00    -0.149 NA
HETATM    7  C   UNL     1      -7.953   6.763 -32.683  1.00  0.00     0.275 A 
HETATM    8  N   UNL     1      -7.217   6.487 -31.560  1.00  0.00    -0.054 NA
HETATM    9  C   UNL     1      -6.415   2.955 -31.014  1.00  0.00     0.037 A 
HETATM   10  C   UNL     1      -5.579   2.163 -30.039  1.00  0.00     0.070 C 
HETATM   11  H   UNL     1      -5.950   4.695 -29.996  1.00  0.00     0.184 HD
ENDROOT
BRANCH   1  12
HETATM   12  C   UNL     1      -7.098   0.949 -32.271  1.00  0.00     0.256 C 
HETATM   13  N   UNL     1      -6.289   0.542 -33.310  1.00  0.00    -0.323 N 
HETATM   14  H   UNL     1      -5.770   1.256 -33.798  1.00  0.00     0.169 HD
HETATM   15  O   UNL     1      -7.774   0.255 -31.523  1.00  0.00    -0.267 OA
BRANCH  13  16
HETATM   16  C   UNL     1      -6.060  -0.787 -33.748  1.00  0.00     0.041 A 
HETATM   17  C   UNL     1      -4.763  -1.333 -33.626  1.00  0.00    -0.035 A 
HETATM   18  C   UNL     1      -4.529  -2.662 -34.028  1.00  0.00     0.015 A 
HETATM   19  C   UNL     1      -3.603  -0.544 -33.078  1.00  0.00     0.050 C 
HETATM   20  C   UNL     1      -5.552  -3.451 -34.564  1.00  0.00    -0.061 A 
HETATM   21  C   UNL     1      -5.303  -4.878 -34.951  1.00  0.00     0.048 C 
HETATM   22  C   UNL     1      -6.828  -2.903 -34.682  1.00  0.00     0.009 A 
HETATM   23  C   UNL     1      -7.076  -1.586 -34.284  1.00  0.00     0.030 A 
ENDBRANCH  13  16
ENDBRANCH   1  12
BRANCH   2  24
HETATM   24  C   UNL     1      -9.365   2.848 -33.173  1.00  0.00    -0.028 A 
HETATM   25  C   UNL     1     -10.383   3.325 -32.334  1.00  0.00     0.012 A 
HETATM   26  C   UNL     1     -11.706   2.911 -32.519  1.00  0.00     0.037 A 
HETATM   27  C   UNL     1     -12.046   2.037 -33.552  1.00  0.00     0.068 A 
HETATM   28  C   UNL     1     -11.047   1.571 -34.403  1.00  0.00     0.037 A 
HETATM   29  C   UNL     1      -9.720   1.973 -34.215  1.00  0.00     0.012 A 
BRANCH  27  30
HETATM   30  O   UNL     1     -13.375   1.721 -33.623  1.00  0.00    -0.356 OA
HETATM   31  C   UNL     1     -13.700   0.345 -33.779  1.00  0.00     0.210 C 
ENDBRANCH  27  30
ENDBRANCH   2  24
TORSDOF 4
ENDMDL
MODEL 7
REMARK VINA RESULT:      -8.2      2.425      5.850
REMARK  4 active torsions:
REMARK  status: ('A' for Active; 'I' for Inactive)
REMARK    1  A    between atoms: C_6  and  N_7 
REMARK       I    between atoms: N_7  and  C_8 
REMARK    2  A    between atoms: C_8  and  C_9 
REMARK    3  A    between atoms: C_10  and  C_11 
REMARK    4  A    between atoms: C_14  and  O_15 
ROOT
HETATM    1  C   UNL     1      -4.925   2.260 -32.162  1.00  0.00     0.062 A 
HETATM    2  C   UNL     1      -5.694   3.449 -32.723  1.00  0.00     0.202 A 
HETATM    3  N   UNL     1      -5.030   4.717 -32.392  1.00  0.00    -0.084 N 
HETATM    4  C   UNL     1      -3.879   4.812 -31.657  1.00  0.00     0.725 A 
HETATM    5  N   UNL     1      -3.305   3.691 -31.181  1.00  0.00    -0.192 N 
HETATM    6  N   UNL     1      -5.374   5.917 -32.912  1.00  0.00    -0.149 NA
HETATM    7  C   UNL     1      -4.451   6.703 -32.345  1.00  0.00     0.275 A 
HETATM    8  N   UNL     1      -3.509   6.064 -31.582  1.00  0.00    -0.054 NA
HETATM    9  C   UNL     1      -3.797   2.416 -31.427  1.00  0.00     0.037 A 
HETATM   10  C   UNL     1      -2.991   1.280 -30.846  1.00  0.00     0.070 C 
HETATM   11  H   UNL     1      -2.455   3.773 -30.630  1.00  0.00     0.184 HD
ENDROOT
BRANCH   1  12
HETATM   12  C   UNL     1      -5.503   0.907 -32.369  1.00  0.00     0.256 C 
HETATM   13  N   UNL     1      -5.028   0.286 -33.503  1.00  0.00    -0.323 N 
HETATM   14  H   UNL     1      -4.344   0.787 -34.052  1.00  0.00     0.169 HD
HETATM   15  O   UNL     1      -6.292   0.468 -31.542  1.00  0.00    -0.267 OA
BRANCH  13  16
HETATM   16  C   UNL     1      -5.354  -1.012 -33.971  1.00  0.00     0.041 A 
HETATM   17  C   UNL     1      -6.564  -1.202 -34.672  1.00  0.00    -0.035 A 
HETATM   18  C   UNL     1      -6.885  -2.480 -35.170  1.00  0.00     0.015 A 
HETATM   19  C   UNL     1      -7.543  -0.082 -34.913  1.00  0.00     0.050 C 
HETATM   20  C   UNL     1      -6.036  -3.573 -34.970  1.00  0.00    -0.061 A 
HETATM   21  C   UNL     1      -6.366  -4.920 -35.539  1.00  0.00     0.048 C 
HETATM   22  C   UNL     1      -4.844  -3.375 -34.275  1.00  0.00     0.009 A 
HETATM   23  C   UNL     1      -4.511  -2.112 -33.777  1.00  0.00     0.030 A 
ENDBRANCH  13  16
ENDBRANCH   1  12
BRANCH   2  24
HETATM   24  C   UNL     1      -7.167   3.512 -32.331  1.00  0.00    -0.028 A 
HETATM   25  C   UNL     1      -7.585   3.758 -31.014  1.00  0.00     0.012 A 
HETATM   26  C   UNL     1      -8.947   3.814 -30.702  1.00  0.00     0.037 A 
HETATM   27  C   UNL     1      -9.918   3.652 -31.692  1.00  0.00     0.068 A 
HETATM   28  C   UNL     1      -9.515   3.425 -33.005  1.00  0.00     0.037 A 
HETATM   29  C   UNL     1      -8.153   3.357 -33.321  1.00  0.00     0.012 A 
BRANCH  27  30
HETATM   30  O   UNL     1     -11.209   3.738 -31.250  1.00  0.00    -0.356 OA
HETATM   31  C   UNL     1     -12.230   3.705 -32.241  1.00  0.00     0.210 C 
ENDBRANCH  27  30
ENDBRANCH   2  24
TORSDOF 4
ENDMDL
MODEL 8
REMARK VINA RESULT:      -8.0      2.634      5.871
REMARK  4 active torsions:
REMARK  status: ('A' for Active; 'I' for Inactive)
REMARK    1  A    between atoms: C_6  and  N_7 
REMARK       I    between atoms: N_7  and  C_8 
REMARK    2  A    between atoms: C_8  and  C_9 
REMARK    3  A    between atoms: C_10  and  C_11 
REMARK    4  A    between atoms: C_14  and  O_15 
ROOT
HETATM    1  C   UNL     1      -7.149   3.656 -31.587  1.00  0.00     0.062 A 
HETATM    2  C   UNL     1      -8.178   4.640 -32.127  1.00  0.00     0.202 A 
HETATM    3  N   UNL     1      -8.701   5.504 -31.059  1.00  0.00    -0.084 N 
HETATM    4  C   UNL     1      -8.323   5.416 -29.747  1.00  0.00     0.725 A 
HETATM    5  N   UNL     1      -7.429   4.479 -29.378  1.00  0.00    -0.192 N 
HETATM    6  N   UNL     1      -9.479   6.589 -31.268  1.00  0.00    -0.149 NA
HETATM    7  C   UNL     1      -9.623   7.033 -30.014  1.00  0.00     0.275 A 
HETATM    8  N   UNL     1      -8.919   6.352 -29.055  1.00  0.00    -0.054 NA
HETATM    9  C   UNL     1      -6.825   3.604 -30.272  1.00  0.00     0.037 A 
HETATM   10  C   UNL     1      -5.815   2.654 -29.676  1.00  0.00     0.070 C 
HETATM   11  H   UNL     1      -7.160   4.417 -28.400  1.00  0.00     0.184 HD
ENDROOT
BRANCH   1  12
HETATM   12  C   UNL     1      -6.568   2.676 -32.540  1.00  0.00     0.256 C 
HETATM   13  N   UNL     1      -6.919   1.374 -32.255  1.00  0.00    -0.323 N 
HETATM   14  H   UNL     1      -7.531   1.223 -31.466  1.00  0.00     0.169 HD
HETATM   15  O   UNL     1      -5.882   3.087 -33.467  1.00  0.00    -0.267 OA
BRANCH  13  16
HETATM   16  C   UNL     1      -6.558   0.209 -32.978  1.00  0.00     0.041 A 
HETATM   17  C   UNL     1      -7.347  -0.182 -34.082  1.00  0.00    -0.035 A 
HETATM   18  C   UNL     1      -6.981  -1.319 -34.828  1.00  0.00     0.015 A 
HETATM   19  C   UNL     1      -8.581   0.573 -34.501  1.00  0.00     0.050 C 
HETATM   20  C   UNL     1      -5.859  -2.082 -34.489  1.00  0.00    -0.061 A 
HETATM   21  C   UNL     1      -5.454  -3.266 -35.314  1.00  0.00     0.048 C 
HETATM   22  C   UNL     1      -5.087  -1.688 -33.397  1.00  0.00     0.009 A 
HETATM   23  C   UNL     1      -5.437  -0.560 -32.648  1.00  0.00     0.030 A 
ENDBRANCH  13  16
ENDBRANCH   1  12
BRANCH   2  24
HETATM   24  C   UNL     1      -9.331   4.012 -32.904  1.00  0.00    -0.028 A 
HETATM   25  C   UNL     1     -10.256   3.143 -32.306  1.00  0.00     0.012 A 
HETATM   26  C   UNL     1     -11.302   2.596 -33.056  1.00  0.00     0.037 A 
HETATM   27  C   UNL     1     -11.464   2.920 -34.405  1.00  0.00     0.068 A 
HETATM   28  C   UNL     1     -10.563   3.797 -35.004  1.00  0.00     0.037 A 
HETATM   29  C   UNL     1      -9.507   4.337 -34.260  1.00  0.00     0.012 A 
BRANCH  27  30
HETATM   30  O   UNL     1     -12.531   2.322 -35.015  1.00  0.00    -0.356 OA
HETATM   31  C   UNL     1     -12.919   1.045 -34.523  1.00  0.00     0.210 C 
ENDBRANCH  27  30
ENDBRANCH   2  24
TORSDOF 4
ENDMDL
MODEL 9
REMARK VINA RESULT:      -8.0     16.135     18.576
REMARK  4 active torsions:
REMARK  status: ('A' for Active; 'I' for Inactive)
REMARK    1  A    between atoms: C_6  and  N_7 
REMARK       I    between atoms: N_7  and  C_8 
REMARK    2  A    between atoms: C_8  and  C_9 
REMARK    3  A    between atoms: C_10  and  C_11 
REMARK    4  A    between atoms: C_14  and  O_15 
ROOT
HETATM    1  C   UNL     1      -5.913 -13.072 -38.406  1.00  0.00     0.062 A 
HETATM    2  C   UNL     1      -6.636 -12.987 -39.744  1.00  0.00     0.202 A 
HETATM    3  N   UNL     1      -8.073 -13.252 -39.591  1.00  0.00    -0.084 N 
HETATM    4  C   UNL     1      -8.675 -13.556 -38.399  1.00  0.00     0.725 A 
HETATM    5  N   UNL     1      -7.927 -13.640 -37.284  1.00  0.00    -0.192 N 
HETATM    6  N   UNL     1      -8.992 -13.061 -40.563  1.00  0.00    -0.149 NA
HETATM    7  C   UNL     1     -10.113 -13.388 -39.909  1.00  0.00     0.275 A 
HETATM    8  N   UNL     1      -9.964 -13.682 -38.579  1.00  0.00    -0.054 NA
HETATM    9  C   UNL     1      -6.560 -13.393 -37.259  1.00  0.00     0.037 A 
HETATM   10  C   UNL     1      -5.901 -13.493 -35.905  1.00  0.00     0.070 C 
HETATM   11  H   UNL     1      -8.382 -13.873 -36.405  1.00  0.00     0.184 HD
ENDROOT
BRANCH   1  12
HETATM   12  C   UNL     1      -4.440 -12.881 -38.406  1.00  0.00     0.256 C 
HETATM   13  N   UNL     1      -3.745 -14.059 -38.574  1.00  0.00    -0.323 N 
HETATM   14  H   UNL     1      -4.286 -14.902 -38.694  1.00  0.00     0.169 HD
HETATM   15  O   UNL     1      -3.990 -11.748 -38.291  1.00  0.00    -0.267 OA
BRANCH  13  16
HETATM   16  C   UNL     1      -2.338 -14.222 -38.646  1.00  0.00     0.041 A 
HETATM   17  C   UNL     1      -1.625 -14.542 -37.470  1.00  0.00    -0.035 A 
HETATM   18  C   UNL     1      -0.232 -14.738 -37.535  1.00  0.00     0.015 A 
HETATM   19  C   UNL     1      -2.299 -14.684 -36.131  1.00  0.00     0.050 C 
HETATM   20  C   UNL     1       0.466 -14.605 -38.739  1.00  0.00    -0.061 A 
HETATM   21  C   UNL     1       1.943 -14.856 -38.806  1.00  0.00     0.048 C 
HETATM   22  C   UNL     1      -0.246 -14.287 -39.894  1.00  0.00     0.009 A 
HETATM   23  C   UNL     1      -1.630 -14.092 -39.846  1.00  0.00     0.030 A 
ENDBRANCH  13  16
ENDBRANCH   1  12
BRANCH   2  24
HETATM   24  C   UNL     1      -6.057 -13.863 -40.851  1.00  0.00    -0.028 A 
HETATM   25  C   UNL     1      -5.224 -13.351 -41.857  1.00  0.00     0.012 A 
HETATM   26  C   UNL     1      -4.710 -14.193 -42.849  1.00  0.00     0.037 A 
HETATM   27  C   UNL     1      -4.994 -15.560 -42.846  1.00  0.00     0.068 A 
HETATM   28  C   UNL     1      -5.803 -16.082 -41.841  1.00  0.00     0.037 A 
HETATM   29  C   UNL     1      -6.329 -15.242 -40.853  1.00  0.00     0.012 A 
BRANCH  27  30
HETATM   30  O   UNL     1      -4.421 -16.267 -43.867  1.00  0.00    -0.356 OA
HETATM   31  C   UNL     1      -3.838 -15.511 -44.923  1.00  0.00     0.210 C 
ENDBRANCH  27  30
ENDBRANCH   2  24
TORSDOF 4
ENDMDL
MODEL 10
REMARK VINA RESULT:      -7.8      2.750      6.135
REMARK  4 active torsions:
REMARK  status: ('A' for Active; 'I' for Inactive)
REMARK    1  A    between atoms: C_6  and  N_7 
REMARK       I    between atoms: N_7  and  C_8 
REMARK    2  A    between atoms: C_8  and  C_9 
REMARK    3  A    between atoms: C_10  and  C_11 
REMARK    4  A    between atoms: C_14  and  O_15 
ROOT
HETATM    1  C   UNL     1      -8.564   4.446 -32.119  1.00  0.00     0.062 A 
HETATM    2  C   UNL     1      -9.750   5.141 -32.772  1.00  0.00     0.202 A 
HETATM    3  N   UNL     1     -10.418   6.051 -31.831  1.00  0.00    -0.084 N 
HETATM    4  C   UNL     1     -10.032   6.230 -30.530  1.00  0.00     0.725 A 
HETATM    5  N   UNL     1      -8.987   5.531 -30.050  1.00  0.00    -0.192 N 
HETATM    6  N   UNL     1     -11.377   6.939 -32.179  1.00  0.00    -0.149 NA
HETATM    7  C   UNL     1     -11.598   7.534 -31.001  1.00  0.00     0.275 A 
HETATM    8  N   UNL     1     -10.786   7.140 -29.970  1.00  0.00    -0.054 NA
HETATM    9  C   UNL     1      -8.236   4.650 -30.819  1.00  0.00     0.037 A 
HETATM   10  C   UNL     1      -7.075   3.993 -30.116  1.00  0.00     0.070 C 
HETATM   11  H   UNL     1      -8.712   5.665 -29.081  1.00  0.00     0.184 HD
ENDROOT
BRANCH   1  12
HETATM   12  C   UNL     1      -7.817   3.451 -32.930  1.00  0.00     0.256 C 
HETATM   13  N   UNL     1      -8.134   2.149 -32.611  1.00  0.00    -0.323 N 
HETATM   14  H   UNL     1      -8.831   2.005 -31.895  1.00  0.00     0.169 HD
HETATM   15  O   UNL     1      -7.041   3.850 -33.790  1.00  0.00    -0.267 OA
BRANCH  13  16
HETATM   16  C   UNL     1      -7.625   0.969 -33.211  1.00  0.00     0.041 A 
HETATM   17  C   UNL     1      -6.807   0.111 -32.444  1.00  0.00    -0.035 A 
HETATM   18  C   UNL     1      -6.320  -1.080 -33.019  1.00  0.00     0.015 A 
HETATM   19  C   UNL     1      -6.424   0.417 -31.020  1.00  0.00     0.050 C 
HETATM   20  C   UNL     1      -6.616  -1.424 -34.341  1.00  0.00    -0.061 A 
HETATM   21  C   UNL     1      -6.128  -2.713 -34.931  1.00  0.00     0.048 C 
HETATM   22  C   UNL     1      -7.424  -0.569 -35.090  1.00  0.00     0.009 A 
HETATM   23  C   UNL     1      -7.916   0.615 -34.533  1.00  0.00     0.030 A 
ENDBRANCH  13  16
ENDBRANCH   1  12
BRANCH   2  24
HETATM   24  C   UNL     1     -10.772   4.212 -33.417  1.00  0.00    -0.028 A 
HETATM   25  C   UNL     1     -10.936   4.122 -34.808  1.00  0.00     0.012 A 
HETATM   26  C   UNL     1     -11.882   3.250 -35.356  1.00  0.00     0.037 A 
HETATM   27  C   UNL     1     -12.665   2.434 -34.537  1.00  0.00     0.068 A 
HETATM   28  C   UNL     1     -12.498   2.500 -33.156  1.00  0.00     0.037 A 
HETATM   29  C   UNL     1     -11.561   3.380 -32.602  1.00  0.00     0.012 A 
BRANCH  27  30
HETATM   30  O   UNL     1     -13.543   1.624 -35.203  1.00  0.00    -0.356 OA
HETATM   31  C   UNL     1     -14.439   0.857 -34.407  1.00  0.00     0.210 C 
ENDBRANCH  27  30
ENDBRANCH   2  24
TORSDOF 4
ENDMDL
