MODEL 1
REMARK VINA RESULT:      -7.6      0.000      0.000
REMARK  7 active torsions:
REMARK  status: ('A' for Active; 'I' for Inactive)
REMARK    1  A    between atoms: C_2  and  C_3 
REMARK    2  A    between atoms: C_3  and  N_4 
REMARK    3  A    between atoms: C_7  and  C_8 
REMARK       I    between atoms: C_8  and  N_9 
REMARK    4  A    between atoms: N_9  and  C_10 
REMARK    5  A    between atoms: C_11  and  O_12 
REMARK    6  A    between atoms: C_16  and  C_17 
REMARK       I    between atoms: C_17  and  N_18 
REMARK    7  A    between atoms: C_23  and  C_24 
ROOT
HETATM    1  C   UNL     1      -4.948   3.834 -31.682  1.00  0.00     0.259 C 
HETATM    2  N   UNL     1      -3.845   3.839 -32.510  1.00  0.00    -0.320 N 
HETATM    3  O   UNL     1      -5.035   4.414 -30.604  1.00  0.00    -0.267 OA
HETATM    4  H   UNL     1      -3.784   3.138 -33.242  1.00  0.00     0.169 HD
ENDROOT
BRANCH   2   5
HETATM    5  C   UNL     1      -2.742   4.718 -32.417  1.00  0.00     0.069 A 
HETATM    6  C   UNL     1      -2.732   5.864 -33.236  1.00  0.00     0.095 A 
HETATM    7  C   UNL     1      -1.666   6.764 -33.142  1.00  0.00     0.040 A 
HETATM    8  C   UNL     1      -0.621   6.529 -32.243  1.00  0.00     0.020 A 
HETATM    9  C   UNL     1      -0.630   5.393 -31.428  1.00  0.00     0.034 A 
HETATM   10  C   UNL     1      -1.707   4.510 -31.499  1.00  0.00     0.049 A 
BRANCH   6  11
HETATM   11  O   UNL     1      -3.809   6.003 -34.079  1.00  0.00    -0.354 OA
HETATM   12  C   UNL     1      -3.759   5.289 -35.309  1.00  0.00     0.210 C 
ENDBRANCH   6  11
BRANCH   9  13
HETATM   13  C   UNL     1       0.456   5.220 -30.433  1.00  0.00     0.251 C 
HETATM   14  N   UNL     1       0.446   5.901 -29.241  1.00  0.00    -0.361 N 
HETATM   15  C   UNL     1      -0.623   6.658 -28.625  1.00  0.00     0.149 C 
HETATM   16  H   UNL     1       1.271   5.720 -28.680  1.00  0.00     0.162 HD
HETATM   17  O   UNL     1       1.380   4.449 -30.682  1.00  0.00    -0.268 OA
ENDBRANCH   9  13
ENDBRANCH   2   5
BRANCH   1  18
HETATM   18  C   UNL     1      -6.041   3.037 -32.185  1.00  0.00     0.076 C 
HETATM   19  C   UNL     1      -7.063   3.462 -33.058  1.00  0.00     0.158 C 
HETATM   20  N   UNL     1      -7.892   2.476 -33.399  1.00  0.00    -0.183 NA
HETATM   21  N   UNL     1      -7.351   1.386 -32.812  1.00  0.00    -0.268 N 
HETATM   22  C   UNL     1      -6.301   1.690 -31.972  1.00  0.00     0.052 C 
BRANCH  21  23
HETATM   23  C   UNL     1      -7.871   0.063 -33.152  1.00  0.00     0.106 C 
HETATM   24  C   UNL     1      -9.386   0.013 -32.954  1.00  0.00     0.034 C 
BRANCH  23  25
HETATM   25  C   UNL     1      -7.481  -0.391 -34.575  1.00  0.00     0.022 C 
HETATM   26  C   UNL     1      -6.836  -1.772 -34.602  1.00  0.00     0.007 C 
ENDBRANCH  23  25
ENDBRANCH  21  23
BRANCH  22  27
HETATM   27  C   UNL     1      -5.608   0.696 -31.037  1.00  0.00     0.038 A 
HETATM   28  C   UNL     1      -5.072  -0.620 -31.548  1.00  0.00     0.011 A 
HETATM   29  C   UNL     1      -4.118   0.461 -31.175  1.00  0.00     0.011 A 
ENDBRANCH  22  27
ENDBRANCH   1  18
TORSDOF 7
ENDMDL
MODEL 2
REMARK VINA RESULT:      -7.4      2.659      7.645
REMARK  7 active torsions:
REMARK  status: ('A' for Active; 'I' for Inactive)
REMARK    1  A    between atoms: C_2  and  C_3 
REMARK    2  A    between atoms: C_3  and  N_4 
REMARK    3  A    between atoms: C_7  and  C_8 
REMARK       I    between atoms: C_8  and  N_9 
REMARK    4  A    between atoms: N_9  and  C_10 
REMARK    5  A    between atoms: C_11  and  O_12 
REMARK    6  A    between atoms: C_16  and  C_17 
REMARK       I    between atoms: C_17  and  N_18 
REMARK    7  A    between atoms: C_23  and  C_24 
ROOT
HETATM    1  C   UNL     1      -4.985   4.269 -33.163  1.00  0.00     0.259 C 
HETATM    2  N   UNL     1      -4.902   3.244 -32.244  1.00  0.00    -0.320 N 
HETATM    3  O   UNL     1      -5.466   4.183 -34.288  1.00  0.00    -0.267 OA
HETATM    4  H   UNL     1      -4.273   3.349 -31.454  1.00  0.00     0.169 HD
ENDROOT
BRANCH   2   5
HETATM    5  C   UNL     1      -5.592   2.012 -32.312  1.00  0.00     0.069 A 
HETATM    6  C   UNL     1      -6.865   1.927 -31.715  1.00  0.00     0.095 A 
HETATM    7  C   UNL     1      -7.580   0.727 -31.794  1.00  0.00     0.040 A 
HETATM    8  C   UNL     1      -7.036  -0.376 -32.459  1.00  0.00     0.020 A 
HETATM    9  C   UNL     1      -5.773  -0.293 -33.053  1.00  0.00     0.034 A 
HETATM   10  C   UNL     1      -5.072   0.912 -33.002  1.00  0.00     0.049 A 
BRANCH   6  11
HETATM   11  O   UNL     1      -7.309   3.069 -31.093  1.00  0.00    -0.354 OA
HETATM   12  C   UNL     1      -8.607   3.022 -30.514  1.00  0.00     0.210 C 
ENDBRANCH   6  11
BRANCH   9  13
HETATM   13  C   UNL     1      -5.265  -1.459 -33.816  1.00  0.00     0.251 C 
HETATM   14  N   UNL     1      -4.157  -2.155 -33.400  1.00  0.00    -0.361 N 
HETATM   15  C   UNL     1      -3.457  -2.095 -32.134  1.00  0.00     0.149 C 
HETATM   16  H   UNL     1      -3.898  -2.897 -34.040  1.00  0.00     0.162 HD
HETATM   17  O   UNL     1      -5.850  -1.808 -34.839  1.00  0.00    -0.268 OA
ENDBRANCH   9  13
ENDBRANCH   2   5
BRANCH   1  18
HETATM   18  C   UNL     1      -4.414   5.509 -32.694  1.00  0.00     0.076 C 
HETATM   19  C   UNL     1      -5.088   6.546 -32.016  1.00  0.00     0.158 C 
HETATM   20  N   UNL     1      -4.275   7.535 -31.649  1.00  0.00    -0.183 NA
HETATM   21  N   UNL     1      -3.050   7.095 -32.014  1.00  0.00    -0.268 N 
HETATM   22  C   UNL     1      -3.093   5.932 -32.753  1.00  0.00     0.052 C 
BRANCH  21  23
HETATM   23  C   UNL     1      -1.868   7.827 -31.564  1.00  0.00     0.106 C 
HETATM   24  C   UNL     1      -2.256   9.215 -31.054  1.00  0.00     0.034 C 
BRANCH  23  25
HETATM   25  C   UNL     1      -1.047   7.057 -30.510  1.00  0.00     0.022 C 
HETATM   26  C   UNL     1       0.387   6.788 -30.953  1.00  0.00     0.007 C 
ENDBRANCH  23  25
ENDBRANCH  21  23
BRANCH  22  27
HETATM   27  C   UNL     1      -1.893   5.293 -33.455  1.00  0.00     0.038 A 
HETATM   28  C   UNL     1      -1.933   4.946 -34.924  1.00  0.00     0.011 A 
HETATM   29  C   UNL     1      -1.107   6.099 -34.468  1.00  0.00     0.011 A 
ENDBRANCH  22  27
ENDBRANCH   1  18
TORSDOF 7
ENDMDL
MODEL 3
REMARK VINA RESULT:      -7.3      2.868      7.535
REMARK  7 active torsions:
REMARK  status: ('A' for Active; 'I' for Inactive)
REMARK    1  A    between atoms: C_2  and  C_3 
REMARK    2  A    between atoms: C_3  and  N_4 
REMARK    3  A    between atoms: C_7  and  C_8 
REMARK       I    between atoms: C_8  and  N_9 
REMARK    4  A    between atoms: N_9  and  C_10 
REMARK    5  A    between atoms: C_11  and  O_12 
REMARK    6  A    between atoms: C_16  and  C_17 
REMARK       I    between atoms: C_17  and  N_18 
REMARK    7  A    between atoms: C_23  and  C_24 
ROOT
HETATM    1  C   UNL     1      -4.858   2.445 -31.841  1.00  0.00     0.259 C 
HETATM    2  N   UNL     1      -5.199   1.965 -33.087  1.00  0.00    -0.320 N 
HETATM    3  O   UNL     1      -5.249   1.994 -30.769  1.00  0.00    -0.267 OA
HETATM    4  H   UNL     1      -5.027   2.551 -33.898  1.00  0.00     0.169 HD
ENDROOT
BRANCH   2   5
HETATM    5  C   UNL     1      -5.818   0.723 -33.357  1.00  0.00     0.069 A 
HETATM    6  C   UNL     1      -7.226   0.670 -33.379  1.00  0.00     0.095 A 
HETATM    7  C   UNL     1      -7.862  -0.541 -33.672  1.00  0.00     0.040 A 
HETATM    8  C   UNL     1      -7.106  -1.688 -33.940  1.00  0.00     0.020 A 
HETATM    9  C   UNL     1      -5.709  -1.636 -33.920  1.00  0.00     0.034 A 
HETATM   10  C   UNL     1      -5.074  -0.423 -33.658  1.00  0.00     0.049 A 
BRANCH   6  11
HETATM   11  O   UNL     1      -7.870   1.853 -33.108  1.00  0.00    -0.354 OA
HETATM   12  C   UNL     1      -9.038   2.138 -33.870  1.00  0.00     0.210 C 
ENDBRANCH   6  11
BRANCH   9  13
HETATM   13  C   UNL     1      -4.945  -2.854 -34.287  1.00  0.00     0.251 C 
HETATM   14  N   UNL     1      -3.868  -3.270 -33.544  1.00  0.00    -0.361 N 
HETATM   15  C   UNL     1      -3.431  -2.830 -32.236  1.00  0.00     0.149 C 
HETATM   16  H   UNL     1      -3.416  -4.088 -33.936  1.00  0.00     0.162 HD
HETATM   17  O   UNL     1      -5.287  -3.501 -35.274  1.00  0.00    -0.268 OA
ENDBRANCH   9  13
ENDBRANCH   2   5
BRANCH   1  18
HETATM   18  C   UNL     1      -3.981   3.591 -31.887  1.00  0.00     0.076 C 
HETATM   19  C   UNL     1      -2.686   3.685 -31.335  1.00  0.00     0.158 C 
HETATM   20  N   UNL     1      -2.097   4.850 -31.602  1.00  0.00    -0.183 NA
HETATM   21  N   UNL     1      -2.982   5.480 -32.406  1.00  0.00    -0.268 N 
HETATM   22  C   UNL     1      -4.183   4.812 -32.513  1.00  0.00     0.052 C 
BRANCH  21  23
HETATM   23  C   UNL     1      -2.575   6.707 -33.088  1.00  0.00     0.106 C 
HETATM   24  C   UNL     1      -2.320   7.824 -32.076  1.00  0.00     0.034 C 
BRANCH  23  25
HETATM   25  C   UNL     1      -1.358   6.508 -34.015  1.00  0.00     0.022 C 
HETATM   26  C   UNL     1      -1.510   5.309 -34.945  1.00  0.00     0.007 C 
ENDBRANCH  23  25
ENDBRANCH  21  23
BRANCH  22  27
HETATM   27  C   UNL     1      -5.434   5.361 -33.204  1.00  0.00     0.038 A 
HETATM   28  C   UNL     1      -6.808   5.169 -32.610  1.00  0.00     0.011 A 
HETATM   29  C   UNL     1      -6.182   6.520 -32.578  1.00  0.00     0.011 A 
ENDBRANCH  22  27
ENDBRANCH   1  18
TORSDOF 7
ENDMDL
MODEL 4
REMARK VINA RESULT:      -7.2      3.050      6.389
REMARK  7 active torsions:
REMARK  status: ('A' for Active; 'I' for Inactive)
REMARK    1  A    between atoms: C_2  and  C_3 
REMARK    2  A    between atoms: C_3  and  N_4 
REMARK    3  A    between atoms: C_7  and  C_8 
REMARK       I    between atoms: C_8  and  N_9 
REMARK    4  A    between atoms: N_9  and  C_10 
REMARK    5  A    between atoms: C_11  and  O_12 
REMARK    6  A    between atoms: C_16  and  C_17 
REMARK       I    between atoms: C_17  and  N_18 
REMARK    7  A    between atoms: C_23  and  C_24 
ROOT
HETATM    1  C   UNL     1      -5.916   0.579 -32.076  1.00  0.00     0.259 C 
HETATM    2  N   UNL     1      -5.594   1.773 -32.686  1.00  0.00    -0.320 N 
HETATM    3  O   UNL     1      -6.737   0.434 -31.176  1.00  0.00    -0.267 OA
HETATM    4  H   UNL     1      -4.740   1.826 -33.232  1.00  0.00     0.169 HD
ENDROOT
BRANCH   2   5
HETATM    5  C   UNL     1      -6.332   2.976 -32.595  1.00  0.00     0.069 A 
HETATM    6  C   UNL     1      -5.836   4.000 -31.765  1.00  0.00     0.095 A 
HETATM    7  C   UNL     1      -6.532   5.211 -31.680  1.00  0.00     0.040 A 
HETATM    8  C   UNL     1      -7.708   5.402 -32.414  1.00  0.00     0.020 A 
HETATM    9  C   UNL     1      -8.200   4.386 -33.239  1.00  0.00     0.034 A 
HETATM   10  C   UNL     1      -7.491   3.190 -33.347  1.00  0.00     0.049 A 
BRANCH   6  11
HETATM   11  O   UNL     1      -4.671   3.712 -31.094  1.00  0.00    -0.354 OA
HETATM   12  C   UNL     1      -3.585   4.613 -31.278  1.00  0.00     0.210 C 
ENDBRANCH   6  11
BRANCH   9  13
HETATM   13  C   UNL     1      -9.406   4.656 -34.059  1.00  0.00     0.251 C 
HETATM   14  N   UNL     1     -10.573   3.960 -33.861  1.00  0.00    -0.361 N 
HETATM   15  C   UNL     1     -10.948   3.090 -32.767  1.00  0.00     0.149 C 
HETATM   16  H   UNL     1     -11.298   4.217 -34.521  1.00  0.00     0.162 HD
HETATM   17  O   UNL     1      -9.357   5.520 -34.931  1.00  0.00    -0.268 OA
ENDBRANCH   9  13
ENDBRANCH   2   5
BRANCH   1  18
HETATM   18  C   UNL     1      -5.161  -0.544 -32.578  1.00  0.00     0.076 C 
HETATM   19  C   UNL     1      -3.966  -1.065 -32.041  1.00  0.00     0.158 C 
HETATM   20  N   UNL     1      -3.543  -2.153 -32.685  1.00  0.00    -0.183 NA
HETATM   21  N   UNL     1      -4.519  -2.388 -33.590  1.00  0.00    -0.268 N 
HETATM   22  C   UNL     1      -5.458  -1.380 -33.645  1.00  0.00     0.052 C 
BRANCH  21  23
HETATM   23  C   UNL     1      -4.508  -3.644 -34.337  1.00  0.00     0.106 C 
HETATM   24  C   UNL     1      -3.384  -4.554 -33.843  1.00  0.00     0.034 C 
BRANCH  23  25
HETATM   25  C   UNL     1      -5.867  -4.374 -34.309  1.00  0.00     0.022 C 
HETATM   26  C   UNL     1      -6.425  -4.645 -35.701  1.00  0.00     0.007 C 
ENDBRANCH  23  25
ENDBRANCH  21  23
BRANCH  22  27
HETATM   27  C   UNL     1      -6.575  -1.277 -34.687  1.00  0.00     0.038 A 
HETATM   28  C   UNL     1      -7.861  -0.544 -34.390  1.00  0.00     0.011 A 
HETATM   29  C   UNL     1      -6.874   0.063 -35.326  1.00  0.00     0.011 A 
ENDBRANCH  22  27
ENDBRANCH   1  18
TORSDOF 7
ENDMDL
MODEL 5
REMARK VINA RESULT:      -7.2      2.400      8.082
REMARK  7 active torsions:
REMARK  status: ('A' for Active; 'I' for Inactive)
REMARK    1  A    between atoms: C_2  and  C_3 
REMARK    2  A    between atoms: C_3  and  N_4 
REMARK    3  A    between atoms: C_7  and  C_8 
REMARK       I    between atoms: C_8  and  N_9 
REMARK    4  A    between atoms: N_9  and  C_10 
REMARK    5  A    between atoms: C_11  and  O_12 
REMARK    6  A    between atoms: C_16  and  C_17 
REMARK       I    between atoms: C_17  and  N_18 
REMARK    7  A    between atoms: C_23  and  C_24 
ROOT
HETATM    1  C   UNL     1      -4.937   3.543 -32.976  1.00  0.00     0.259 C 
HETATM    2  N   UNL     1      -5.014   2.287 -32.411  1.00  0.00    -0.320 N 
HETATM    3  O   UNL     1      -5.412   3.871 -34.058  1.00  0.00    -0.267 OA
HETATM    4  H   UNL     1      -4.386   2.057 -31.647  1.00  0.00     0.169 HD
ENDROOT
BRANCH   2   5
HETATM    5  C   UNL     1      -5.875   1.244 -32.824  1.00  0.00     0.069 A 
HETATM    6  C   UNL     1      -5.298   0.031 -33.246  1.00  0.00     0.095 A 
HETATM    7  C   UNL     1      -6.129  -1.027 -33.631  1.00  0.00     0.040 A 
HETATM    8  C   UNL     1      -7.520  -0.879 -33.597  1.00  0.00     0.020 A 
HETATM    9  C   UNL     1      -8.094   0.325 -33.177  1.00  0.00     0.034 A 
HETATM   10  C   UNL     1      -7.267   1.369 -32.764  1.00  0.00     0.049 A 
BRANCH   6  11
HETATM   11  O   UNL     1      -3.924  -0.011 -33.235  1.00  0.00    -0.354 OA
HETATM   12  C   UNL     1      -3.317  -0.977 -32.385  1.00  0.00     0.210 C 
ENDBRANCH   6  11
BRANCH   9  13
HETATM   13  C   UNL     1      -9.571   0.415 -33.081  1.00  0.00     0.251 C 
HETATM   14  N   UNL     1     -10.251   1.510 -33.553  1.00  0.00    -0.361 N 
HETATM   15  C   UNL     1      -9.780   2.590 -34.394  1.00  0.00     0.149 C 
HETATM   16  H   UNL     1     -11.248   1.455 -33.381  1.00  0.00     0.162 HD
HETATM   17  O   UNL     1     -10.196  -0.512 -32.570  1.00  0.00    -0.268 OA
ENDBRANCH   9  13
ENDBRANCH   2   5
BRANCH   1  18
HETATM   18  C   UNL     1      -4.197   4.488 -32.174  1.00  0.00     0.076 C 
HETATM   19  C   UNL     1      -4.629   5.104 -30.981  1.00  0.00     0.158 C 
HETATM   20  N   UNL     1      -3.693   5.878 -30.433  1.00  0.00    -0.183 NA
HETATM   21  N   UNL     1      -2.618   5.693 -31.230  1.00  0.00    -0.268 N 
HETATM   22  C   UNL     1      -2.904   4.957 -32.360  1.00  0.00     0.052 C 
BRANCH  21  23
HETATM   23  C   UNL     1      -1.321   6.217 -30.807  1.00  0.00     0.106 C 
HETATM   24  C   UNL     1      -1.501   7.351 -29.798  1.00  0.00     0.034 C 
BRANCH  23  25
HETATM   25  C   UNL     1      -0.381   5.125 -30.253  1.00  0.00     0.022 C 
HETATM   26  C   UNL     1       0.560   5.644 -29.172  1.00  0.00     0.007 C 
ENDBRANCH  23  25
ENDBRANCH  21  23
BRANCH  22  27
HETATM   27  C   UNL     1      -1.942   4.735 -33.530  1.00  0.00     0.038 A 
HETATM   28  C   UNL     1      -2.347   5.048 -34.950  1.00  0.00     0.011 A 
HETATM   29  C   UNL     1      -1.368   5.932 -34.258  1.00  0.00     0.011 A 
ENDBRANCH  22  27
ENDBRANCH   1  18
TORSDOF 7
ENDMDL
MODEL 6
REMARK VINA RESULT:      -7.2      1.826      2.029
REMARK  7 active torsions:
REMARK  status: ('A' for Active; 'I' for Inactive)
REMARK    1  A    between atoms: C_2  and  C_3 
REMARK    2  A    between atoms: C_3  and  N_4 
REMARK    3  A    between atoms: C_7  and  C_8 
REMARK       I    between atoms: C_8  and  N_9 
REMARK    4  A    between atoms: N_9  and  C_10 
REMARK    5  A    between atoms: C_11  and  O_12 
REMARK    6  A    between atoms: C_16  and  C_17 
REMARK       I    between atoms: C_17  and  N_18 
REMARK    7  A    between atoms: C_23  and  C_24 
ROOT
HETATM    1  C   UNL     1      -3.856   3.184 -31.662  1.00  0.00     0.259 C 
HETATM    2  N   UNL     1      -3.673   4.502 -32.024  1.00  0.00    -0.320 N 
HETATM    3  O   UNL     1      -2.989   2.437 -31.221  1.00  0.00    -0.267 OA
HETATM    4  H   UNL     1      -4.378   4.951 -32.602  1.00  0.00     0.169 HD
ENDROOT
BRANCH   2   5
HETATM    5  C   UNL     1      -2.556   5.304 -31.697  1.00  0.00     0.069 A 
HETATM    6  C   UNL     1      -1.470   5.333 -32.594  1.00  0.00     0.095 A 
HETATM    7  C   UNL     1      -0.365   6.142 -32.308  1.00  0.00     0.040 A 
HETATM    8  C   UNL     1      -0.340   6.914 -31.141  1.00  0.00     0.020 A 
HETATM    9  C   UNL     1      -1.417   6.887 -30.250  1.00  0.00     0.034 A 
HETATM   10  C   UNL     1      -2.532   6.105 -30.550  1.00  0.00     0.049 A 
BRANCH   6  11
HETATM   11  O   UNL     1      -1.600   4.544 -33.711  1.00  0.00    -0.354 OA
HETATM   12  C   UNL     1      -1.589   5.205 -34.971  1.00  0.00     0.210 C 
ENDBRANCH   6  11
BRANCH   9  13
HETATM   13  C   UNL     1      -1.385   7.779 -29.066  1.00  0.00     0.251 C 
HETATM   14  N   UNL     1      -0.823   7.372 -27.881  1.00  0.00    -0.361 N 
HETATM   15  C   UNL     1       0.008   6.218 -27.609  1.00  0.00     0.149 C 
HETATM   16  H   UNL     1      -0.912   8.065 -27.148  1.00  0.00     0.162 HD
HETATM   17  O   UNL     1      -1.871   8.905 -29.150  1.00  0.00    -0.268 OA
ENDBRANCH   9  13
ENDBRANCH   2   5
BRANCH   1  18
HETATM   18  C   UNL     1      -5.204   2.713 -31.874  1.00  0.00     0.076 C 
HETATM   19  C   UNL     1      -6.364   3.504 -32.009  1.00  0.00     0.158 C 
HETATM   20  N   UNL     1      -7.453   2.780 -32.265  1.00  0.00    -0.183 NA
HETATM   21  N   UNL     1      -6.980   1.520 -32.383  1.00  0.00    -0.268 N 
HETATM   22  C   UNL     1      -5.649   1.409 -32.040  1.00  0.00     0.052 C 
BRANCH  21  23
HETATM   23  C   UNL     1      -7.865   0.473 -32.888  1.00  0.00     0.106 C 
HETATM   24  C   UNL     1      -9.091   0.323 -31.987  1.00  0.00     0.034 C 
BRANCH  23  25
HETATM   25  C   UNL     1      -8.279   0.690 -34.358  1.00  0.00     0.022 C 
HETATM   26  C   UNL     1      -7.175   0.330 -35.346  1.00  0.00     0.007 C 
ENDBRANCH  23  25
ENDBRANCH  21  23
BRANCH  22  27
HETATM   27  C   UNL     1      -4.886   0.089 -31.902  1.00  0.00     0.038 A 
HETATM   28  C   UNL     1      -5.279  -1.133 -32.697  1.00  0.00     0.011 A 
HETATM   29  C   UNL     1      -4.032  -0.399 -33.053  1.00  0.00     0.011 A 
ENDBRANCH  22  27
ENDBRANCH   1  18
TORSDOF 7
ENDMDL
MODEL 7
REMARK VINA RESULT:      -7.2      5.010      7.872
REMARK  7 active torsions:
REMARK  status: ('A' for Active; 'I' for Inactive)
REMARK    1  A    between atoms: C_2  and  C_3 
REMARK    2  A    between atoms: C_3  and  N_4 
REMARK    3  A    between atoms: C_7  and  C_8 
REMARK       I    between atoms: C_8  and  N_9 
REMARK    4  A    between atoms: N_9  and  C_10 
REMARK    5  A    between atoms: C_11  and  O_12 
REMARK    6  A    between atoms: C_16  and  C_17 
REMARK       I    between atoms: C_17  and  N_18 
REMARK    7  A    between atoms: C_23  and  C_24 
ROOT
HETATM    1  C   UNL     1      -8.856   0.193 -32.820  1.00  0.00     0.259 C 
HETATM    2  N   UNL     1      -8.227  -0.212 -33.979  1.00  0.00    -0.320 N 
HETATM    3  O   UNL     1      -8.591  -0.199 -31.689  1.00  0.00    -0.267 OA
HETATM    4  H   UNL     1      -8.678  -0.023 -34.869  1.00  0.00     0.169 HD
ENDROOT
BRANCH   2   5
HETATM    5  C   UNL     1      -7.004  -0.918 -34.056  1.00  0.00     0.069 A 
HETATM    6  C   UNL     1      -5.819  -0.236 -33.719  1.00  0.00     0.095 A 
HETATM    7  C   UNL     1      -4.599  -0.920 -33.758  1.00  0.00     0.040 A 
HETATM    8  C   UNL     1      -4.559  -2.268 -34.129  1.00  0.00     0.020 A 
HETATM    9  C   UNL     1      -5.735  -2.947 -34.463  1.00  0.00     0.034 A 
HETATM   10  C   UNL     1      -6.955  -2.274 -34.394  1.00  0.00     0.049 A 
BRANCH   6  11
HETATM   11  O   UNL     1      -5.971   1.083 -33.363  1.00  0.00    -0.354 OA
HETATM   12  C   UNL     1      -5.465   1.468 -32.090  1.00  0.00     0.210 C 
ENDBRANCH   6  11
BRANCH   9  13
HETATM   13  C   UNL     1      -5.659  -4.395 -34.774  1.00  0.00     0.251 C 
HETATM   14  N   UNL     1      -4.606  -5.163 -34.342  1.00  0.00    -0.361 N 
HETATM   15  C   UNL     1      -3.577  -4.847 -33.375  1.00  0.00     0.149 C 
HETATM   16  H   UNL     1      -4.663  -6.121 -34.665  1.00  0.00     0.162 HD
HETATM   17  O   UNL     1      -6.558  -4.915 -35.431  1.00  0.00    -0.268 OA
ENDBRANCH   9  13
ENDBRANCH   2   5
BRANCH   1  18
HETATM   18  C   UNL     1      -9.921   1.141 -33.046  1.00  0.00     0.076 C 
HETATM   19  C   UNL     1     -11.145   0.895 -33.702  1.00  0.00     0.158 C 
HETATM   20  N   UNL     1     -11.955   1.953 -33.693  1.00  0.00    -0.183 NA
HETATM   21  N   UNL     1     -11.287   2.862 -32.950  1.00  0.00    -0.268 N 
HETATM   22  C   UNL     1     -10.004   2.464 -32.635  1.00  0.00     0.052 C 
BRANCH  21  23
HETATM   23  C   UNL     1     -11.973   4.083 -32.532  1.00  0.00     0.106 C 
HETATM   24  C   UNL     1     -12.289   4.963 -33.741  1.00  0.00     0.034 C 
BRANCH  23  25
HETATM   25  C   UNL     1     -13.242   3.806 -31.699  1.00  0.00     0.022 C 
HETATM   26  C   UNL     1     -13.108   4.253 -30.247  1.00  0.00     0.007 C 
ENDBRANCH  23  25
ENDBRANCH  21  23
BRANCH  22  27
HETATM   27  C   UNL     1      -8.951   3.347 -31.962  1.00  0.00     0.038 A 
HETATM   28  C   UNL     1      -9.328   4.341 -30.890  1.00  0.00     0.011 A 
HETATM   29  C   UNL     1      -8.593   3.103 -30.511  1.00  0.00     0.011 A 
ENDBRANCH  22  27
ENDBRANCH   1  18
TORSDOF 7
ENDMDL
MODEL 8
REMARK VINA RESULT:      -7.1      4.166      8.632
REMARK  7 active torsions:
REMARK  status: ('A' for Active; 'I' for Inactive)
REMARK    1  A    between atoms: C_2  and  C_3 
REMARK    2  A    between atoms: C_3  and  N_4 
REMARK    3  A    between atoms: C_7  and  C_8 
REMARK       I    between atoms: C_8  and  N_9 
REMARK    4  A    between atoms: N_9  and  C_10 
REMARK    5  A    between atoms: C_11  and  O_12 
REMARK    6  A    between atoms: C_16  and  C_17 
REMARK       I    between atoms: C_17  and  N_18 
REMARK    7  A    between atoms: C_23  and  C_24 
ROOT
HETATM    1  C   UNL     1      -8.680   2.242 -32.191  1.00  0.00     0.259 C 
HETATM    2  N   UNL     1      -9.252   1.995 -33.421  1.00  0.00    -0.320 N 
HETATM    3  O   UNL     1      -9.059   3.082 -31.382  1.00  0.00    -0.267 OA
HETATM    4  H   UNL     1      -8.723   1.466 -34.107  1.00  0.00     0.169 HD
ENDROOT
BRANCH   2   5
HETATM    5  C   UNL     1     -10.520   2.449 -33.852  1.00  0.00     0.069 A 
HETATM    6  C   UNL     1     -10.586   3.657 -34.573  1.00  0.00     0.095 A 
HETATM    7  C   UNL     1     -11.825   4.112 -35.035  1.00  0.00     0.040 A 
HETATM    8  C   UNL     1     -12.987   3.374 -34.784  1.00  0.00     0.020 A 
HETATM    9  C   UNL     1     -12.923   2.174 -34.069  1.00  0.00     0.034 A 
HETATM   10  C   UNL     1     -11.684   1.704 -33.634  1.00  0.00     0.049 A 
BRANCH   6  11
HETATM   11  O   UNL     1      -9.387   4.299 -34.770  1.00  0.00    -0.354 OA
HETATM   12  C   UNL     1      -9.235   5.577 -34.163  1.00  0.00     0.210 C 
ENDBRANCH   6  11
BRANCH   9  13
HETATM   13  C   UNL     1     -14.164   1.383 -33.891  1.00  0.00     0.251 C 
HETATM   14  N   UNL     1     -14.939   1.514 -32.765  1.00  0.00    -0.361 N 
HETATM   15  C   UNL     1     -14.884   2.522 -31.727  1.00  0.00     0.149 C 
HETATM   16  H   UNL     1     -15.730   0.881 -32.759  1.00  0.00     0.162 HD
HETATM   17  O   UNL     1     -14.505   0.596 -34.771  1.00  0.00    -0.268 OA
ENDBRANCH   9  13
ENDBRANCH   2   5
BRANCH   1  18
HETATM   18  C   UNL     1      -7.526   1.417 -31.918  1.00  0.00     0.076 C 
HETATM   19  C   UNL     1      -7.472   0.300 -31.060  1.00  0.00     0.158 C 
HETATM   20  N   UNL     1      -6.282  -0.299 -31.069  1.00  0.00    -0.183 NA
HETATM   21  N   UNL     1      -5.588   0.384 -32.006  1.00  0.00    -0.268 N 
HETATM   22  C   UNL     1      -6.253   1.501 -32.464  1.00  0.00     0.052 C 
BRANCH  21  23
HETATM   23  C   UNL     1      -4.298  -0.137 -32.455  1.00  0.00     0.106 C 
HETATM   24  C   UNL     1      -3.274  -0.088 -31.321  1.00  0.00     0.034 C 
BRANCH  23  25
HETATM   25  C   UNL     1      -4.395  -1.555 -33.055  1.00  0.00     0.022 C 
HETATM   26  C   UNL     1      -5.411  -1.652 -34.187  1.00  0.00     0.007 C 
ENDBRANCH  23  25
ENDBRANCH  21  23
BRANCH  22  27
HETATM   27  C   UNL     1      -5.653   2.563 -33.388  1.00  0.00     0.038 A 
HETATM   28  C   UNL     1      -5.926   4.033 -33.178  1.00  0.00     0.011 A 
HETATM   29  C   UNL     1      -4.577   3.488 -32.859  1.00  0.00     0.011 A 
ENDBRANCH  22  27
ENDBRANCH   1  18
TORSDOF 7
ENDMDL
MODEL 9
REMARK VINA RESULT:      -7.0      3.100      5.606
REMARK  7 active torsions:
REMARK  status: ('A' for Active; 'I' for Inactive)
REMARK    1  A    between atoms: C_2  and  C_3 
REMARK    2  A    between atoms: C_3  and  N_4 
REMARK    3  A    between atoms: C_7  and  C_8 
REMARK       I    between atoms: C_8  and  N_9 
REMARK    4  A    between atoms: N_9  and  C_10 
REMARK    5  A    between atoms: C_11  and  O_12 
REMARK    6  A    between atoms: C_16  and  C_17 
REMARK       I    between atoms: C_17  and  N_18 
REMARK    7  A    between atoms: C_23  and  C_24 
ROOT
HETATM    1  C   UNL     1      -8.386   1.954 -32.251  1.00  0.00     0.259 C 
HETATM    2  N   UNL     1      -7.333   1.771 -33.122  1.00  0.00    -0.320 N 
HETATM    3  O   UNL     1      -8.302   2.393 -31.109  1.00  0.00    -0.267 OA
HETATM    4  H   UNL     1      -7.471   1.179 -33.935  1.00  0.00     0.169 HD
ENDROOT
BRANCH   2   5
HETATM    5  C   UNL     1      -6.033   2.306 -32.974  1.00  0.00     0.069 A 
HETATM    6  C   UNL     1      -5.026   1.475 -32.444  1.00  0.00     0.095 A 
HETATM    7  C   UNL     1      -3.725   1.972 -32.316  1.00  0.00     0.040 A 
HETATM    8  C   UNL     1      -3.426   3.280 -32.711  1.00  0.00     0.020 A 
HETATM    9  C   UNL     1      -4.424   4.105 -33.239  1.00  0.00     0.034 A 
HETATM   10  C   UNL     1      -5.716   3.601 -33.396  1.00  0.00     0.049 A 
BRANCH   6  11
HETATM   11  O   UNL     1      -5.424   0.207 -32.094  1.00  0.00    -0.354 OA
HETATM   12  C   UNL     1      -4.799  -0.874 -32.777  1.00  0.00     0.210 C 
ENDBRANCH   6  11
BRANCH   9  13
HETATM   13  C   UNL     1      -4.051   5.458 -33.718  1.00  0.00     0.251 C 
HETATM   14  N   UNL     1      -3.995   6.528 -32.859  1.00  0.00    -0.361 N 
HETATM   15  C   UNL     1      -4.023   6.546 -31.413  1.00  0.00     0.149 C 
HETATM   16  H   UNL     1      -3.771   7.397 -33.331  1.00  0.00     0.162 HD
HETATM   17  O   UNL     1      -3.786   5.621 -34.907  1.00  0.00    -0.268 OA
ENDBRANCH   9  13
ENDBRANCH   2   5
BRANCH   1  18
HETATM   18  C   UNL     1      -9.660   1.548 -32.796  1.00  0.00     0.076 C 
HETATM   19  C   UNL     1     -10.180   0.237 -32.839  1.00  0.00     0.158 C 
HETATM   20  N   UNL     1     -11.413   0.189 -33.342  1.00  0.00    -0.183 NA
HETATM   21  N   UNL     1     -11.727   1.488 -33.545  1.00  0.00    -0.268 N 
HETATM   22  C   UNL     1     -10.661   2.339 -33.342  1.00  0.00     0.052 C 
BRANCH  21  23
HETATM   23  C   UNL     1     -13.103   1.843 -33.885  1.00  0.00     0.106 C 
HETATM   24  C   UNL     1     -13.869   0.615 -34.377  1.00  0.00     0.034 C 
BRANCH  23  25
HETATM   25  C   UNL     1     -13.851   2.537 -32.727  1.00  0.00     0.022 C 
HETATM   26  C   UNL     1     -15.236   1.951 -32.479  1.00  0.00     0.007 C 
ENDBRANCH  23  25
ENDBRANCH  21  23
BRANCH  22  27
HETATM   27  C   UNL     1     -10.658   3.835 -33.664  1.00  0.00     0.038 A 
HETATM   28  C   UNL     1      -9.443   4.510 -34.253  1.00  0.00     0.011 A 
HETATM   29  C   UNL     1     -10.641   4.285 -35.110  1.00  0.00     0.011 A 
ENDBRANCH  22  27
ENDBRANCH   1  18
TORSDOF 7
ENDMDL
MODEL 10
REMARK VINA RESULT:      -6.9      3.335      4.458
REMARK  7 active torsions:
REMARK  status: ('A' for Active; 'I' for Inactive)
REMARK    1  A    between atoms: C_2  and  C_3 
REMARK    2  A    between atoms: C_3  and  N_4 
REMARK    3  A    between atoms: C_7  and  C_8 
REMARK       I    between atoms: C_8  and  N_9 
REMARK    4  A    between atoms: N_9  and  C_10 
REMARK    5  A    between atoms: C_11  and  O_12 
REMARK    6  A    between atoms: C_16  and  C_17 
REMARK       I    between atoms: C_17  and  N_18 
REMARK    7  A    between atoms: C_23  and  C_24 
ROOT
HETATM    1  C   UNL     1      -5.887   1.746 -31.691  1.00  0.00     0.259 C 
HETATM    2  N   UNL     1      -4.971   2.770 -31.807  1.00  0.00    -0.320 N 
HETATM    3  O   UNL     1      -6.958   1.809 -31.097  1.00  0.00    -0.267 OA
HETATM    4  H   UNL     1      -4.024   2.546 -32.096  1.00  0.00     0.169 HD
ENDROOT
BRANCH   2   5
HETATM    5  C   UNL     1      -5.211   4.134 -31.520  1.00  0.00     0.069 A 
HETATM    6  C   UNL     1      -5.437   5.012 -32.597  1.00  0.00     0.095 A 
HETATM    7  C   UNL     1      -5.706   6.360 -32.338  1.00  0.00     0.040 A 
HETATM    8  C   UNL     1      -5.749   6.831 -31.021  1.00  0.00     0.020 A 
HETATM    9  C   UNL     1      -5.526   5.959 -29.950  1.00  0.00     0.034 A 
HETATM   10  C   UNL     1      -5.288   4.609 -30.207  1.00  0.00     0.049 A 
BRANCH   6  11
HETATM   11  O   UNL     1      -5.379   4.447 -33.849  1.00  0.00    -0.354 OA
HETATM   12  C   UNL     1      -4.435   4.999 -34.760  1.00  0.00     0.210 C 
ENDBRANCH   6  11
BRANCH   9  13
HETATM   13  C   UNL     1      -5.658   6.480 -28.568  1.00  0.00     0.251 C 
HETATM   14  N   UNL     1      -6.889   6.658 -27.988  1.00  0.00    -0.361 N 
HETATM   15  C   UNL     1      -8.187   6.193 -28.428  1.00  0.00     0.149 C 
HETATM   16  H   UNL     1      -6.830   7.061 -27.060  1.00  0.00     0.162 HD
HETATM   17  O   UNL     1      -4.643   6.754 -27.931  1.00  0.00    -0.268 OA
ENDBRANCH   9  13
ENDBRANCH   2   5
BRANCH   1  18
HETATM   18  C   UNL     1      -5.463   0.522 -32.328  1.00  0.00     0.076 C 
HETATM   19  C   UNL     1      -4.646  -0.482 -31.768  1.00  0.00     0.158 C 
HETATM   20  N   UNL     1      -4.487  -1.528 -32.578  1.00  0.00    -0.183 NA
HETATM   21  N   UNL     1      -5.279  -1.237 -33.634  1.00  0.00    -0.268 N 
HETATM   22  C   UNL     1      -5.797   0.039 -33.586  1.00  0.00     0.052 C 
BRANCH  21  23
HETATM   23  C   UNL     1      -5.535  -2.270 -34.636  1.00  0.00     0.106 C 
HETATM   24  C   UNL     1      -4.327  -3.197 -34.774  1.00  0.00     0.034 C 
BRANCH  23  25
HETATM   25  C   UNL     1      -6.823  -3.073 -34.360  1.00  0.00     0.022 C 
HETATM   26  C   UNL     1      -6.807  -4.459 -34.994  1.00  0.00     0.007 C 
ENDBRANCH  23  25
ENDBRANCH  21  23
BRANCH  22  27
HETATM   27  C   UNL     1      -6.577   0.714 -34.716  1.00  0.00     0.038 A 
HETATM   28  C   UNL     1      -7.829   0.092 -35.286  1.00  0.00     0.011 A 
HETATM   29  C   UNL     1      -7.941   1.305 -34.429  1.00  0.00     0.011 A 
ENDBRANCH  22  27
ENDBRANCH   1  18
TORSDOF 7
ENDMDL
