MODEL 1
REMARK VINA RESULT:      -9.5      0.000      0.000
REMARK  6 active torsions:
REMARK  status: ('A' for Active; 'I' for Inactive)
REMARK    1  A    between atoms: C_2  and  C_3 
REMARK    2  A    between atoms: C_4  and  N_5 
REMARK       I    between atoms: N_5  and  C_6 
REMARK    3  A    between atoms: C_6  and  C_7 
REMARK    4  A    between atoms: C_10  and  C_11 
REMARK    5  A    between atoms: C_11  and  C_12 
REMARK    6  A    between atoms: C_25  and  C_26 
ROOT
HETATM    1  N   UNL     1      -7.645   2.223 -32.586  1.00  0.00    -0.307 N 
HETATM    2  C   UNL     1      -6.831   3.251 -32.016  1.00  0.00     0.257 C 
HETATM    3  O   UNL     1      -7.275   3.800 -31.023  1.00  0.00    -0.267 OA
HETATM    4  H   UNL     1      -8.623   2.246 -32.316  1.00  0.00     0.170 HD
ENDROOT
BRANCH   2   5
HETATM    5  C   UNL     1      -5.564   3.668 -32.662  1.00  0.00     0.032 A 
HETATM    6  C   UNL     1      -5.560   4.603 -33.704  1.00  0.00     0.017 A 
HETATM    7  C   UNL     1      -4.359   4.975 -34.309  1.00  0.00     0.008 A 
HETATM    8  C   UNL     1      -3.143   4.464 -33.844  1.00  0.00    -0.057 A 
HETATM    9  C   UNL     1      -3.152   3.558 -32.773  1.00  0.00     0.008 A 
HETATM   10  C   UNL     1      -4.355   3.160 -32.181  1.00  0.00     0.017 A 
BRANCH   8  11
HETATM   11  C   UNL     1      -1.830   4.908 -34.457  1.00  0.00     0.053 C 
BRANCH  11  12
HETATM   12  C   UNL     1      -1.121   6.080 -33.760  1.00  0.00     0.091 C 
HETATM   13  C   UNL     1      -0.903   5.801 -32.294  1.00  0.00     0.229 C 
HETATM   14  O   UNL     1      -0.234   4.889 -31.836  1.00  0.00    -0.273 OA
HETATM   15  N   UNL     1      -1.642   6.676 -31.566  1.00  0.00    -0.297 N 
HETATM   16  C   UNL     1      -2.372   7.519 -32.336  1.00  0.00     0.225 C 
HETATM   17  H   UNL     1      -1.751   6.604 -30.567  1.00  0.00     0.171 HD
HETATM   18  O   UNL     1      -3.252   8.266 -31.940  1.00  0.00    -0.273 OA
HETATM   19  C   UNL     1      -1.903   7.394 -33.755  1.00  0.00     0.117 C 
ENDBRANCH  11  12
ENDBRANCH   8  11
ENDBRANCH   2   5
BRANCH   1  20
HETATM   20  C   UNL     1      -7.197   1.185 -33.383  1.00  0.00     0.133 A 
HETATM   21  C   UNL     1      -6.644   0.006 -32.918  1.00  0.00     0.018 A 
HETATM   22  C   UNL     1      -6.415  -0.780 -34.110  1.00  0.00     0.097 A 
HETATM   23  N   UNL     1      -6.759  -0.068 -35.200  1.00  0.00    -0.172 NA
HETATM   24  N   UNL     1      -7.204   1.099 -34.742  1.00  0.00    -0.261 N 
HETATM   25  H   UNL     1      -7.499   1.792 -35.422  1.00  0.00     0.191 HD
BRANCH  21  26
HETATM   26  C   UNL     1      -6.462  -0.356 -31.479  1.00  0.00     0.040 C 
HETATM   27  C   UNL     1      -5.019  -0.211 -31.020  1.00  0.00     0.010 C 
ENDBRANCH  21  26
BRANCH  22  28
HETATM   28  C   UNL     1      -5.942  -2.167 -34.300  1.00  0.00    -0.002 A 
HETATM   29  C   UNL     1      -6.840  -3.140 -34.765  1.00  0.00     0.033 A 
HETATM   30  C   UNL     1      -6.414  -4.448 -34.920  1.00  0.00     0.117 A 
HETATM   31  N   UNL     1      -5.163  -4.859 -34.641  1.00  0.00    -0.273 NA
HETATM   32  C   UNL     1      -4.303  -3.917 -34.209  1.00  0.00     0.117 A 
HETATM   33  C   UNL     1      -4.637  -2.581 -34.032  1.00  0.00     0.033 A 
ENDBRANCH  22  28
ENDBRANCH   1  20
TORSDOF 6
ENDMDL
MODEL 2
REMARK VINA RESULT:      -9.5      4.631      8.423
REMARK  6 active torsions:
REMARK  status: ('A' for Active; 'I' for Inactive)
REMARK    1  A    between atoms: C_2  and  C_3 
REMARK    2  A    between atoms: C_4  and  N_5 
REMARK       I    between atoms: N_5  and  C_6 
REMARK    3  A    between atoms: C_6  and  C_7 
REMARK    4  A    between atoms: C_10  and  C_11 
REMARK    5  A    between atoms: C_11  and  C_12 
REMARK    6  A    between atoms: C_25  and  C_26 
ROOT
HETATM    1  N   UNL     1      -8.300   3.919 -33.896  1.00  0.00    -0.307 N 
HETATM    2  C   UNL     1      -7.160   3.151 -33.501  1.00  0.00     0.257 C 
HETATM    3  O   UNL     1      -6.220   3.779 -33.047  1.00  0.00    -0.267 OA
HETATM    4  H   UNL     1      -8.124   4.905 -34.052  1.00  0.00     0.170 HD
ENDROOT
BRANCH   2   5
HETATM    5  C   UNL     1      -7.113   1.686 -33.720  1.00  0.00     0.032 A 
HETATM    6  C   UNL     1      -7.035   1.152 -35.012  1.00  0.00     0.017 A 
HETATM    7  C   UNL     1      -7.003  -0.230 -35.200  1.00  0.00     0.008 A 
HETATM    8  C   UNL     1      -6.992  -1.096 -34.101  1.00  0.00    -0.057 A 
HETATM    9  C   UNL     1      -7.030  -0.552 -32.808  1.00  0.00     0.008 A 
HETATM   10  C   UNL     1      -7.090   0.832 -32.615  1.00  0.00     0.017 A 
BRANCH   8  11
HETATM   11  C   UNL     1      -6.899  -2.596 -34.296  1.00  0.00     0.053 C 
BRANCH  11  12
HETATM   12  C   UNL     1      -5.613  -3.112 -34.961  1.00  0.00     0.091 C 
HETATM   13  C   UNL     1      -5.605  -4.618 -35.053  1.00  0.00     0.229 C 
HETATM   14  O   UNL     1      -6.412  -5.296 -35.669  1.00  0.00    -0.273 OA
HETATM   15  N   UNL     1      -4.609  -5.100 -34.269  1.00  0.00    -0.297 N 
HETATM   16  C   UNL     1      -3.930  -4.125 -33.617  1.00  0.00     0.225 C 
HETATM   17  H   UNL     1      -4.488  -6.082 -34.077  1.00  0.00     0.171 HD
HETATM   18  O   UNL     1      -3.124  -4.295 -32.718  1.00  0.00    -0.273 OA
HETATM   19  C   UNL     1      -4.324  -2.800 -34.200  1.00  0.00     0.117 C 
ENDBRANCH  11  12
ENDBRANCH   8  11
ENDBRANCH   2   5
BRANCH   1  20
HETATM   20  C   UNL     1      -9.597   3.448 -33.997  1.00  0.00     0.133 A 
HETATM   21  C   UNL     1     -10.515   3.417 -32.962  1.00  0.00     0.018 A 
HETATM   22  C   UNL     1     -11.730   2.926 -33.573  1.00  0.00     0.097 A 
HETATM   23  N   UNL     1     -11.506   2.635 -34.868  1.00  0.00    -0.172 NA
HETATM   24  N   UNL     1     -10.229   2.938 -35.089  1.00  0.00    -0.261 N 
HETATM   25  H   UNL     1      -9.858   2.769 -36.018  1.00  0.00     0.191 HD
BRANCH  21  26
HETATM   26  C   UNL     1     -10.268   3.908 -31.572  1.00  0.00     0.040 C 
HETATM   27  C   UNL     1      -9.576   2.871 -30.701  1.00  0.00     0.010 C 
ENDBRANCH  21  26
BRANCH  22  28
HETATM   28  C   UNL     1     -13.099   2.755 -33.043  1.00  0.00    -0.002 A 
HETATM   29  C   UNL     1     -13.831   1.610 -33.393  1.00  0.00     0.033 A 
HETATM   30  C   UNL     1     -15.124   1.452 -32.923  1.00  0.00     0.117 A 
HETATM   31  N   UNL     1     -15.743   2.353 -32.137  1.00  0.00    -0.273 NA
HETATM   32  C   UNL     1     -15.028   3.443 -31.794  1.00  0.00     0.117 A 
HETATM   33  C   UNL     1     -13.725   3.681 -32.208  1.00  0.00     0.033 A 
ENDBRANCH  22  28
ENDBRANCH   1  20
TORSDOF 6
ENDMDL
MODEL 3
REMARK VINA RESULT:      -8.8      1.372      2.287
REMARK  6 active torsions:
REMARK  status: ('A' for Active; 'I' for Inactive)
REMARK    1  A    between atoms: C_2  and  C_3 
REMARK    2  A    between atoms: C_4  and  N_5 
REMARK       I    between atoms: N_5  and  C_6 
REMARK    3  A    between atoms: C_6  and  C_7 
REMARK    4  A    between atoms: C_10  and  C_11 
REMARK    5  A    between atoms: C_11  and  C_12 
REMARK    6  A    between atoms: C_25  and  C_26 
ROOT
HETATM    1  N   UNL     1      -8.013   3.102 -31.411  1.00  0.00    -0.307 N 
HETATM    2  C   UNL     1      -7.259   4.316 -31.355  1.00  0.00     0.257 C 
HETATM    3  O   UNL     1      -7.798   5.259 -30.805  1.00  0.00    -0.267 OA
HETATM    4  H   UNL     1      -9.012   3.207 -31.273  1.00  0.00     0.170 HD
ENDROOT
BRANCH   2   5
HETATM    5  C   UNL     1      -5.934   4.423 -32.011  1.00  0.00     0.032 A 
HETATM    6  C   UNL     1      -4.768   4.015 -31.351  1.00  0.00     0.017 A 
HETATM    7  C   UNL     1      -3.528   4.133 -31.978  1.00  0.00     0.008 A 
HETATM    8  C   UNL     1      -3.440   4.606 -33.292  1.00  0.00    -0.057 A 
HETATM    9  C   UNL     1      -4.617   4.975 -33.961  1.00  0.00     0.008 A 
HETATM   10  C   UNL     1      -5.860   4.884 -33.327  1.00  0.00     0.017 A 
BRANCH   8  11
HETATM   11  C   UNL     1      -2.103   4.682 -34.002  1.00  0.00     0.053 C 
BRANCH  11  12
HETATM   12  C   UNL     1      -1.213   5.882 -33.638  1.00  0.00     0.091 C 
HETATM   13  C   UNL     1      -0.778   5.830 -32.194  1.00  0.00     0.229 C 
HETATM   14  O   UNL     1      -0.106   4.947 -31.687  1.00  0.00    -0.273 OA
HETATM   15  N   UNL     1      -1.328   6.877 -31.531  1.00  0.00    -0.297 N 
HETATM   16  C   UNL     1      -2.117   7.647 -32.321  1.00  0.00     0.225 C 
HETATM   17  H   UNL     1      -1.277   6.982 -30.531  1.00  0.00     0.171 HD
HETATM   18  O   UNL     1      -2.868   8.528 -31.937  1.00  0.00    -0.273 OA
HETATM   19  C   UNL     1      -1.895   7.247 -33.749  1.00  0.00     0.117 C 
ENDBRANCH  11  12
ENDBRANCH   8  11
ENDBRANCH   2   5
BRANCH   1  20
HETATM   20  C   UNL     1      -7.489   1.830 -31.551  1.00  0.00     0.133 A 
HETATM   21  C   UNL     1      -7.373   1.144 -32.747  1.00  0.00     0.018 A 
HETATM   22  C   UNL     1      -6.702  -0.088 -32.392  1.00  0.00     0.097 A 
HETATM   23  N   UNL     1      -6.501  -0.133 -31.062  1.00  0.00    -0.172 NA
HETATM   24  N   UNL     1      -6.992   1.009 -30.585  1.00  0.00    -0.261 N 
HETATM   25  H   UNL     1      -6.951   1.158 -29.583  1.00  0.00     0.191 HD
BRANCH  21  26
HETATM   26  C   UNL     1      -7.769   1.671 -34.088  1.00  0.00     0.040 C 
HETATM   27  C   UNL     1      -9.215   1.353 -34.436  1.00  0.00     0.010 C 
ENDBRANCH  21  26
BRANCH  22  28
HETATM   28  C   UNL     1      -6.194  -1.204 -33.216  1.00  0.00    -0.002 A 
HETATM   29  C   UNL     1      -4.825  -1.510 -33.184  1.00  0.00     0.033 A 
HETATM   30  C   UNL     1      -4.333  -2.537 -33.972  1.00  0.00     0.117 A 
HETATM   31  N   UNL     1      -5.103  -3.276 -34.794  1.00  0.00    -0.273 NA
HETATM   32  C   UNL     1      -6.418  -2.984 -34.809  1.00  0.00     0.117 A 
HETATM   33  C   UNL     1      -7.002  -1.981 -34.047  1.00  0.00     0.033 A 
ENDBRANCH  22  28
ENDBRANCH   1  20
TORSDOF 6
ENDMDL
MODEL 4
REMARK VINA RESULT:      -8.8      2.852      7.045
REMARK  6 active torsions:
REMARK  status: ('A' for Active; 'I' for Inactive)
REMARK    1  A    between atoms: C_2  and  C_3 
REMARK    2  A    between atoms: C_4  and  N_5 
REMARK       I    between atoms: N_5  and  C_6 
REMARK    3  A    between atoms: C_6  and  C_7 
REMARK    4  A    between atoms: C_10  and  C_11 
REMARK    5  A    between atoms: C_11  and  C_12 
REMARK    6  A    between atoms: C_25  and  C_26 
ROOT
HETATM    1  N   UNL     1      -8.641   3.602 -32.493  1.00  0.00    -0.307 N 
HETATM    2  C   UNL     1      -9.259   2.382 -32.912  1.00  0.00     0.257 C 
HETATM    3  O   UNL     1     -10.475   2.344 -32.842  1.00  0.00    -0.267 OA
HETATM    4  H   UNL     1      -9.212   4.197 -31.905  1.00  0.00     0.170 HD
ENDROOT
BRANCH   2   5
HETATM    5  C   UNL     1      -8.444   1.214 -33.322  1.00  0.00     0.032 A 
HETATM    6  C   UNL     1      -8.017   1.063 -34.647  1.00  0.00     0.017 A 
HETATM    7  C   UNL     1      -7.261  -0.049 -35.018  1.00  0.00     0.008 A 
HETATM    8  C   UNL     1      -6.872  -0.994 -34.063  1.00  0.00    -0.057 A 
HETATM    9  C   UNL     1      -7.270  -0.814 -32.729  1.00  0.00     0.008 A 
HETATM   10  C   UNL     1      -8.052   0.284 -32.357  1.00  0.00     0.017 A 
BRANCH   8  11
HETATM   11  C   UNL     1      -6.001  -2.173 -34.447  1.00  0.00     0.053 C 
BRANCH  11  12
HETATM   12  C   UNL     1      -4.487  -1.983 -34.265  1.00  0.00     0.091 C 
HETATM   13  C   UNL     1      -3.877  -3.119 -33.481  1.00  0.00     0.229 C 
HETATM   14  O   UNL     1      -3.872  -4.292 -33.818  1.00  0.00    -0.273 OA
HETATM   15  N   UNL     1      -3.414  -2.638 -32.300  1.00  0.00    -0.297 N 
HETATM   16  C   UNL     1      -3.643  -1.312 -32.143  1.00  0.00     0.225 C 
HETATM   17  H   UNL     1      -3.075  -3.233 -31.561  1.00  0.00     0.171 HD
HETATM   18  O   UNL     1      -3.498  -0.680 -31.109  1.00  0.00    -0.273 OA
HETATM   19  C   UNL     1      -4.086  -0.746 -33.459  1.00  0.00     0.117 C 
ENDBRANCH  11  12
ENDBRANCH   8  11
ENDBRANCH   2   5
BRANCH   1  20
HETATM   20  C   UNL     1      -7.394   4.053 -32.887  1.00  0.00     0.133 A 
HETATM   21  C   UNL     1      -6.252   4.020 -32.106  1.00  0.00     0.018 A 
HETATM   22  C   UNL     1      -5.207   4.518 -32.974  1.00  0.00     0.097 A 
HETATM   23  N   UNL     1      -5.730   4.874 -34.162  1.00  0.00    -0.172 NA
HETATM   24  N   UNL     1      -7.031   4.604 -34.078  1.00  0.00    -0.261 N 
HETATM   25  H   UNL     1      -7.611   4.822 -34.881  1.00  0.00     0.191 HD
BRANCH  21  26
HETATM   26  C   UNL     1      -6.169   3.469 -30.719  1.00  0.00     0.040 C 
HETATM   27  C   UNL     1      -5.595   2.061 -30.685  1.00  0.00     0.010 C 
ENDBRANCH  21  26
BRANCH  22  28
HETATM   28  C   UNL     1      -3.747   4.640 -32.786  1.00  0.00    -0.002 A 
HETATM   29  C   UNL     1      -3.222   4.644 -31.484  1.00  0.00     0.033 A 
HETATM   30  C   UNL     1      -1.858   4.784 -31.296  1.00  0.00     0.117 A 
HETATM   31  N   UNL     1      -0.979   4.926 -32.307  1.00  0.00    -0.273 NA
HETATM   32  C   UNL     1      -1.490   4.907 -33.553  1.00  0.00     0.117 A 
HETATM   33  C   UNL     1      -2.840   4.761 -33.839  1.00  0.00     0.033 A 
ENDBRANCH  22  28
ENDBRANCH   1  20
TORSDOF 6
ENDMDL
MODEL 5
REMARK VINA RESULT:      -8.7      2.977      4.857
REMARK  6 active torsions:
REMARK  status: ('A' for Active; 'I' for Inactive)
REMARK    1  A    between atoms: C_2  and  C_3 
REMARK    2  A    between atoms: C_4  and  N_5 
REMARK       I    between atoms: N_5  and  C_6 
REMARK    3  A    between atoms: C_6  and  C_7 
REMARK    4  A    between atoms: C_10  and  C_11 
REMARK    5  A    between atoms: C_11  and  C_12 
REMARK    6  A    between atoms: C_25  and  C_26 
ROOT
HETATM    1  N   UNL     1      -6.883  -0.196 -31.407  1.00  0.00    -0.307 N 
HETATM    2  C   UNL     1      -5.519   0.148 -31.660  1.00  0.00     0.257 C 
HETATM    3  O   UNL     1      -4.728  -0.778 -31.692  1.00  0.00    -0.267 OA
HETATM    4  H   UNL     1      -7.029  -1.106 -30.983  1.00  0.00     0.170 HD
ENDROOT
BRANCH   2   5
HETATM    5  C   UNL     1      -5.099   1.563 -31.788  1.00  0.00     0.032 A 
HETATM    6  C   UNL     1      -5.291   2.267 -32.984  1.00  0.00     0.017 A 
HETATM    7  C   UNL     1      -4.879   3.595 -33.091  1.00  0.00     0.008 A 
HETATM    8  C   UNL     1      -4.325   4.257 -31.990  1.00  0.00    -0.057 A 
HETATM    9  C   UNL     1      -4.173   3.557 -30.783  1.00  0.00     0.008 A 
HETATM   10  C   UNL     1      -4.559   2.217 -30.679  1.00  0.00     0.017 A 
BRANCH   8  11
HETATM   11  C   UNL     1      -3.929   5.717 -32.081  1.00  0.00     0.053 C 
BRANCH  11  12
HETATM   12  C   UNL     1      -2.421   6.004 -32.164  1.00  0.00     0.091 C 
HETATM   13  C   UNL     1      -2.148   7.350 -32.789  1.00  0.00     0.229 C 
HETATM   14  O   UNL     1      -2.512   8.426 -32.344  1.00  0.00    -0.273 OA
HETATM   15  N   UNL     1      -1.509   7.164 -33.971  1.00  0.00    -0.297 N 
HETATM   16  C   UNL     1      -1.320   5.855 -34.269  1.00  0.00     0.225 C 
HETATM   17  H   UNL     1      -1.333   7.911 -34.623  1.00  0.00     0.171 HD
HETATM   18  O   UNL     1      -0.946   5.415 -35.343  1.00  0.00    -0.273 OA
HETATM   19  C   UNL     1      -1.630   5.040 -33.049  1.00  0.00     0.117 C 
ENDBRANCH  11  12
ENDBRANCH   8  11
ENDBRANCH   2   5
BRANCH   1  20
HETATM   20  C   UNL     1      -7.987   0.558 -31.762  1.00  0.00     0.133 A 
HETATM   21  C   UNL     1      -8.629   0.501 -32.986  1.00  0.00     0.018 A 
HETATM   22  C   UNL     1      -9.755   1.399 -32.844  1.00  0.00     0.097 A 
HETATM   23  N   UNL     1      -9.724   1.983 -31.631  1.00  0.00    -0.172 NA
HETATM   24  N   UNL     1      -8.657   1.480 -31.016  1.00  0.00    -0.261 N 
HETATM   25  H   UNL     1      -8.449   1.814 -30.082  1.00  0.00     0.191 HD
BRANCH  21  26
HETATM   26  C   UNL     1      -8.256  -0.400 -34.118  1.00  0.00     0.040 C 
HETATM   27  C   UNL     1      -7.515   0.333 -35.226  1.00  0.00     0.010 C 
ENDBRANCH  21  26
BRANCH  22  28
HETATM   28  C   UNL     1     -10.883   1.714 -33.745  1.00  0.00    -0.002 A 
HETATM   29  C   UNL     1     -11.997   0.861 -33.771  1.00  0.00     0.033 A 
HETATM   30  C   UNL     1     -13.048   1.131 -34.631  1.00  0.00     0.117 A 
HETATM   31  N   UNL     1     -13.068   2.184 -35.470  1.00  0.00    -0.273 NA
HETATM   32  C   UNL     1     -12.001   3.005 -35.430  1.00  0.00     0.117 A 
HETATM   33  C   UNL     1     -10.907   2.820 -34.595  1.00  0.00     0.033 A 
ENDBRANCH  22  28
ENDBRANCH   1  20
TORSDOF 6
ENDMDL
MODEL 6
REMARK VINA RESULT:      -8.6      2.843      8.226
REMARK  6 active torsions:
REMARK  status: ('A' for Active; 'I' for Inactive)
REMARK    1  A    between atoms: C_2  and  C_3 
REMARK    2  A    between atoms: C_4  and  N_5 
REMARK       I    between atoms: N_5  and  C_6 
REMARK    3  A    between atoms: C_6  and  C_7 
REMARK    4  A    between atoms: C_10  and  C_11 
REMARK    5  A    between atoms: C_11  and  C_12 
REMARK    6  A    between atoms: C_25  and  C_26 
ROOT
HETATM    1  N   UNL     1      -6.910   3.839 -30.195  1.00  0.00    -0.307 N 
HETATM    2  C   UNL     1      -8.023   3.157 -30.778  1.00  0.00     0.257 C 
HETATM    3  O   UNL     1      -9.127   3.507 -30.399  1.00  0.00    -0.267 OA
HETATM    4  H   UNL     1      -7.105   4.319 -29.324  1.00  0.00     0.170 HD
ENDROOT
BRANCH   2   5
HETATM    5  C   UNL     1      -7.821   2.034 -31.723  1.00  0.00     0.032 A 
HETATM    6  C   UNL     1      -8.224   2.135 -33.061  1.00  0.00     0.017 A 
HETATM    7  C   UNL     1      -8.037   1.064 -33.934  1.00  0.00     0.008 A 
HETATM    8  C   UNL     1      -7.394  -0.100 -33.501  1.00  0.00    -0.057 A 
HETATM    9  C   UNL     1      -6.956  -0.179 -32.170  1.00  0.00     0.008 A 
HETATM   10  C   UNL     1      -7.166   0.882 -31.283  1.00  0.00     0.017 A 
BRANCH   8  11
HETATM   11  C   UNL     1      -7.134  -1.246 -34.459  1.00  0.00     0.053 C 
BRANCH  11  12
HETATM   12  C   UNL     1      -6.477  -2.497 -33.854  1.00  0.00     0.091 C 
HETATM   13  C   UNL     1      -5.028  -2.609 -34.256  1.00  0.00     0.229 C 
HETATM   14  O   UNL     1      -4.152  -1.800 -33.992  1.00  0.00    -0.273 OA
HETATM   15  N   UNL     1      -4.872  -3.710 -35.033  1.00  0.00    -0.297 N 
HETATM   16  C   UNL     1      -6.034  -4.373 -35.250  1.00  0.00     0.225 C 
HETATM   17  H   UNL     1      -4.015  -3.922 -35.519  1.00  0.00     0.171 HD
HETATM   18  O   UNL     1      -6.203  -5.273 -36.055  1.00  0.00    -0.273 OA
HETATM   19  C   UNL     1      -7.074  -3.826 -34.317  1.00  0.00     0.117 C 
ENDBRANCH  11  12
ENDBRANCH   8  11
ENDBRANCH   2   5
BRANCH   1  20
HETATM   20  C   UNL     1      -5.650   3.958 -30.755  1.00  0.00     0.133 A 
HETATM   21  C   UNL     1      -5.303   4.854 -31.750  1.00  0.00     0.018 A 
HETATM   22  C   UNL     1      -3.883   4.654 -31.935  1.00  0.00     0.097 A 
HETATM   23  N   UNL     1      -3.453   3.658 -31.137  1.00  0.00    -0.172 NA
HETATM   24  N   UNL     1      -4.524   3.252 -30.460  1.00  0.00    -0.261 N 
HETATM   25  H   UNL     1      -4.407   2.483 -29.809  1.00  0.00     0.191 HD
BRANCH  21  26
HETATM   26  C   UNL     1      -6.221   5.859 -32.368  1.00  0.00     0.040 C 
HETATM   27  C   UNL     1      -6.910   5.329 -33.616  1.00  0.00     0.010 C 
ENDBRANCH  21  26
BRANCH  22  28
HETATM   28  C   UNL     1      -2.890   5.360 -32.772  1.00  0.00    -0.002 A 
HETATM   29  C   UNL     1      -2.591   6.702 -32.493  1.00  0.00     0.033 A 
HETATM   30  C   UNL     1      -1.683   7.381 -33.288  1.00  0.00     0.117 A 
HETATM   31  N   UNL     1      -1.055   6.824 -34.340  1.00  0.00    -0.273 NA
HETATM   32  C   UNL     1      -1.337   5.531 -34.592  1.00  0.00     0.117 A 
HETATM   33  C   UNL     1      -2.226   4.768 -33.846  1.00  0.00     0.033 A 
ENDBRANCH  22  28
ENDBRANCH   1  20
TORSDOF 6
ENDMDL
MODEL 7
REMARK VINA RESULT:      -8.5      2.881      7.947
REMARK  6 active torsions:
REMARK  status: ('A' for Active; 'I' for Inactive)
REMARK    1  A    between atoms: C_2  and  C_3 
REMARK    2  A    between atoms: C_4  and  N_5 
REMARK       I    between atoms: N_5  and  C_6 
REMARK    3  A    between atoms: C_6  and  C_7 
REMARK    4  A    between atoms: C_10  and  C_11 
REMARK    5  A    between atoms: C_11  and  C_12 
REMARK    6  A    between atoms: C_25  and  C_26 
ROOT
HETATM    1  N   UNL     1      -8.051   3.424 -32.927  1.00  0.00    -0.307 N 
HETATM    2  C   UNL     1      -8.683   2.511 -33.829  1.00  0.00     0.257 C 
HETATM    3  O   UNL     1      -9.704   2.905 -34.365  1.00  0.00    -0.267 OA
HETATM    4  H   UNL     1      -8.644   4.170 -32.582  1.00  0.00     0.170 HD
ENDROOT
BRANCH   2   5
HETATM    5  C   UNL     1      -8.156   1.139 -34.021  1.00  0.00     0.032 A 
HETATM    6  C   UNL     1      -7.332   0.829 -35.110  1.00  0.00     0.017 A 
HETATM    7  C   UNL     1      -6.854  -0.470 -35.282  1.00  0.00     0.008 A 
HETATM    8  C   UNL     1      -7.144  -1.463 -34.340  1.00  0.00    -0.057 A 
HETATM    9  C   UNL     1      -7.938  -1.135 -33.230  1.00  0.00     0.008 A 
HETATM   10  C   UNL     1      -8.442   0.160 -33.067  1.00  0.00     0.017 A 
BRANCH   8  11
HETATM   11  C   UNL     1      -6.581  -2.862 -34.489  1.00  0.00     0.053 C 
BRANCH  11  12
HETATM   12  C   UNL     1      -5.062  -2.960 -34.702  1.00  0.00     0.091 C 
HETATM   13  C   UNL     1      -4.533  -4.312 -34.295  1.00  0.00     0.229 C 
HETATM   14  O   UNL     1      -4.854  -5.380 -34.792  1.00  0.00    -0.273 OA
HETATM   15  N   UNL     1      -3.709  -4.158 -33.229  1.00  0.00    -0.297 N 
HETATM   16  C   UNL     1      -3.611  -2.870 -32.818  1.00  0.00     0.225 C 
HETATM   17  H   UNL     1      -3.334  -4.935 -32.708  1.00  0.00     0.171 HD
HETATM   18  O   UNL     1      -3.094  -2.489 -31.781  1.00  0.00    -0.273 OA
HETATM   19  C   UNL     1      -4.230  -1.990 -33.862  1.00  0.00     0.117 C 
ENDBRANCH  11  12
ENDBRANCH   8  11
ENDBRANCH   2   5
BRANCH   1  20
HETATM   20  C   UNL     1      -6.715   3.413 -32.569  1.00  0.00     0.133 A 
HETATM   21  C   UNL     1      -5.831   4.460 -32.761  1.00  0.00     0.018 A 
HETATM   22  C   UNL     1      -4.598   4.005 -32.156  1.00  0.00     0.097 A 
HETATM   23  N   UNL     1      -4.748   2.747 -31.700  1.00  0.00    -0.172 NA
HETATM   24  N   UNL     1      -6.008   2.414 -31.972  1.00  0.00    -0.261 N 
HETATM   25  H   UNL     1      -6.314   1.482 -31.718  1.00  0.00     0.191 HD
BRANCH  21  26
HETATM   26  C   UNL     1      -6.176   5.784 -33.362  1.00  0.00     0.040 C 
HETATM   27  C   UNL     1      -6.528   6.827 -32.312  1.00  0.00     0.010 C 
ENDBRANCH  21  26
BRANCH  22  28
HETATM   28  C   UNL     1      -3.304   4.682 -31.934  1.00  0.00    -0.002 A 
HETATM   29  C   UNL     1      -2.227   4.400 -32.789  1.00  0.00     0.033 A 
HETATM   30  C   UNL     1      -1.002   5.008 -32.573  1.00  0.00     0.117 A 
HETATM   31  N   UNL     1      -0.769   5.871 -31.566  1.00  0.00    -0.273 NA
HETATM   32  C   UNL     1      -1.811   6.146 -30.758  1.00  0.00     0.117 A 
HETATM   33  C   UNL     1      -3.076   5.593 -30.903  1.00  0.00     0.033 A 
ENDBRANCH  22  28
ENDBRANCH   1  20
TORSDOF 6
ENDMDL
MODEL 8
REMARK VINA RESULT:      -8.3      3.060      8.149
REMARK  6 active torsions:
REMARK  status: ('A' for Active; 'I' for Inactive)
REMARK    1  A    between atoms: C_2  and  C_3 
REMARK    2  A    between atoms: C_4  and  N_5 
REMARK       I    between atoms: N_5  and  C_6 
REMARK    3  A    between atoms: C_6  and  C_7 
REMARK    4  A    between atoms: C_10  and  C_11 
REMARK    5  A    between atoms: C_11  and  C_12 
REMARK    6  A    between atoms: C_25  and  C_26 
ROOT
HETATM    1  N   UNL     1      -8.853   3.802 -30.815  1.00  0.00    -0.307 N 
HETATM    2  C   UNL     1      -9.543   3.245 -31.937  1.00  0.00     0.257 C 
HETATM    3  O   UNL     1     -10.650   3.700 -32.167  1.00  0.00    -0.267 OA
HETATM    4  H   UNL     1      -9.439   4.286 -30.144  1.00  0.00     0.170 HD
ENDROOT
BRANCH   2   5
HETATM    5  C   UNL     1      -8.962   2.122 -32.709  1.00  0.00     0.032 A 
HETATM    6  C   UNL     1      -8.330   2.343 -33.939  1.00  0.00     0.017 A 
HETATM    7  C   UNL     1      -7.800   1.273 -34.659  1.00  0.00     0.008 A 
HETATM    8  C   UNL     1      -7.840  -0.024 -34.135  1.00  0.00    -0.057 A 
HETATM    9  C   UNL     1      -8.440  -0.232 -32.883  1.00  0.00     0.008 A 
HETATM   10  C   UNL     1      -8.998   0.834 -32.170  1.00  0.00     0.017 A 
BRANCH   8  11
HETATM   11  C   UNL     1      -7.215  -1.183 -34.884  1.00  0.00     0.053 C 
BRANCH  11  12
HETATM   12  C   UNL     1      -6.605  -2.297 -34.017  1.00  0.00     0.091 C 
HETATM   13  C   UNL     1      -5.109  -2.375 -34.189  1.00  0.00     0.229 C 
HETATM   14  O   UNL     1      -4.316  -1.486 -33.923  1.00  0.00    -0.273 OA
HETATM   15  N   UNL     1      -4.794  -3.560 -34.769  1.00  0.00    -0.297 N 
HETATM   16  C   UNL     1      -5.883  -4.317 -35.050  1.00  0.00     0.225 C 
HETATM   17  H   UNL     1      -3.867  -3.784 -35.092  1.00  0.00     0.171 HD
HETATM   18  O   UNL     1      -5.894  -5.327 -35.733  1.00  0.00    -0.273 OA
HETATM   19  C   UNL     1      -7.072  -3.712 -34.364  1.00  0.00     0.117 C 
ENDBRANCH  11  12
ENDBRANCH   8  11
ENDBRANCH   2   5
BRANCH   1  20
HETATM   20  C   UNL     1      -7.483   3.802 -30.625  1.00  0.00     0.133 A 
HETATM   21  C   UNL     1      -6.580   4.559 -31.349  1.00  0.00     0.018 A 
HETATM   22  C   UNL     1      -5.301   4.279 -30.733  1.00  0.00     0.097 A 
HETATM   23  N   UNL     1      -5.453   3.367 -29.755  1.00  0.00    -0.172 NA
HETATM   24  N   UNL     1      -6.754   3.088 -29.723  1.00  0.00    -0.261 N 
HETATM   25  H   UNL     1      -7.072   2.397 -29.053  1.00  0.00     0.191 HD
BRANCH  21  26
HETATM   26  C   UNL     1      -6.933   5.523 -32.435  1.00  0.00     0.040 C 
HETATM   27  C   UNL     1      -6.197   5.232 -33.734  1.00  0.00     0.010 C 
ENDBRANCH  21  26
BRANCH  22  28
HETATM   28  C   UNL     1      -3.953   4.840 -30.965  1.00  0.00    -0.002 A 
HETATM   29  C   UNL     1      -3.668   6.140 -30.522  1.00  0.00     0.033 A 
HETATM   30  C   UNL     1      -2.417   6.686 -30.758  1.00  0.00     0.117 A 
HETATM   31  N   UNL     1      -1.433   6.033 -31.405  1.00  0.00    -0.273 NA
HETATM   32  C   UNL     1      -1.711   4.780 -31.814  1.00  0.00     0.117 A 
HETATM   33  C   UNL     1      -2.931   4.148 -31.615  1.00  0.00     0.033 A 
ENDBRANCH  22  28
ENDBRANCH   1  20
TORSDOF 6
ENDMDL
MODEL 9
REMARK VINA RESULT:      -8.2      4.787      7.760
REMARK  6 active torsions:
REMARK  status: ('A' for Active; 'I' for Inactive)
REMARK    1  A    between atoms: C_2  and  C_3 
REMARK    2  A    between atoms: C_4  and  N_5 
REMARK       I    between atoms: N_5  and  C_6 
REMARK    3  A    between atoms: C_6  and  C_7 
REMARK    4  A    between atoms: C_10  and  C_11 
REMARK    5  A    between atoms: C_11  and  C_12 
REMARK    6  A    between atoms: C_25  and  C_26 
ROOT
HETATM    1  N   UNL     1     -10.805  -0.399 -33.009  1.00  0.00    -0.307 N 
HETATM    2  C   UNL     1     -12.118   0.049 -33.355  1.00  0.00     0.257 C 
HETATM    3  O   UNL     1     -13.007  -0.782 -33.280  1.00  0.00    -0.267 OA
HETATM    4  H   UNL     1     -10.671  -1.403 -33.030  1.00  0.00     0.170 HD
ENDROOT
BRANCH   2   5
HETATM    5  C   UNL     1     -12.349   1.424 -33.856  1.00  0.00     0.032 A 
HETATM    6  C   UNL     1     -11.956   1.797 -35.148  1.00  0.00     0.017 A 
HETATM    7  C   UNL     1     -12.170   3.099 -35.599  1.00  0.00     0.008 A 
HETATM    8  C   UNL     1     -12.831   4.031 -34.791  1.00  0.00    -0.057 A 
HETATM    9  C   UNL     1     -13.258   3.638 -33.513  1.00  0.00     0.008 A 
HETATM   10  C   UNL     1     -13.021   2.342 -33.045  1.00  0.00     0.017 A 
BRANCH   8  11
HETATM   11  C   UNL     1     -13.119   5.430 -35.295  1.00  0.00     0.053 C 
BRANCH  11  12
HETATM   12  C   UNL     1     -12.206   6.544 -34.757  1.00  0.00     0.091 C 
HETATM   13  C   UNL     1     -11.521   7.286 -35.877  1.00  0.00     0.229 C 
HETATM   14  O   UNL     1     -12.082   7.922 -36.755  1.00  0.00    -0.273 OA
HETATM   15  N   UNL     1     -10.186   7.061 -35.801  1.00  0.00    -0.297 N 
HETATM   16  C   UNL     1      -9.847   6.233 -34.783  1.00  0.00     0.225 C 
HETATM   17  H   UNL     1      -9.538   7.355 -36.514  1.00  0.00     0.171 HD
HETATM   18  O   UNL     1      -8.751   5.725 -34.610  1.00  0.00    -0.273 OA
HETATM   19  C   UNL     1     -11.041   6.060 -33.892  1.00  0.00     0.117 C 
ENDBRANCH  11  12
ENDBRANCH   8  11
ENDBRANCH   2   5
BRANCH   1  20
HETATM   20  C   UNL     1      -9.763   0.405 -32.582  1.00  0.00     0.133 A 
HETATM   21  C   UNL     1      -8.644   0.721 -33.331  1.00  0.00     0.018 A 
HETATM   22  C   UNL     1      -7.899   1.638 -32.496  1.00  0.00     0.097 A 
HETATM   23  N   UNL     1      -8.523   1.789 -31.312  1.00  0.00    -0.172 NA
HETATM   24  N   UNL     1      -9.617   1.034 -31.384  1.00  0.00    -0.261 N 
HETATM   25  H   UNL     1     -10.220   0.999 -30.569  1.00  0.00     0.191 HD
BRANCH  21  26
HETATM   26  C   UNL     1      -8.385   0.272 -34.733  1.00  0.00     0.040 C 
HETATM   27  C   UNL     1      -7.185  -0.656 -34.836  1.00  0.00     0.010 C 
ENDBRANCH  21  26
BRANCH  22  28
HETATM   28  C   UNL     1      -6.669   2.418 -32.745  1.00  0.00    -0.002 A 
HETATM   29  C   UNL     1      -5.536   2.181 -31.952  1.00  0.00     0.033 A 
HETATM   30  C   UNL     1      -4.386   2.926 -32.159  1.00  0.00     0.117 A 
HETATM   31  N   UNL     1      -4.286   3.891 -33.092  1.00  0.00    -0.273 NA
HETATM   32  C   UNL     1      -5.374   4.103 -33.857  1.00  0.00     0.117 A 
HETATM   33  C   UNL     1      -6.564   3.400 -33.730  1.00  0.00     0.033 A 
ENDBRANCH  22  28
ENDBRANCH   1  20
TORSDOF 6
ENDMDL
MODEL 10
REMARK VINA RESULT:      -8.2      3.065      7.993
REMARK  6 active torsions:
REMARK  status: ('A' for Active; 'I' for Inactive)
REMARK    1  A    between atoms: C_2  and  C_3 
REMARK    2  A    between atoms: C_4  and  N_5 
REMARK       I    between atoms: N_5  and  C_6 
REMARK    3  A    between atoms: C_6  and  C_7 
REMARK    4  A    between atoms: C_10  and  C_11 
REMARK    5  A    between atoms: C_11  and  C_12 
REMARK    6  A    between atoms: C_25  and  C_26 
ROOT
HETATM    1  N   UNL     1      -7.110   5.484 -33.583  1.00  0.00    -0.307 N 
HETATM    2  C   UNL     1      -7.899   4.304 -33.751  1.00  0.00     0.257 C 
HETATM    3  O   UNL     1      -9.045   4.472 -34.128  1.00  0.00    -0.267 OA
HETATM    4  H   UNL     1      -7.635   6.347 -33.492  1.00  0.00     0.170 HD
ENDROOT
BRANCH   2   5
HETATM    5  C   UNL     1      -7.360   2.969 -33.400  1.00  0.00     0.032 A 
HETATM    6  C   UNL     1      -6.857   2.112 -34.387  1.00  0.00     0.017 A 
HETATM    7  C   UNL     1      -6.365   0.853 -34.041  1.00  0.00     0.008 A 
HETATM    8  C   UNL     1      -6.313   0.456 -32.700  1.00  0.00    -0.057 A 
HETATM    9  C   UNL     1      -6.782   1.337 -31.713  1.00  0.00     0.008 A 
HETATM   10  C   UNL     1      -7.302   2.588 -32.057  1.00  0.00     0.017 A 
BRANCH   8  11
HETATM   11  C   UNL     1      -5.726  -0.885 -32.310  1.00  0.00     0.053 C 
BRANCH  11  12
HETATM   12  C   UNL     1      -4.371  -1.239 -32.943  1.00  0.00     0.091 C 
HETATM   13  C   UNL     1      -4.473  -2.461 -33.821  1.00  0.00     0.229 C 
HETATM   14  O   UNL     1      -5.170  -2.563 -34.819  1.00  0.00    -0.273 OA
HETATM   15  N   UNL     1      -3.734  -3.458 -33.274  1.00  0.00    -0.297 N 
HETATM   16  C   UNL     1      -3.144  -3.100 -32.108  1.00  0.00     0.225 C 
HETATM   17  H   UNL     1      -3.748  -4.405 -33.620  1.00  0.00     0.171 HD
HETATM   18  O   UNL     1      -2.588  -3.855 -31.328  1.00  0.00    -0.273 OA
HETATM   19  C   UNL     1      -3.273  -1.615 -31.946  1.00  0.00     0.117 C 
ENDBRANCH  11  12
ENDBRANCH   8  11
ENDBRANCH   2   5
BRANCH   1  20
HETATM   20  C   UNL     1      -5.728   5.546 -33.617  1.00  0.00     0.133 A 
HETATM   21  C   UNL     1      -4.930   6.062 -32.611  1.00  0.00     0.018 A 
HETATM   22  C   UNL     1      -3.578   5.831 -33.071  1.00  0.00     0.097 A 
HETATM   23  N   UNL     1      -3.600   5.272 -34.295  1.00  0.00    -0.172 NA
HETATM   24  N   UNL     1      -4.887   5.129 -34.603  1.00  0.00    -0.261 N 
HETATM   25  H   UNL     1      -5.115   4.735 -35.509  1.00  0.00     0.191 HD
BRANCH  21  26
HETATM   26  C   UNL     1      -5.422   6.614 -31.313  1.00  0.00     0.040 C 
HETATM   27  C   UNL     1      -5.356   8.133 -31.262  1.00  0.00     0.010 C 
ENDBRANCH  21  26
BRANCH  22  28
HETATM   28  C   UNL     1      -2.267   6.053 -32.425  1.00  0.00    -0.002 A 
HETATM   29  C   UNL     1      -1.460   4.948 -32.117  1.00  0.00     0.033 A 
HETATM   30  C   UNL     1      -0.242   5.142 -31.487  1.00  0.00     0.117 A 
HETATM   31  N   UNL     1       0.228   6.355 -31.139  1.00  0.00    -0.273 NA
HETATM   32  C   UNL     1      -0.547   7.412 -31.451  1.00  0.00     0.117 A 
HETATM   33  C   UNL     1      -1.776   7.315 -32.089  1.00  0.00     0.033 A 
ENDBRANCH  22  28
ENDBRANCH   1  20
TORSDOF 6
ENDMDL
