MODEL 1
REMARK VINA RESULT:      -9.7      0.000      0.000
REMARK  5 active torsions:
REMARK  status: ('A' for Active; 'I' for Inactive)
REMARK    1  A    between atoms: C_2  and  C_3 
REMARK    2  A    between atoms: C_5  and  N_6 
REMARK       I    between atoms: N_6  and  C_7 
REMARK    3  A    between atoms: C_7  and  C_8 
REMARK    4  A    between atoms: C_16  and  C_17 
REMARK    5  A    between atoms: C_19  and  O_20 
ROOT
HETATM    1  C   UNL     1      -6.639   1.142 -32.625  1.00  0.00     0.047 A 
HETATM    2  C   UNL     1      -5.649   2.130 -32.460  1.00  0.00     0.008 A 
HETATM    3  C   UNL     1      -4.323   1.665 -32.434  1.00  0.00     0.068 A 
HETATM    4  C   UNL     1      -3.296   2.581 -32.252  1.00  0.00     0.032 A 
HETATM    5  C   UNL     1      -3.541   3.949 -32.114  1.00  0.00     0.002 A 
HETATM    6  C   UNL     1      -4.843   4.423 -32.167  1.00  0.00     0.001 A 
HETATM    7  C   UNL     1      -5.892   3.524 -32.343  1.00  0.00     0.015 A 
HETATM    8  N   UNL     1      -4.000   0.368 -32.579  1.00  0.00    -0.248 NA
HETATM    9  C   UNL     1      -4.965  -0.564 -32.788  1.00  0.00     0.069 A 
HETATM   10  C   UNL     1      -6.299  -0.199 -32.823  1.00  0.00     0.050 A 
ENDROOT
BRANCH   1  11
HETATM   11  C   UNL     1      -8.094   1.420 -32.562  1.00  0.00     0.257 C 
HETATM   12  N   UNL     1      -8.751   1.282 -33.770  1.00  0.00    -0.323 N 
HETATM   13  H   UNL     1      -8.203   0.940 -34.551  1.00  0.00     0.169 HD
HETATM   14  O   UNL     1      -8.557   1.807 -31.499  1.00  0.00    -0.267 OA
BRANCH  12  15
HETATM   15  C   UNL     1     -10.088   1.623 -34.061  1.00  0.00     0.035 A 
HETATM   16  C   UNL     1     -11.174   0.764 -33.878  1.00  0.00     0.044 A 
HETATM   17  C   UNL     1     -12.485   1.200 -34.139  1.00  0.00     0.011 A 
HETATM   18  C   UNL     1     -12.700   2.498 -34.615  1.00  0.00     0.015 A 
HETATM   19  C   UNL     1     -11.619   3.355 -34.812  1.00  0.00     0.003 A 
HETATM   20  C   UNL     1     -10.322   2.922 -34.529  1.00  0.00     0.029 A 
BRANCH  17  21
HETATM   21  C   UNL     1     -13.617   0.260 -33.882  1.00  0.00     0.155 C 
HETATM   22  C   UNL     1     -15.013   0.680 -34.262  1.00  0.00     0.096 C 
HETATM   23  O   UNL     1     -13.407  -0.835 -33.367  1.00  0.00    -0.293 OA
ENDBRANCH  17  21
ENDBRANCH  12  15
ENDBRANCH   1  11
BRANCH   9  24
HETATM   24  C   UNL     1      -4.494  -1.960 -32.961  1.00  0.00    -0.005 A 
HETATM   25  C   UNL     1      -5.083  -2.850 -33.886  1.00  0.00     0.050 A 
HETATM   26  C   UNL     1      -4.618  -4.161 -34.045  1.00  0.00     0.069 A 
HETATM   27  C   UNL     1      -3.559  -4.612 -33.260  1.00  0.00     0.037 A 
HETATM   28  C   UNL     1      -2.963  -3.765 -32.331  1.00  0.00     0.004 A 
HETATM   29  C   UNL     1      -3.426  -2.456 -32.188  1.00  0.00     0.014 A 
BRANCH  26  30
HETATM   30  O   UNL     1      -5.117  -5.089 -34.918  1.00  0.00    -0.356 OA
HETATM   31  C   UNL     1      -6.312  -4.749 -35.611  1.00  0.00     0.210 C 
ENDBRANCH  26  30
ENDBRANCH   9  24
TORSDOF 5
ENDMDL
MODEL 2
REMARK VINA RESULT:      -9.7      2.983      7.421
REMARK  5 active torsions:
REMARK  status: ('A' for Active; 'I' for Inactive)
REMARK    1  A    between atoms: C_2  and  C_3 
REMARK    2  A    between atoms: C_5  and  N_6 
REMARK       I    between atoms: N_6  and  C_7 
REMARK    3  A    between atoms: C_7  and  C_8 
REMARK    4  A    between atoms: C_16  and  C_17 
REMARK    5  A    between atoms: C_19  and  O_20 
ROOT
HETATM    1  C   UNL     1      -5.327   2.196 -32.673  1.00  0.00     0.047 A 
HETATM    2  C   UNL     1      -6.631   2.300 -33.197  1.00  0.00     0.008 A 
HETATM    3  C   UNL     1      -7.184   1.107 -33.693  1.00  0.00     0.068 A 
HETATM    4  C   UNL     1      -8.458   1.139 -34.245  1.00  0.00     0.032 A 
HETATM    5  C   UNL     1      -9.209   2.315 -34.304  1.00  0.00     0.002 A 
HETATM    6  C   UNL     1      -8.685   3.492 -33.790  1.00  0.00     0.001 A 
HETATM    7  C   UNL     1      -7.407   3.488 -33.236  1.00  0.00     0.015 A 
HETATM    8  N   UNL     1      -6.536  -0.071 -33.658  1.00  0.00    -0.248 NA
HETATM    9  C   UNL     1      -5.300  -0.161 -33.102  1.00  0.00     0.069 A 
HETATM   10  C   UNL     1      -4.675   0.963 -32.594  1.00  0.00     0.050 A 
ENDROOT
BRANCH   1  11
HETATM   11  C   UNL     1      -4.534   3.360 -32.211  1.00  0.00     0.257 C 
HETATM   12  N   UNL     1      -3.701   3.897 -33.175  1.00  0.00    -0.323 N 
HETATM   13  H   UNL     1      -3.765   3.500 -34.105  1.00  0.00     0.169 HD
HETATM   14  O   UNL     1      -4.626   3.686 -31.036  1.00  0.00    -0.267 OA
BRANCH  12  15
HETATM   15  C   UNL     1      -2.722   4.896 -32.999  1.00  0.00     0.035 A 
HETATM   16  C   UNL     1      -1.703   4.836 -32.044  1.00  0.00     0.044 A 
HETATM   17  C   UNL     1      -0.730   5.848 -31.971  1.00  0.00     0.011 A 
HETATM   18  C   UNL     1      -0.801   6.941 -32.841  1.00  0.00     0.015 A 
HETATM   19  C   UNL     1      -1.823   7.013 -33.786  1.00  0.00     0.003 A 
HETATM   20  C   UNL     1      -2.772   5.993 -33.868  1.00  0.00     0.029 A 
BRANCH  17  21
HETATM   21  C   UNL     1       0.368   5.714 -30.965  1.00  0.00     0.155 C 
HETATM   22  C   UNL     1       0.535   6.789 -29.923  1.00  0.00     0.096 C 
HETATM   23  O   UNL     1       1.120   4.743 -30.996  1.00  0.00    -0.293 OA
ENDBRANCH  17  21
ENDBRANCH  12  15
ENDBRANCH   1  11
BRANCH   9  24
HETATM   24  C   UNL     1      -4.690  -1.513 -33.093  1.00  0.00    -0.005 A 
HETATM   25  C   UNL     1      -5.086  -2.530 -33.989  1.00  0.00     0.050 A 
HETATM   26  C   UNL     1      -4.491  -3.797 -33.975  1.00  0.00     0.069 A 
HETATM   27  C   UNL     1      -3.495  -4.076 -33.041  1.00  0.00     0.037 A 
HETATM   28  C   UNL     1      -3.089  -3.101 -32.136  1.00  0.00     0.004 A 
HETATM   29  C   UNL     1      -3.679  -1.836 -32.165  1.00  0.00     0.014 A 
BRANCH  26  30
HETATM   30  O   UNL     1      -4.800  -4.838 -34.807  1.00  0.00    -0.356 OA
HETATM   31  C   UNL     1      -6.103  -4.844 -35.379  1.00  0.00     0.210 C 
ENDBRANCH  26  30
ENDBRANCH   9  24
TORSDOF 5
ENDMDL
MODEL 3
REMARK VINA RESULT:      -9.6      3.451      7.311
REMARK  5 active torsions:
REMARK  status: ('A' for Active; 'I' for Inactive)
REMARK    1  A    between atoms: C_2  and  C_3 
REMARK    2  A    between atoms: C_5  and  N_6 
REMARK       I    between atoms: N_6  and  C_7 
REMARK    3  A    between atoms: C_7  and  C_8 
REMARK    4  A    between atoms: C_16  and  C_17 
REMARK    5  A    between atoms: C_19  and  O_20 
ROOT
HETATM    1  C   UNL     1      -5.306   2.026 -32.099  1.00  0.00     0.047 A 
HETATM    2  C   UNL     1      -6.606   2.338 -31.655  1.00  0.00     0.008 A 
HETATM    3  C   UNL     1      -7.594   1.380 -31.943  1.00  0.00     0.068 A 
HETATM    4  C   UNL     1      -8.903   1.630 -31.554  1.00  0.00     0.032 A 
HETATM    5  C   UNL     1      -9.262   2.795 -30.871  1.00  0.00     0.002 A 
HETATM    6  C   UNL     1      -8.291   3.734 -30.556  1.00  0.00     0.001 A 
HETATM    7  C   UNL     1      -6.971   3.509 -30.939  1.00  0.00     0.015 A 
HETATM    8  N   UNL     1      -7.329   0.225 -32.578  1.00  0.00    -0.248 NA
HETATM    9  C   UNL     1      -6.060  -0.081 -32.954  1.00  0.00     0.069 A 
HETATM   10  C   UNL     1      -5.025   0.805 -32.717  1.00  0.00     0.050 A 
ENDROOT
BRANCH   1  11
HETATM   11  C   UNL     1      -4.158   2.959 -31.993  1.00  0.00     0.257 C 
HETATM   12  N   UNL     1      -4.223   4.037 -32.855  1.00  0.00    -0.323 N 
HETATM   13  H   UNL     1      -5.065   4.126 -33.413  1.00  0.00     0.169 HD
HETATM   14  O   UNL     1      -3.249   2.663 -31.232  1.00  0.00    -0.267 OA
BRANCH  12  15
HETATM   15  C   UNL     1      -3.221   4.999 -33.098  1.00  0.00     0.035 A 
HETATM   16  C   UNL     1      -2.974   6.099 -32.272  1.00  0.00     0.044 A 
HETATM   17  C   UNL     1      -1.917   6.983 -32.553  1.00  0.00     0.011 A 
HETATM   18  C   UNL     1      -1.125   6.776 -33.688  1.00  0.00     0.015 A 
HETATM   19  C   UNL     1      -1.376   5.689 -34.522  1.00  0.00     0.003 A 
HETATM   20  C   UNL     1      -2.413   4.802 -34.224  1.00  0.00     0.029 A 
BRANCH  17  21
HETATM   21  C   UNL     1      -1.662   8.117 -31.613  1.00  0.00     0.155 C 
HETATM   22  C   UNL     1      -1.159   7.814 -30.227  1.00  0.00     0.096 C 
HETATM   23  O   UNL     1      -1.866   9.274 -31.972  1.00  0.00    -0.293 OA
ENDBRANCH  17  21
ENDBRANCH  12  15
ENDBRANCH   1  11
BRANCH   9  24
HETATM   24  C   UNL     1      -5.880  -1.392 -33.624  1.00  0.00    -0.005 A 
HETATM   25  C   UNL     1      -4.656  -2.096 -33.594  1.00  0.00     0.050 A 
HETATM   26  C   UNL     1      -4.505  -3.339 -34.221  1.00  0.00     0.069 A 
HETATM   27  C   UNL     1      -5.581  -3.891 -34.913  1.00  0.00     0.037 A 
HETATM   28  C   UNL     1      -6.798  -3.219 -34.972  1.00  0.00     0.004 A 
HETATM   29  C   UNL     1      -6.942  -1.986 -34.333  1.00  0.00     0.014 A 
BRANCH  26  30
HETATM   30  O   UNL     1      -3.366  -4.096 -34.238  1.00  0.00    -0.356 OA
HETATM   31  C   UNL     1      -3.375  -5.294 -33.471  1.00  0.00     0.210 C 
ENDBRANCH  26  30
ENDBRANCH   9  24
TORSDOF 5
ENDMDL
MODEL 4
REMARK VINA RESULT:      -9.5      2.933      8.639
REMARK  5 active torsions:
REMARK  status: ('A' for Active; 'I' for Inactive)
REMARK    1  A    between atoms: C_2  and  C_3 
REMARK    2  A    between atoms: C_5  and  N_6 
REMARK       I    between atoms: N_6  and  C_7 
REMARK    3  A    between atoms: C_7  and  C_8 
REMARK    4  A    between atoms: C_16  and  C_17 
REMARK    5  A    between atoms: C_19  and  O_20 
ROOT
HETATM    1  C   UNL     1      -5.424   2.193 -32.671  1.00  0.00     0.047 A 
HETATM    2  C   UNL     1      -4.914   0.880 -32.729  1.00  0.00     0.008 A 
HETATM    3  C   UNL     1      -5.845  -0.119 -33.061  1.00  0.00     0.068 A 
HETATM    4  C   UNL     1      -5.418  -1.439 -33.115  1.00  0.00     0.032 A 
HETATM    5  C   UNL     1      -4.090  -1.798 -32.868  1.00  0.00     0.002 A 
HETATM    6  C   UNL     1      -3.157  -0.817 -32.568  1.00  0.00     0.001 A 
HETATM    7  C   UNL     1      -3.561   0.514 -32.502  1.00  0.00     0.015 A 
HETATM    8  N   UNL     1      -7.135   0.143 -33.332  1.00  0.00    -0.248 NA
HETATM    9  C   UNL     1      -7.596   1.420 -33.321  1.00  0.00     0.069 A 
HETATM   10  C   UNL     1      -6.754   2.469 -32.999  1.00  0.00     0.050 A 
ENDROOT
BRANCH   1  11
HETATM   11  C   UNL     1      -4.628   3.362 -32.226  1.00  0.00     0.257 C 
HETATM   12  N   UNL     1      -3.827   3.910 -33.210  1.00  0.00    -0.323 N 
HETATM   13  H   UNL     1      -3.911   3.515 -34.140  1.00  0.00     0.169 HD
HETATM   14  O   UNL     1      -4.692   3.683 -31.048  1.00  0.00    -0.267 OA
BRANCH  12  15
HETATM   15  C   UNL     1      -2.851   4.917 -33.056  1.00  0.00     0.035 A 
HETATM   16  C   UNL     1      -1.815   4.869 -32.120  1.00  0.00     0.044 A 
HETATM   17  C   UNL     1      -0.848   5.888 -32.069  1.00  0.00     0.011 A 
HETATM   18  C   UNL     1      -0.942   6.976 -32.944  1.00  0.00     0.015 A 
HETATM   19  C   UNL     1      -1.982   7.036 -33.870  1.00  0.00     0.003 A 
HETATM   20  C   UNL     1      -2.925   6.008 -33.931  1.00  0.00     0.029 A 
BRANCH  17  21
HETATM   21  C   UNL     1       0.268   5.767 -31.083  1.00  0.00     0.155 C 
HETATM   22  C   UNL     1       0.510   6.896 -30.116  1.00  0.00     0.096 C 
HETATM   23  O   UNL     1       0.975   4.763 -31.069  1.00  0.00    -0.293 OA
ENDBRANCH  17  21
ENDBRANCH  12  15
ENDBRANCH   1  11
BRANCH   9  24
HETATM   24  C   UNL     1      -9.029   1.596 -33.660  1.00  0.00    -0.005 A 
HETATM   25  C   UNL     1     -10.008   0.627 -33.347  1.00  0.00     0.050 A 
HETATM   26  C   UNL     1     -11.358   0.814 -33.664  1.00  0.00     0.069 A 
HETATM   27  C   UNL     1     -11.752   1.976 -34.324  1.00  0.00     0.037 A 
HETATM   28  C   UNL     1     -10.813   2.946 -34.659  1.00  0.00     0.004 A 
HETATM   29  C   UNL     1      -9.470   2.756 -34.328  1.00  0.00     0.014 A 
BRANCH  26  30
HETATM   30  O   UNL     1     -12.375  -0.061 -33.392  1.00  0.00    -0.356 OA
HETATM   31  C   UNL     1     -13.669   0.281 -33.874  1.00  0.00     0.210 C 
ENDBRANCH  26  30
ENDBRANCH   9  24
TORSDOF 5
ENDMDL
MODEL 5
REMARK VINA RESULT:      -9.3      2.006      5.472
REMARK  5 active torsions:
REMARK  status: ('A' for Active; 'I' for Inactive)
REMARK    1  A    between atoms: C_2  and  C_3 
REMARK    2  A    between atoms: C_5  and  N_6 
REMARK       I    between atoms: N_6  and  C_7 
REMARK    3  A    between atoms: C_7  and  C_8 
REMARK    4  A    between atoms: C_16  and  C_17 
REMARK    5  A    between atoms: C_19  and  O_20 
ROOT
HETATM    1  C   UNL     1      -6.911   1.310 -32.549  1.00  0.00     0.047 A 
HETATM    2  C   UNL     1      -6.210   0.175 -33.003  1.00  0.00     0.008 A 
HETATM    3  C   UNL     1      -4.809   0.292 -33.021  1.00  0.00     0.068 A 
HETATM    4  C   UNL     1      -4.054  -0.780 -33.477  1.00  0.00     0.032 A 
HETATM    5  C   UNL     1      -4.644  -1.974 -33.900  1.00  0.00     0.002 A 
HETATM    6  C   UNL     1      -6.023  -2.111 -33.859  1.00  0.00     0.001 A 
HETATM    7  C   UNL     1      -6.804  -1.049 -33.410  1.00  0.00     0.015 A 
HETATM    8  N   UNL     1      -4.162   1.398 -32.613  1.00  0.00    -0.248 NA
HETATM    9  C   UNL     1      -4.853   2.463 -32.131  1.00  0.00     0.069 A 
HETATM   10  C   UNL     1      -6.235   2.440 -32.082  1.00  0.00     0.050 A 
ENDROOT
BRANCH   1  11
HETATM   11  C   UNL     1      -8.390   1.421 -32.567  1.00  0.00     0.257 C 
HETATM   12  N   UNL     1      -8.936   1.502 -33.833  1.00  0.00    -0.323 N 
HETATM   13  H   UNL     1      -8.297   1.406 -34.614  1.00  0.00     0.169 HD
HETATM   14  O   UNL     1      -8.970   1.504 -31.495  1.00  0.00    -0.267 OA
BRANCH  12  15
HETATM   15  C   UNL     1     -10.280   1.769 -34.170  1.00  0.00     0.035 A 
HETATM   16  C   UNL     1     -11.336   0.883 -33.940  1.00  0.00     0.044 A 
HETATM   17  C   UNL     1     -12.657   1.248 -34.252  1.00  0.00     0.011 A 
HETATM   18  C   UNL     1     -12.913   2.497 -34.827  1.00  0.00     0.015 A 
HETATM   19  C   UNL     1     -11.862   3.379 -35.071  1.00  0.00     0.003 A 
HETATM   20  C   UNL     1     -10.555   3.019 -34.737  1.00  0.00     0.029 A 
BRANCH  17  21
HETATM   21  C   UNL     1     -13.758   0.285 -33.943  1.00  0.00     0.155 C 
HETATM   22  C   UNL     1     -15.175   0.666 -34.285  1.00  0.00     0.096 C 
HETATM   23  O   UNL     1     -13.505  -0.795 -33.416  1.00  0.00    -0.293 OA
ENDBRANCH  17  21
ENDBRANCH  12  15
ENDBRANCH   1  11
BRANCH   9  24
HETATM   24  C   UNL     1      -4.037   3.618 -31.686  1.00  0.00    -0.005 A 
HETATM   25  C   UNL     1      -2.630   3.646 -31.809  1.00  0.00     0.050 A 
HETATM   26  C   UNL     1      -1.876   4.750 -31.394  1.00  0.00     0.069 A 
HETATM   27  C   UNL     1      -2.522   5.846 -30.825  1.00  0.00     0.037 A 
HETATM   28  C   UNL     1      -3.905   5.847 -30.678  1.00  0.00     0.004 A 
HETATM   29  C   UNL     1      -4.651   4.747 -31.106  1.00  0.00     0.014 A 
BRANCH  26  30
HETATM   30  O   UNL     1      -0.516   4.871 -31.481  1.00  0.00    -0.356 OA
HETATM   31  C   UNL     1       0.173   5.286 -30.308  1.00  0.00     0.210 C 
ENDBRANCH  26  30
ENDBRANCH   9  24
TORSDOF 5
ENDMDL
MODEL 6
REMARK VINA RESULT:      -9.3      3.104      8.749
REMARK  5 active torsions:
REMARK  status: ('A' for Active; 'I' for Inactive)
REMARK    1  A    between atoms: C_2  and  C_3 
REMARK    2  A    between atoms: C_5  and  N_6 
REMARK       I    between atoms: N_6  and  C_7 
REMARK    3  A    between atoms: C_7  and  C_8 
REMARK    4  A    between atoms: C_16  and  C_17 
REMARK    5  A    between atoms: C_19  and  O_20 
ROOT
HETATM    1  C   UNL     1      -5.319   2.127 -32.542  1.00  0.00     0.047 A 
HETATM    2  C   UNL     1      -4.780   0.825 -32.568  1.00  0.00     0.008 A 
HETATM    3  C   UNL     1      -5.688  -0.203 -32.877  1.00  0.00     0.068 A 
HETATM    4  C   UNL     1      -5.231  -1.514 -32.898  1.00  0.00     0.032 A 
HETATM    5  C   UNL     1      -3.896  -1.837 -32.642  1.00  0.00     0.002 A 
HETATM    6  C   UNL     1      -2.986  -0.828 -32.365  1.00  0.00     0.001 A 
HETATM    7  C   UNL     1      -3.420   0.495 -32.332  1.00  0.00     0.015 A 
HETATM    8  N   UNL     1      -6.984   0.024 -33.155  1.00  0.00    -0.248 NA
HETATM    9  C   UNL     1      -7.473   1.290 -33.174  1.00  0.00     0.069 A 
HETATM   10  C   UNL     1      -6.654   2.365 -32.878  1.00  0.00     0.050 A 
ENDROOT
BRANCH   1  11
HETATM   11  C   UNL     1      -4.551   3.324 -32.125  1.00  0.00     0.257 C 
HETATM   12  N   UNL     1      -3.720   3.834 -33.105  1.00  0.00    -0.323 N 
HETATM   13  H   UNL     1      -3.769   3.396 -34.018  1.00  0.00     0.169 HD
HETATM   14  O   UNL     1      -4.659   3.699 -30.967  1.00  0.00    -0.267 OA
BRANCH  12  15
HETATM   15  C   UNL     1      -2.760   4.858 -32.966  1.00  0.00     0.035 A 
HETATM   16  C   UNL     1      -1.726   4.840 -32.026  1.00  0.00     0.044 A 
HETATM   17  C   UNL     1      -0.775   5.874 -31.989  1.00  0.00     0.011 A 
HETATM   18  C   UNL     1      -0.882   6.946 -32.882  1.00  0.00     0.015 A 
HETATM   19  C   UNL     1      -1.919   6.975 -33.812  1.00  0.00     0.003 A 
HETATM   20  C   UNL     1      -2.848   5.934 -33.858  1.00  0.00     0.029 A 
BRANCH  17  21
HETATM   21  C   UNL     1       0.340   5.786 -30.998  1.00  0.00     0.155 C 
HETATM   22  C   UNL     1       0.546   6.923 -30.032  1.00  0.00     0.096 C 
HETATM   23  O   UNL     1       1.075   4.801 -30.979  1.00  0.00    -0.293 OA
ENDBRANCH  17  21
ENDBRANCH  12  15
ENDBRANCH   1  11
BRANCH   9  24
HETATM   24  C   UNL     1      -8.909   1.425 -33.519  1.00  0.00    -0.005 A 
HETATM   25  C   UNL     1      -9.413   2.522 -34.253  1.00  0.00     0.050 A 
HETATM   26  C   UNL     1     -10.770   2.628 -34.581  1.00  0.00     0.069 A 
HETATM   27  C   UNL     1     -11.657   1.640 -34.156  1.00  0.00     0.037 A 
HETATM   28  C   UNL     1     -11.196   0.553 -33.421  1.00  0.00     0.004 A 
HETATM   29  C   UNL     1      -9.839   0.449 -33.110  1.00  0.00     0.014 A 
BRANCH  26  30
HETATM   30  O   UNL     1     -11.346   3.644 -35.293  1.00  0.00    -0.356 OA
HETATM   31  C   UNL     1     -12.758   3.786 -35.191  1.00  0.00     0.210 C 
ENDBRANCH  26  30
ENDBRANCH   9  24
TORSDOF 5
ENDMDL
MODEL 7
REMARK VINA RESULT:      -8.9      1.766      5.581
REMARK  5 active torsions:
REMARK  status: ('A' for Active; 'I' for Inactive)
REMARK    1  A    between atoms: C_2  and  C_3 
REMARK    2  A    between atoms: C_5  and  N_6 
REMARK       I    between atoms: N_6  and  C_7 
REMARK    3  A    between atoms: C_7  and  C_8 
REMARK    4  A    between atoms: C_16  and  C_17 
REMARK    5  A    between atoms: C_19  and  O_20 
ROOT
HETATM    1  C   UNL     1      -6.687   0.806 -33.897  1.00  0.00     0.047 A 
HETATM    2  C   UNL     1      -5.922  -0.377 -33.851  1.00  0.00     0.008 A 
HETATM    3  C   UNL     1      -4.649  -0.255 -33.268  1.00  0.00     0.068 A 
HETATM    4  C   UNL     1      -3.831  -1.376 -33.208  1.00  0.00     0.032 A 
HETATM    5  C   UNL     1      -4.244  -2.620 -33.691  1.00  0.00     0.002 A 
HETATM    6  C   UNL     1      -5.509  -2.759 -34.241  1.00  0.00     0.001 A 
HETATM    7  C   UNL     1      -6.348  -1.649 -34.318  1.00  0.00     0.015 A 
HETATM    8  N   UNL     1      -4.183   0.900 -32.762  1.00  0.00    -0.248 NA
HETATM    9  C   UNL     1      -4.954   2.017 -32.771  1.00  0.00     0.069 A 
HETATM   10  C   UNL     1      -6.220   1.993 -33.329  1.00  0.00     0.050 A 
ENDROOT
BRANCH   1  11
HETATM   11  C   UNL     1      -8.002   0.905 -34.574  1.00  0.00     0.257 C 
HETATM   12  N   UNL     1      -8.887   1.777 -33.968  1.00  0.00    -0.323 N 
HETATM   13  H   UNL     1      -8.536   2.309 -33.180  1.00  0.00     0.169 HD
HETATM   14  O   UNL     1      -8.209   0.177 -35.534  1.00  0.00    -0.267 OA
BRANCH  12  15
HETATM   15  C   UNL     1     -10.249   1.968 -34.281  1.00  0.00     0.035 A 
HETATM   16  C   UNL     1     -11.252   1.031 -34.020  1.00  0.00     0.044 A 
HETATM   17  C   UNL     1     -12.596   1.322 -34.309  1.00  0.00     0.011 A 
HETATM   18  C   UNL     1     -12.929   2.549 -34.893  1.00  0.00     0.015 A 
HETATM   19  C   UNL     1     -11.931   3.482 -35.168  1.00  0.00     0.003 A 
HETATM   20  C   UNL     1     -10.601   3.195 -34.856  1.00  0.00     0.029 A 
BRANCH  17  21
HETATM   21  C   UNL     1     -13.638   0.306 -33.968  1.00  0.00     0.155 C 
HETATM   22  C   UNL     1     -15.076   0.593 -34.314  1.00  0.00     0.096 C 
HETATM   23  O   UNL     1     -13.321  -0.742 -33.412  1.00  0.00    -0.293 OA
ENDBRANCH  17  21
ENDBRANCH  12  15
ENDBRANCH   1  11
BRANCH   9  24
HETATM   24  C   UNL     1      -4.350   3.228 -32.164  1.00  0.00    -0.005 A 
HETATM   25  C   UNL     1      -5.127   4.314 -31.703  1.00  0.00     0.050 A 
HETATM   26  C   UNL     1      -4.542   5.444 -31.121  1.00  0.00     0.069 A 
HETATM   27  C   UNL     1      -3.154   5.516 -31.008  1.00  0.00     0.037 A 
HETATM   28  C   UNL     1      -2.358   4.469 -31.462  1.00  0.00     0.004 A 
HETATM   29  C   UNL     1      -2.952   3.340 -32.030  1.00  0.00     0.014 A 
BRANCH  26  30
HETATM   30  O   UNL     1      -5.210   6.536 -30.639  1.00  0.00    -0.356 OA
HETATM   31  C   UNL     1      -4.527   7.783 -30.681  1.00  0.00     0.210 C 
ENDBRANCH  26  30
ENDBRANCH   9  24
TORSDOF 5
ENDMDL
MODEL 8
REMARK VINA RESULT:      -8.9      2.696      8.398
REMARK  5 active torsions:
REMARK  status: ('A' for Active; 'I' for Inactive)
REMARK    1  A    between atoms: C_2  and  C_3 
REMARK    2  A    between atoms: C_5  and  N_6 
REMARK       I    between atoms: N_6  and  C_7 
REMARK    3  A    between atoms: C_7  and  C_8 
REMARK    4  A    between atoms: C_16  and  C_17 
REMARK    5  A    between atoms: C_19  and  O_20 
ROOT
HETATM    1  C   UNL     1      -6.697   1.413 -33.046  1.00  0.00     0.047 A 
HETATM    2  C   UNL     1      -6.248   0.140 -33.448  1.00  0.00     0.008 A 
HETATM    3  C   UNL     1      -7.231  -0.711 -33.983  1.00  0.00     0.068 A 
HETATM    4  C   UNL     1      -6.865  -1.990 -34.381  1.00  0.00     0.032 A 
HETATM    5  C   UNL     1      -5.549  -2.447 -34.281  1.00  0.00     0.002 A 
HETATM    6  C   UNL     1      -4.565  -1.606 -33.782  1.00  0.00     0.001 A 
HETATM    7  C   UNL     1      -4.907  -0.320 -33.371  1.00  0.00     0.015 A 
HETATM    8  N   UNL     1      -8.516  -0.342 -34.131  1.00  0.00    -0.248 NA
HETATM    9  C   UNL     1      -8.919   0.907 -33.785  1.00  0.00     0.069 A 
HETATM   10  C   UNL     1      -8.022   1.810 -33.244  1.00  0.00     0.050 A 
ENDROOT
BRANCH   1  11
HETATM   11  C   UNL     1      -5.838   2.405 -32.354  1.00  0.00     0.257 C 
HETATM   12  N   UNL     1      -5.733   3.617 -33.009  1.00  0.00    -0.323 N 
HETATM   13  H   UNL     1      -6.297   3.737 -33.843  1.00  0.00     0.169 HD
HETATM   14  O   UNL     1      -5.259   2.050 -31.338  1.00  0.00    -0.267 OA
BRANCH  12  15
HETATM   15  C   UNL     1      -4.877   4.691 -32.688  1.00  0.00     0.035 A 
HETATM   16  C   UNL     1      -3.784   5.083 -33.465  1.00  0.00     0.044 A 
HETATM   17  C   UNL     1      -3.013   6.202 -33.105  1.00  0.00     0.011 A 
HETATM   18  C   UNL     1      -3.325   6.911 -31.941  1.00  0.00     0.015 A 
HETATM   19  C   UNL     1      -4.405   6.517 -31.154  1.00  0.00     0.003 A 
HETATM   20  C   UNL     1      -5.180   5.418 -31.530  1.00  0.00     0.029 A 
BRANCH  17  21
HETATM   21  C   UNL     1      -1.884   6.610 -33.995  1.00  0.00     0.155 C 
HETATM   22  C   UNL     1      -1.151   5.549 -34.774  1.00  0.00     0.096 C 
HETATM   23  O   UNL     1      -1.562   7.793 -34.083  1.00  0.00    -0.293 OA
ENDBRANCH  17  21
ENDBRANCH  12  15
ENDBRANCH   1  11
BRANCH   9  24
HETATM   24  C   UNL     1     -10.352   1.214 -34.015  1.00  0.00    -0.005 A 
HETATM   25  C   UNL     1     -10.776   2.328 -34.774  1.00  0.00     0.050 A 
HETATM   26  C   UNL     1     -12.133   2.596 -34.992  1.00  0.00     0.069 A 
HETATM   27  C   UNL     1     -13.096   1.759 -34.432  1.00  0.00     0.037 A 
HETATM   28  C   UNL     1     -12.713   0.660 -33.670  1.00  0.00     0.004 A 
HETATM   29  C   UNL     1     -11.357   0.393 -33.468  1.00  0.00     0.014 A 
BRANCH  26  30
HETATM   30  O   UNL     1     -12.637   3.640 -35.718  1.00  0.00    -0.356 OA
HETATM   31  C   UNL     1     -12.906   4.847 -35.014  1.00  0.00     0.210 C 
ENDBRANCH  26  30
ENDBRANCH   9  24
TORSDOF 5
ENDMDL
MODEL 9
REMARK VINA RESULT:      -8.8      3.262      8.032
REMARK  5 active torsions:
REMARK  status: ('A' for Active; 'I' for Inactive)
REMARK    1  A    between atoms: C_2  and  C_3 
REMARK    2  A    between atoms: C_5  and  N_6 
REMARK       I    between atoms: N_6  and  C_7 
REMARK    3  A    between atoms: C_7  and  C_8 
REMARK    4  A    between atoms: C_16  and  C_17 
REMARK    5  A    between atoms: C_19  and  O_20 
ROOT
HETATM    1  C   UNL     1      -5.200   2.990 -32.315  1.00  0.00     0.047 A 
HETATM    2  C   UNL     1      -6.315   3.838 -32.465  1.00  0.00     0.008 A 
HETATM    3  C   UNL     1      -6.048   5.215 -32.372  1.00  0.00     0.068 A 
HETATM    4  C   UNL     1      -7.104   6.110 -32.489  1.00  0.00     0.032 A 
HETATM    5  C   UNL     1      -8.415   5.683 -32.713  1.00  0.00     0.002 A 
HETATM    6  C   UNL     1      -8.685   4.328 -32.836  1.00  0.00     0.001 A 
HETATM    7  C   UNL     1      -7.644   3.409 -32.718  1.00  0.00     0.015 A 
HETATM    8  N   UNL     1      -4.814   5.711 -32.177  1.00  0.00    -0.248 NA
HETATM    9  C   UNL     1      -3.744   4.879 -32.085  1.00  0.00     0.069 A 
HETATM   10  C   UNL     1      -3.911   3.508 -32.159  1.00  0.00     0.050 A 
ENDROOT
BRANCH   1  11
HETATM   11  C   UNL     1      -5.295   1.511 -32.265  1.00  0.00     0.257 C 
HETATM   12  N   UNL     1      -5.085   0.889 -33.481  1.00  0.00    -0.323 N 
HETATM   13  H   UNL     1      -4.820   1.483 -34.259  1.00  0.00     0.169 HD
HETATM   14  O   UNL     1      -5.613   0.993 -31.205  1.00  0.00    -0.267 OA
BRANCH  12  15
HETATM   15  C   UNL     1      -5.261  -0.477 -33.785  1.00  0.00     0.035 A 
HETATM   16  C   UNL     1      -4.340  -1.476 -33.461  1.00  0.00     0.044 A 
HETATM   17  C   UNL     1      -4.615  -2.824 -33.748  1.00  0.00     0.011 A 
HETATM   18  C   UNL     1      -5.810  -3.165 -34.392  1.00  0.00     0.015 A 
HETATM   19  C   UNL     1      -6.726  -2.171 -34.729  1.00  0.00     0.003 A 
HETATM   20  C   UNL     1      -6.456  -0.836 -34.421  1.00  0.00     0.029 A 
BRANCH  17  21
HETATM   21  C   UNL     1      -3.621  -3.862 -33.339  1.00  0.00     0.155 C 
HETATM   22  C   UNL     1      -2.996  -3.773 -31.971  1.00  0.00     0.096 C 
HETATM   23  O   UNL     1      -3.319  -4.768 -34.112  1.00  0.00    -0.293 OA
ENDBRANCH  17  21
ENDBRANCH  12  15
ENDBRANCH   1  11
BRANCH   9  24
HETATM   24  C   UNL     1      -2.427   5.534 -31.896  1.00  0.00    -0.005 A 
HETATM   25  C   UNL     1      -1.450   5.032 -31.008  1.00  0.00     0.050 A 
HETATM   26  C   UNL     1      -0.207   5.656 -30.850  1.00  0.00     0.069 A 
HETATM   27  C   UNL     1       0.073   6.816 -31.570  1.00  0.00     0.037 A 
HETATM   28  C   UNL     1      -0.871   7.345 -32.445  1.00  0.00     0.004 A 
HETATM   29  C   UNL     1      -2.103   6.708 -32.605  1.00  0.00     0.014 A 
BRANCH  26  30
HETATM   30  O   UNL     1       0.801   5.238 -30.026  1.00  0.00    -0.356 OA
HETATM   31  C   UNL     1       0.681   5.558 -28.645  1.00  0.00     0.210 C 
ENDBRANCH  26  30
ENDBRANCH   9  24
TORSDOF 5
ENDMDL
MODEL 10
REMARK VINA RESULT:      -8.6     14.484     17.523
REMARK  5 active torsions:
REMARK  status: ('A' for Active; 'I' for Inactive)
REMARK    1  A    between atoms: C_2  and  C_3 
REMARK    2  A    between atoms: C_5  and  N_6 
REMARK       I    between atoms: N_6  and  C_7 
REMARK    3  A    between atoms: C_7  and  C_8 
REMARK    4  A    between atoms: C_16  and  C_17 
REMARK    5  A    between atoms: C_19  and  O_20 
ROOT
HETATM    1  C   UNL     1      -5.442 -14.597 -37.313  1.00  0.00     0.047 A 
HETATM    2  C   UNL     1      -5.660 -14.238 -35.968  1.00  0.00     0.008 A 
HETATM    3  C   UNL     1      -6.922 -13.690 -35.681  1.00  0.00     0.068 A 
HETATM    4  C   UNL     1      -7.199 -13.293 -34.380  1.00  0.00     0.032 A 
HETATM    5  C   UNL     1      -6.269 -13.439 -33.348  1.00  0.00     0.002 A 
HETATM    6  C   UNL     1      -5.031 -14.006 -33.613  1.00  0.00     0.001 A 
HETATM    7  C   UNL     1      -4.727 -14.408 -34.911  1.00  0.00     0.015 A 
HETATM    8  N   UNL     1      -7.880 -13.532 -36.611  1.00  0.00    -0.248 NA
HETATM    9  C   UNL     1      -7.669 -13.931 -37.892  1.00  0.00     0.069 A 
HETATM   10  C   UNL     1      -6.455 -14.476 -38.268  1.00  0.00     0.050 A 
ENDROOT
BRANCH   1  11
HETATM   11  C   UNL     1      -4.141 -15.082 -37.832  1.00  0.00     0.257 C 
HETATM   12  N   UNL     1      -3.294 -14.078 -38.263  1.00  0.00    -0.323 N 
HETATM   13  H   UNL     1      -3.606 -13.124 -38.120  1.00  0.00     0.169 HD
HETATM   14  O   UNL     1      -3.965 -16.289 -37.900  1.00  0.00    -0.267 OA
BRANCH  12  15
HETATM   15  C   UNL     1      -2.067 -14.227 -38.943  1.00  0.00     0.035 A 
HETATM   16  C   UNL     1      -0.837 -14.419 -38.307  1.00  0.00     0.044 A 
HETATM   17  C   UNL     1       0.334 -14.616 -39.059  1.00  0.00     0.011 A 
HETATM   18  C   UNL     1       0.272 -14.591 -40.456  1.00  0.00     0.015 A 
HETATM   19  C   UNL     1      -0.949 -14.386 -41.095  1.00  0.00     0.003 A 
HETATM   20  C   UNL     1      -2.112 -14.214 -40.342  1.00  0.00     0.029 A 
BRANCH  17  21
HETATM   21  C   UNL     1       1.617 -14.865 -38.334  1.00  0.00     0.155 C 
HETATM   22  C   UNL     1       1.639 -15.877 -37.218  1.00  0.00     0.096 C 
HETATM   23  O   UNL     1       2.633 -14.248 -38.646  1.00  0.00    -0.293 OA
ENDBRANCH  17  21
ENDBRANCH  12  15
ENDBRANCH   1  11
BRANCH   9  24
HETATM   24  C   UNL     1      -8.803 -13.734 -38.828  1.00  0.00    -0.005 A 
HETATM   25  C   UNL     1      -9.517 -14.814 -39.394  1.00  0.00     0.050 A 
HETATM   26  C   UNL     1     -10.592 -14.610 -40.266  1.00  0.00     0.069 A 
HETATM   27  C   UNL     1     -10.961 -13.310 -40.606  1.00  0.00     0.037 A 
HETATM   28  C   UNL     1     -10.272 -12.223 -40.077  1.00  0.00     0.004 A 
HETATM   29  C   UNL     1      -9.209 -12.436 -39.198  1.00  0.00     0.014 A 
BRANCH  26  30
HETATM   30  O   UNL     1     -11.346 -15.589 -40.853  1.00  0.00    -0.356 OA
HETATM   31  C   UNL     1     -11.199 -15.764 -42.257  1.00  0.00     0.210 C 
ENDBRANCH  26  30
ENDBRANCH   9  24
TORSDOF 5
ENDMDL
