MODEL 1
REMARK VINA RESULT:      -7.6      0.000      0.000
REMARK  6 active torsions:
REMARK  status: ('A' for Active; 'I' for Inactive)
REMARK    1  A    between atoms: C_2  and  C_3 
REMARK    2  A    between atoms: C_3  and  N_4 
REMARK    3  A    between atoms: C_3  and  C_15 
REMARK       I    between atoms: N_4  and  C_5 
REMARK    4  A    between atoms: C_5  and  C_6 
REMARK    5  A    between atoms: C_6  and  C_7 
REMARK    6  A    between atoms: C_16  and  O_17 
ROOT
HETATM    1  C   UNL     1      -7.635  -0.199 -33.052  1.00  0.00     0.128 C 
ENDROOT
BRANCH   1   2
HETATM    2  C   UNL     1      -6.670  -0.862 -34.109  1.00  0.00    -0.026 C 
HETATM    3  C   UNL     1      -5.180  -0.725 -33.742  1.00  0.00     0.016 C 
HETATM    4  C   UNL     1      -6.873  -0.201 -35.492  1.00  0.00     0.016 C 
HETATM    5  C   UNL     1      -6.994  -2.363 -34.274  1.00  0.00     0.016 C 
ENDBRANCH   1   2
BRANCH   1   6
HETATM    6  N   UNL     1      -8.684   0.615 -33.680  1.00  0.00    -0.351 N 
HETATM    7  C   UNL     1     -10.028   0.462 -33.403  1.00  0.00     0.222 C 
HETATM    8  O   UNL     1     -10.474  -0.413 -32.669  1.00  0.00    -0.273 OA
HETATM    9  H   UNL     1      -8.400   1.338 -34.323  1.00  0.00     0.163 HD
BRANCH   7  10
HETATM   10  C   UNL     1     -10.900   1.469 -34.139  1.00  0.00     0.142 C 
BRANCH  10  11
HETATM   11  C   UNL     1     -12.324   1.602 -33.656  1.00  0.00    -0.032 A 
HETATM   12  C   UNL     1     -12.744   2.642 -32.829  1.00  0.00     0.126 A 
HETATM   13  N   UNL     1     -14.027   2.835 -32.441  1.00  0.00    -0.248 NA
HETATM   14  C   UNL     1     -14.931   1.946 -32.894  1.00  0.00     0.125 A 
HETATM   15 CL   UNL     1     -16.540   2.229 -32.374  1.00  0.00    -0.063 Cl
HETATM   16  C   UNL     1     -14.631   0.885 -33.727  1.00  0.00     0.045 A 
HETATM   17  C   UNL     1     -13.306   0.717 -34.118  1.00  0.00     0.012 A 
ENDBRANCH  10  11
ENDBRANCH   7  10
ENDBRANCH   1   6
BRANCH   1  18
HETATM   18  C   UNL     1      -6.936   0.628 -31.962  1.00  0.00    -0.001 A 
HETATM   19  C   UNL     1      -6.603   1.983 -32.185  1.00  0.00     0.076 A 
HETATM   20  C   UNL     1      -5.961   2.719 -31.181  1.00  0.00     0.037 A 
HETATM   21  C   UNL     1      -5.644   2.129 -29.957  1.00  0.00     0.003 A 
HETATM   22  C   UNL     1      -5.968   0.799 -29.724  1.00  0.00     0.001 A 
HETATM   23  C   UNL     1      -6.608   0.056 -30.716  1.00  0.00     0.012 A 
BRANCH  19  24
HETATM   24  O   UNL     1      -6.962   2.504 -33.401  1.00  0.00    -0.355 OA
HETATM   25  C   UNL     1      -6.074   3.428 -34.017  1.00  0.00     0.210 C 
ENDBRANCH  19  24
ENDBRANCH   1  18
TORSDOF 6
ENDMDL
MODEL 2
REMARK VINA RESULT:      -7.5      5.459      8.998
REMARK  6 active torsions:
REMARK  status: ('A' for Active; 'I' for Inactive)
REMARK    1  A    between atoms: C_2  and  C_3 
REMARK    2  A    between atoms: C_3  and  N_4 
REMARK    3  A    between atoms: C_3  and  C_15 
REMARK       I    between atoms: N_4  and  C_5 
REMARK    4  A    between atoms: C_5  and  C_6 
REMARK    5  A    between atoms: C_6  and  C_7 
REMARK    6  A    between atoms: C_16  and  O_17 
ROOT
HETATM    1  C   UNL     1      -5.710   2.090 -31.946  1.00  0.00     0.128 C 
ENDROOT
BRANCH   1   2
HETATM    2  C   UNL     1      -6.953   2.808 -31.292  1.00  0.00    -0.026 C 
HETATM    3  C   UNL     1      -8.223   1.935 -31.281  1.00  0.00     0.016 C 
HETATM    4  C   UNL     1      -7.282   4.101 -32.073  1.00  0.00     0.016 C 
HETATM    5  C   UNL     1      -6.637   3.224 -29.839  1.00  0.00     0.016 C 
ENDBRANCH   1   2
BRANCH   1   6
HETATM    6  N   UNL     1      -4.713   3.041 -32.454  1.00  0.00    -0.351 N 
HETATM    7  C   UNL     1      -3.387   3.027 -32.069  1.00  0.00     0.222 C 
HETATM    8  O   UNL     1      -2.938   2.270 -31.215  1.00  0.00    -0.273 OA
HETATM    9  H   UNL     1      -5.012   3.719 -33.138  1.00  0.00     0.163 HD
BRANCH   7  10
HETATM   10  C   UNL     1      -2.553   4.076 -32.788  1.00  0.00     0.142 C 
BRANCH  10  11
HETATM   11  C   UNL     1      -1.805   5.053 -31.913  1.00  0.00    -0.032 A 
HETATM   12  C   UNL     1      -2.432   5.812 -30.926  1.00  0.00     0.126 A 
HETATM   13  N   UNL     1      -1.782   6.638 -30.073  1.00  0.00    -0.248 NA
HETATM   14  C   UNL     1      -0.445   6.715 -30.215  1.00  0.00     0.125 A 
HETATM   15 CL   UNL     1       0.334   7.775 -29.115  1.00  0.00    -0.063 Cl
HETATM   16  C   UNL     1       0.283   6.001 -31.148  1.00  0.00     0.045 A 
HETATM   17  C   UNL     1      -0.411   5.152 -32.004  1.00  0.00     0.012 A 
ENDBRANCH  10  11
ENDBRANCH   7  10
ENDBRANCH   1   6
BRANCH   1  18
HETATM   18  C   UNL     1      -6.050   1.076 -33.048  1.00  0.00    -0.001 A 
HETATM   19  C   UNL     1      -5.718  -0.290 -32.902  1.00  0.00     0.076 A 
HETATM   20  C   UNL     1      -6.033  -1.199 -33.921  1.00  0.00     0.037 A 
HETATM   21  C   UNL     1      -6.673  -0.771 -35.084  1.00  0.00     0.003 A 
HETATM   22  C   UNL     1      -7.007   0.567 -35.240  1.00  0.00     0.001 A 
HETATM   23  C   UNL     1      -6.700   1.482 -34.232  1.00  0.00     0.012 A 
BRANCH  19  24
HETATM   24  O   UNL     1      -5.110  -0.643 -31.726  1.00  0.00    -0.355 OA
HETATM   25  C   UNL     1      -3.781  -1.146 -31.788  1.00  0.00     0.210 C 
ENDBRANCH  19  24
ENDBRANCH   1  18
TORSDOF 6
ENDMDL
MODEL 3
REMARK VINA RESULT:      -7.3      5.321      8.758
REMARK  6 active torsions:
REMARK  status: ('A' for Active; 'I' for Inactive)
REMARK    1  A    between atoms: C_2  and  C_3 
REMARK    2  A    between atoms: C_3  and  N_4 
REMARK    3  A    between atoms: C_3  and  C_15 
REMARK       I    between atoms: N_4  and  C_5 
REMARK    4  A    between atoms: C_5  and  C_6 
REMARK    5  A    between atoms: C_6  and  C_7 
REMARK    6  A    between atoms: C_16  and  O_17 
ROOT
HETATM    1  C   UNL     1      -5.231   1.185 -31.955  1.00  0.00     0.128 C 
ENDROOT
BRANCH   1   2
HETATM    2  C   UNL     1      -6.211   1.419 -30.740  1.00  0.00    -0.026 C 
HETATM    3  C   UNL     1      -6.420   2.908 -30.405  1.00  0.00     0.016 C 
HETATM    4  C   UNL     1      -5.651   0.730 -29.475  1.00  0.00     0.016 C 
HETATM    5  C   UNL     1      -7.591   0.787 -31.027  1.00  0.00     0.016 C 
ENDBRANCH   1   2
BRANCH   1   6
HETATM    6  N   UNL     1      -4.601   2.428 -32.418  1.00  0.00    -0.351 N 
HETATM    7  C   UNL     1      -3.346   2.837 -32.013  1.00  0.00     0.222 C 
HETATM    8  O   UNL     1      -2.676   2.242 -31.176  1.00  0.00    -0.273 OA
HETATM    9  H   UNL     1      -5.104   2.993 -33.085  1.00  0.00     0.163 HD
BRANCH   7  10
HETATM   10  C   UNL     1      -2.901   4.127 -32.686  1.00  0.00     0.142 C 
BRANCH  10  11
HETATM   11  C   UNL     1      -2.054   5.060 -31.854  1.00  0.00    -0.032 A 
HETATM   12  C   UNL     1      -2.577   5.822 -30.811  1.00  0.00     0.126 A 
HETATM   13  N   UNL     1      -1.835   6.609 -29.997  1.00  0.00    -0.248 NA
HETATM   14  C   UNL     1      -0.511   6.639 -30.237  1.00  0.00     0.125 A 
HETATM   15 CL   UNL     1       0.388   7.650 -29.182  1.00  0.00    -0.063 Cl
HETATM   16  C   UNL     1       0.119   5.917 -31.233  1.00  0.00     0.045 A 
HETATM   17  C   UNL     1      -0.668   5.109 -32.048  1.00  0.00     0.012 A 
ENDBRANCH  10  11
ENDBRANCH   7  10
ENDBRANCH   1   6
BRANCH   1  18
HETATM   18  C   UNL     1      -5.848   0.452 -33.155  1.00  0.00    -0.001 A 
HETATM   19  C   UNL     1      -6.589   1.157 -34.130  1.00  0.00     0.076 A 
HETATM   20  C   UNL     1      -7.148   0.469 -35.215  1.00  0.00     0.037 A 
HETATM   21  C   UNL     1      -6.982  -0.910 -35.347  1.00  0.00     0.003 A 
HETATM   22  C   UNL     1      -6.254  -1.615 -34.398  1.00  0.00     0.001 A 
HETATM   23  C   UNL     1      -5.692  -0.941 -33.313  1.00  0.00     0.012 A 
BRANCH  19  24
HETATM   24  O   UNL     1      -6.695   2.511 -33.949  1.00  0.00    -0.355 OA
HETATM   25  C   UNL     1      -7.999   3.070 -33.850  1.00  0.00     0.210 C 
ENDBRANCH  19  24
ENDBRANCH   1  18
TORSDOF 6
ENDMDL
MODEL 4
REMARK VINA RESULT:      -7.2      5.409      7.925
REMARK  6 active torsions:
REMARK  status: ('A' for Active; 'I' for Inactive)
REMARK    1  A    between atoms: C_2  and  C_3 
REMARK    2  A    between atoms: C_3  and  N_4 
REMARK    3  A    between atoms: C_3  and  C_15 
REMARK       I    between atoms: N_4  and  C_5 
REMARK    4  A    between atoms: C_5  and  C_6 
REMARK    5  A    between atoms: C_6  and  C_7 
REMARK    6  A    between atoms: C_16  and  O_17 
ROOT
HETATM    1  C   UNL     1      -2.427   4.734 -32.692  1.00  0.00     0.128 C 
ENDROOT
BRANCH   1   2
HETATM    2  C   UNL     1      -2.423   5.537 -34.050  1.00  0.00    -0.026 C 
HETATM    3  C   UNL     1      -2.183   7.047 -33.864  1.00  0.00     0.016 C 
HETATM    4  C   UNL     1      -3.784   5.365 -34.764  1.00  0.00     0.016 C 
HETATM    5  C   UNL     1      -1.340   4.986 -35.003  1.00  0.00     0.016 C 
ENDBRANCH   1   2
BRANCH   1   6
HETATM    6  N   UNL     1      -3.646   3.935 -32.513  1.00  0.00    -0.351 N 
HETATM    7  C   UNL     1      -3.701   2.801 -31.728  1.00  0.00     0.222 C 
HETATM    8  O   UNL     1      -2.723   2.316 -31.170  1.00  0.00    -0.273 OA
HETATM    9  H   UNL     1      -4.489   4.251 -32.968  1.00  0.00     0.163 HD
BRANCH   7  10
HETATM   10  C   UNL     1      -5.095   2.195 -31.661  1.00  0.00     0.142 C 
BRANCH  10  11
HETATM   11  C   UNL     1      -5.319   0.939 -32.467  1.00  0.00    -0.032 A 
HETATM   12  C   UNL     1      -6.016   0.932 -33.673  1.00  0.00     0.126 A 
HETATM   13  N   UNL     1      -6.169  -0.161 -34.458  1.00  0.00    -0.248 NA
HETATM   14  C   UNL     1      -5.604  -1.300 -34.017  1.00  0.00     0.125 A 
HETATM   15 CL   UNL     1      -5.825  -2.656 -35.042  1.00  0.00    -0.063 Cl
HETATM   16  C   UNL     1      -4.880  -1.408 -32.844  1.00  0.00     0.045 A 
HETATM   17  C   UNL     1      -4.731  -0.267 -32.063  1.00  0.00     0.012 A 
ENDBRANCH  10  11
ENDBRANCH   7  10
ENDBRANCH   1   6
BRANCH   1  18
HETATM   18  C   UNL     1      -2.188   5.583 -31.435  1.00  0.00    -0.001 A 
HETATM   19  C   UNL     1      -0.923   5.604 -30.807  1.00  0.00     0.076 A 
HETATM   20  C   UNL     1      -0.726   6.382 -29.657  1.00  0.00     0.037 A 
HETATM   21  C   UNL     1      -1.769   7.137 -29.122  1.00  0.00     0.003 A 
HETATM   22  C   UNL     1      -3.017   7.127 -29.730  1.00  0.00     0.001 A 
HETATM   23  C   UNL     1      -3.225   6.358 -30.875  1.00  0.00     0.012 A 
BRANCH  19  24
HETATM   24  O   UNL     1       0.061   4.855 -31.398  1.00  0.00    -0.355 OA
HETATM   25  C   UNL     1       1.320   4.775 -30.744  1.00  0.00     0.210 C 
ENDBRANCH  19  24
ENDBRANCH   1  18
TORSDOF 6
ENDMDL
MODEL 5
REMARK VINA RESULT:      -7.1      5.132      7.808
REMARK  6 active torsions:
REMARK  status: ('A' for Active; 'I' for Inactive)
REMARK    1  A    between atoms: C_2  and  C_3 
REMARK    2  A    between atoms: C_3  and  N_4 
REMARK    3  A    between atoms: C_3  and  C_15 
REMARK       I    between atoms: N_4  and  C_5 
REMARK    4  A    between atoms: C_5  and  C_6 
REMARK    5  A    between atoms: C_6  and  C_7 
REMARK    6  A    between atoms: C_16  and  O_17 
ROOT
HETATM    1  C   UNL     1      -2.070   4.991 -32.587  1.00  0.00     0.128 C 
ENDROOT
BRANCH   1   2
HETATM    2  C   UNL     1      -2.198   5.726 -33.978  1.00  0.00    -0.026 C 
HETATM    3  C   UNL     1      -1.881   7.231 -33.902  1.00  0.00     0.016 C 
HETATM    4  C   UNL     1      -3.639   5.578 -34.518  1.00  0.00     0.016 C 
HETATM    5  C   UNL     1      -1.257   5.082 -35.020  1.00  0.00     0.016 C 
ENDBRANCH   1   2
BRANCH   1   6
HETATM    6  N   UNL     1      -3.341   4.406 -32.140  1.00  0.00    -0.351 N 
HETATM    7  C   UNL     1      -3.423   3.222 -31.435  1.00  0.00     0.222 C 
HETATM    8  O   UNL     1      -2.454   2.514 -31.184  1.00  0.00    -0.273 OA
HETATM    9  H   UNL     1      -4.190   4.914 -32.338  1.00  0.00     0.163 HD
BRANCH   7  10
HETATM   10  C   UNL     1      -4.849   2.869 -31.039  1.00  0.00     0.142 C 
BRANCH  10  11
HETATM   11  C   UNL     1      -5.477   1.702 -31.762  1.00  0.00    -0.032 A 
HETATM   12  C   UNL     1      -5.960   1.796 -33.066  1.00  0.00     0.126 A 
HETATM   13  N   UNL     1      -6.456   0.752 -33.771  1.00  0.00    -0.248 NA
HETATM   14  C   UNL     1      -6.476  -0.439 -33.144  1.00  0.00     0.125 A 
HETATM   15 CL   UNL     1      -7.116  -1.730 -34.075  1.00  0.00    -0.063 Cl
HETATM   16  C   UNL     1      -6.014  -0.653 -31.859  1.00  0.00     0.045 A 
HETATM   17  C   UNL     1      -5.499   0.436 -31.163  1.00  0.00     0.012 A 
ENDBRANCH  10  11
ENDBRANCH   7  10
ENDBRANCH   1   6
BRANCH   1  18
HETATM   18  C   UNL     1      -1.478   5.843 -31.455  1.00  0.00    -0.001 A 
HETATM   19  C   UNL     1      -2.303   6.688 -30.678  1.00  0.00     0.076 A 
HETATM   20  C   UNL     1      -1.743   7.460 -29.652  1.00  0.00     0.037 A 
HETATM   21  C   UNL     1      -0.375   7.407 -29.386  1.00  0.00     0.003 A 
HETATM   22  C   UNL     1       0.447   6.580 -30.140  1.00  0.00     0.001 A 
HETATM   23  C   UNL     1      -0.099   5.805 -31.163  1.00  0.00     0.012 A 
BRANCH  19  24
HETATM   24  O   UNL     1      -3.640   6.674 -30.980  1.00  0.00    -0.355 OA
HETATM   25  C   UNL     1      -4.291   7.924 -31.170  1.00  0.00     0.210 C 
ENDBRANCH  19  24
ENDBRANCH   1  18
TORSDOF 6
ENDMDL
MODEL 6
REMARK VINA RESULT:      -7.1      2.350      2.835
REMARK  6 active torsions:
REMARK  status: ('A' for Active; 'I' for Inactive)
REMARK    1  A    between atoms: C_2  and  C_3 
REMARK    2  A    between atoms: C_3  and  N_4 
REMARK    3  A    between atoms: C_3  and  C_15 
REMARK       I    between atoms: N_4  and  C_5 
REMARK    4  A    between atoms: C_5  and  C_6 
REMARK    5  A    between atoms: C_6  and  C_7 
REMARK    6  A    between atoms: C_16  and  O_17 
ROOT
HETATM    1  C   UNL     1      -7.705  -0.172 -32.981  1.00  0.00     0.128 C 
ENDROOT
BRANCH   1   2
HETATM    2  C   UNL     1      -6.766  -0.720 -34.124  1.00  0.00    -0.026 C 
HETATM    3  C   UNL     1      -5.267  -0.528 -33.824  1.00  0.00     0.016 C 
HETATM    4  C   UNL     1      -7.075   0.010 -35.451  1.00  0.00     0.016 C 
HETATM    5  C   UNL     1      -7.025  -2.224 -34.364  1.00  0.00     0.016 C 
ENDBRANCH   1   2
BRANCH   1   6
HETATM    6  N   UNL     1      -8.830   0.614 -33.505  1.00  0.00    -0.351 N 
HETATM    7  C   UNL     1     -10.151   0.319 -33.234  1.00  0.00     0.222 C 
HETATM    8  O   UNL     1     -10.509  -0.666 -32.598  1.00  0.00    -0.273 OA
HETATM    9  H   UNL     1      -8.619   1.425 -34.066  1.00  0.00     0.163 HD
BRANCH   7  10
HETATM   10  C   UNL     1     -11.117   1.324 -33.845  1.00  0.00     0.142 C 
BRANCH  10  11
HETATM   11  C   UNL     1     -10.755   2.781 -33.690  1.00  0.00    -0.032 A 
HETATM   12  C   UNL     1     -10.636   3.399 -32.446  1.00  0.00     0.126 A 
HETATM   13  N   UNL     1     -10.238   4.680 -32.268  1.00  0.00    -0.248 NA
HETATM   14  C   UNL     1      -9.952   5.380 -33.382  1.00  0.00     0.125 A 
HETATM   15 CL   UNL     1      -9.456   6.998 -33.107  1.00  0.00    -0.063 Cl
HETATM   16  C   UNL     1     -10.023   4.868 -34.664  1.00  0.00     0.045 A 
HETATM   17  C   UNL     1     -10.424   3.545 -34.816  1.00  0.00     0.012 A 
ENDBRANCH  10  11
ENDBRANCH   7  10
ENDBRANCH   1   6
BRANCH   1  18
HETATM   18  C   UNL     1      -6.992   0.632 -31.883  1.00  0.00    -0.001 A 
HETATM   19  C   UNL     1      -6.776   2.021 -32.030  1.00  0.00     0.076 A 
HETATM   20  C   UNL     1      -6.119   2.736 -31.020  1.00  0.00     0.037 A 
HETATM   21  C   UNL     1      -5.673   2.091 -29.865  1.00  0.00     0.003 A 
HETATM   22  C   UNL     1      -5.881   0.728 -29.707  1.00  0.00     0.001 A 
HETATM   23  C   UNL     1      -6.535   0.005 -30.706  1.00  0.00     0.012 A 
BRANCH  19  24
HETATM   24  O   UNL     1      -7.258   2.592 -33.178  1.00  0.00    -0.355 OA
HETATM   25  C   UNL     1      -6.446   3.559 -33.832  1.00  0.00     0.210 C 
ENDBRANCH  19  24
ENDBRANCH   1  18
TORSDOF 6
ENDMDL
MODEL 7
REMARK VINA RESULT:      -7.0      4.413      6.750
REMARK  6 active torsions:
REMARK  status: ('A' for Active; 'I' for Inactive)
REMARK    1  A    between atoms: C_2  and  C_3 
REMARK    2  A    between atoms: C_3  and  N_4 
REMARK    3  A    between atoms: C_3  and  C_15 
REMARK       I    between atoms: N_4  and  C_5 
REMARK    4  A    between atoms: C_5  and  C_6 
REMARK    5  A    between atoms: C_6  and  C_7 
REMARK    6  A    between atoms: C_16  and  O_17 
ROOT
HETATM    1  C   UNL     1      -6.852   1.672 -31.818  1.00  0.00     0.128 C 
ENDROOT
BRANCH   1   2
HETATM    2  C   UNL     1      -5.627   1.555 -30.830  1.00  0.00    -0.026 C 
HETATM    3  C   UNL     1      -4.322   1.127 -31.527  1.00  0.00     0.016 C 
HETATM    4  C   UNL     1      -5.936   0.510 -29.733  1.00  0.00     0.016 C 
HETATM    5  C   UNL     1      -5.377   2.901 -30.114  1.00  0.00     0.016 C 
ENDBRANCH   1   2
BRANCH   1   6
HETATM    6  N   UNL     1      -6.709   0.807 -32.996  1.00  0.00    -0.351 N 
HETATM    7  C   UNL     1      -7.720  -0.010 -33.461  1.00  0.00     0.222 C 
HETATM    8  O   UNL     1      -8.798  -0.145 -32.894  1.00  0.00    -0.273 OA
HETATM    9  H   UNL     1      -5.837   0.836 -33.501  1.00  0.00     0.163 HD
BRANCH   7  10
HETATM   10  C   UNL     1      -7.338  -0.756 -34.731  1.00  0.00     0.142 C 
BRANCH  10  11
HETATM   11  C   UNL     1      -6.313  -1.854 -34.581  1.00  0.00    -0.032 A 
HETATM   12  C   UNL     1      -5.049  -1.635 -34.037  1.00  0.00     0.126 A 
HETATM   13  N   UNL     1      -4.136  -2.610 -33.817  1.00  0.00    -0.248 NA
HETATM   14  C   UNL     1      -4.499  -3.860 -34.160  1.00  0.00     0.125 A 
HETATM   15 CL   UNL     1      -3.310  -5.061 -33.865  1.00  0.00    -0.063 Cl
HETATM   16  C   UNL     1      -5.728  -4.197 -34.695  1.00  0.00     0.045 A 
HETATM   17  C   UNL     1      -6.651  -3.176 -34.900  1.00  0.00     0.012 A 
ENDBRANCH  10  11
ENDBRANCH   7  10
ENDBRANCH   1   6
BRANCH   1  18
HETATM   18  C   UNL     1      -7.183   3.101 -32.275  1.00  0.00    -0.001 A 
HETATM   19  C   UNL     1      -8.279   3.801 -31.720  1.00  0.00     0.076 A 
HETATM   20  C   UNL     1      -8.568   5.101 -32.154  1.00  0.00     0.037 A 
HETATM   21  C   UNL     1      -7.786   5.717 -33.132  1.00  0.00     0.003 A 
HETATM   22  C   UNL     1      -6.705   5.041 -33.683  1.00  0.00     0.001 A 
HETATM   23  C   UNL     1      -6.406   3.747 -33.258  1.00  0.00     0.012 A 
BRANCH  19  24
HETATM   24  O   UNL     1      -8.991   3.144 -30.751  1.00  0.00    -0.355 OA
HETATM   25  C   UNL     1     -10.266   3.662 -30.396  1.00  0.00     0.210 C 
ENDBRANCH  19  24
ENDBRANCH   1  18
TORSDOF 6
ENDMDL
MODEL 8
REMARK VINA RESULT:      -7.0      4.800      7.884
REMARK  6 active torsions:
REMARK  status: ('A' for Active; 'I' for Inactive)
REMARK    1  A    between atoms: C_2  and  C_3 
REMARK    2  A    between atoms: C_3  and  N_4 
REMARK    3  A    between atoms: C_3  and  C_15 
REMARK       I    between atoms: N_4  and  C_5 
REMARK    4  A    between atoms: C_5  and  C_6 
REMARK    5  A    between atoms: C_6  and  C_7 
REMARK    6  A    between atoms: C_16  and  O_17 
ROOT
HETATM    1  C   UNL     1      -7.025   1.219 -32.803  1.00  0.00     0.128 C 
ENDROOT
BRANCH   1   2
HETATM    2  C   UNL     1      -8.601   1.266 -32.861  1.00  0.00    -0.026 C 
HETATM    3  C   UNL     1      -9.259  -0.112 -32.660  1.00  0.00     0.016 C 
HETATM    4  C   UNL     1      -9.058   1.807 -34.236  1.00  0.00     0.016 C 
HETATM    5  C   UNL     1      -9.154   2.231 -31.789  1.00  0.00     0.016 C 
ENDBRANCH   1   2
BRANCH   1   6
HETATM    6  N   UNL     1      -6.401   2.367 -33.474  1.00  0.00    -0.351 N 
HETATM    7  C   UNL     1      -5.673   3.331 -32.807  1.00  0.00     0.222 C 
HETATM    8  O   UNL     1      -5.542   3.358 -31.588  1.00  0.00    -0.273 OA
HETATM    9  H   UNL     1      -6.491   2.434 -34.477  1.00  0.00     0.163 HD
BRANCH   7  10
HETATM   10  C   UNL     1      -5.082   4.377 -33.741  1.00  0.00     0.142 C 
BRANCH  10  11
HETATM   11  C   UNL     1      -3.792   5.021 -33.296  1.00  0.00    -0.032 A 
HETATM   12  C   UNL     1      -3.727   6.334 -32.832  1.00  0.00     0.126 A 
HETATM   13  N   UNL     1      -2.603   6.917 -32.354  1.00  0.00    -0.248 NA
HETATM   14  C   UNL     1      -1.491   6.157 -32.341  1.00  0.00     0.125 A 
HETATM   15 CL   UNL     1      -0.093   6.939 -31.729  1.00  0.00    -0.063 Cl
HETATM   16  C   UNL     1      -1.441   4.842 -32.764  1.00  0.00     0.045 A 
HETATM   17  C   UNL     1      -2.614   4.266 -33.241  1.00  0.00     0.012 A 
ENDBRANCH  10  11
ENDBRANCH   7  10
ENDBRANCH   1   6
BRANCH   1  18
HETATM   18  C   UNL     1      -6.394  -0.079 -33.328  1.00  0.00    -0.001 A 
HETATM   19  C   UNL     1      -5.274  -0.652 -32.683  1.00  0.00     0.076 A 
HETATM   20  C   UNL     1      -4.710  -1.834 -33.179  1.00  0.00     0.037 A 
HETATM   21  C   UNL     1      -5.241  -2.456 -34.310  1.00  0.00     0.003 A 
HETATM   22  C   UNL     1      -6.342  -1.906 -34.952  1.00  0.00     0.001 A 
HETATM   23  C   UNL     1      -6.914  -0.730 -34.466  1.00  0.00     0.012 A 
BRANCH  19  24
HETATM   24  O   UNL     1      -4.818   0.001 -31.567  1.00  0.00    -0.355 OA
HETATM   25  C   UNL     1      -3.450   0.384 -31.533  1.00  0.00     0.210 C 
ENDBRANCH  19  24
ENDBRANCH   1  18
TORSDOF 6
ENDMDL
MODEL 9
REMARK VINA RESULT:      -6.9      3.932      6.495
REMARK  6 active torsions:
REMARK  status: ('A' for Active; 'I' for Inactive)
REMARK    1  A    between atoms: C_2  and  C_3 
REMARK    2  A    between atoms: C_3  and  N_4 
REMARK    3  A    between atoms: C_3  and  C_15 
REMARK       I    between atoms: N_4  and  C_5 
REMARK    4  A    between atoms: C_5  and  C_6 
REMARK    5  A    between atoms: C_6  and  C_7 
REMARK    6  A    between atoms: C_16  and  O_17 
ROOT
HETATM    1  C   UNL     1      -8.127   1.996 -33.415  1.00  0.00     0.128 C 
ENDROOT
BRANCH   1   2
HETATM    2  C   UNL     1      -9.539   2.640 -33.128  1.00  0.00    -0.026 C 
HETATM    3  C   UNL     1      -9.685   3.171 -31.689  1.00  0.00     0.016 C 
HETATM    4  C   UNL     1     -10.650   1.589 -33.354  1.00  0.00     0.016 C 
HETATM    5  C   UNL     1      -9.813   3.804 -34.106  1.00  0.00     0.016 C 
ENDBRANCH   1   2
BRANCH   1   6
HETATM    6  N   UNL     1      -8.218   0.571 -33.760  1.00  0.00    -0.351 N 
HETATM    7  C   UNL     1      -7.537   0.004 -34.818  1.00  0.00     0.222 C 
HETATM    8  O   UNL     1      -6.857   0.647 -35.610  1.00  0.00    -0.273 OA
HETATM    9  H   UNL     1      -8.785  -0.022 -33.173  1.00  0.00     0.163 HD
BRANCH   7  10
HETATM   10  C   UNL     1      -7.753  -1.499 -34.920  1.00  0.00     0.142 C 
BRANCH  10  11
HETATM   11  C   UNL     1      -6.545  -2.369 -34.671  1.00  0.00    -0.032 A 
HETATM   12  C   UNL     1      -5.383  -1.889 -34.069  1.00  0.00     0.126 A 
HETATM   13  N   UNL     1      -4.312  -2.658 -33.761  1.00  0.00    -0.248 NA
HETATM   14  C   UNL     1      -4.403  -3.965 -34.072  1.00  0.00     0.125 A 
HETATM   15 CL   UNL     1      -3.023  -4.897 -33.665  1.00  0.00    -0.063 Cl
HETATM   16  C   UNL     1      -5.508  -4.552 -34.658  1.00  0.00     0.045 A 
HETATM   17  C   UNL     1      -6.598  -3.740 -34.954  1.00  0.00     0.012 A 
ENDBRANCH  10  11
ENDBRANCH   7  10
ENDBRANCH   1   6
BRANCH   1  18
HETATM   18  C   UNL     1      -7.089   2.183 -32.299  1.00  0.00    -0.001 A 
HETATM   19  C   UNL     1      -6.247   3.318 -32.277  1.00  0.00     0.076 A 
HETATM   20  C   UNL     1      -5.303   3.468 -31.253  1.00  0.00     0.037 A 
HETATM   21  C   UNL     1      -5.182   2.506 -30.249  1.00  0.00     0.003 A 
HETATM   22  C   UNL     1      -6.004   1.387 -30.257  1.00  0.00     0.001 A 
HETATM   23  C   UNL     1      -6.949   1.227 -31.271  1.00  0.00     0.012 A 
BRANCH  19  24
HETATM   24  O   UNL     1      -6.435   4.232 -33.281  1.00  0.00    -0.355 OA
HETATM   25  C   UNL     1      -5.391   4.401 -34.231  1.00  0.00     0.210 C 
ENDBRANCH  19  24
ENDBRANCH   1  18
TORSDOF 6
ENDMDL
MODEL 10
REMARK VINA RESULT:      -6.9      4.577      7.629
REMARK  6 active torsions:
REMARK  status: ('A' for Active; 'I' for Inactive)
REMARK    1  A    between atoms: C_2  and  C_3 
REMARK    2  A    between atoms: C_3  and  N_4 
REMARK    3  A    between atoms: C_3  and  C_15 
REMARK       I    between atoms: N_4  and  C_5 
REMARK    4  A    between atoms: C_5  and  C_6 
REMARK    5  A    between atoms: C_6  and  C_7 
REMARK    6  A    between atoms: C_16  and  O_17 
ROOT
HETATM    1  C   UNL     1      -5.478   2.053 -32.080  1.00  0.00     0.128 C 
ENDROOT
BRANCH   1   2
HETATM    2  C   UNL     1      -4.957   3.500 -32.433  1.00  0.00    -0.026 C 
HETATM    3  C   UNL     1      -3.428   3.571 -32.604  1.00  0.00     0.016 C 
HETATM    4  C   UNL     1      -5.348   4.486 -31.308  1.00  0.00     0.016 C 
HETATM    5  C   UNL     1      -5.616   4.012 -33.733  1.00  0.00     0.016 C 
ENDBRANCH   1   2
BRANCH   1   6
HETATM    6  N   UNL     1      -4.425   1.035 -32.181  1.00  0.00    -0.351 N 
HETATM    7  C   UNL     1      -4.078   0.198 -31.139  1.00  0.00     0.222 C 
HETATM    8  O   UNL     1      -4.563   0.278 -30.016  1.00  0.00    -0.273 OA
HETATM    9  H   UNL     1      -3.953   0.928 -33.066  1.00  0.00     0.163 HD
BRANCH   7  10
HETATM   10  C   UNL     1      -3.001  -0.806 -31.522  1.00  0.00     0.142 C 
BRANCH  10  11
HETATM   11  C   UNL     1      -3.456  -2.008 -32.313  1.00  0.00    -0.032 A 
HETATM   12  C   UNL     1      -4.239  -1.901 -33.462  1.00  0.00     0.126 A 
HETATM   13  N   UNL     1      -4.600  -2.950 -34.237  1.00  0.00    -0.248 NA
HETATM   14  C   UNL     1      -4.164  -4.162 -33.847  1.00  0.00     0.125 A 
HETATM   15 CL   UNL     1      -4.647  -5.460 -34.859  1.00  0.00    -0.063 Cl
HETATM   16  C   UNL     1      -3.374  -4.387 -32.735  1.00  0.00     0.045 A 
HETATM   17  C   UNL     1      -3.010  -3.288 -31.962  1.00  0.00     0.012 A 
ENDBRANCH  10  11
ENDBRANCH   7  10
ENDBRANCH   1   6
BRANCH   1  18
HETATM   18  C   UNL     1      -6.707   1.592 -32.879  1.00  0.00    -0.001 A 
HETATM   19  C   UNL     1      -8.005   1.693 -32.330  1.00  0.00     0.076 A 
HETATM   20  C   UNL     1      -9.113   1.263 -33.073  1.00  0.00     0.037 A 
HETATM   21  C   UNL     1      -8.949   0.732 -34.353  1.00  0.00     0.003 A 
HETATM   22  C   UNL     1      -7.680   0.628 -34.904  1.00  0.00     0.001 A 
HETATM   23  C   UNL     1      -6.569   1.055 -34.176  1.00  0.00     0.012 A 
BRANCH  19  24
HETATM   24  O   UNL     1      -8.093   2.243 -31.078  1.00  0.00    -0.355 OA
HETATM   25  C   UNL     1      -9.106   3.214 -30.848  1.00  0.00     0.210 C 
ENDBRANCH  19  24
ENDBRANCH   1  18
TORSDOF 6
ENDMDL
