MODEL 1
REMARK VINA RESULT:      -9.5      0.000      0.000
REMARK  8 active torsions:
REMARK  status: ('A' for Active; 'I' for Inactive)
REMARK    1  A    between atoms: C_2  and  C_3 
REMARK    2  A    between atoms: N_4  and  C_5 
REMARK    3  A    between atoms: C_5  and  C_6 
REMARK    4  A    between atoms: C_14  and  C_15 
REMARK       I    between atoms: C_15  and  N_16 
REMARK    5  A    between atoms: N_16  and  N_17 
REMARK       I    between atoms: N_17  and  C_18 
REMARK    6  A    between atoms: C_18  and  C_19 
REMARK    7  A    between atoms: C_23  and  C_24 
REMARK    8  A    between atoms: C_27  and  O_28 
ROOT
HETATM    1  C   UNL     1      -4.955   3.047 -32.166  1.00  0.00     0.273 C 
HETATM    2  N   UNL     1      -3.634   2.786 -31.876  1.00  0.00    -0.263 N 
HETATM    3  O   UNL     1      -5.459   4.131 -31.868  1.00  0.00    -0.266 OA
HETATM    4  H   UNL     1      -3.136   1.949 -32.156  1.00  0.00     0.190 HD
ENDROOT
BRANCH   2   5
HETATM    5  N   UNL     1      -2.881   3.784 -31.243  1.00  0.00    -0.262 N 
HETATM    6  C   UNL     1      -2.023   4.557 -31.994  1.00  0.00     0.288 C 
HETATM    7  O   UNL     1      -1.949   4.441 -33.217  1.00  0.00    -0.264 OA
HETATM    8  H   UNL     1      -2.916   3.800 -30.227  1.00  0.00     0.190 HD
BRANCH   6   9
HETATM    9  C   UNL     1      -1.233   5.499 -31.253  1.00  0.00     0.121 A 
HETATM   10  N   UNL     1       0.055   5.792 -31.604  1.00  0.00    -0.272 N 
HETATM   11  H   UNL     1       0.581   5.400 -32.379  1.00  0.00     0.189 HD
HETATM   12  N   UNL     1       0.644   6.709 -30.823  1.00  0.00    -0.174 NA
HETATM   13  C   UNL     1      -0.287   7.030 -29.910  1.00  0.00     0.089 A 
HETATM   14  C   UNL     1      -1.479   6.287 -30.145  1.00  0.00     0.071 A 
BRANCH  13  15
HETATM   15  C   UNL     1      -0.031   8.031 -28.868  1.00  0.00    -0.005 A 
HETATM   16  C   UNL     1      -1.030   8.939 -28.495  1.00  0.00     0.016 A 
HETATM   17  C   UNL     1      -0.802   9.876 -27.482  1.00  0.00     0.037 A 
HETATM   18  C   UNL     1       0.426   9.929 -26.824  1.00  0.00     0.068 A 
HETATM   19  C   UNL     1       1.435   9.041 -27.199  1.00  0.00     0.037 A 
HETATM   20  C   UNL     1       1.207   8.099 -28.212  1.00  0.00     0.016 A 
BRANCH  18  21
HETATM   21  O   UNL     1       0.515  10.883 -25.849  1.00  0.00    -0.356 OA
HETATM   22  C   UNL     1       1.682  10.867 -25.037  1.00  0.00     0.210 C 
ENDBRANCH  18  21
ENDBRANCH  13  15
ENDBRANCH   6   9
ENDBRANCH   2   5
BRANCH   1  23
HETATM   23  C   UNL     1      -5.716   2.008 -32.848  1.00  0.00     0.077 A 
HETATM   24  C   UNL     1      -6.093   0.711 -32.491  1.00  0.00     0.048 A 
HETATM   25  N   UNL     1      -6.825   0.233 -33.567  1.00  0.00    -0.269 N 
HETATM   26  N   UNL     1      -6.954   1.130 -34.564  1.00  0.00    -0.183 NA
HETATM   27  C   UNL     1      -6.286   2.192 -34.130  1.00  0.00     0.158 A 
BRANCH  24  28
HETATM   28  C   UNL     1      -5.864  -0.105 -31.257  1.00  0.00     0.055 C 
HETATM   29  C   UNL     1      -6.166   0.675 -29.986  1.00  0.00     0.011 C 
ENDBRANCH  24  28
BRANCH  25  30
HETATM   30  C   UNL     1      -7.521  -1.047 -33.711  1.00  0.00     0.189 C 
BRANCH  30  31
HETATM   31  C   UNL     1      -6.622  -2.172 -34.168  1.00  0.00    -0.038 A 
HETATM   32  C   UNL     1      -5.231  -1.992 -34.185  1.00  0.00     0.009 A 
HETATM   33  C   UNL     1      -4.382  -3.039 -34.555  1.00  0.00     0.001 A 
HETATM   34  C   UNL     1      -4.914  -4.278 -34.904  1.00  0.00     0.000 A 
HETATM   35  C   UNL     1      -6.291  -4.476 -34.876  1.00  0.00     0.001 A 
HETATM   36  C   UNL     1      -7.141  -3.434 -34.502  1.00  0.00     0.009 A 
ENDBRANCH  30  31
ENDBRANCH  25  30
ENDBRANCH   1  23
TORSDOF 8
ENDMDL
MODEL 2
REMARK VINA RESULT:      -9.2      1.270      1.560
REMARK  8 active torsions:
REMARK  status: ('A' for Active; 'I' for Inactive)
REMARK    1  A    between atoms: C_2  and  C_3 
REMARK    2  A    between atoms: N_4  and  C_5 
REMARK    3  A    between atoms: C_5  and  C_6 
REMARK    4  A    between atoms: C_14  and  C_15 
REMARK       I    between atoms: C_15  and  N_16 
REMARK    5  A    between atoms: N_16  and  N_17 
REMARK       I    between atoms: N_17  and  C_18 
REMARK    6  A    between atoms: C_18  and  C_19 
REMARK    7  A    between atoms: C_23  and  C_24 
REMARK    8  A    between atoms: C_27  and  O_28 
ROOT
HETATM    1  C   UNL     1      -5.313   3.740 -31.850  1.00  0.00     0.273 C 
HETATM    2  N   UNL     1      -3.949   3.726 -31.653  1.00  0.00    -0.263 N 
HETATM    3  O   UNL     1      -5.997   4.674 -31.429  1.00  0.00    -0.266 OA
HETATM    4  H   UNL     1      -3.319   3.030 -32.032  1.00  0.00     0.190 HD
ENDROOT
BRANCH   2   5
HETATM    5  N   UNL     1      -3.364   4.802 -30.971  1.00  0.00    -0.262 N 
HETATM    6  C   UNL     1      -2.039   5.100 -31.197  1.00  0.00     0.288 C 
HETATM    7  O   UNL     1      -1.371   4.490 -32.032  1.00  0.00    -0.264 OA
HETATM    8  H   UNL     1      -3.926   5.232 -30.241  1.00  0.00     0.190 HD
BRANCH   6   9
HETATM    9  C   UNL     1      -1.501   6.164 -30.398  1.00  0.00     0.121 A 
HETATM   10  N   UNL     1      -1.839   7.470 -30.615  1.00  0.00    -0.272 N 
HETATM   11  H   UNL     1      -2.467   7.827 -31.329  1.00  0.00     0.189 HD
HETATM   12  N   UNL     1      -1.268   8.336 -29.767  1.00  0.00    -0.174 NA
HETATM   13  C   UNL     1      -0.511   7.575 -28.959  1.00  0.00     0.089 A 
HETATM   14  C   UNL     1      -0.628   6.204 -29.328  1.00  0.00     0.071 A 
BRANCH  13  15
HETATM   15  C   UNL     1       0.275   8.158 -27.865  1.00  0.00    -0.005 A 
HETATM   16  C   UNL     1       1.190   7.373 -27.152  1.00  0.00     0.016 A 
HETATM   17  C   UNL     1       1.964   7.928 -26.128  1.00  0.00     0.037 A 
HETATM   18  C   UNL     1       1.838   9.276 -25.792  1.00  0.00     0.068 A 
HETATM   19  C   UNL     1       0.917  10.063 -26.483  1.00  0.00     0.037 A 
HETATM   20  C   UNL     1       0.144   9.508 -27.512  1.00  0.00     0.016 A 
BRANCH  18  21
HETATM   21  O   UNL     1       2.658   9.694 -24.781  1.00  0.00    -0.356 OA
HETATM   22  C   UNL     1       2.995   8.734 -23.787  1.00  0.00     0.210 C 
ENDBRANCH  18  21
ENDBRANCH  13  15
ENDBRANCH   6   9
ENDBRANCH   2   5
BRANCH   1  23
HETATM   23  C   UNL     1      -5.901   2.627 -32.583  1.00  0.00     0.077 A 
HETATM   24  C   UNL     1      -6.389   1.378 -32.193  1.00  0.00     0.048 A 
HETATM   25  N   UNL     1      -6.836   0.776 -33.359  1.00  0.00    -0.269 N 
HETATM   26  N   UNL     1      -6.685   1.553 -34.450  1.00  0.00    -0.183 NA
HETATM   27  C   UNL     1      -6.122   2.661 -33.980  1.00  0.00     0.158 A 
BRANCH  24  28
HETATM   28  C   UNL     1      -6.503   0.709 -30.858  1.00  0.00     0.055 C 
HETATM   29  C   UNL     1      -5.144   0.349 -30.276  1.00  0.00     0.011 C 
ENDBRANCH  24  28
BRANCH  25  30
HETATM   30  C   UNL     1      -7.504  -0.514 -33.533  1.00  0.00     0.189 C 
BRANCH  30  31
HETATM   31  C   UNL     1      -6.564  -1.631 -33.921  1.00  0.00    -0.038 A 
HETATM   32  C   UNL     1      -5.209  -1.560 -33.563  1.00  0.00     0.009 A 
HETATM   33  C   UNL     1      -4.337  -2.608 -33.868  1.00  0.00     0.001 A 
HETATM   34  C   UNL     1      -4.810  -3.741 -34.526  1.00  0.00     0.000 A 
HETATM   35  C   UNL     1      -6.154  -3.832 -34.872  1.00  0.00     0.001 A 
HETATM   36  C   UNL     1      -7.029  -2.789 -34.565  1.00  0.00     0.009 A 
ENDBRANCH  30  31
ENDBRANCH  25  30
ENDBRANCH   1  23
TORSDOF 8
ENDMDL
MODEL 3
REMARK VINA RESULT:      -8.7      7.402     11.788
REMARK  8 active torsions:
REMARK  status: ('A' for Active; 'I' for Inactive)
REMARK    1  A    between atoms: C_2  and  C_3 
REMARK    2  A    between atoms: N_4  and  C_5 
REMARK    3  A    between atoms: C_5  and  C_6 
REMARK    4  A    between atoms: C_14  and  C_15 
REMARK       I    between atoms: C_15  and  N_16 
REMARK    5  A    between atoms: N_16  and  N_17 
REMARK       I    between atoms: N_17  and  C_18 
REMARK    6  A    between atoms: C_18  and  C_19 
REMARK    7  A    between atoms: C_23  and  C_24 
REMARK    8  A    between atoms: C_27  and  O_28 
ROOT
HETATM    1  C   UNL     1      -9.557   1.203 -32.994  1.00  0.00     0.273 C 
HETATM    2  N   UNL     1     -10.700   0.776 -33.633  1.00  0.00    -0.263 N 
HETATM    3  O   UNL     1      -9.626   1.968 -32.030  1.00  0.00    -0.266 OA
HETATM    4  H   UNL     1     -10.722   0.094 -34.381  1.00  0.00     0.190 HD
ENDROOT
BRANCH   2   5
HETATM    5  N   UNL     1     -11.938   1.226 -33.154  1.00  0.00    -0.262 N 
HETATM    6  C   UNL     1     -12.961   1.454 -34.047  1.00  0.00     0.288 C 
HETATM    7  O   UNL     1     -12.841   1.208 -35.247  1.00  0.00    -0.264 OA
HETATM    8  H   UNL     1     -11.975   1.485 -32.171  1.00  0.00     0.190 HD
BRANCH   6   9
HETATM    9  C   UNL     1     -14.166   1.991 -33.480  1.00  0.00     0.121 A 
HETATM   10  N   UNL     1     -15.364   1.342 -33.589  1.00  0.00    -0.272 N 
HETATM   11  H   UNL     1     -15.540   0.460 -34.060  1.00  0.00     0.189 HD
HETATM   12  N   UNL     1     -16.385   1.966 -32.985  1.00  0.00    -0.174 NA
HETATM   13  C   UNL     1     -15.846   3.079 -32.462  1.00  0.00     0.089 A 
HETATM   14  C   UNL     1     -14.453   3.132 -32.756  1.00  0.00     0.071 A 
BRANCH  13  15
HETATM   15  C   UNL     1     -16.649   4.038 -31.694  1.00  0.00    -0.005 A 
HETATM   16  C   UNL     1     -16.068   5.210 -31.194  1.00  0.00     0.016 A 
HETATM   17  C   UNL     1     -16.834   6.142 -30.486  1.00  0.00     0.037 A 
HETATM   18  C   UNL     1     -18.193   5.921 -30.259  1.00  0.00     0.068 A 
HETATM   19  C   UNL     1     -18.778   4.749 -30.737  1.00  0.00     0.037 A 
HETATM   20  C   UNL     1     -18.012   3.816 -31.450  1.00  0.00     0.016 A 
BRANCH  18  21
HETATM   21  O   UNL     1     -18.827   6.913 -29.564  1.00  0.00    -0.356 OA
HETATM   22  C   UNL     1     -18.476   7.063 -28.194  1.00  0.00     0.210 C 
ENDBRANCH  18  21
ENDBRANCH  13  15
ENDBRANCH   6   9
ENDBRANCH   2   5
BRANCH   1  23
HETATM   23  C   UNL     1      -8.280   0.705 -33.488  1.00  0.00     0.077 A 
HETATM   24  C   UNL     1      -7.176   0.120 -32.862  1.00  0.00     0.048 A 
HETATM   25  N   UNL     1      -6.277  -0.152 -33.881  1.00  0.00    -0.269 N 
HETATM   26  N   UNL     1      -6.732   0.198 -35.100  1.00  0.00    -0.183 NA
HETATM   27  C   UNL     1      -7.932   0.713 -34.859  1.00  0.00     0.158 A 
BRANCH  24  28
HETATM   28  C   UNL     1      -6.892  -0.229 -31.434  1.00  0.00     0.055 C 
HETATM   29  C   UNL     1      -6.388   0.966 -30.637  1.00  0.00     0.011 C 
ENDBRANCH  24  28
BRANCH  25  30
HETATM   30  C   UNL     1      -4.979  -0.825 -33.809  1.00  0.00     0.189 C 
BRANCH  30  31
HETATM   31  C   UNL     1      -5.051  -2.303 -34.110  1.00  0.00    -0.038 A 
HETATM   32  C   UNL     1      -3.997  -3.147 -33.726  1.00  0.00     0.009 A 
HETATM   33  C   UNL     1      -4.070  -4.524 -33.951  1.00  0.00     0.001 A 
HETATM   34  C   UNL     1      -5.200  -5.074 -34.553  1.00  0.00     0.000 A 
HETATM   35  C   UNL     1      -6.260  -4.251 -34.924  1.00  0.00     0.001 A 
HETATM   36  C   UNL     1      -6.191  -2.876 -34.697  1.00  0.00     0.009 A 
ENDBRANCH  30  31
ENDBRANCH  25  30
ENDBRANCH   1  23
TORSDOF 8
ENDMDL
MODEL 4
REMARK VINA RESULT:      -8.6      2.578     12.037
REMARK  8 active torsions:
REMARK  status: ('A' for Active; 'I' for Inactive)
REMARK    1  A    between atoms: C_2  and  C_3 
REMARK    2  A    between atoms: N_4  and  C_5 
REMARK    3  A    between atoms: C_5  and  C_6 
REMARK    4  A    between atoms: C_14  and  C_15 
REMARK       I    between atoms: C_15  and  N_16 
REMARK    5  A    between atoms: N_16  and  N_17 
REMARK       I    between atoms: N_17  and  C_18 
REMARK    6  A    between atoms: C_18  and  C_19 
REMARK    7  A    between atoms: C_23  and  C_24 
REMARK    8  A    between atoms: C_27  and  O_28 
ROOT
HETATM    1  C   UNL     1      -2.957   6.297 -30.050  1.00  0.00     0.273 C 
HETATM    2  N   UNL     1      -4.213   5.819 -29.749  1.00  0.00    -0.263 N 
HETATM    3  O   UNL     1      -2.236   5.702 -30.854  1.00  0.00    -0.266 OA
HETATM    4  H   UNL     1      -4.884   6.294 -29.157  1.00  0.00     0.190 HD
ENDROOT
BRANCH   2   5
HETATM    5  N   UNL     1      -4.650   4.648 -30.383  1.00  0.00    -0.262 N 
HETATM    6  C   UNL     1      -5.794   4.027 -29.935  1.00  0.00     0.288 C 
HETATM    7  O   UNL     1      -6.483   4.510 -29.035  1.00  0.00    -0.264 OA
HETATM    8  H   UNL     1      -4.019   4.245 -31.071  1.00  0.00     0.190 HD
BRANCH   6   9
HETATM    9  C   UNL     1      -6.123   2.792 -30.588  1.00  0.00     0.121 A 
HETATM   10  N   UNL     1      -7.301   2.142 -30.349  1.00  0.00    -0.272 N 
HETATM   11  H   UNL     1      -8.039   2.431 -29.714  1.00  0.00     0.189 HD
HETATM   12  N   UNL     1      -7.462   1.016 -31.057  1.00  0.00    -0.174 NA
HETATM   13  C   UNL     1      -6.341   0.907 -31.789  1.00  0.00     0.089 A 
HETATM   14  C   UNL     1      -5.473   2.004 -31.518  1.00  0.00     0.071 A 
BRANCH  13  15
HETATM   15  C   UNL     1      -6.135  -0.205 -32.723  1.00  0.00    -0.005 A 
HETATM   16  C   UNL     1      -4.862  -0.763 -32.893  1.00  0.00     0.016 A 
HETATM   17  C   UNL     1      -4.664  -1.841 -33.761  1.00  0.00     0.037 A 
HETATM   18  C   UNL     1      -5.730  -2.383 -34.479  1.00  0.00     0.068 A 
HETATM   19  C   UNL     1      -6.999  -1.824 -34.332  1.00  0.00     0.037 A 
HETATM   20  C   UNL     1      -7.200  -0.745 -33.460  1.00  0.00     0.016 A 
BRANCH  18  21
HETATM   21  O   UNL     1      -5.403  -3.439 -35.283  1.00  0.00    -0.356 OA
HETATM   22  C   UNL     1      -6.354  -4.491 -35.381  1.00  0.00     0.210 C 
ENDBRANCH  18  21
ENDBRANCH  13  15
ENDBRANCH   6   9
ENDBRANCH   2   5
BRANCH   1  23
HETATM   23  C   UNL     1      -2.528   7.530 -29.402  1.00  0.00     0.077 A 
HETATM   24  C   UNL     1      -2.317   7.883 -28.068  1.00  0.00     0.048 A 
HETATM   25  N   UNL     1      -1.896   9.203 -28.099  1.00  0.00    -0.269 N 
HETATM   26  N   UNL     1      -1.809   9.704 -29.347  1.00  0.00    -0.183 NA
HETATM   27  C   UNL     1      -2.190   8.698 -30.125  1.00  0.00     0.158 A 
BRANCH  24  28
HETATM   28  C   UNL     1      -2.441   7.117 -26.787  1.00  0.00     0.055 C 
HETATM   29  C   UNL     1      -1.224   6.245 -26.516  1.00  0.00     0.011 C 
ENDBRANCH  24  28
BRANCH  25  30
HETATM   30  C   UNL     1      -1.469  10.061 -26.992  1.00  0.00     0.189 C 
BRANCH  30  31
HETATM   31  C   UNL     1      -0.122   9.683 -26.424  1.00  0.00    -0.038 A 
HETATM   32  C   UNL     1       0.112   9.796 -25.045  1.00  0.00     0.009 A 
HETATM   33  C   UNL     1       1.335   9.402 -24.496  1.00  0.00     0.001 A 
HETATM   34  C   UNL     1       2.334   8.882 -25.317  1.00  0.00     0.000 A 
HETATM   35  C   UNL     1       2.110   8.749 -26.684  1.00  0.00     0.001 A 
HETATM   36  C   UNL     1       0.888   9.138 -27.234  1.00  0.00     0.009 A 
ENDBRANCH  30  31
ENDBRANCH  25  30
ENDBRANCH   1  23
TORSDOF 8
ENDMDL
MODEL 5
REMARK VINA RESULT:      -8.5      2.538     12.256
REMARK  8 active torsions:
REMARK  status: ('A' for Active; 'I' for Inactive)
REMARK    1  A    between atoms: C_2  and  C_3 
REMARK    2  A    between atoms: N_4  and  C_5 
REMARK    3  A    between atoms: C_5  and  C_6 
REMARK    4  A    between atoms: C_14  and  C_15 
REMARK       I    between atoms: C_15  and  N_16 
REMARK    5  A    between atoms: N_16  and  N_17 
REMARK       I    between atoms: N_17  and  C_18 
REMARK    6  A    between atoms: C_18  and  C_19 
REMARK    7  A    between atoms: C_23  and  C_24 
REMARK    8  A    between atoms: C_27  and  O_28 
ROOT
HETATM    1  C   UNL     1      -2.985   7.051 -28.815  1.00  0.00     0.273 C 
HETATM    2  N   UNL     1      -2.523   6.392 -29.932  1.00  0.00    -0.263 N 
HETATM    3  O   UNL     1      -4.093   6.787 -28.344  1.00  0.00    -0.266 OA
HETATM    4  H   UNL     1      -1.598   6.506 -30.328  1.00  0.00     0.190 HD
ENDROOT
BRANCH   2   5
HETATM    5  N   UNL     1      -3.339   5.411 -30.512  1.00  0.00    -0.262 N 
HETATM    6  C   UNL     1      -2.759   4.405 -31.252  1.00  0.00     0.288 C 
HETATM    7  O   UNL     1      -1.537   4.304 -31.362  1.00  0.00    -0.264 OA
HETATM    8  H   UNL     1      -4.342   5.570 -30.459  1.00  0.00     0.190 HD
BRANCH   6   9
HETATM    9  C   UNL     1      -3.675   3.492 -31.876  1.00  0.00     0.121 A 
HETATM   10  N   UNL     1      -4.867   3.911 -32.396  1.00  0.00    -0.272 N 
HETATM   11  H   UNL     1      -5.233   4.858 -32.398  1.00  0.00     0.189 HD
HETATM   12  N   UNL     1      -5.593   2.938 -32.963  1.00  0.00    -0.174 NA
HETATM   13  C   UNL     1      -4.858   1.825 -32.805  1.00  0.00     0.089 A 
HETATM   14  C   UNL     1      -3.646   2.133 -32.122  1.00  0.00     0.071 A 
BRANCH  13  15
HETATM   15  C   UNL     1      -5.308   0.524 -33.314  1.00  0.00    -0.005 A 
HETATM   16  C   UNL     1      -6.482   0.425 -34.071  1.00  0.00     0.016 A 
HETATM   17  C   UNL     1      -6.902  -0.806 -34.583  1.00  0.00     0.037 A 
HETATM   18  C   UNL     1      -6.161  -1.965 -34.348  1.00  0.00     0.068 A 
HETATM   19  C   UNL     1      -4.999  -1.882 -33.581  1.00  0.00     0.037 A 
HETATM   20  C   UNL     1      -4.576  -0.647 -33.069  1.00  0.00     0.016 A 
BRANCH  18  21
HETATM   21  O   UNL     1      -6.675  -3.099 -34.912  1.00  0.00    -0.356 OA
HETATM   22  C   UNL     1      -5.816  -4.230 -34.978  1.00  0.00     0.210 C 
ENDBRANCH  18  21
ENDBRANCH  13  15
ENDBRANCH   6   9
ENDBRANCH   2   5
BRANCH   1  23
HETATM   23  C   UNL     1      -2.113   8.049 -28.209  1.00  0.00     0.077 A 
HETATM   24  C   UNL     1      -0.726   8.214 -28.182  1.00  0.00     0.048 A 
HETATM   25  N   UNL     1      -0.509   9.373 -27.451  1.00  0.00    -0.269 N 
HETATM   26  N   UNL     1      -1.648   9.959 -27.032  1.00  0.00    -0.183 NA
HETATM   27  C   UNL     1      -2.606   9.161 -27.486  1.00  0.00     0.158 A 
BRANCH  24  28
HETATM   28  C   UNL     1       0.398   7.427 -28.781  1.00  0.00     0.055 C 
HETATM   29  C   UNL     1       0.679   6.146 -28.010  1.00  0.00     0.011 C 
ENDBRANCH  24  28
BRANCH  25  30
HETATM   30  C   UNL     1       0.753  10.058 -27.164  1.00  0.00     0.189 C 
BRANCH  30  31
HETATM   31  C   UNL     1       1.292   9.770 -25.783  1.00  0.00    -0.038 A 
HETATM   32  C   UNL     1       2.294   8.803 -25.611  1.00  0.00     0.009 A 
HETATM   33  C   UNL     1       2.840   8.561 -24.347  1.00  0.00     0.001 A 
HETATM   34  C   UNL     1       2.398   9.289 -23.245  1.00  0.00     0.000 A 
HETATM   35  C   UNL     1       1.416  10.263 -23.404  1.00  0.00     0.001 A 
HETATM   36  C   UNL     1       0.872  10.510 -24.665  1.00  0.00     0.009 A 
ENDBRANCH  30  31
ENDBRANCH  25  30
ENDBRANCH   1  23
TORSDOF 8
ENDMDL
MODEL 6
REMARK VINA RESULT:      -8.2      4.140     11.584
REMARK  8 active torsions:
REMARK  status: ('A' for Active; 'I' for Inactive)
REMARK    1  A    between atoms: C_2  and  C_3 
REMARK    2  A    between atoms: N_4  and  C_5 
REMARK    3  A    between atoms: C_5  and  C_6 
REMARK    4  A    between atoms: C_14  and  C_15 
REMARK       I    between atoms: C_15  and  N_16 
REMARK    5  A    between atoms: N_16  and  N_17 
REMARK       I    between atoms: N_17  and  C_18 
REMARK    6  A    between atoms: C_18  and  C_19 
REMARK    7  A    between atoms: C_23  and  C_24 
REMARK    8  A    between atoms: C_27  and  O_28 
ROOT
HETATM    1  C   UNL     1      -4.767   5.019 -33.691  1.00  0.00     0.273 C 
HETATM    2  N   UNL     1      -5.130   4.017 -32.818  1.00  0.00    -0.263 N 
HETATM    3  O   UNL     1      -5.546   5.401 -34.566  1.00  0.00    -0.266 OA
HETATM    4  H   UNL     1      -4.571   3.705 -32.034  1.00  0.00     0.190 HD
ENDROOT
BRANCH   2   5
HETATM    5  N   UNL     1      -6.405   3.451 -32.947  1.00  0.00    -0.262 N 
HETATM    6  C   UNL     1      -6.520   2.100 -33.189  1.00  0.00     0.288 C 
HETATM    7  O   UNL     1      -5.535   1.362 -33.228  1.00  0.00    -0.264 OA
HETATM    8  H   UNL     1      -7.186   4.101 -32.981  1.00  0.00     0.190 HD
BRANCH   6   9
HETATM    9  C   UNL     1      -7.859   1.621 -33.388  1.00  0.00     0.121 A 
HETATM   10  N   UNL     1      -8.110   0.390 -33.925  1.00  0.00    -0.272 N 
HETATM   11  H   UNL     1      -7.425  -0.292 -34.237  1.00  0.00     0.189 HD
HETATM   12  N   UNL     1      -9.412   0.086 -34.021  1.00  0.00    -0.174 NA
HETATM   13  C   UNL     1     -10.052   1.163 -33.537  1.00  0.00     0.089 A 
HETATM   14  C   UNL     1      -9.109   2.151 -33.133  1.00  0.00     0.071 A 
BRANCH  13  15
HETATM   15  C   UNL     1     -11.516   1.218 -33.456  1.00  0.00    -0.005 A 
HETATM   16  C   UNL     1     -12.170   2.436 -33.231  1.00  0.00     0.016 A 
HETATM   17  C   UNL     1     -13.566   2.501 -33.180  1.00  0.00     0.037 A 
HETATM   18  C   UNL     1     -14.338   1.352 -33.349  1.00  0.00     0.068 A 
HETATM   19  C   UNL     1     -13.698   0.130 -33.556  1.00  0.00     0.037 A 
HETATM   20  C   UNL     1     -12.299   0.064 -33.610  1.00  0.00     0.016 A 
BRANCH  18  21
HETATM   21  O   UNL     1     -15.689   1.553 -33.287  1.00  0.00    -0.356 OA
HETATM   22  C   UNL     1     -16.157   2.477 -32.313  1.00  0.00     0.210 C 
ENDBRANCH  18  21
ENDBRANCH  13  15
ENDBRANCH   6   9
ENDBRANCH   2   5
BRANCH   1  23
HETATM   23  C   UNL     1      -3.448   5.614 -33.526  1.00  0.00     0.077 A 
HETATM   24  C   UNL     1      -2.869   6.390 -32.519  1.00  0.00     0.048 A 
HETATM   25  N   UNL     1      -1.571   6.633 -32.942  1.00  0.00    -0.269 N 
HETATM   26  N   UNL     1      -1.281   6.059 -34.126  1.00  0.00    -0.183 NA
HETATM   27  C   UNL     1      -2.409   5.451 -34.474  1.00  0.00     0.158 A 
BRANCH  24  28
HETATM   28  C   UNL     1      -3.388   6.897 -31.209  1.00  0.00     0.055 C 
HETATM   29  C   UNL     1      -4.466   7.955 -31.387  1.00  0.00     0.011 C 
ENDBRANCH  24  28
BRANCH  25  30
HETATM   30  C   UNL     1      -0.492   7.338 -32.247  1.00  0.00     0.189 C 
BRANCH  30  31
HETATM   31  C   UNL     1      -0.073   6.673 -30.958  1.00  0.00    -0.038 A 
HETATM   32  C   UNL     1       0.486   5.386 -30.985  1.00  0.00     0.009 A 
HETATM   33  C   UNL     1       0.927   4.777 -29.807  1.00  0.00     0.001 A 
HETATM   34  C   UNL     1       0.823   5.450 -28.592  1.00  0.00     0.000 A 
HETATM   35  C   UNL     1       0.286   6.734 -28.552  1.00  0.00     0.001 A 
HETATM   36  C   UNL     1      -0.151   7.346 -29.728  1.00  0.00     0.009 A 
ENDBRANCH  30  31
ENDBRANCH  25  30
ENDBRANCH   1  23
TORSDOF 8
ENDMDL
MODEL 7
REMARK VINA RESULT:      -8.1      4.026      5.382
REMARK  8 active torsions:
REMARK  status: ('A' for Active; 'I' for Inactive)
REMARK    1  A    between atoms: C_2  and  C_3 
REMARK    2  A    between atoms: N_4  and  C_5 
REMARK    3  A    between atoms: C_5  and  C_6 
REMARK    4  A    between atoms: C_14  and  C_15 
REMARK       I    between atoms: C_15  and  N_16 
REMARK    5  A    between atoms: N_16  and  N_17 
REMARK       I    between atoms: N_17  and  C_18 
REMARK    6  A    between atoms: C_18  and  C_19 
REMARK    7  A    between atoms: C_23  and  C_24 
REMARK    8  A    between atoms: C_27  and  O_28 
ROOT
HETATM    1  C   UNL     1      -7.799   3.461 -32.766  1.00  0.00     0.273 C 
HETATM    2  N   UNL     1      -6.695   3.979 -33.404  1.00  0.00    -0.263 N 
HETATM    3  O   UNL     1      -7.767   3.211 -31.559  1.00  0.00    -0.266 OA
HETATM    4  H   UNL     1      -6.674   4.275 -34.372  1.00  0.00     0.190 HD
ENDROOT
BRANCH   2   5
HETATM    5  N   UNL     1      -5.540   4.222 -32.647  1.00  0.00    -0.262 N 
HETATM    6  C   UNL     1      -4.547   5.018 -33.171  1.00  0.00     0.288 C 
HETATM    7  O   UNL     1      -4.673   5.580 -34.260  1.00  0.00    -0.264 OA
HETATM    8  H   UNL     1      -5.443   3.685 -31.788  1.00  0.00     0.190 HD
BRANCH   6   9
HETATM    9  C   UNL     1      -3.368   5.147 -32.363  1.00  0.00     0.121 A 
HETATM   10  N   UNL     1      -2.316   4.282 -32.481  1.00  0.00    -0.272 N 
HETATM   11  H   UNL     1      -2.246   3.489 -33.111  1.00  0.00     0.189 HD
HETATM   12  N   UNL     1      -1.284   4.555 -31.671  1.00  0.00    -0.174 NA
HETATM   13  C   UNL     1      -1.670   5.639 -30.978  1.00  0.00     0.089 A 
HETATM   14  C   UNL     1      -2.977   6.037 -31.382  1.00  0.00     0.071 A 
BRANCH  13  15
HETATM   15  C   UNL     1      -0.797   6.268 -29.980  1.00  0.00    -0.005 A 
HETATM   16  C   UNL     1      -0.902   7.637 -29.707  1.00  0.00     0.016 A 
HETATM   17  C   UNL     1      -0.093   8.238 -28.737  1.00  0.00     0.037 A 
HETATM   18  C   UNL     1       0.840   7.485 -28.024  1.00  0.00     0.068 A 
HETATM   19  C   UNL     1       0.967   6.124 -28.300  1.00  0.00     0.037 A 
HETATM   20  C   UNL     1       0.154   5.521 -29.270  1.00  0.00     0.016 A 
BRANCH  18  21
HETATM   21  O   UNL     1       1.560   8.190 -27.100  1.00  0.00    -0.356 OA
HETATM   22  C   UNL     1       1.083   9.487 -26.766  1.00  0.00     0.210 C 
ENDBRANCH  18  21
ENDBRANCH  13  15
ENDBRANCH   6   9
ENDBRANCH   2   5
BRANCH   1  23
HETATM   23  C   UNL     1      -8.999   3.240 -33.562  1.00  0.00     0.077 A 
HETATM   24  C   UNL     1      -9.864   2.152 -33.704  1.00  0.00     0.048 A 
HETATM   25  N   UNL     1     -10.834   2.568 -34.603  1.00  0.00    -0.269 N 
HETATM   26  N   UNL     1     -10.659   3.836 -35.024  1.00  0.00    -0.183 NA
HETATM   27  C   UNL     1      -9.557   4.234 -34.400  1.00  0.00     0.158 A 
BRANCH  24  28
HETATM   28  C   UNL     1      -9.890   0.793 -33.076  1.00  0.00     0.055 C 
HETATM   29  C   UNL     1      -8.662  -0.031 -33.432  1.00  0.00     0.011 C 
ENDBRANCH  24  28
BRANCH  25  30
HETATM   30  C   UNL     1     -12.027   1.857 -35.066  1.00  0.00     0.189 C 
BRANCH  30  31
HETATM   31  C   UNL     1     -13.205   1.986 -34.130  1.00  0.00    -0.038 A 
HETATM   32  C   UNL     1     -14.332   1.169 -34.309  1.00  0.00     0.009 A 
HETATM   33  C   UNL     1     -15.409   1.239 -33.421  1.00  0.00     0.001 A 
HETATM   34  C   UNL     1     -15.368   2.118 -32.341  1.00  0.00     0.000 A 
HETATM   35  C   UNL     1     -14.250   2.922 -32.143  1.00  0.00     0.001 A 
HETATM   36  C   UNL     1     -13.171   2.851 -33.025  1.00  0.00     0.009 A 
ENDBRANCH  30  31
ENDBRANCH  25  30
ENDBRANCH   1  23
TORSDOF 8
ENDMDL
MODEL 8
REMARK VINA RESULT:      -8.1      5.119      9.395
REMARK  8 active torsions:
REMARK  status: ('A' for Active; 'I' for Inactive)
REMARK    1  A    between atoms: C_2  and  C_3 
REMARK    2  A    between atoms: N_4  and  C_5 
REMARK    3  A    between atoms: C_5  and  C_6 
REMARK    4  A    between atoms: C_14  and  C_15 
REMARK       I    between atoms: C_15  and  N_16 
REMARK    5  A    between atoms: N_16  and  N_17 
REMARK       I    between atoms: N_17  and  C_18 
REMARK    6  A    between atoms: C_18  and  C_19 
REMARK    7  A    between atoms: C_23  and  C_24 
REMARK    8  A    between atoms: C_27  and  O_28 
ROOT
HETATM    1  C   UNL     1       0.722   7.866 -27.897  1.00  0.00     0.273 C 
HETATM    2  N   UNL     1       1.316   9.030 -27.463  1.00  0.00    -0.263 N 
HETATM    3  O   UNL     1       1.041   6.780 -27.409  1.00  0.00    -0.266 OA
HETATM    4  H   UNL     1       1.053   9.960 -27.766  1.00  0.00     0.190 HD
ENDROOT
BRANCH   2   5
HETATM    5  N   UNL     1       2.282   8.948 -26.450  1.00  0.00    -0.262 N 
HETATM    6  C   UNL     1       2.041   9.559 -25.240  1.00  0.00     0.288 C 
HETATM    7  O   UNL     1       0.971  10.119 -24.998  1.00  0.00    -0.264 OA
HETATM    8  H   UNL     1       3.176   8.541 -26.712  1.00  0.00     0.190 HD
BRANCH   6   9
HETATM    9  C   UNL     1       3.116   9.494 -24.291  1.00  0.00     0.121 A 
HETATM   10  N   UNL     1       3.761  10.617 -23.856  1.00  0.00    -0.272 N 
HETATM   11  H   UNL     1       3.577  11.575 -24.138  1.00  0.00     0.189 HD
HETATM   12  N   UNL     1       4.725  10.385 -22.954  1.00  0.00    -0.174 NA
HETATM   13  C   UNL     1       4.726   9.051 -22.789  1.00  0.00     0.089 A 
HETATM   14  C   UNL     1       3.731   8.456 -23.617  1.00  0.00     0.071 A 
BRANCH  13  15
HETATM   15  C   UNL     1       5.643   8.390 -21.854  1.00  0.00    -0.005 A 
HETATM   16  C   UNL     1       6.415   7.298 -22.269  1.00  0.00     0.016 A 
HETATM   17  C   UNL     1       7.312   6.681 -21.392  1.00  0.00     0.037 A 
HETATM   18  C   UNL     1       7.455   7.139 -20.082  1.00  0.00     0.068 A 
HETATM   19  C   UNL     1       6.679   8.215 -19.652  1.00  0.00     0.037 A 
HETATM   20  C   UNL     1       5.782   8.836 -20.532  1.00  0.00     0.016 A 
BRANCH  18  21
HETATM   21  O   UNL     1       8.371   6.456 -19.332  1.00  0.00    -0.356 OA
HETATM   22  C   UNL     1       8.719   5.150 -19.774  1.00  0.00     0.210 C 
ENDBRANCH  18  21
ENDBRANCH  13  15
ENDBRANCH   6   9
ENDBRANCH   2   5
BRANCH   1  23
HETATM   23  C   UNL     1      -0.298   7.972 -28.931  1.00  0.00     0.077 A 
HETATM   24  C   UNL     1      -0.371   7.519 -30.251  1.00  0.00     0.048 A 
HETATM   25  N   UNL     1      -1.615   7.924 -30.710  1.00  0.00    -0.269 N 
HETATM   26  N   UNL     1      -2.337   8.580 -29.781  1.00  0.00    -0.183 NA
HETATM   27  C   UNL     1      -1.544   8.608 -28.717  1.00  0.00     0.158 A 
BRANCH  24  28
HETATM   28  C   UNL     1       0.577   6.735 -31.104  1.00  0.00     0.055 C 
HETATM   29  C   UNL     1       0.640   5.269 -30.702  1.00  0.00     0.011 C 
ENDBRANCH  24  28
BRANCH  25  30
HETATM   30  C   UNL     1      -2.249   7.662 -32.003  1.00  0.00     0.189 C 
BRANCH  30  31
HETATM   31  C   UNL     1      -2.590   6.207 -32.222  1.00  0.00    -0.038 A 
HETATM   32  C   UNL     1      -2.102   5.537 -33.355  1.00  0.00     0.009 A 
HETATM   33  C   UNL     1      -2.364   4.178 -33.546  1.00  0.00     0.001 A 
HETATM   34  C   UNL     1      -3.109   3.472 -32.604  1.00  0.00     0.000 A 
HETATM   35  C   UNL     1      -3.585   4.119 -31.468  1.00  0.00     0.001 A 
HETATM   36  C   UNL     1      -3.321   5.476 -31.272  1.00  0.00     0.009 A 
ENDBRANCH  30  31
ENDBRANCH  25  30
ENDBRANCH   1  23
TORSDOF 8
ENDMDL
MODEL 9
REMARK VINA RESULT:      -8.1      3.672     11.938
REMARK  8 active torsions:
REMARK  status: ('A' for Active; 'I' for Inactive)
REMARK    1  A    between atoms: C_2  and  C_3 
REMARK    2  A    between atoms: N_4  and  C_5 
REMARK    3  A    between atoms: C_5  and  C_6 
REMARK    4  A    between atoms: C_14  and  C_15 
REMARK       I    between atoms: C_15  and  N_16 
REMARK    5  A    between atoms: N_16  and  N_17 
REMARK       I    between atoms: N_17  and  C_18 
REMARK    6  A    between atoms: C_18  and  C_19 
REMARK    7  A    between atoms: C_23  and  C_24 
REMARK    8  A    between atoms: C_27  and  O_28 
ROOT
HETATM    1  C   UNL     1      -2.537   4.205 -31.748  1.00  0.00     0.273 C 
HETATM    2  N   UNL     1      -3.657   4.011 -30.970  1.00  0.00    -0.263 N 
HETATM    3  O   UNL     1      -2.483   3.751 -32.892  1.00  0.00    -0.266 OA
HETATM    4  H   UNL     1      -3.799   4.415 -30.052  1.00  0.00     0.190 HD
ENDROOT
BRANCH   2   5
HETATM    5  N   UNL     1      -4.730   3.293 -31.514  1.00  0.00    -0.262 N 
HETATM    6  C   UNL     1      -5.829   3.979 -31.982  1.00  0.00     0.288 C 
HETATM    7  O   UNL     1      -5.867   5.209 -31.997  1.00  0.00    -0.264 OA
HETATM    8  H   UNL     1      -4.692   2.282 -31.418  1.00  0.00     0.190 HD
BRANCH   6   9
HETATM    9  C   UNL     1      -6.914   3.162 -32.448  1.00  0.00     0.121 A 
HETATM   10  N   UNL     1      -6.838   1.798 -32.450  1.00  0.00    -0.272 N 
HETATM   11  H   UNL     1      -6.053   1.230 -32.149  1.00  0.00     0.189 HD
HETATM   12  N   UNL     1      -7.945   1.185 -32.893  1.00  0.00    -0.174 NA
HETATM   13  C   UNL     1      -8.787   2.183 -33.208  1.00  0.00     0.089 A 
HETATM   14  C   UNL     1      -8.172   3.442 -32.946  1.00  0.00     0.071 A 
BRANCH  13  15
HETATM   15  C   UNL     1     -10.135   1.922 -33.724  1.00  0.00    -0.005 A 
HETATM   16  C   UNL     1     -10.852   0.796 -33.298  1.00  0.00     0.016 A 
HETATM   17  C   UNL     1     -12.149   0.556 -33.764  1.00  0.00     0.037 A 
HETATM   18  C   UNL     1     -12.755   1.431 -34.665  1.00  0.00     0.068 A 
HETATM   19  C   UNL     1     -12.044   2.545 -35.110  1.00  0.00     0.037 A 
HETATM   20  C   UNL     1     -10.745   2.789 -34.642  1.00  0.00     0.016 A 
BRANCH  18  21
HETATM   21  O   UNL     1     -14.026   1.086 -35.033  1.00  0.00    -0.356 OA
HETATM   22  C   UNL     1     -14.984   0.956 -33.991  1.00  0.00     0.210 C 
ENDBRANCH  18  21
ENDBRANCH  13  15
ENDBRANCH   6   9
ENDBRANCH   2   5
BRANCH   1  23
HETATM   23  C   UNL     1      -1.441   4.975 -31.176  1.00  0.00     0.077 A 
HETATM   24  C   UNL     1      -1.193   6.345 -31.065  1.00  0.00     0.048 A 
HETATM   25  N   UNL     1       0.020   6.447 -30.401  1.00  0.00    -0.269 N 
HETATM   26  N   UNL     1       0.547   5.251 -30.069  1.00  0.00    -0.183 NA
HETATM   27  C   UNL     1      -0.331   4.372 -30.537  1.00  0.00     0.158 A 
BRANCH  24  28
HETATM   28  C   UNL     1      -1.973   7.551 -31.487  1.00  0.00     0.055 C 
HETATM   29  C   UNL     1      -1.778   7.879 -32.960  1.00  0.00     0.011 C 
ENDBRANCH  24  28
BRANCH  25  30
HETATM   30  C   UNL     1       0.730   7.648 -29.957  1.00  0.00     0.189 C 
BRANCH  30  31
HETATM   31  C   UNL     1       0.581   7.922 -28.479  1.00  0.00    -0.038 A 
HETATM   32  C   UNL     1       1.626   8.539 -27.774  1.00  0.00     0.009 A 
HETATM   33  C   UNL     1       1.486   8.846 -26.418  1.00  0.00     0.001 A 
HETATM   34  C   UNL     1       0.297   8.549 -25.755  1.00  0.00     0.000 A 
HETATM   35  C   UNL     1      -0.753   7.952 -26.445  1.00  0.00     0.001 A 
HETATM   36  C   UNL     1      -0.617   7.648 -27.800  1.00  0.00     0.009 A 
ENDBRANCH  30  31
ENDBRANCH  25  30
ENDBRANCH   1  23
TORSDOF 8
ENDMDL
MODEL 10
REMARK VINA RESULT:      -8.0      5.545     12.075
REMARK  8 active torsions:
REMARK  status: ('A' for Active; 'I' for Inactive)
REMARK    1  A    between atoms: C_2  and  C_3 
REMARK    2  A    between atoms: N_4  and  C_5 
REMARK    3  A    between atoms: C_5  and  C_6 
REMARK    4  A    between atoms: C_14  and  C_15 
REMARK       I    between atoms: C_15  and  N_16 
REMARK    5  A    between atoms: N_16  and  N_17 
REMARK       I    between atoms: N_17  and  C_18 
REMARK    6  A    between atoms: C_18  and  C_19 
REMARK    7  A    between atoms: C_23  and  C_24 
REMARK    8  A    between atoms: C_27  and  O_28 
ROOT
HETATM    1  C   UNL     1      -5.611   5.514 -33.056  1.00  0.00     0.273 C 
HETATM    2  N   UNL     1      -6.563   5.322 -32.080  1.00  0.00    -0.263 N 
HETATM    3  O   UNL     1      -5.816   5.142 -34.213  1.00  0.00    -0.266 OA
HETATM    4  H   UNL     1      -6.493   5.666 -31.130  1.00  0.00     0.190 HD
ENDROOT
BRANCH   2   5
HETATM    5  N   UNL     1      -7.768   4.702 -32.437  1.00  0.00    -0.262 N 
HETATM    6  C   UNL     1      -8.887   5.477 -32.647  1.00  0.00     0.288 C 
HETATM    7  O   UNL     1      -8.842   6.706 -32.595  1.00  0.00    -0.264 OA
HETATM    8  H   UNL     1      -7.781   3.686 -32.399  1.00  0.00     0.190 HD
BRANCH   6   9
HETATM    9  C   UNL     1     -10.095   4.754 -32.929  1.00  0.00     0.121 A 
HETATM   10  N   UNL     1     -10.194   3.909 -33.998  1.00  0.00    -0.272 N 
HETATM   11  H   UNL     1      -9.474   3.706 -34.685  1.00  0.00     0.189 HD
HETATM   12  N   UNL     1     -11.380   3.294 -34.106  1.00  0.00    -0.174 NA
HETATM   13  C   UNL     1     -12.102   3.758 -33.073  1.00  0.00     0.089 A 
HETATM   14  C   UNL     1     -11.328   4.682 -32.312  1.00  0.00     0.071 A 
BRANCH  13  15
HETATM   15  C   UNL     1     -13.476   3.306 -32.827  1.00  0.00    -0.005 A 
HETATM   16  C   UNL     1     -14.409   4.163 -32.230  1.00  0.00     0.016 A 
HETATM   17  C   UNL     1     -15.728   3.749 -32.019  1.00  0.00     0.037 A 
HETATM   18  C   UNL     1     -16.142   2.472 -32.396  1.00  0.00     0.068 A 
HETATM   19  C   UNL     1     -15.218   1.603 -32.976  1.00  0.00     0.037 A 
HETATM   20  C   UNL     1     -13.896   2.018 -33.190  1.00  0.00     0.016 A 
BRANCH  18  21
HETATM   21  O   UNL     1     -17.458   2.197 -32.144  1.00  0.00    -0.356 OA
HETATM   22  C   UNL     1     -18.396   3.225 -32.433  1.00  0.00     0.210 C 
ENDBRANCH  18  21
ENDBRANCH  13  15
ENDBRANCH   6   9
ENDBRANCH   2   5
BRANCH   1  23
HETATM   23  C   UNL     1      -4.375   6.184 -32.673  1.00  0.00     0.077 A 
HETATM   24  C   UNL     1      -3.025   5.872 -32.851  1.00  0.00     0.048 A 
HETATM   25  N   UNL     1      -2.326   6.920 -32.272  1.00  0.00    -0.269 N 
HETATM   26  N   UNL     1      -3.127   7.875 -31.760  1.00  0.00    -0.183 NA
HETATM   27  C   UNL     1      -4.354   7.429 -32.001  1.00  0.00     0.158 A 
BRANCH  24  28
HETATM   28  C   UNL     1      -2.333   4.724 -33.518  1.00  0.00     0.055 C 
HETATM   29  C   UNL     1      -1.872   5.069 -34.927  1.00  0.00     0.011 C 
ENDBRANCH  24  28
BRANCH  25  30
HETATM   30  C   UNL     1      -0.881   7.149 -32.226  1.00  0.00     0.189 C 
BRANCH  30  31
HETATM   31  C   UNL     1      -0.228   6.620 -30.972  1.00  0.00    -0.038 A 
HETATM   32  C   UNL     1      -0.207   7.406 -29.809  1.00  0.00     0.009 A 
HETATM   33  C   UNL     1       0.347   6.912 -28.626  1.00  0.00     0.001 A 
HETATM   34  C   UNL     1       0.878   5.624 -28.588  1.00  0.00     0.000 A 
HETATM   35  C   UNL     1       0.849   4.827 -29.728  1.00  0.00     0.001 A 
HETATM   36  C   UNL     1       0.293   5.317 -30.911  1.00  0.00     0.009 A 
ENDBRANCH  30  31
ENDBRANCH  25  30
ENDBRANCH   1  23
TORSDOF 8
ENDMDL
