MODEL 1
REMARK VINA RESULT:      -8.8      0.000      0.000
REMARK  4 active torsions:
REMARK  status: ('A' for Active; 'I' for Inactive)
REMARK    1  A    between atoms: C_4  and  N_5 
REMARK    2  A    between atoms: N_5  and  C_6 
REMARK    3  A    between atoms: C_6  and  C_7 
REMARK    4  A    between atoms: N_17  and  N_19 
ROOT
HETATM    1  C   UNL     1      -7.702   0.813 -33.015  1.00  0.00     0.145 C 
HETATM    2  N   UNL     1      -7.279   0.879 -31.745  1.00  0.00    -0.307 N 
HETATM    3  H   UNL     1      -6.334   0.538 -31.576  1.00  0.00     0.182 HD
ENDROOT
BRANCH   1   4
HETATM    4  N   UNL     1      -6.761   0.290 -33.962  1.00  0.00    -0.339 N 
HETATM    5  H   UNL     1      -6.556   0.912 -34.736  1.00  0.00     0.167 HD
BRANCH   4   6
HETATM    6  C   UNL     1      -6.097  -0.949 -34.032  1.00  0.00     0.040 A 
HETATM    7  C   UNL     1      -6.712  -2.054 -34.645  1.00  0.00     0.036 A 
HETATM    8  C   UNL     1      -6.048  -3.280 -34.784  1.00  0.00    -0.060 A 
HETATM    9  C   UNL     1      -6.741  -4.461 -35.397  1.00  0.00     0.048 C 
HETATM   10  C   UNL     1      -4.753  -3.407 -34.280  1.00  0.00     0.007 A 
HETATM   11  C   UNL     1      -4.126  -2.321 -33.669  1.00  0.00     0.009 A 
HETATM   12  C   UNL     1      -4.781  -1.084 -33.550  1.00  0.00    -0.035 A 
HETATM   13  C   UNL     1      -4.053   0.059 -32.895  1.00  0.00     0.050 C 
ENDBRANCH   4   6
ENDBRANCH   1   4
BRANCH   1  14
HETATM   14  C   UNL     1      -9.063   1.192 -33.511  1.00  0.00     0.102 A 
HETATM   15  N   UNL     1     -10.078   0.334 -33.213  1.00  0.00    -0.245 NA
HETATM   16  C   UNL     1     -11.325   0.615 -33.639  1.00  0.00     0.068 A 
HETATM   17  C   UNL     1     -11.628   1.786 -34.360  1.00  0.00    -0.007 A 
HETATM   18  C   UNL     1     -12.358  -0.271 -33.363  1.00  0.00     0.032 A 
HETATM   19  C   UNL     1     -10.583   2.674 -34.632  1.00  0.00     0.016 A 
HETATM   20  C   UNL     1     -12.945   2.040 -34.780  1.00  0.00     0.014 A 
HETATM   21  C   UNL     1      -9.292   2.379 -34.203  1.00  0.00     0.036 A 
HETATM   22  C   UNL     1     -13.963   1.136 -34.489  1.00  0.00     0.001 A 
HETATM   23  C   UNL     1     -13.670  -0.023 -33.780  1.00  0.00     0.002 A 
ENDBRANCH   1  14
BRANCH   2  24
HETATM   24  N   UNL     1      -8.126   1.250 -30.720  1.00  0.00    -0.248 NA
HETATM   25  H   UNL     1      -8.032   0.619 -29.913  1.00  0.00     0.143 HD
HETATM   26  H   UNL     1      -9.094   1.288 -31.038  1.00  0.00     0.143 HD
ENDBRANCH   2  24
TORSDOF 4
ENDMDL
MODEL 2
REMARK VINA RESULT:      -8.7      4.537      7.486
REMARK  4 active torsions:
REMARK  status: ('A' for Active; 'I' for Inactive)
REMARK    1  A    between atoms: C_4  and  N_5 
REMARK    2  A    between atoms: N_5  and  C_6 
REMARK    3  A    between atoms: C_6  and  C_7 
REMARK    4  A    between atoms: N_17  and  N_19 
ROOT
HETATM    1  C   UNL     1      -3.904   2.975 -32.086  1.00  0.00     0.145 C 
HETATM    2  N   UNL     1      -4.057   3.413 -30.829  1.00  0.00    -0.307 N 
HETATM    3  H   UNL     1      -3.326   4.034 -30.486  1.00  0.00     0.182 HD
ENDROOT
BRANCH   1   4
HETATM    4  N   UNL     1      -2.744   3.454 -32.779  1.00  0.00    -0.339 N 
HETATM    5  H   UNL     1      -2.223   2.735 -33.269  1.00  0.00     0.167 HD
BRANCH   4   6
HETATM    6  C   UNL     1      -2.175   4.738 -32.871  1.00  0.00     0.040 A 
HETATM    7  C   UNL     1      -1.166   5.136 -31.979  1.00  0.00     0.036 A 
HETATM    8  C   UNL     1      -0.539   6.385 -32.090  1.00  0.00    -0.060 A 
HETATM    9  C   UNL     1       0.501   6.810 -31.096  1.00  0.00     0.048 C 
HETATM   10  C   UNL     1      -0.948   7.257 -33.099  1.00  0.00     0.007 A 
HETATM   11  C   UNL     1      -1.947   6.878 -33.996  1.00  0.00     0.009 A 
HETATM   12  C   UNL     1      -2.559   5.618 -33.901  1.00  0.00    -0.035 A 
HETATM   13  C   UNL     1      -3.623   5.254 -34.903  1.00  0.00     0.050 C 
ENDBRANCH   4   6
ENDBRANCH   1   4
BRANCH   1  14
HETATM   14  C   UNL     1      -4.803   2.013 -32.799  1.00  0.00     0.102 A 
HETATM   15  N   UNL     1      -4.400   0.712 -32.826  1.00  0.00    -0.245 NA
HETATM   16  C   UNL     1      -5.161  -0.201 -33.461  1.00  0.00     0.068 A 
HETATM   17  C   UNL     1      -6.383   0.134 -34.074  1.00  0.00    -0.007 A 
HETATM   18  C   UNL     1      -4.738  -1.522 -33.517  1.00  0.00     0.032 A 
HETATM   19  C   UNL     1      -6.802   1.466 -34.012  1.00  0.00     0.016 A 
HETATM   20  C   UNL     1      -7.147  -0.854 -34.721  1.00  0.00     0.014 A 
HETATM   21  C   UNL     1      -6.010   2.413 -33.367  1.00  0.00     0.036 A 
HETATM   22  C   UNL     1      -6.701  -2.173 -34.762  1.00  0.00     0.001 A 
HETATM   23  C   UNL     1      -5.494  -2.509 -34.160  1.00  0.00     0.002 A 
ENDBRANCH   1  14
BRANCH   2  24
HETATM   24  N   UNL     1      -5.065   2.936 -30.015  1.00  0.00    -0.248 NA
HETATM   25  H   UNL     1      -5.990   3.103 -30.431  1.00  0.00     0.143 HD
HETATM   26  H   UNL     1      -5.009   3.345 -29.083  1.00  0.00     0.143 HD
ENDBRANCH   2  24
TORSDOF 4
ENDMDL
MODEL 3
REMARK VINA RESULT:      -8.6      3.853      6.862
REMARK  4 active torsions:
REMARK  status: ('A' for Active; 'I' for Inactive)
REMARK    1  A    between atoms: C_4  and  N_5 
REMARK    2  A    between atoms: N_5  and  C_6 
REMARK    3  A    between atoms: C_6  and  C_7 
REMARK    4  A    between atoms: N_17  and  N_19 
ROOT
HETATM    1  C   UNL     1      -4.838   2.067 -30.920  1.00  0.00     0.145 C 
HETATM    2  N   UNL     1      -5.583   2.156 -29.810  1.00  0.00    -0.307 N 
HETATM    3  H   UNL     1      -5.543   3.050 -29.323  1.00  0.00     0.182 HD
ENDROOT
BRANCH   1   4
HETATM    4  N   UNL     1      -4.103   3.245 -31.278  1.00  0.00    -0.339 N 
HETATM    5  H   UNL     1      -3.589   3.667 -30.512  1.00  0.00     0.167 HD
BRANCH   4   6
HETATM    6  C   UNL     1      -3.995   3.945 -32.494  1.00  0.00     0.040 A 
HETATM    7  C   UNL     1      -2.734   4.268 -33.023  1.00  0.00     0.036 A 
HETATM    8  C   UNL     1      -2.600   4.907 -34.262  1.00  0.00    -0.060 A 
HETATM    9  C   UNL     1      -1.245   5.288 -34.784  1.00  0.00     0.048 C 
HETATM   10  C   UNL     1      -3.750   5.248 -34.974  1.00  0.00     0.007 A 
HETATM   11  C   UNL     1      -5.010   4.933 -34.467  1.00  0.00     0.009 A 
HETATM   12  C   UNL     1      -5.147   4.271 -33.235  1.00  0.00    -0.035 A 
HETATM   13  C   UNL     1      -6.531   3.943 -32.741  1.00  0.00     0.050 C 
ENDBRANCH   4   6
ENDBRANCH   1   4
BRANCH   1  14
HETATM   14  C   UNL     1      -4.678   0.850 -31.778  1.00  0.00     0.102 A 
HETATM   15  N   UNL     1      -5.810   0.370 -32.365  1.00  0.00    -0.245 NA
HETATM   16  C   UNL     1      -5.734  -0.728 -33.142  1.00  0.00     0.068 A 
HETATM   17  C   UNL     1      -4.517  -1.386 -33.399  1.00  0.00    -0.007 A 
HETATM   18  C   UNL     1      -6.890  -1.239 -33.719  1.00  0.00     0.032 A 
HETATM   19  C   UNL     1      -3.357  -0.865 -32.817  1.00  0.00     0.016 A 
HETATM   20  C   UNL     1      -4.484  -2.526 -34.221  1.00  0.00     0.014 A 
HETATM   21  C   UNL     1      -3.436   0.263 -32.004  1.00  0.00     0.036 A 
HETATM   22  C   UNL     1      -5.658  -3.017 -34.788  1.00  0.00     0.001 A 
HETATM   23  C   UNL     1      -6.864  -2.373 -34.536  1.00  0.00     0.002 A 
ENDBRANCH   1  14
BRANCH   2  24
HETATM   24  N   UNL     1      -6.243   1.060 -29.292  1.00  0.00    -0.248 NA
HETATM   25  H   UNL     1      -6.055   0.955 -28.286  1.00  0.00     0.143 HD
HETATM   26  H   UNL     1      -5.995   0.210 -29.797  1.00  0.00     0.143 HD
ENDBRANCH   2  24
TORSDOF 4
ENDMDL
MODEL 4
REMARK VINA RESULT:      -8.5      3.052      6.053
REMARK  4 active torsions:
REMARK  status: ('A' for Active; 'I' for Inactive)
REMARK    1  A    between atoms: C_4  and  N_5 
REMARK    2  A    between atoms: N_5  and  C_6 
REMARK    3  A    between atoms: C_6  and  C_7 
REMARK    4  A    between atoms: N_17  and  N_19 
ROOT
HETATM    1  C   UNL     1      -6.768   1.955 -30.973  1.00  0.00     0.145 C 
HETATM    2  N   UNL     1      -7.003   2.291 -29.697  1.00  0.00    -0.307 N 
HETATM    3  H   UNL     1      -7.486   1.589 -29.138  1.00  0.00     0.182 HD
ENDROOT
BRANCH   1   4
HETATM    4  N   UNL     1      -7.213   0.650 -31.369  1.00  0.00    -0.339 N 
HETATM    5  H   UNL     1      -7.840   0.203 -30.709  1.00  0.00     0.167 HD
BRANCH   4   6
HETATM    6  C   UNL     1      -6.906  -0.139 -32.493  1.00  0.00     0.040 A 
HETATM    7  C   UNL     1      -5.713  -0.881 -32.540  1.00  0.00     0.036 A 
HETATM    8  C   UNL     1      -5.415  -1.723 -33.619  1.00  0.00    -0.060 A 
HETATM    9  C   UNL     1      -4.113  -2.467 -33.672  1.00  0.00     0.048 C 
HETATM   10  C   UNL     1      -6.318  -1.807 -34.679  1.00  0.00     0.007 A 
HETATM   11  C   UNL     1      -7.508  -1.080 -34.650  1.00  0.00     0.009 A 
HETATM   12  C   UNL     1      -7.820  -0.253 -33.558  1.00  0.00    -0.035 A 
HETATM   13  C   UNL     1      -9.124   0.499 -33.571  1.00  0.00     0.050 C 
ENDBRANCH   4   6
ENDBRANCH   1   4
BRANCH   1  14
HETATM   14  C   UNL     1      -6.131   2.826 -32.010  1.00  0.00     0.102 A 
HETATM   15  N   UNL     1      -4.775   2.942 -31.955  1.00  0.00    -0.245 NA
HETATM   16  C   UNL     1      -4.142   3.720 -32.855  1.00  0.00     0.068 A 
HETATM   17  C   UNL     1      -4.830   4.397 -33.879  1.00  0.00    -0.007 A 
HETATM   18  C   UNL     1      -2.763   3.865 -32.784  1.00  0.00     0.032 A 
HETATM   19  C   UNL     1      -6.218   4.245 -33.945  1.00  0.00     0.016 A 
HETATM   20  C   UNL     1      -4.128   5.195 -34.800  1.00  0.00     0.014 A 
HETATM   21  C   UNL     1      -6.874   3.451 -33.008  1.00  0.00     0.036 A 
HETATM   22  C   UNL     1      -2.744   5.322 -34.708  1.00  0.00     0.001 A 
HETATM   23  C   UNL     1      -2.059   4.657 -33.697  1.00  0.00     0.002 A 
ENDBRANCH   1  14
BRANCH   2  24
HETATM   24  N   UNL     1      -6.732   3.558 -29.222  1.00  0.00    -0.248 NA
HETATM   25  H   UNL     1      -6.612   3.554 -28.200  1.00  0.00     0.143 HD
HETATM   26  H   UNL     1      -7.460   4.217 -29.497  1.00  0.00     0.143 HD
ENDBRANCH   2  24
TORSDOF 4
ENDMDL
MODEL 5
REMARK VINA RESULT:      -8.5      4.653      7.736
REMARK  4 active torsions:
REMARK  status: ('A' for Active; 'I' for Inactive)
REMARK    1  A    between atoms: C_4  and  N_5 
REMARK    2  A    between atoms: N_5  and  C_6 
REMARK    3  A    between atoms: C_6  and  C_7 
REMARK    4  A    between atoms: N_17  and  N_19 
ROOT
HETATM    1  C   UNL     1      -3.598   2.978 -31.944  1.00  0.00     0.145 C 
HETATM    2  N   UNL     1      -4.034   3.640 -30.863  1.00  0.00    -0.307 N 
HETATM    3  H   UNL     1      -3.532   4.497 -30.639  1.00  0.00     0.182 HD
ENDROOT
BRANCH   1   4
HETATM    4  N   UNL     1      -2.500   3.577 -32.645  1.00  0.00    -0.339 N 
HETATM    5  H   UNL     1      -1.975   2.934 -33.228  1.00  0.00     0.167 HD
BRANCH   4   6
HETATM    6  C   UNL     1      -1.994   4.890 -32.640  1.00  0.00     0.040 A 
HETATM    7  C   UNL     1      -1.079   5.299 -31.655  1.00  0.00     0.036 A 
HETATM    8  C   UNL     1      -0.513   6.580 -31.667  1.00  0.00    -0.060 A 
HETATM    9  C   UNL     1       0.424   7.012 -30.577  1.00  0.00     0.048 C 
HETATM   10  C   UNL     1      -0.887   7.475 -32.669  1.00  0.00     0.007 A 
HETATM   11  C   UNL     1      -1.793   7.087 -33.656  1.00  0.00     0.009 A 
HETATM   12  C   UNL     1      -2.344   5.795 -33.661  1.00  0.00    -0.035 A 
HETATM   13  C   UNL     1      -3.306   5.423 -34.758  1.00  0.00     0.050 C 
ENDBRANCH   4   6
ENDBRANCH   1   4
BRANCH   1  14
HETATM   14  C   UNL     1      -4.125   1.670 -32.448  1.00  0.00     0.102 A 
HETATM   15  N   UNL     1      -5.274   1.720 -33.179  1.00  0.00    -0.245 NA
HETATM   16  C   UNL     1      -5.803   0.576 -33.653  1.00  0.00     0.068 A 
HETATM   17  C   UNL     1      -5.195  -0.677 -33.448  1.00  0.00    -0.007 A 
HETATM   18  C   UNL     1      -6.990   0.618 -34.373  1.00  0.00     0.032 A 
HETATM   19  C   UNL     1      -4.000  -0.711 -32.723  1.00  0.00     0.016 A 
HETATM   20  C   UNL     1      -5.782  -1.845 -33.966  1.00  0.00     0.014 A 
HETATM   21  C   UNL     1      -3.458   0.469 -32.223  1.00  0.00     0.036 A 
HETATM   22  C   UNL     1      -6.972  -1.775 -34.686  1.00  0.00     0.001 A 
HETATM   23  C   UNL     1      -7.578  -0.540 -34.890  1.00  0.00     0.002 A 
ENDBRANCH   1  14
BRANCH   2  24
HETATM   24  N   UNL     1      -5.004   3.112 -30.035  1.00  0.00    -0.248 NA
HETATM   25  H   UNL     1      -5.165   3.717 -29.219  1.00  0.00     0.143 HD
HETATM   26  H   UNL     1      -4.761   2.167 -29.741  1.00  0.00     0.143 HD
ENDBRANCH   2  24
TORSDOF 4
ENDMDL
MODEL 6
REMARK VINA RESULT:      -8.5      3.939      7.102
REMARK  4 active torsions:
REMARK  status: ('A' for Active; 'I' for Inactive)
REMARK    1  A    between atoms: C_4  and  N_5 
REMARK    2  A    between atoms: N_5  and  C_6 
REMARK    3  A    between atoms: C_6  and  C_7 
REMARK    4  A    between atoms: N_17  and  N_19 
ROOT
HETATM    1  C   UNL     1      -4.353   2.540 -30.700  1.00  0.00     0.145 C 
HETATM    2  N   UNL     1      -5.286   2.904 -29.810  1.00  0.00    -0.307 N 
HETATM    3  H   UNL     1      -5.103   3.774 -29.311  1.00  0.00     0.182 HD
ENDROOT
BRANCH   1   4
HETATM    4  N   UNL     1      -3.239   3.431 -30.841  1.00  0.00    -0.339 N 
HETATM    5  H   UNL     1      -2.708   3.575 -29.989  1.00  0.00     0.167 HD
BRANCH   4   6
HETATM    6  C   UNL     1      -2.770   4.173 -31.941  1.00  0.00     0.040 A 
HETATM    7  C   UNL     1      -3.543   4.281 -33.110  1.00  0.00     0.036 A 
HETATM    8  C   UNL     1      -3.128   5.066 -34.193  1.00  0.00    -0.060 A 
HETATM    9  C   UNL     1      -3.944   5.128 -35.451  1.00  0.00     0.048 C 
HETATM   10  C   UNL     1      -1.907   5.736 -34.113  1.00  0.00     0.007 A 
HETATM   11  C   UNL     1      -1.127   5.642 -32.960  1.00  0.00     0.009 A 
HETATM   12  C   UNL     1      -1.552   4.875 -31.863  1.00  0.00    -0.035 A 
HETATM   13  C   UNL     1      -0.679   4.819 -30.638  1.00  0.00     0.050 C 
ENDBRANCH   4   6
ENDBRANCH   1   4
BRANCH   1  14
HETATM   14  C   UNL     1      -4.357   1.283 -31.514  1.00  0.00     0.102 A 
HETATM   15  N   UNL     1      -5.409   1.113 -32.362  1.00  0.00    -0.245 NA
HETATM   16  C   UNL     1      -5.475  -0.003 -33.115  1.00  0.00     0.068 A 
HETATM   17  C   UNL     1      -4.475  -0.992 -33.084  1.00  0.00    -0.007 A 
HETATM   18  C   UNL     1      -6.562  -0.194 -33.959  1.00  0.00     0.032 A 
HETATM   19  C   UNL     1      -3.384  -0.791 -32.233  1.00  0.00     0.016 A 
HETATM   20  C   UNL     1      -4.583  -2.138 -33.892  1.00  0.00     0.014 A 
HETATM   21  C   UNL     1      -3.321   0.355 -31.445  1.00  0.00     0.036 A 
HETATM   22  C   UNL     1      -5.682  -2.305 -34.731  1.00  0.00     0.001 A 
HETATM   23  C   UNL     1      -6.675  -1.332 -34.765  1.00  0.00     0.002 A 
ENDBRANCH   1  14
BRANCH   2  24
HETATM   24  N   UNL     1      -6.346   2.079 -29.493  1.00  0.00    -0.248 NA
HETATM   25  H   UNL     1      -6.979   2.529 -28.819  1.00  0.00     0.143 HD
HETATM   26  H   UNL     1      -6.019   1.181 -29.138  1.00  0.00     0.143 HD
ENDBRANCH   2  24
TORSDOF 4
ENDMDL
MODEL 7
REMARK VINA RESULT:      -8.4      1.331      2.524
REMARK  4 active torsions:
REMARK  status: ('A' for Active; 'I' for Inactive)
REMARK    1  A    between atoms: C_4  and  N_5 
REMARK    2  A    between atoms: N_5  and  C_6 
REMARK    3  A    between atoms: C_6  and  C_7 
REMARK    4  A    between atoms: N_17  and  N_19 
ROOT
HETATM    1  C   UNL     1      -7.437   1.784 -32.220  1.00  0.00     0.145 C 
HETATM    2  N   UNL     1      -7.110   2.380 -31.065  1.00  0.00    -0.307 N 
HETATM    3  H   UNL     1      -6.112   2.495 -30.895  1.00  0.00     0.182 HD
ENDROOT
BRANCH   1   4
HETATM    4  N   UNL     1      -6.340   1.408 -33.063  1.00  0.00    -0.339 N 
HETATM    5  H   UNL     1      -5.876   2.186 -33.519  1.00  0.00     0.167 HD
BRANCH   4   6
HETATM    6  C   UNL     1      -5.814   0.148 -33.404  1.00  0.00     0.040 A 
HETATM    7  C   UNL     1      -4.840  -0.462 -32.594  1.00  0.00     0.036 A 
HETATM    8  C   UNL     1      -4.348  -1.742 -32.877  1.00  0.00    -0.060 A 
HETATM    9  C   UNL     1      -3.273  -2.354 -32.028  1.00  0.00     0.048 C 
HETATM   10  C   UNL     1      -4.823  -2.414 -34.004  1.00  0.00     0.007 A 
HETATM   11  C   UNL     1      -5.790  -1.826 -34.818  1.00  0.00     0.009 A 
HETATM   12  C   UNL     1      -6.303  -0.552 -34.523  1.00  0.00    -0.035 A 
HETATM   13  C   UNL     1      -7.356   0.030 -35.428  1.00  0.00     0.050 C 
ENDBRANCH   4   6
ENDBRANCH   1   4
BRANCH   1  14
HETATM   14  C   UNL     1      -8.823   1.447 -32.676  1.00  0.00     0.102 A 
HETATM   15  N   UNL     1      -9.489   2.418 -33.360  1.00  0.00    -0.245 NA
HETATM   16  C   UNL     1     -10.744   2.180 -33.789  1.00  0.00     0.068 A 
HETATM   17  C   UNL     1     -11.387   0.945 -33.585  1.00  0.00    -0.007 A 
HETATM   18  C   UNL     1     -11.438   3.178 -34.461  1.00  0.00     0.032 A 
HETATM   19  C   UNL     1     -10.681  -0.055 -32.909  1.00  0.00     0.016 A 
HETATM   20  C   UNL     1     -12.696   0.739 -34.055  1.00  0.00     0.014 A 
HETATM   21  C   UNL     1      -9.389   0.194 -32.455  1.00  0.00     0.036 A 
HETATM   22  C   UNL     1     -13.370   1.756 -34.727  1.00  0.00     0.001 A 
HETATM   23  C   UNL     1     -12.740   2.979 -34.930  1.00  0.00     0.002 A 
ENDBRANCH   1  14
BRANCH   2  24
HETATM   24  N   UNL     1      -8.062   2.683 -30.113  1.00  0.00    -0.248 NA
HETATM   25  H   UNL     1      -7.835   2.249 -29.209  1.00  0.00     0.143 HD
HETATM   26  H   UNL     1      -8.993   2.405 -30.423  1.00  0.00     0.143 HD
ENDBRANCH   2  24
TORSDOF 4
ENDMDL
MODEL 8
REMARK VINA RESULT:      -8.2      8.900     12.086
REMARK  4 active torsions:
REMARK  status: ('A' for Active; 'I' for Inactive)
REMARK    1  A    between atoms: C_4  and  N_5 
REMARK    2  A    between atoms: N_5  and  C_6 
REMARK    3  A    between atoms: C_6  and  C_7 
REMARK    4  A    between atoms: N_17  and  N_19 
ROOT
HETATM    1  C   UNL     1       0.347   5.184 -29.464  1.00  0.00     0.145 C 
HETATM    2  N   UNL     1       1.434   4.403 -29.388  1.00  0.00    -0.307 N 
HETATM    3  H   UNL     1       1.797   4.243 -28.450  1.00  0.00     0.182 HD
ENDROOT
BRANCH   1   4
HETATM    4  N   UNL     1      -0.163   5.671 -28.215  1.00  0.00    -0.339 N 
HETATM    5  H   UNL     1      -0.765   5.017 -27.726  1.00  0.00     0.167 HD
BRANCH   4   6
HETATM    6  C   UNL     1      -0.011   6.908 -27.563  1.00  0.00     0.040 A 
HETATM    7  C   UNL     1       1.173   7.207 -26.867  1.00  0.00     0.036 A 
HETATM    8  C   UNL     1       1.374   8.455 -26.264  1.00  0.00    -0.060 A 
HETATM    9  C   UNL     1       2.625   8.735 -25.483  1.00  0.00     0.048 C 
HETATM   10  C   UNL     1       0.363   9.412 -26.340  1.00  0.00     0.007 A 
HETATM   11  C   UNL     1      -0.819   9.135 -27.028  1.00  0.00     0.009 A 
HETATM   12  C   UNL     1      -1.013   7.893 -27.654  1.00  0.00    -0.035 A 
HETATM   13  C   UNL     1      -2.301   7.651 -28.395  1.00  0.00     0.050 C 
ENDBRANCH   4   6
ENDBRANCH   1   4
BRANCH   1  14
HETATM   14  C   UNL     1      -0.340   5.618 -30.722  1.00  0.00     0.102 A 
HETATM   15  N   UNL     1      -1.168   4.706 -31.305  1.00  0.00    -0.245 NA
HETATM   16  C   UNL     1      -1.808   5.033 -32.444  1.00  0.00     0.068 A 
HETATM   17  C   UNL     1      -1.680   6.299 -33.044  1.00  0.00    -0.007 A 
HETATM   18  C   UNL     1      -2.630   4.097 -33.059  1.00  0.00     0.032 A 
HETATM   19  C   UNL     1      -0.852   7.237 -32.419  1.00  0.00     0.016 A 
HETATM   20  C   UNL     1      -2.371   6.598 -34.231  1.00  0.00     0.014 A 
HETATM   21  C   UNL     1      -0.180   6.897 -31.248  1.00  0.00     0.036 A 
HETATM   22  C   UNL     1      -3.191   5.641 -34.826  1.00  0.00     0.001 A 
HETATM   23  C   UNL     1      -3.320   4.387 -34.240  1.00  0.00     0.002 A 
ENDBRANCH   1  14
BRANCH   2  24
HETATM   24  N   UNL     1       2.092   3.969 -30.521  1.00  0.00    -0.248 NA
HETATM   25  H   UNL     1       2.480   4.760 -31.051  1.00  0.00     0.143 HD
HETATM   26  H   UNL     1       1.479   3.406 -31.109  1.00  0.00     0.143 HD
ENDBRANCH   2  24
TORSDOF 4
ENDMDL
MODEL 9
REMARK VINA RESULT:      -8.1      1.071      6.613
REMARK  4 active torsions:
REMARK  status: ('A' for Active; 'I' for Inactive)
REMARK    1  A    between atoms: C_4  and  N_5 
REMARK    2  A    between atoms: N_5  and  C_6 
REMARK    3  A    between atoms: C_6  and  C_7 
REMARK    4  A    between atoms: N_17  and  N_19 
ROOT
HETATM    1  C   UNL     1      -8.395   1.841 -32.739  1.00  0.00     0.145 C 
HETATM    2  N   UNL     1      -8.702   2.325 -31.527  1.00  0.00    -0.307 N 
HETATM    3  H   UNL     1      -9.456   3.010 -31.504  1.00  0.00     0.182 HD
ENDROOT
BRANCH   1   4
HETATM    4  N   UNL     1      -9.178   2.342 -33.831  1.00  0.00    -0.339 N 
HETATM    5  H   UNL     1      -8.673   2.952 -34.464  1.00  0.00     0.167 HD
BRANCH   4   6
HETATM    6  C   UNL     1     -10.535   2.170 -34.161  1.00  0.00     0.040 A 
HETATM    7  C   UNL     1     -11.230   1.021 -33.748  1.00  0.00     0.036 A 
HETATM    8  C   UNL     1     -12.597   0.856 -34.010  1.00  0.00    -0.060 A 
HETATM    9  C   UNL     1     -13.308  -0.401 -33.604  1.00  0.00     0.048 C 
HETATM   10  C   UNL     1     -13.273   1.850 -34.718  1.00  0.00     0.007 A 
HETATM   11  C   UNL     1     -12.600   2.999 -35.134  1.00  0.00     0.009 A 
HETATM   12  C   UNL     1     -11.236   3.177 -34.852  1.00  0.00    -0.035 A 
HETATM   13  C   UNL     1     -10.562   4.442 -35.313  1.00  0.00     0.050 C 
ENDBRANCH   4   6
ENDBRANCH   1   4
BRANCH   1  14
HETATM   14  C   UNL     1      -7.295   0.873 -33.048  1.00  0.00     0.102 A 
HETATM   15  N   UNL     1      -7.670  -0.314 -33.601  1.00  0.00    -0.245 NA
HETATM   16  C   UNL     1      -6.728  -1.231 -33.893  1.00  0.00     0.068 A 
HETATM   17  C   UNL     1      -5.357  -0.997 -33.678  1.00  0.00    -0.007 A 
HETATM   18  C   UNL     1      -7.108  -2.455 -34.429  1.00  0.00     0.032 A 
HETATM   19  C   UNL     1      -4.982   0.237 -33.140  1.00  0.00     0.016 A 
HETATM   20  C   UNL     1      -4.408  -1.982 -34.003  1.00  0.00     0.014 A 
HETATM   21  C   UNL     1      -5.955   1.182 -32.825  1.00  0.00     0.036 A 
HETATM   22  C   UNL     1      -4.815  -3.201 -34.541  1.00  0.00     0.001 A 
HETATM   23  C   UNL     1      -6.168  -3.439 -34.755  1.00  0.00     0.002 A 
ENDBRANCH   1  14
BRANCH   2  24
HETATM   24  N   UNL     1      -7.949   2.016 -30.413  1.00  0.00    -0.248 NA
HETATM   25  H   UNL     1      -7.428   1.139 -30.548  1.00  0.00     0.143 HD
HETATM   26  H   UNL     1      -8.531   1.965 -29.578  1.00  0.00     0.143 HD
ENDBRANCH   2  24
TORSDOF 4
ENDMDL
MODEL 10
REMARK VINA RESULT:      -8.1      4.106      7.138
REMARK  4 active torsions:
REMARK  status: ('A' for Active; 'I' for Inactive)
REMARK    1  A    between atoms: C_4  and  N_5 
REMARK    2  A    between atoms: N_5  and  C_6 
REMARK    3  A    between atoms: C_6  and  C_7 
REMARK    4  A    between atoms: N_17  and  N_19 
ROOT
HETATM    1  C   UNL     1      -5.639   2.082 -31.042  1.00  0.00     0.145 C 
HETATM    2  N   UNL     1      -5.855   1.988 -29.723  1.00  0.00    -0.307 N 
HETATM    3  H   UNL     1      -5.832   2.867 -29.209  1.00  0.00     0.182 HD
ENDROOT
BRANCH   1   4
HETATM    4  N   UNL     1      -5.425   3.406 -31.549  1.00  0.00    -0.339 N 
HETATM    5  H   UNL     1      -6.232   4.017 -31.478  1.00  0.00     0.167 HD
BRANCH   4   6
HETATM    6  C   UNL     1      -4.308   4.002 -32.163  1.00  0.00     0.040 A 
HETATM    7  C   UNL     1      -3.106   4.166 -31.453  1.00  0.00     0.036 A 
HETATM    8  C   UNL     1      -1.961   4.697 -32.061  1.00  0.00    -0.060 A 
HETATM    9  C   UNL     1      -0.704   4.910 -31.270  1.00  0.00     0.048 C 
HETATM   10  C   UNL     1      -2.028   5.091 -33.398  1.00  0.00     0.007 A 
HETATM   11  C   UNL     1      -3.211   4.933 -34.120  1.00  0.00     0.009 A 
HETATM   12  C   UNL     1      -4.353   4.379 -33.519  1.00  0.00    -0.035 A 
HETATM   13  C   UNL     1      -5.600   4.220 -34.348  1.00  0.00     0.050 C 
ENDBRANCH   4   6
ENDBRANCH   1   4
BRANCH   1  14
HETATM   14  C   UNL     1      -5.563   0.939 -32.006  1.00  0.00     0.102 A 
HETATM   15  N   UNL     1      -4.716  -0.076 -31.676  1.00  0.00    -0.245 NA
HETATM   16  C   UNL     1      -4.596  -1.130 -32.507  1.00  0.00     0.068 A 
HETATM   17  C   UNL     1      -5.339  -1.240 -33.696  1.00  0.00    -0.007 A 
HETATM   18  C   UNL     1      -3.712  -2.154 -32.189  1.00  0.00     0.032 A 
HETATM   19  C   UNL     1      -6.228  -0.207 -34.008  1.00  0.00     0.016 A 
HETATM   20  C   UNL     1      -5.185  -2.361 -34.531  1.00  0.00     0.014 A 
HETATM   21  C   UNL     1      -6.345   0.889 -33.157  1.00  0.00     0.036 A 
HETATM   22  C   UNL     1      -4.293  -3.374 -34.189  1.00  0.00     0.001 A 
HETATM   23  C   UNL     1      -3.553  -3.271 -33.015  1.00  0.00     0.002 A 
ENDBRANCH   1  14
BRANCH   2  24
HETATM   24  N   UNL     1      -5.956   0.764 -29.093  1.00  0.00    -0.248 NA
HETATM   25  H   UNL     1      -5.543   0.796 -28.151  1.00  0.00     0.143 HD
HETATM   26  H   UNL     1      -5.527   0.027 -29.651  1.00  0.00     0.143 HD
ENDBRANCH   2  24
TORSDOF 4
ENDMDL
