MODEL 1
REMARK VINA RESULT:      -9.5      0.000      0.000
REMARK  9 active torsions:
REMARK  status: ('A' for Active; 'I' for Inactive)
REMARK    1  A    between atoms: N_2  and  C_4 
REMARK    2  A    between atoms: N_2  and  C_35 
REMARK    3  A    between atoms: C_4  and  C_5 
REMARK    4  A    between atoms: N_8  and  C_9 
REMARK    5  A    between atoms: C_12  and  N_13 
REMARK       I    between atoms: N_13  and  C_14 
REMARK       I    between atoms: C_14  and  N_15 
REMARK    6  A    between atoms: N_15  and  C_16 
REMARK    7  A    between atoms: C_19  and  O_20 
REMARK    8  A    between atoms: O_20  and  C_21 
REMARK    9  A    between atoms: C_35  and  C_36 
ROOT
HETATM    1  C   UNL     1      -5.512   5.268 -32.453  1.00  0.00     0.161 C 
HETATM    2  C   UNL     1      -4.598   4.098 -32.106  1.00  0.00     0.179 C 
HETATM    3  C   UNL     1      -3.592   4.721 -31.152  1.00  0.00     0.177 C 
HETATM    4  C   UNL     1      -2.348   4.973 -31.999  1.00  0.00     0.141 C 
HETATM    5  C   UNL     1      -2.653   4.353 -33.359  1.00  0.00     0.196 C 
HETATM    6  O   UNL     1      -3.867   3.593 -33.232  1.00  0.00    -0.379 OA
HETATM    7  O   UNL     1      -4.132   5.965 -30.674  1.00  0.00    -0.379 OA
HETATM    8  C   UNL     1      -5.469   6.089 -31.176  1.00  0.00     0.198 C 
ENDROOT
BRANCH   4   9
HETATM    9  N   UNL     1      -1.113   4.535 -31.361  1.00  0.00    -0.334 N 
HETATM   10  C   UNL     1      -0.306   5.078 -30.416  1.00  0.00     0.321 C 
HETATM   11  N   UNL     1      -0.792   6.138 -29.702  1.00  0.00    -0.309 N 
HETATM   12  O   UNL     1       0.794   4.550 -30.279  1.00  0.00    -0.247 OA
HETATM   13  H   UNL     1      -1.782   6.309 -29.743  1.00  0.00     0.170 HD
HETATM   14  H   UNL     1      -0.607   3.795 -31.839  1.00  0.00     0.164 HD
BRANCH  11  15
HETATM   15  C   UNL     1      -0.102   6.803 -28.657  1.00  0.00     0.036 A 
HETATM   16  C   UNL     1       0.776   7.867 -28.871  1.00  0.00     0.032 A 
HETATM   17  C   UNL     1       1.478   8.437 -27.806  1.00  0.00     0.039 A 
HETATM   18  C   UNL     1       1.308   7.962 -26.505  1.00  0.00     0.076 A 
HETATM   19  C   UNL     1       0.414   6.915 -26.276  1.00  0.00     0.039 A 
HETATM   20  C   UNL     1      -0.300   6.352 -27.345  1.00  0.00     0.032 A 
BRANCH  18  21
HETATM   21  O   UNL     1       2.120   8.555 -25.565  1.00  0.00    -0.311 OA
BRANCH  21  22
HETATM   22  C   UNL     1       1.558   9.338 -24.593  1.00  0.00     0.076 A 
HETATM   23  C   UNL     1       2.280   9.527 -23.414  1.00  0.00     0.037 A 
HETATM   24  C   UNL     1       1.792  10.392 -22.433  1.00  0.00     0.003 A 
HETATM   25  C   UNL     1       0.593  11.074 -22.642  1.00  0.00     0.000 A 
HETATM   26  C   UNL     1      -0.116  10.899 -23.832  1.00  0.00     0.003 A 
HETATM   27  C   UNL     1       0.372  10.038 -24.815  1.00  0.00     0.037 A 
ENDBRANCH  21  22
ENDBRANCH  18  21
ENDBRANCH  11  15
ENDBRANCH   4   9
BRANCH   1  28
HETATM   28  N   UNL     1      -6.843   4.906 -32.871  1.00  0.00    -0.274 N 
HETATM   29  N   UNL     1      -7.308   5.224 -34.093  1.00  0.00     0.005 NA
HETATM   30  N   UNL     1      -8.511   4.689 -34.227  1.00  0.00    -0.161 NA
HETATM   31  C   UNL     1      -8.807   4.014 -33.073  1.00  0.00     0.095 A 
HETATM   32  C   UNL     1      -7.752   4.137 -32.196  1.00  0.00     0.139 A 
BRANCH  31  33
HETATM   33  C   UNL     1     -10.097   3.290 -32.950  1.00  0.00     0.296 C 
BRANCH  33  34
HETATM   34  N   UNL     1     -10.085   1.917 -33.593  1.00  0.00    -0.066 N 
HETATM   35  C   UNL     1     -11.432   1.544 -34.136  1.00  0.00     0.270 C 
HETATM   36  H   UNL     1      -9.440   2.000 -34.392  1.00  0.00     0.280 HD
BRANCH  34  37
HETATM   37  C   UNL     1      -9.487   0.865 -32.685  1.00  0.00     0.273 C 
BRANCH  37  38
HETATM   38  C   UNL     1      -8.225   0.242 -33.220  1.00  0.00    -0.033 A 
HETATM   39  C   UNL     1      -8.064   0.017 -34.596  1.00  0.00     0.009 A 
HETATM   40  C   UNL     1      -6.903  -0.591 -35.079  1.00  0.00     0.001 A 
HETATM   41  C   UNL     1      -5.894  -0.974 -34.199  1.00  0.00     0.000 A 
HETATM   42  C   UNL     1      -6.038  -0.747 -32.833  1.00  0.00     0.001 A 
HETATM   43  C   UNL     1      -7.197  -0.142 -32.343  1.00  0.00     0.009 A 
ENDBRANCH  37  38
ENDBRANCH  34  37
ENDBRANCH  33  34
ENDBRANCH  31  33
ENDBRANCH   1  28
TORSDOF 9
ENDMDL
MODEL 2
REMARK VINA RESULT:      -9.5      3.700     11.233
REMARK  9 active torsions:
REMARK  status: ('A' for Active; 'I' for Inactive)
REMARK    1  A    between atoms: N_2  and  C_4 
REMARK    2  A    between atoms: N_2  and  C_35 
REMARK    3  A    between atoms: C_4  and  C_5 
REMARK    4  A    between atoms: N_8  and  C_9 
REMARK    5  A    between atoms: C_12  and  N_13 
REMARK       I    between atoms: N_13  and  C_14 
REMARK       I    between atoms: C_14  and  N_15 
REMARK    6  A    between atoms: N_15  and  C_16 
REMARK    7  A    between atoms: C_19  and  O_20 
REMARK    8  A    between atoms: O_20  and  C_21 
REMARK    9  A    between atoms: C_35  and  C_36 
ROOT
HETATM    1  C   UNL     1      -5.635   7.211 -29.225  1.00  0.00     0.161 C 
HETATM    2  C   UNL     1      -5.819   5.997 -30.128  1.00  0.00     0.179 C 
HETATM    3  C   UNL     1      -7.222   6.190 -30.679  1.00  0.00     0.177 C 
HETATM    4  C   UNL     1      -8.104   5.258 -29.852  1.00  0.00     0.141 C 
HETATM    5  C   UNL     1      -7.142   4.474 -28.965  1.00  0.00     0.196 C 
HETATM    6  O   UNL     1      -5.805   4.752 -29.417  1.00  0.00    -0.379 OA
HETATM    7  O   UNL     1      -7.607   7.560 -30.467  1.00  0.00    -0.379 OA
HETATM    8  C   UNL     1      -6.475   8.259 -29.933  1.00  0.00     0.198 C 
ENDROOT
BRANCH   4   9
HETATM    9  N   UNL     1      -9.021   4.463 -30.657  1.00  0.00    -0.334 N 
HETATM   10  C   UNL     1      -8.846   3.487 -31.585  1.00  0.00     0.321 C 
HETATM   11  N   UNL     1      -7.608   2.917 -31.676  1.00  0.00    -0.309 N 
HETATM   12  O   UNL     1      -9.835   3.196 -32.251  1.00  0.00    -0.247 OA
HETATM   13  H   UNL     1      -6.968   3.074 -30.915  1.00  0.00     0.170 HD
HETATM   14  H   UNL     1      -9.967   4.824 -30.736  1.00  0.00     0.164 HD
BRANCH  11  15
HETATM   15  C   UNL     1      -7.257   1.865 -32.559  1.00  0.00     0.036 A 
HETATM   16  C   UNL     1      -7.010   2.054 -33.921  1.00  0.00     0.032 A 
HETATM   17  C   UNL     1      -6.735   0.966 -34.753  1.00  0.00     0.039 A 
HETATM   18  C   UNL     1      -6.691  -0.330 -34.239  1.00  0.00     0.076 A 
HETATM   19  C   UNL     1      -6.911  -0.528 -32.876  1.00  0.00     0.039 A 
HETATM   20  C   UNL     1      -7.175   0.566 -32.038  1.00  0.00     0.032 A 
BRANCH  18  21
HETATM   21  O   UNL     1      -6.493  -1.315 -35.180  1.00  0.00    -0.311 OA
BRANCH  21  22
HETATM   22  C   UNL     1      -5.911  -2.496 -34.802  1.00  0.00     0.076 A 
HETATM   23  C   UNL     1      -6.617  -3.675 -35.046  1.00  0.00     0.037 A 
HETATM   24  C   UNL     1      -6.025  -4.907 -34.765  1.00  0.00     0.003 A 
HETATM   25  C   UNL     1      -4.727  -4.956 -34.256  1.00  0.00     0.000 A 
HETATM   26  C   UNL     1      -4.017  -3.774 -34.033  1.00  0.00     0.003 A 
HETATM   27  C   UNL     1      -4.604  -2.542 -34.316  1.00  0.00     0.037 A 
ENDBRANCH  21  22
ENDBRANCH  18  21
ENDBRANCH  11  15
ENDBRANCH   4   9
BRANCH   1  28
HETATM   28  N   UNL     1      -4.267   7.610 -29.002  1.00  0.00    -0.274 N 
HETATM   29  N   UNL     1      -3.957   8.630 -28.181  1.00  0.00     0.005 NA
HETATM   30  N   UNL     1      -2.638   8.706 -28.102  1.00  0.00    -0.161 NA
HETATM   31  C   UNL     1      -2.107   7.712 -28.880  1.00  0.00     0.095 A 
HETATM   32  C   UNL     1      -3.132   6.998 -29.460  1.00  0.00     0.139 A 
BRANCH  31  33
HETATM   33  C   UNL     1      -0.634   7.544 -28.962  1.00  0.00     0.296 C 
BRANCH  33  34
HETATM   34  N   UNL     1      -0.208   6.280 -29.684  1.00  0.00    -0.066 N 
HETATM   35  C   UNL     1       0.736   5.459 -28.858  1.00  0.00     0.270 C 
HETATM   36  H   UNL     1      -1.073   5.734 -29.802  1.00  0.00     0.280 HD
BRANCH  34  37
HETATM   37  C   UNL     1       0.298   6.562 -31.081  1.00  0.00     0.273 C 
BRANCH  37  38
HETATM   38  C   UNL     1      -0.686   6.221 -32.168  1.00  0.00    -0.033 A 
HETATM   39  C   UNL     1      -1.262   4.943 -32.240  1.00  0.00     0.009 A 
HETATM   40  C   UNL     1      -2.148   4.627 -33.271  1.00  0.00     0.001 A 
HETATM   41  C   UNL     1      -2.473   5.580 -34.234  1.00  0.00     0.000 A 
HETATM   42  C   UNL     1      -1.916   6.855 -34.167  1.00  0.00     0.001 A 
HETATM   43  C   UNL     1      -1.027   7.176 -33.140  1.00  0.00     0.009 A 
ENDBRANCH  37  38
ENDBRANCH  34  37
ENDBRANCH  33  34
ENDBRANCH  31  33
ENDBRANCH   1  28
TORSDOF 9
ENDMDL
MODEL 3
REMARK VINA RESULT:      -9.2      2.435      3.758
REMARK  9 active torsions:
REMARK  status: ('A' for Active; 'I' for Inactive)
REMARK    1  A    between atoms: N_2  and  C_4 
REMARK    2  A    between atoms: N_2  and  C_35 
REMARK    3  A    between atoms: C_4  and  C_5 
REMARK    4  A    between atoms: N_8  and  C_9 
REMARK    5  A    between atoms: C_12  and  N_13 
REMARK       I    between atoms: N_13  and  C_14 
REMARK       I    between atoms: C_14  and  N_15 
REMARK    6  A    between atoms: N_15  and  C_16 
REMARK    7  A    between atoms: C_19  and  O_20 
REMARK    8  A    between atoms: O_20  and  C_21 
REMARK    9  A    between atoms: C_35  and  C_36 
ROOT
HETATM    1  C   UNL     1      -4.038   4.585 -31.384  1.00  0.00     0.161 C 
HETATM    2  C   UNL     1      -4.251   6.089 -31.504  1.00  0.00     0.179 C 
HETATM    3  C   UNL     1      -2.870   6.654 -31.217  1.00  0.00     0.177 C 
HETATM    4  C   UNL     1      -2.930   7.126 -29.766  1.00  0.00     0.141 C 
HETATM    5  C   UNL     1      -4.382   6.937 -29.340  1.00  0.00     0.196 C 
HETATM    6  O   UNL     1      -5.146   6.618 -30.516  1.00  0.00    -0.379 OA
HETATM    7  O   UNL     1      -1.908   5.594 -31.358  1.00  0.00    -0.379 OA
HETATM    8  C   UNL     1      -2.598   4.434 -31.842  1.00  0.00     0.198 C 
ENDROOT
BRANCH   4   9
HETATM    9  N   UNL     1      -2.374   8.458 -29.566  1.00  0.00    -0.334 N 
HETATM   10  C   UNL     1      -1.584   9.007 -28.609  1.00  0.00     0.321 C 
HETATM   11  N   UNL     1      -0.950   8.156 -27.747  1.00  0.00    -0.309 N 
HETATM   12  O   UNL     1      -1.501  10.232 -28.618  1.00  0.00    -0.247 OA
HETATM   13  H   UNL     1      -0.910   7.184 -28.002  1.00  0.00     0.170 HD
HETATM   14  H   UNL     1      -2.813   9.204 -30.096  1.00  0.00     0.164 HD
BRANCH  11  15
HETATM   15  C   UNL     1      -0.064   8.552 -26.714  1.00  0.00     0.036 A 
HETATM   16  C   UNL     1      -0.466   9.280 -25.592  1.00  0.00     0.032 A 
HETATM   17  C   UNL     1       0.468   9.699 -24.642  1.00  0.00     0.039 A 
HETATM   18  C   UNL     1       1.821   9.390 -24.788  1.00  0.00     0.076 A 
HETATM   19  C   UNL     1       2.230   8.641 -25.892  1.00  0.00     0.039 A 
HETATM   20  C   UNL     1       1.289   8.210 -26.839  1.00  0.00     0.032 A 
BRANCH  18  21
HETATM   21  O   UNL     1       2.642   9.933 -23.827  1.00  0.00    -0.311 OA
BRANCH  21  22
HETATM   22  C   UNL     1       3.663   9.179 -23.313  1.00  0.00     0.076 A 
HETATM   23  C   UNL     1       4.962   9.479 -23.724  1.00  0.00     0.037 A 
HETATM   24  C   UNL     1       6.043   8.801 -23.157  1.00  0.00     0.003 A 
HETATM   25  C   UNL     1       5.820   7.837 -22.173  1.00  0.00     0.000 A 
HETATM   26  C   UNL     1       4.519   7.555 -21.750  1.00  0.00     0.003 A 
HETATM   27  C   UNL     1       3.438   8.233 -22.312  1.00  0.00     0.037 A 
ENDBRANCH  21  22
ENDBRANCH  18  21
ENDBRANCH  11  15
ENDBRANCH   4   9
BRANCH   1  28
HETATM   28  N   UNL     1      -4.973   3.770 -32.119  1.00  0.00    -0.274 N 
HETATM   29  N   UNL     1      -5.109   3.884 -33.452  1.00  0.00     0.005 NA
HETATM   30  N   UNL     1      -5.962   2.957 -33.859  1.00  0.00    -0.161 NA
HETATM   31  C   UNL     1      -6.365   2.241 -32.764  1.00  0.00     0.095 A 
HETATM   32  C   UNL     1      -5.741   2.742 -31.643  1.00  0.00     0.139 A 
BRANCH  31  33
HETATM   33  C   UNL     1      -7.315   1.111 -32.927  1.00  0.00     0.296 C 
BRANCH  33  34
HETATM   34  N   UNL     1      -6.683  -0.249 -32.701  1.00  0.00    -0.066 N 
HETATM   35  C   UNL     1      -6.166  -0.396 -31.301  1.00  0.00     0.270 C 
HETATM   36  H   UNL     1      -7.449  -0.926 -32.822  1.00  0.00     0.280 HD
BRANCH  34  37
HETATM   37  C   UNL     1      -5.659  -0.588 -33.762  1.00  0.00     0.273 C 
BRANCH  37  38
HETATM   38  C   UNL     1      -5.620  -2.047 -34.130  1.00  0.00    -0.033 A 
HETATM   39  C   UNL     1      -6.782  -2.712 -34.551  1.00  0.00     0.009 A 
HETATM   40  C   UNL     1      -6.742  -4.074 -34.858  1.00  0.00     0.001 A 
HETATM   41  C   UNL     1      -5.547  -4.781 -34.754  1.00  0.00     0.000 A 
HETATM   42  C   UNL     1      -4.385  -4.130 -34.346  1.00  0.00     0.001 A 
HETATM   43  C   UNL     1      -4.419  -2.770 -34.036  1.00  0.00     0.009 A 
ENDBRANCH  37  38
ENDBRANCH  34  37
ENDBRANCH  33  34
ENDBRANCH  31  33
ENDBRANCH   1  28
TORSDOF 9
ENDMDL
MODEL 4
REMARK VINA RESULT:      -9.1      3.044     13.144
REMARK  9 active torsions:
REMARK  status: ('A' for Active; 'I' for Inactive)
REMARK    1  A    between atoms: N_2  and  C_4 
REMARK    2  A    between atoms: N_2  and  C_35 
REMARK    3  A    between atoms: C_4  and  C_5 
REMARK    4  A    between atoms: N_8  and  C_9 
REMARK    5  A    between atoms: C_12  and  N_13 
REMARK       I    between atoms: N_13  and  C_14 
REMARK       I    between atoms: C_14  and  N_15 
REMARK    6  A    between atoms: N_15  and  C_16 
REMARK    7  A    between atoms: C_19  and  O_20 
REMARK    8  A    between atoms: O_20  and  C_21 
REMARK    9  A    between atoms: C_35  and  C_36 
ROOT
HETATM    1  C   UNL     1       0.032   7.815 -28.584  1.00  0.00     0.161 C 
HETATM    2  C   UNL     1      -1.490   7.890 -28.549  1.00  0.00     0.179 C 
HETATM    3  C   UNL     1      -1.908   6.814 -29.537  1.00  0.00     0.177 C 
HETATM    4  C   UNL     1      -2.260   7.569 -30.817  1.00  0.00     0.141 C 
HETATM    5  C   UNL     1      -2.162   9.047 -30.454  1.00  0.00     0.196 C 
HETATM    6  O   UNL     1      -2.009   9.138 -29.027  1.00  0.00    -0.379 OA
HETATM    7  O   UNL     1      -0.784   5.945 -29.763  1.00  0.00    -0.379 OA
HETATM    8  C   UNL     1       0.267   6.343 -28.874  1.00  0.00     0.198 C 
ENDROOT
BRANCH   4   9
HETATM    9  N   UNL     1      -3.519   7.141 -31.414  1.00  0.00    -0.334 N 
HETATM   10  C   UNL     1      -4.058   5.926 -31.687  1.00  0.00     0.321 C 
HETATM   11  N   UNL     1      -3.475   4.831 -31.113  1.00  0.00    -0.309 N 
HETATM   12  O   UNL     1      -5.042   5.927 -32.421  1.00  0.00    -0.247 OA
HETATM   13  H   UNL     1      -2.840   4.992 -30.349  1.00  0.00     0.170 HD
HETATM   14  H   UNL     1      -4.020   7.848 -31.942  1.00  0.00     0.164 HD
BRANCH  11  15
HETATM   15  C   UNL     1      -3.926   3.495 -31.258  1.00  0.00     0.036 A 
HETATM   16  C   UNL     1      -4.895   2.917 -30.437  1.00  0.00     0.032 A 
HETATM   17  C   UNL     1      -5.248   1.573 -30.588  1.00  0.00     0.039 A 
HETATM   18  C   UNL     1      -4.646   0.785 -31.569  1.00  0.00     0.076 A 
HETATM   19  C   UNL     1      -3.694   1.359 -32.411  1.00  0.00     0.039 A 
HETATM   20  C   UNL     1      -3.350   2.712 -32.268  1.00  0.00     0.032 A 
BRANCH  18  21
HETATM   21  O   UNL     1      -5.023  -0.539 -31.554  1.00  0.00    -0.311 OA
BRANCH  21  22
HETATM   22  C   UNL     1      -5.268  -1.179 -32.740  1.00  0.00     0.076 A 
HETATM   23  C   UNL     1      -4.287  -2.043 -33.226  1.00  0.00     0.037 A 
HETATM   24  C   UNL     1      -4.530  -2.789 -34.380  1.00  0.00     0.003 A 
HETATM   25  C   UNL     1      -5.757  -2.678 -35.034  1.00  0.00     0.000 A 
HETATM   26  C   UNL     1      -6.745  -1.827 -34.533  1.00  0.00     0.003 A 
HETATM   27  C   UNL     1      -6.506  -1.084 -33.378  1.00  0.00     0.037 A 
ENDBRANCH  21  22
ENDBRANCH  18  21
ENDBRANCH  11  15
ENDBRANCH   4   9
BRANCH   1  28
HETATM   28  N   UNL     1       0.700   8.290 -27.398  1.00  0.00    -0.274 N 
HETATM   29  N   UNL     1       1.559   7.514 -26.715  1.00  0.00     0.005 NA
HETATM   30  N   UNL     1       2.081   8.239 -25.738  1.00  0.00    -0.161 NA
HETATM   31  C   UNL     1       1.548   9.498 -25.812  1.00  0.00     0.095 A 
HETATM   32  C   UNL     1       0.666   9.552 -26.868  1.00  0.00     0.139 A 
BRANCH  31  33
HETATM   33  C   UNL     1       1.974  10.540 -24.843  1.00  0.00     0.296 C 
BRANCH  33  34
HETATM   34  N   UNL     1       2.159  10.015 -23.432  1.00  0.00    -0.066 N 
HETATM   35  C   UNL     1       1.011  10.389 -22.544  1.00  0.00     0.270 C 
HETATM   36  H   UNL     1       2.160   8.989 -23.525  1.00  0.00     0.280 HD
BRANCH  34  37
HETATM   37  C   UNL     1       3.511  10.380 -22.860  1.00  0.00     0.273 C 
BRANCH  37  38
HETATM   38  C   UNL     1       4.430   9.204 -22.664  1.00  0.00    -0.033 A 
HETATM   39  C   UNL     1       4.020   8.091 -21.912  1.00  0.00     0.009 A 
HETATM   40  C   UNL     1       4.891   7.019 -21.708  1.00  0.00     0.001 A 
HETATM   41  C   UNL     1       6.172   7.043 -22.255  1.00  0.00     0.000 A 
HETATM   42  C   UNL     1       6.586   8.137 -23.011  1.00  0.00     0.001 A 
HETATM   43  C   UNL     1       5.721   9.213 -23.216  1.00  0.00     0.009 A 
ENDBRANCH  37  38
ENDBRANCH  34  37
ENDBRANCH  33  34
ENDBRANCH  31  33
ENDBRANCH   1  28
TORSDOF 9
ENDMDL
MODEL 5
REMARK VINA RESULT:      -9.0      2.960     13.560
REMARK  9 active torsions:
REMARK  status: ('A' for Active; 'I' for Inactive)
REMARK    1  A    between atoms: N_2  and  C_4 
REMARK    2  A    between atoms: N_2  and  C_35 
REMARK    3  A    between atoms: C_4  and  C_5 
REMARK    4  A    between atoms: N_8  and  C_9 
REMARK    5  A    between atoms: C_12  and  N_13 
REMARK       I    between atoms: N_13  and  C_14 
REMARK       I    between atoms: C_14  and  N_15 
REMARK    6  A    between atoms: N_15  and  C_16 
REMARK    7  A    between atoms: C_19  and  O_20 
REMARK    8  A    between atoms: O_20  and  C_21 
REMARK    9  A    between atoms: C_35  and  C_36 
ROOT
HETATM    1  C   UNL     1      -0.456   7.163 -27.958  1.00  0.00     0.161 C 
HETATM    2  C   UNL     1      -0.113   7.321 -29.435  1.00  0.00     0.179 C 
HETATM    3  C   UNL     1      -1.389   6.881 -30.132  1.00  0.00     0.177 C 
HETATM    4  C   UNL     1      -1.116   5.451 -30.592  1.00  0.00     0.141 C 
HETATM    5  C   UNL     1       0.351   5.194 -30.261  1.00  0.00     0.196 C 
HETATM    6  O   UNL     1       0.938   6.448 -29.871  1.00  0.00    -0.379 OA
HETATM    7  O   UNL     1      -2.460   6.901 -29.171  1.00  0.00    -0.379 OA
HETATM    8  C   UNL     1      -1.947   7.450 -27.951  1.00  0.00     0.198 C 
ENDROOT
BRANCH   4   9
HETATM    9  N   UNL     1      -1.512   5.201 -31.972  1.00  0.00    -0.334 N 
HETATM   10  C   UNL     1      -2.264   4.242 -32.569  1.00  0.00     0.321 C 
HETATM   11  N   UNL     1      -3.030   3.446 -31.763  1.00  0.00    -0.309 N 
HETATM   12  O   UNL     1      -2.197   4.191 -33.793  1.00  0.00    -0.247 OA
HETATM   13  H   UNL     1      -3.179   3.752 -30.817  1.00  0.00     0.170 HD
HETATM   14  H   UNL     1      -0.965   5.678 -32.682  1.00  0.00     0.164 HD
BRANCH  11  15
HETATM   15  C   UNL     1      -3.900   2.423 -32.217  1.00  0.00     0.036 A 
HETATM   16  C   UNL     1      -5.081   2.673 -32.919  1.00  0.00     0.032 A 
HETATM   17  C   UNL     1      -5.931   1.624 -33.279  1.00  0.00     0.039 A 
HETATM   18  C   UNL     1      -5.613   0.305 -32.953  1.00  0.00     0.076 A 
HETATM   19  C   UNL     1      -4.424   0.042 -32.273  1.00  0.00     0.039 A 
HETATM   20  C   UNL     1      -3.564   1.094 -31.923  1.00  0.00     0.032 A 
BRANCH  18  21
HETATM   21  O   UNL     1      -6.575  -0.619 -33.292  1.00  0.00    -0.311 OA
BRANCH  21  22
HETATM   22  C   UNL     1      -6.198  -1.784 -33.906  1.00  0.00     0.076 A 
HETATM   23  C   UNL     1      -4.841  -2.107 -33.908  1.00  0.00     0.037 A 
HETATM   24  C   UNL     1      -4.419  -3.328 -34.438  1.00  0.00     0.003 A 
HETATM   25  C   UNL     1      -5.358  -4.224 -34.950  1.00  0.00     0.000 A 
HETATM   26  C   UNL     1      -6.718  -3.906 -34.927  1.00  0.00     0.003 A 
HETATM   27  C   UNL     1      -7.141  -2.689 -34.394  1.00  0.00     0.037 A 
ENDBRANCH  21  22
ENDBRANCH  18  21
ENDBRANCH  11  15
ENDBRANCH   4   9
BRANCH   1  28
HETATM   28  N   UNL     1       0.304   7.994 -27.057  1.00  0.00    -0.274 N 
HETATM   29  N   UNL     1       1.519   7.623 -26.615  1.00  0.00     0.005 NA
HETATM   30  N   UNL     1       2.010   8.613 -25.886  1.00  0.00    -0.161 NA
HETATM   31  C   UNL     1       1.092   9.629 -25.875  1.00  0.00     0.095 A 
HETATM   32  C   UNL     1      -0.004   9.254 -26.622  1.00  0.00     0.139 A 
BRANCH  31  33
HETATM   33  C   UNL     1       1.389  10.888 -25.145  1.00  0.00     0.296 C 
BRANCH  33  34
HETATM   34  N   UNL     1       1.710  10.675 -23.679  1.00  0.00    -0.066 N 
HETATM   35  C   UNL     1       0.670  11.286 -22.788  1.00  0.00     0.270 C 
HETATM   36  H   UNL     1       1.677   9.655 -23.541  1.00  0.00     0.280 HD
BRANCH  34  37
HETATM   37  C   UNL     1       3.123  11.094 -23.335  1.00  0.00     0.273 C 
BRANCH  37  38
HETATM   38  C   UNL     1       3.846  10.125 -22.439  1.00  0.00    -0.033 A 
HETATM   39  C   UNL     1       4.908  10.554 -21.627  1.00  0.00     0.009 A 
HETATM   40  C   UNL     1       5.595   9.641 -20.825  1.00  0.00     0.001 A 
HETATM   41  C   UNL     1       5.227   8.298 -20.819  1.00  0.00     0.000 A 
HETATM   42  C   UNL     1       4.169   7.862 -21.613  1.00  0.00     0.001 A 
HETATM   43  C   UNL     1       3.481   8.769 -22.419  1.00  0.00     0.009 A 
ENDBRANCH  37  38
ENDBRANCH  34  37
ENDBRANCH  33  34
ENDBRANCH  31  33
ENDBRANCH   1  28
TORSDOF 9
ENDMDL
MODEL 6
REMARK VINA RESULT:      -9.0      3.118     11.815
REMARK  9 active torsions:
REMARK  status: ('A' for Active; 'I' for Inactive)
REMARK    1  A    between atoms: N_2  and  C_4 
REMARK    2  A    between atoms: N_2  and  C_35 
REMARK    3  A    between atoms: C_4  and  C_5 
REMARK    4  A    between atoms: N_8  and  C_9 
REMARK    5  A    between atoms: C_12  and  N_13 
REMARK       I    between atoms: N_13  and  C_14 
REMARK       I    between atoms: C_14  and  N_15 
REMARK    6  A    between atoms: N_15  and  C_16 
REMARK    7  A    between atoms: C_19  and  O_20 
REMARK    8  A    between atoms: O_20  and  C_21 
REMARK    9  A    between atoms: C_35  and  C_36 
ROOT
HETATM    1  C   UNL     1      -5.353   6.500 -29.011  1.00  0.00     0.161 C 
HETATM    2  C   UNL     1      -6.283   5.476 -28.370  1.00  0.00     0.179 C 
HETATM    3  C   UNL     1      -6.523   4.482 -29.494  1.00  0.00     0.177 C 
HETATM    4  C   UNL     1      -7.895   4.842 -30.055  1.00  0.00     0.141 C 
HETATM    5  C   UNL     1      -8.434   5.932 -29.134  1.00  0.00     0.196 C 
HETATM    6  O   UNL     1      -7.557   6.019 -27.998  1.00  0.00    -0.379 OA
HETATM    7  O   UNL     1      -5.507   4.676 -30.494  1.00  0.00    -0.379 OA
HETATM    8  C   UNL     1      -4.576   5.645 -29.997  1.00  0.00     0.198 C 
ENDROOT
BRANCH   4   9
HETATM    9  N   UNL     1      -8.763   3.688 -30.252  1.00  0.00    -0.334 N 
HETATM   10  C   UNL     1      -8.736   2.634 -31.107  1.00  0.00     0.321 C 
HETATM   11  N   UNL     1      -7.578   2.410 -31.799  1.00  0.00    -0.309 N 
HETATM   12  O   UNL     1      -9.762   1.963 -31.165  1.00  0.00    -0.247 OA
HETATM   13  H   UNL     1      -6.748   2.879 -31.477  1.00  0.00     0.170 HD
HETATM   14  H   UNL     1      -9.692   3.759 -29.849  1.00  0.00     0.164 HD
BRANCH  11  15
HETATM   15  C   UNL     1      -7.362   1.340 -32.703  1.00  0.00     0.036 A 
HETATM   16  C   UNL     1      -7.410  -0.005 -32.328  1.00  0.00     0.032 A 
HETATM   17  C   UNL     1      -7.121  -1.012 -33.252  1.00  0.00     0.039 A 
HETATM   18  C   UNL     1      -6.786  -0.697 -34.569  1.00  0.00     0.076 A 
HETATM   19  C   UNL     1      -6.758   0.642 -34.960  1.00  0.00     0.039 A 
HETATM   20  C   UNL     1      -7.062   1.653 -34.036  1.00  0.00     0.032 A 
BRANCH  18  21
HETATM   21  O   UNL     1      -6.442  -1.777 -35.349  1.00  0.00    -0.311 OA
BRANCH  21  22
HETATM   22  C   UNL     1      -5.593  -2.726 -34.844  1.00  0.00     0.076 A 
HETATM   23  C   UNL     1      -4.510  -2.288 -34.083  1.00  0.00     0.037 A 
HETATM   24  C   UNL     1      -3.671  -3.220 -33.470  1.00  0.00     0.003 A 
HETATM   25  C   UNL     1      -3.929  -4.584 -33.609  1.00  0.00     0.000 A 
HETATM   26  C   UNL     1      -5.028  -5.018 -34.354  1.00  0.00     0.003 A 
HETATM   27  C   UNL     1      -5.869  -4.088 -34.965  1.00  0.00     0.037 A 
ENDBRANCH  21  22
ENDBRANCH  18  21
ENDBRANCH  11  15
ENDBRANCH   4   9
BRANCH   1  28
HETATM   28  N   UNL     1      -4.520   7.235 -28.092  1.00  0.00    -0.274 N 
HETATM   29  N   UNL     1      -4.657   7.104 -26.760  1.00  0.00     0.005 NA
HETATM   30  N   UNL     1      -3.708   7.820 -26.177  1.00  0.00    -0.161 NA
HETATM   31  C   UNL     1      -2.955   8.407 -27.159  1.00  0.00     0.095 A 
HETATM   32  C   UNL     1      -3.455   8.042 -28.389  1.00  0.00     0.139 A 
BRANCH  31  33
HETATM   33  C   UNL     1      -1.795   9.258 -26.792  1.00  0.00     0.296 C 
BRANCH  33  34
HETATM   34  N   UNL     1      -0.488   8.495 -26.704  1.00  0.00    -0.066 N 
HETATM   35  C   UNL     1       0.263   8.821 -25.448  1.00  0.00     0.270 C 
HETATM   36  H   UNL     1      -0.758   7.503 -26.656  1.00  0.00     0.280 HD
BRANCH  34  37
HETATM   37  C   UNL     1       0.344   8.637 -27.960  1.00  0.00     0.273 C 
BRANCH  37  38
HETATM   38  C   UNL     1       0.393   7.392 -28.804  1.00  0.00    -0.033 A 
HETATM   39  C   UNL     1       0.765   6.160 -28.243  1.00  0.00     0.009 A 
HETATM   40  C   UNL     1       0.840   5.017 -29.042  1.00  0.00     0.001 A 
HETATM   41  C   UNL     1       0.541   5.090 -30.400  1.00  0.00     0.000 A 
HETATM   42  C   UNL     1       0.161   6.305 -30.966  1.00  0.00     0.001 A 
HETATM   43  C   UNL     1       0.087   7.451 -30.173  1.00  0.00     0.009 A 
ENDBRANCH  37  38
ENDBRANCH  34  37
ENDBRANCH  33  34
ENDBRANCH  31  33
ENDBRANCH   1  28
TORSDOF 9
ENDMDL
MODEL 7
REMARK VINA RESULT:      -8.9      2.783     11.776
REMARK  9 active torsions:
REMARK  status: ('A' for Active; 'I' for Inactive)
REMARK    1  A    between atoms: N_2  and  C_4 
REMARK    2  A    between atoms: N_2  and  C_35 
REMARK    3  A    between atoms: C_4  and  C_5 
REMARK    4  A    between atoms: N_8  and  C_9 
REMARK    5  A    between atoms: C_12  and  N_13 
REMARK       I    between atoms: N_13  and  C_14 
REMARK       I    between atoms: C_14  and  N_15 
REMARK    6  A    between atoms: N_15  and  C_16 
REMARK    7  A    between atoms: C_19  and  O_20 
REMARK    8  A    between atoms: O_20  and  C_21 
REMARK    9  A    between atoms: C_35  and  C_36 
ROOT
HETATM    1  C   UNL     1      -4.148   7.267 -31.146  1.00  0.00     0.161 C 
HETATM    2  C   UNL     1      -5.529   7.009 -30.554  1.00  0.00     0.179 C 
HETATM    3  C   UNL     1      -5.838   5.593 -31.011  1.00  0.00     0.177 C 
HETATM    4  C   UNL     1      -6.777   5.759 -32.204  1.00  0.00     0.141 C 
HETATM    5  C   UNL     1      -7.071   7.253 -32.281  1.00  0.00     0.196 C 
HETATM    6  O   UNL     1      -6.547   7.865 -31.090  1.00  0.00    -0.379 OA
HETATM    7  O   UNL     1      -4.608   4.973 -31.426  1.00  0.00    -0.379 OA
HETATM    8  C   UNL     1      -3.536   5.877 -31.131  1.00  0.00     0.198 C 
ENDROOT
BRANCH   4   9
HETATM    9  N   UNL     1      -7.940   4.882 -32.152  1.00  0.00    -0.334 N 
HETATM   10  C   UNL     1      -8.185   3.627 -32.608  1.00  0.00     0.321 C 
HETATM   11  N   UNL     1      -7.113   2.877 -33.004  1.00  0.00    -0.309 N 
HETATM   12  O   UNL     1      -9.361   3.275 -32.607  1.00  0.00    -0.247 OA
HETATM   13  H   UNL     1      -6.199   3.192 -32.725  1.00  0.00     0.170 HD
HETATM   14  H   UNL     1      -8.825   5.333 -31.942  1.00  0.00     0.164 HD
BRANCH  11  15
HETATM   15  C   UNL     1      -7.180   1.541 -33.471  1.00  0.00     0.036 A 
HETATM   16  C   UNL     1      -7.251   0.433 -32.625  1.00  0.00     0.032 A 
HETATM   17  C   UNL     1      -7.246  -0.864 -33.146  1.00  0.00     0.039 A 
HETATM   18  C   UNL     1      -7.180  -1.078 -34.523  1.00  0.00     0.076 A 
HETATM   19  C   UNL     1      -7.134   0.023 -35.379  1.00  0.00     0.039 A 
HETATM   20  C   UNL     1      -7.152   1.325 -34.856  1.00  0.00     0.032 A 
BRANCH  18  21
HETATM   21  O   UNL     1      -7.098  -2.399 -34.897  1.00  0.00    -0.311 OA
BRANCH  21  22
HETATM   22  C   UNL     1      -6.012  -3.139 -34.510  1.00  0.00     0.076 A 
HETATM   23  C   UNL     1      -6.029  -4.507 -34.782  1.00  0.00     0.037 A 
HETATM   24  C   UNL     1      -4.907  -5.286 -34.492  1.00  0.00     0.003 A 
HETATM   25  C   UNL     1      -3.770  -4.690 -33.945  1.00  0.00     0.000 A 
HETATM   26  C   UNL     1      -3.750  -3.316 -33.694  1.00  0.00     0.003 A 
HETATM   27  C   UNL     1      -4.868  -2.536 -33.986  1.00  0.00     0.037 A 
ENDBRANCH  21  22
ENDBRANCH  18  21
ENDBRANCH  11  15
ENDBRANCH   4   9
BRANCH   1  28
HETATM   28  N   UNL     1      -3.360   8.260 -30.459  1.00  0.00    -0.274 N 
HETATM   29  N   UNL     1      -3.371   9.551 -30.837  1.00  0.00     0.005 NA
HETATM   30  N   UNL     1      -2.634  10.237 -29.976  1.00  0.00    -0.161 NA
HETATM   31  C   UNL     1      -2.158   9.364 -29.035  1.00  0.00     0.095 A 
HETATM   32  C   UNL     1      -2.614   8.097 -29.323  1.00  0.00     0.139 A 
BRANCH  31  33
HETATM   33  C   UNL     1      -1.312   9.866 -27.922  1.00  0.00     0.296 C 
BRANCH  33  34
HETATM   34  N   UNL     1      -0.555   8.770 -27.197  1.00  0.00    -0.066 N 
HETATM   35  C   UNL     1      -0.447   9.048 -25.727  1.00  0.00     0.270 C 
HETATM   36  H   UNL     1      -1.129   7.924 -27.313  1.00  0.00     0.280 HD
BRANCH  34  37
HETATM   37  C   UNL     1       0.774   8.462 -27.852  1.00  0.00     0.273 C 
BRANCH  37  38
HETATM   38  C   UNL     1       0.716   7.337 -28.850  1.00  0.00    -0.033 A 
HETATM   39  C   UNL     1       0.634   7.602 -30.226  1.00  0.00     0.009 A 
HETATM   40  C   UNL     1       0.548   6.551 -31.142  1.00  0.00     0.001 A 
HETATM   41  C   UNL     1       0.549   5.231 -30.696  1.00  0.00     0.000 A 
HETATM   42  C   UNL     1       0.641   4.956 -29.334  1.00  0.00     0.001 A 
HETATM   43  C   UNL     1       0.724   6.002 -28.414  1.00  0.00     0.009 A 
ENDBRANCH  37  38
ENDBRANCH  34  37
ENDBRANCH  33  34
ENDBRANCH  31  33
ENDBRANCH   1  28
TORSDOF 9
ENDMDL
MODEL 8
REMARK VINA RESULT:      -8.9      3.551     12.270
REMARK  9 active torsions:
REMARK  status: ('A' for Active; 'I' for Inactive)
REMARK    1  A    between atoms: N_2  and  C_4 
REMARK    2  A    between atoms: N_2  and  C_35 
REMARK    3  A    between atoms: C_4  and  C_5 
REMARK    4  A    between atoms: N_8  and  C_9 
REMARK    5  A    between atoms: C_12  and  N_13 
REMARK       I    between atoms: N_13  and  C_14 
REMARK       I    between atoms: C_14  and  N_15 
REMARK    6  A    between atoms: N_15  and  C_16 
REMARK    7  A    between atoms: C_19  and  O_20 
REMARK    8  A    between atoms: O_20  and  C_21 
REMARK    9  A    between atoms: C_35  and  C_36 
ROOT
HETATM    1  C   UNL     1      -6.191   6.914 -28.538  1.00  0.00     0.161 C 
HETATM    2  C   UNL     1      -7.417   6.073 -28.204  1.00  0.00     0.179 C 
HETATM    3  C   UNL     1      -7.426   5.028 -29.307  1.00  0.00     0.177 C 
HETATM    4  C   UNL     1      -8.476   5.512 -30.303  1.00  0.00     0.141 C 
HETATM    5  C   UNL     1      -9.117   6.734 -29.652  1.00  0.00     0.196 C 
HETATM    6  O   UNL     1      -8.649   6.801 -28.293  1.00  0.00    -0.379 OA
HETATM    7  O   UNL     1      -6.125   5.008 -29.922  1.00  0.00    -0.379 OA
HETATM    8  C   UNL     1      -5.273   5.890 -29.180  1.00  0.00     0.198 C 
ENDROOT
BRANCH   4   9
HETATM    9  N   UNL     1      -9.393   4.465 -30.734  1.00  0.00    -0.334 N 
HETATM   10  C   UNL     1      -9.261   3.380 -31.539  1.00  0.00     0.321 C 
HETATM   11  N   UNL     1      -7.994   2.989 -31.869  1.00  0.00    -0.309 N 
HETATM   12  O   UNL     1     -10.307   2.837 -31.885  1.00  0.00    -0.247 OA
HETATM   13  H   UNL     1      -7.236   3.365 -31.326  1.00  0.00     0.170 HD
HETATM   14  H   UNL     1     -10.381   4.666 -30.613  1.00  0.00     0.164 HD
BRANCH  11  15
HETATM   15  C   UNL     1      -7.671   1.863 -32.667  1.00  0.00     0.036 A 
HETATM   16  C   UNL     1      -7.066   1.958 -33.923  1.00  0.00     0.032 A 
HETATM   17  C   UNL     1      -6.834   0.813 -34.690  1.00  0.00     0.039 A 
HETATM   18  C   UNL     1      -7.193  -0.448 -34.215  1.00  0.00     0.076 A 
HETATM   19  C   UNL     1      -7.774  -0.557 -32.952  1.00  0.00     0.039 A 
HETATM   20  C   UNL     1      -7.995   0.591 -32.175  1.00  0.00     0.032 A 
BRANCH  18  21
HETATM   21  O   UNL     1      -6.986  -1.478 -35.104  1.00  0.00    -0.311 OA
BRANCH  21  22
HETATM   22  C   UNL     1      -6.176  -2.523 -34.743  1.00  0.00     0.076 A 
HETATM   23  C   UNL     1      -6.598  -3.812 -35.069  1.00  0.00     0.037 A 
HETATM   24  C   UNL     1      -5.765  -4.901 -34.807  1.00  0.00     0.003 A 
HETATM   25  C   UNL     1      -4.510  -4.693 -34.234  1.00  0.00     0.000 A 
HETATM   26  C   UNL     1      -4.083  -3.399 -33.929  1.00  0.00     0.003 A 
HETATM   27  C   UNL     1      -4.912  -2.309 -34.194  1.00  0.00     0.037 A 
ENDBRANCH  21  22
ENDBRANCH  18  21
ENDBRANCH  11  15
ENDBRANCH   4   9
BRANCH   1  28
HETATM   28  N   UNL     1      -5.601   7.611 -27.422  1.00  0.00    -0.274 N 
HETATM   29  N   UNL     1      -6.284   8.543 -26.733  1.00  0.00     0.005 NA
HETATM   30  N   UNL     1      -5.530   8.939 -25.720  1.00  0.00    -0.161 NA
HETATM   31  C   UNL     1      -4.354   8.239 -25.766  1.00  0.00     0.095 A 
HETATM   32  C   UNL     1      -4.381   7.382 -26.844  1.00  0.00     0.139 A 
BRANCH  31  33
HETATM   33  C   UNL     1      -3.317   8.466 -24.727  1.00  0.00     0.296 C 
BRANCH  33  34
HETATM   34  N   UNL     1      -2.376   9.610 -25.051  1.00  0.00    -0.066 N 
HETATM   35  C   UNL     1      -2.733  10.855 -24.295  1.00  0.00     0.270 C 
HETATM   36  H   UNL     1      -1.451   9.299 -24.720  1.00  0.00     0.280 HD
BRANCH  34  37
HETATM   37  C   UNL     1      -2.231   9.827 -26.541  1.00  0.00     0.273 C 
BRANCH  37  38
HETATM   38  C   UNL     1      -0.958   9.270 -27.119  1.00  0.00    -0.033 A 
HETATM   39  C   UNL     1      -0.993   8.375 -28.201  1.00  0.00     0.009 A 
HETATM   40  C   UNL     1       0.192   7.838 -28.709  1.00  0.00     0.001 A 
HETATM   41  C   UNL     1       1.418   8.190 -28.149  1.00  0.00     0.000 A 
HETATM   42  C   UNL     1       1.466   9.084 -27.083  1.00  0.00     0.001 A 
HETATM   43  C   UNL     1       0.285   9.623 -26.569  1.00  0.00     0.009 A 
ENDBRANCH  37  38
ENDBRANCH  34  37
ENDBRANCH  33  34
ENDBRANCH  31  33
ENDBRANCH   1  28
TORSDOF 9
ENDMDL
MODEL 9
REMARK VINA RESULT:      -8.9      3.692     11.417
REMARK  9 active torsions:
REMARK  status: ('A' for Active; 'I' for Inactive)
REMARK    1  A    between atoms: N_2  and  C_4 
REMARK    2  A    between atoms: N_2  and  C_35 
REMARK    3  A    between atoms: C_4  and  C_5 
REMARK    4  A    between atoms: N_8  and  C_9 
REMARK    5  A    between atoms: C_12  and  N_13 
REMARK       I    between atoms: N_13  and  C_14 
REMARK       I    between atoms: C_14  and  N_15 
REMARK    6  A    between atoms: N_15  and  C_16 
REMARK    7  A    between atoms: C_19  and  O_20 
REMARK    8  A    between atoms: O_20  and  C_21 
REMARK    9  A    between atoms: C_35  and  C_36 
ROOT
HETATM    1  C   UNL     1      -6.910   6.745 -29.401  1.00  0.00     0.161 C 
HETATM    2  C   UNL     1      -6.847   5.558 -30.355  1.00  0.00     0.179 C 
HETATM    3  C   UNL     1      -7.717   6.007 -31.517  1.00  0.00     0.177 C 
HETATM    4  C   UNL     1      -9.055   5.304 -31.305  1.00  0.00     0.141 C 
HETATM    5  C   UNL     1      -8.840   4.379 -30.112  1.00  0.00     0.196 C 
HETATM    6  O   UNL     1      -7.433   4.364 -29.816  1.00  0.00    -0.379 OA
HETATM    7  O   UNL     1      -7.882   7.433 -31.434  1.00  0.00    -0.379 OA
HETATM    8  C   UNL     1      -7.061   7.911 -30.361  1.00  0.00     0.198 C 
ENDROOT
BRANCH   4   9
HETATM    9  N   UNL     1      -9.579   4.678 -32.511  1.00  0.00    -0.334 N 
HETATM   10  C   UNL     1      -9.204   3.597 -33.241  1.00  0.00     0.321 C 
HETATM   11  N   UNL     1      -8.308   2.733 -32.677  1.00  0.00    -0.309 N 
HETATM   12  O   UNL     1      -9.726   3.488 -34.347  1.00  0.00    -0.247 OA
HETATM   13  H   UNL     1      -8.153   2.808 -31.686  1.00  0.00     0.170 HD
HETATM   14  H   UNL     1     -10.205   5.250 -33.070  1.00  0.00     0.164 HD
BRANCH  11  15
HETATM   15  C   UNL     1      -7.835   1.540 -33.279  1.00  0.00     0.036 A 
HETATM   16  C   UNL     1      -6.977   1.522 -34.381  1.00  0.00     0.032 A 
HETATM   17  C   UNL     1      -6.600   0.312 -34.971  1.00  0.00     0.039 A 
HETATM   18  C   UNL     1      -7.066  -0.902 -34.465  1.00  0.00     0.076 A 
HETATM   19  C   UNL     1      -7.903  -0.897 -33.350  1.00  0.00     0.039 A 
HETATM   20  C   UNL     1      -8.270   0.317 -32.750  1.00  0.00     0.032 A 
BRANCH  18  21
HETATM   21  O   UNL     1      -6.687  -2.009 -35.190  1.00  0.00    -0.311 OA
BRANCH  21  22
HETATM   22  C   UNL     1      -5.704  -2.828 -34.698  1.00  0.00     0.076 A 
HETATM   23  C   UNL     1      -4.727  -2.253 -33.885  1.00  0.00     0.037 A 
HETATM   24  C   UNL     1      -3.761  -3.062 -33.285  1.00  0.00     0.003 A 
HETATM   25  C   UNL     1      -3.785  -4.442 -33.489  1.00  0.00     0.000 A 
HETATM   26  C   UNL     1      -4.778  -5.016 -34.286  1.00  0.00     0.003 A 
HETATM   27  C   UNL     1      -5.747  -4.210 -34.884  1.00  0.00     0.037 A 
ENDBRANCH  21  22
ENDBRANCH  18  21
ENDBRANCH  11  15
ENDBRANCH   4   9
BRANCH   1  28
HETATM   28  N   UNL     1      -5.791   6.870 -28.500  1.00  0.00    -0.274 N 
HETATM   29  N   UNL     1      -5.730   6.171 -27.352  1.00  0.00     0.005 NA
HETATM   30  N   UNL     1      -4.561   6.417 -26.783  1.00  0.00    -0.161 NA
HETATM   31  C   UNL     1      -3.868   7.279 -27.590  1.00  0.00     0.095 A 
HETATM   32  C   UNL     1      -4.636   7.578 -28.694  1.00  0.00     0.139 A 
BRANCH  31  33
HETATM   33  C   UNL     1      -2.501   7.714 -27.208  1.00  0.00     0.296 C 
BRANCH  33  34
HETATM   34  N   UNL     1      -1.415   6.752 -27.647  1.00  0.00    -0.066 N 
HETATM   35  C   UNL     1      -0.739   6.103 -26.476  1.00  0.00     0.270 C 
HETATM   36  H   UNL     1      -1.905   6.013 -28.171  1.00  0.00     0.280 HD
BRANCH  34  37
HETATM   37  C   UNL     1      -0.451   7.385 -28.626  1.00  0.00     0.273 C 
BRANCH  37  38
HETATM   38  C   UNL     1      -0.672   6.969 -30.056  1.00  0.00    -0.033 A 
HETATM   39  C   UNL     1      -0.235   5.717 -30.515  1.00  0.00     0.009 A 
HETATM   40  C   UNL     1      -0.416   5.354 -31.851  1.00  0.00     0.001 A 
HETATM   41  C   UNL     1      -1.036   6.230 -32.738  1.00  0.00     0.000 A 
HETATM   42  C   UNL     1      -1.483   7.472 -32.292  1.00  0.00     0.001 A 
HETATM   43  C   UNL     1      -1.304   7.841 -30.958  1.00  0.00     0.009 A 
ENDBRANCH  37  38
ENDBRANCH  34  37
ENDBRANCH  33  34
ENDBRANCH  31  33
ENDBRANCH   1  28
TORSDOF 9
ENDMDL
MODEL 10
REMARK VINA RESULT:      -8.7      3.740      6.807
REMARK  9 active torsions:
REMARK  status: ('A' for Active; 'I' for Inactive)
REMARK    1  A    between atoms: N_2  and  C_4 
REMARK    2  A    between atoms: N_2  and  C_35 
REMARK    3  A    between atoms: C_4  and  C_5 
REMARK    4  A    between atoms: N_8  and  C_9 
REMARK    5  A    between atoms: C_12  and  N_13 
REMARK       I    between atoms: N_13  and  C_14 
REMARK       I    between atoms: C_14  and  N_15 
REMARK    6  A    between atoms: N_15  and  C_16 
REMARK    7  A    between atoms: C_19  and  O_20 
REMARK    8  A    between atoms: O_20  and  C_21 
REMARK    9  A    between atoms: C_35  and  C_36 
ROOT
HETATM    1  C   UNL     1      -0.625   6.628 -28.901  1.00  0.00     0.161 C 
HETATM    2  C   UNL     1      -0.119   8.057 -29.054  1.00  0.00     0.179 C 
HETATM    3  C   UNL     1       0.796   8.228 -27.852  1.00  0.00     0.177 C 
HETATM    4  C   UNL     1      -0.029   9.011 -26.835  1.00  0.00     0.141 C 
HETATM    5  C   UNL     1      -1.322   9.374 -27.557  1.00  0.00     0.196 C 
HETATM    6  O   UNL     1      -1.156   9.043 -28.947  1.00  0.00    -0.379 OA
HETATM    7  O   UNL     1       1.115   6.922 -27.338  1.00  0.00    -0.379 OA
HETATM    8  C   UNL     1       0.555   5.948 -28.228  1.00  0.00     0.198 C 
ENDROOT
BRANCH   4   9
HETATM    9  N   UNL     1       0.697  10.121 -26.232  1.00  0.00    -0.334 N 
HETATM   10  C   UNL     1       1.646  10.202 -25.265  1.00  0.00     0.321 C 
HETATM   11  N   UNL     1       2.267   9.044 -24.890  1.00  0.00    -0.309 N 
HETATM   12  O   UNL     1       1.871  11.326 -24.825  1.00  0.00    -0.247 OA
HETATM   13  H   UNL     1       2.165   8.246 -25.495  1.00  0.00     0.170 HD
HETATM   14  H   UNL     1       0.293  11.042 -26.372  1.00  0.00     0.164 HD
BRANCH  11  15
HETATM   15  C   UNL     1       3.302   8.947 -23.926  1.00  0.00     0.036 A 
HETATM   16  C   UNL     1       4.613   9.367 -24.161  1.00  0.00     0.032 A 
HETATM   17  C   UNL     1       5.604   9.183 -23.193  1.00  0.00     0.039 A 
HETATM   18  C   UNL     1       5.302   8.584 -21.969  1.00  0.00     0.076 A 
HETATM   19  C   UNL     1       3.991   8.183 -21.715  1.00  0.00     0.039 A 
HETATM   20  C   UNL     1       2.993   8.381 -22.682  1.00  0.00     0.032 A 
BRANCH  18  21
HETATM   21  O   UNL     1       6.385   8.388 -21.143  1.00  0.00    -0.311 OA
BRANCH  21  22
HETATM   22  C   UNL     1       7.005   7.166 -21.129  1.00  0.00     0.076 A 
HETATM   23  C   UNL     1       7.239   6.544 -22.355  1.00  0.00     0.037 A 
HETATM   24  C   UNL     1       7.951   5.344 -22.399  1.00  0.00     0.003 A 
HETATM   25  C   UNL     1       8.437   4.781 -21.219  1.00  0.00     0.000 A 
HETATM   26  C   UNL     1       8.218   5.418 -19.995  1.00  0.00     0.003 A 
HETATM   27  C   UNL     1       7.511   6.619 -19.950  1.00  0.00     0.037 A 
ENDBRANCH  21  22
ENDBRANCH  18  21
ENDBRANCH  11  15
ENDBRANCH   4   9
BRANCH   1  28
HETATM   28  N   UNL     1      -1.048   5.991 -30.123  1.00  0.00    -0.274 N 
HETATM   29  N   UNL     1      -0.190   5.285 -30.882  1.00  0.00     0.005 NA
HETATM   30  N   UNL     1      -0.873   4.745 -31.879  1.00  0.00    -0.161 NA
HETATM   31  C   UNL     1      -2.185   5.110 -31.742  1.00  0.00     0.095 A 
HETATM   32  C   UNL     1      -2.319   5.902 -30.623  1.00  0.00     0.139 A 
BRANCH  31  33
HETATM   33  C   UNL     1      -3.194   4.625 -32.719  1.00  0.00     0.296 C 
BRANCH  33  34
HETATM   34  N   UNL     1      -4.124   3.569 -32.154  1.00  0.00    -0.066 N 
HETATM   35  C   UNL     1      -5.258   4.179 -31.386  1.00  0.00     0.270 C 
HETATM   36  H   UNL     1      -4.524   3.095 -32.976  1.00  0.00     0.280 HD
BRANCH  34  37
HETATM   37  C   UNL     1      -3.377   2.502 -31.383  1.00  0.00     0.273 C 
BRANCH  37  38
HETATM   38  C   UNL     1      -3.691   1.098 -31.824  1.00  0.00    -0.033 A 
HETATM   39  C   UNL     1      -2.977   0.006 -31.304  1.00  0.00     0.009 A 
HETATM   40  C   UNL     1      -3.253  -1.290 -31.743  1.00  0.00     0.001 A 
HETATM   41  C   UNL     1      -4.244  -1.511 -32.697  1.00  0.00     0.000 A 
HETATM   42  C   UNL     1      -4.966  -0.437 -33.213  1.00  0.00     0.001 A 
HETATM   43  C   UNL     1      -4.692   0.861 -32.780  1.00  0.00     0.009 A 
ENDBRANCH  37  38
ENDBRANCH  34  37
ENDBRANCH  33  34
ENDBRANCH  31  33
ENDBRANCH   1  28
TORSDOF 9
ENDMDL
