MODEL 1
REMARK VINA RESULT:      -8.5      0.000      0.000
REMARK  5 active torsions:
REMARK  status: ('A' for Active; 'I' for Inactive)
REMARK    1  A    between atoms: C_5  and  N_6 
REMARK    2  A    between atoms: N_6  and  C_7 
REMARK    3  A    between atoms: C_7  and  C_8 
REMARK       I    between atoms: C_8  and  N_9 
REMARK    4  A    between atoms: N_9  and  N_10 
REMARK    5  A    between atoms: C_11  and  C_12 
ROOT
HETATM    1  C   UNL     1      -9.194   2.350 -34.276  1.00  0.00     0.250 C 
HETATM    2  N   UNL     1      -9.139   0.979 -34.490  1.00  0.00    -0.246 N 
HETATM    3  O   UNL     1      -8.304   3.022 -33.755  1.00  0.00    -0.270 OA
HETATM    4  H   UNL     1      -9.896   0.512 -34.980  1.00  0.00     0.192 HD
ENDROOT
BRANCH   2   5
HETATM    5  N   UNL     1      -8.061   0.281 -34.026  1.00  0.00    -0.184 NA
HETATM    6  C   UNL     1      -7.246  -0.202 -34.904  1.00  0.00     0.152 C 
BRANCH   6   7
HETATM    7  C   UNL     1      -6.107  -0.976 -34.450  1.00  0.00     0.011 A 
HETATM    8  C   UNL     1      -5.896  -2.389 -34.561  1.00  0.00     0.004 A 
HETATM    9  C   UNL     1      -4.666  -2.676 -33.959  1.00  0.00     0.043 A 
HETATM   10  C   UNL     1      -6.635  -3.457 -35.110  1.00  0.00     0.014 A 
HETATM   11  C   UNL     1      -4.144  -3.974 -33.879  1.00  0.00     0.030 A 
HETATM   12  N   UNL     1      -4.147  -1.489 -33.508  1.00  0.00    -0.364 N 
HETATM   13  C   UNL     1      -4.897  -5.012 -34.431  1.00  0.00     0.002 A 
HETATM   14  C   UNL     1      -6.125  -4.760 -35.040  1.00  0.00     0.001 A 
HETATM   15  H   UNL     1      -3.260  -1.392 -33.029  1.00  0.00     0.165 HD
HETATM   16  C   UNL     1      -5.001  -0.461 -33.796  1.00  0.00     0.102 A 
ENDBRANCH   6   7
ENDBRANCH   2   5
BRANCH   1  17
HETATM   17  C   UNL     1     -10.511   2.984 -34.723  1.00  0.00     0.197 C 
BRANCH  17  18
HETATM   18  N   UNL     1     -11.521   1.961 -35.032  1.00  0.00    -0.284 NA
HETATM   19  H   UNL     1     -11.754   1.940 -36.027  1.00  0.00     0.128 HD
BRANCH  18  20
HETATM   20  C   UNL     1     -12.702   1.939 -34.268  1.00  0.00     0.008 A 
HETATM   21  C   UNL     1     -13.756   1.042 -34.475  1.00  0.00     0.024 A 
HETATM   22  C   UNL     1     -14.945   1.129 -33.737  1.00  0.00     0.008 A 
HETATM   23  C   UNL     1     -15.124   2.142 -32.793  1.00  0.00    -0.062 A 
HETATM   24  C   UNL     1     -16.417   2.285 -32.046  1.00  0.00     0.048 C 
HETATM   25  C   UNL     1     -14.090   3.059 -32.594  1.00  0.00     0.008 A 
HETATM   26  C   UNL     1     -12.900   2.958 -33.326  1.00  0.00     0.024 A 
ENDBRANCH  18  20
ENDBRANCH  17  18
ENDBRANCH   1  17
TORSDOF 5
ENDMDL
MODEL 2
REMARK VINA RESULT:      -8.3      6.887      9.929
REMARK  5 active torsions:
REMARK  status: ('A' for Active; 'I' for Inactive)
REMARK    1  A    between atoms: C_5  and  N_6 
REMARK    2  A    between atoms: N_6  and  C_7 
REMARK    3  A    between atoms: C_7  and  C_8 
REMARK       I    between atoms: C_8  and  N_9 
REMARK    4  A    between atoms: N_9  and  N_10 
REMARK    5  A    between atoms: C_11  and  C_12 
ROOT
HETATM    1  C   UNL     1      -2.676   4.528 -32.115  1.00  0.00     0.250 C 
HETATM    2  N   UNL     1      -3.115   3.554 -31.228  1.00  0.00    -0.246 N 
HETATM    3  O   UNL     1      -2.237   4.313 -33.244  1.00  0.00    -0.270 OA
HETATM    4  H   UNL     1      -3.517   3.824 -30.336  1.00  0.00     0.192 HD
ENDROOT
BRANCH   2   5
HETATM    5  N   UNL     1      -2.987   2.240 -31.576  1.00  0.00    -0.184 NA
HETATM    6  C   UNL     1      -4.058   1.617 -31.942  1.00  0.00     0.152 C 
BRANCH   6   7
HETATM    7  C   UNL     1      -3.966   0.211 -32.288  1.00  0.00     0.011 A 
HETATM    8  C   UNL     1      -4.780  -0.529 -33.206  1.00  0.00     0.004 A 
HETATM    9  C   UNL     1      -4.328  -1.853 -33.190  1.00  0.00     0.043 A 
HETATM   10  C   UNL     1      -5.863  -0.204 -34.048  1.00  0.00     0.014 A 
HETATM   11  C   UNL     1      -4.907  -2.863 -33.968  1.00  0.00     0.030 A 
HETATM   12  N   UNL     1      -3.280  -1.915 -32.306  1.00  0.00    -0.364 N 
HETATM   13  C   UNL     1      -5.979  -2.513 -34.793  1.00  0.00     0.002 A 
HETATM   14  C   UNL     1      -6.452  -1.203 -34.836  1.00  0.00     0.001 A 
HETATM   15  H   UNL     1      -2.756  -2.753 -32.091  1.00  0.00     0.165 HD
HETATM   16  C   UNL     1      -3.052  -0.683 -31.758  1.00  0.00     0.102 A 
ENDBRANCH   6   7
ENDBRANCH   2   5
BRANCH   1  17
HETATM   17  C   UNL     1      -2.752   5.945 -31.548  1.00  0.00     0.197 C 
BRANCH  17  18
HETATM   18  N   UNL     1      -2.573   5.951 -30.088  1.00  0.00    -0.284 NA
HETATM   19  H   UNL     1      -3.441   6.170 -29.596  1.00  0.00     0.128 HD
BRANCH  18  20
HETATM   20  C   UNL     1      -1.516   6.708 -29.550  1.00  0.00     0.008 A 
HETATM   21  C   UNL     1      -0.206   6.690 -30.043  1.00  0.00     0.024 A 
HETATM   22  C   UNL     1       0.822   7.399 -29.407  1.00  0.00     0.008 A 
HETATM   23  C   UNL     1       0.573   8.117 -28.235  1.00  0.00    -0.062 A 
HETATM   24  C   UNL     1       1.680   8.824 -27.510  1.00  0.00     0.048 C 
HETATM   25  C   UNL     1      -0.724   8.122 -27.718  1.00  0.00     0.008 A 
HETATM   26  C   UNL     1      -1.749   7.422 -28.367  1.00  0.00     0.024 A 
ENDBRANCH  18  20
ENDBRANCH  17  18
ENDBRANCH   1  17
TORSDOF 5
ENDMDL
MODEL 3
REMARK VINA RESULT:      -8.1      7.554     10.897
REMARK  5 active torsions:
REMARK  status: ('A' for Active; 'I' for Inactive)
REMARK    1  A    between atoms: C_5  and  N_6 
REMARK    2  A    between atoms: N_6  and  C_7 
REMARK    3  A    between atoms: C_7  and  C_8 
REMARK       I    between atoms: C_8  and  N_9 
REMARK    4  A    between atoms: N_9  and  N_10 
REMARK    5  A    between atoms: C_11  and  C_12 
ROOT
HETATM    1  C   UNL     1      -1.731   4.780 -31.522  1.00  0.00     0.250 C 
HETATM    2  N   UNL     1      -2.720   3.895 -31.109  1.00  0.00    -0.246 N 
HETATM    3  O   UNL     1      -1.144   4.733 -32.602  1.00  0.00    -0.270 OA
HETATM    4  H   UNL     1      -3.194   4.041 -30.224  1.00  0.00     0.192 HD
ENDROOT
BRANCH   2   5
HETATM    5  N   UNL     1      -3.030   2.833 -31.910  1.00  0.00    -0.184 NA
HETATM    6  C   UNL     1      -3.962   2.037 -31.502  1.00  0.00     0.152 C 
BRANCH   6   7
HETATM    7  C   UNL     1      -4.296   0.880 -32.311  1.00  0.00     0.011 A 
HETATM    8  C   UNL     1      -5.389   0.725 -33.225  1.00  0.00     0.004 A 
HETATM    9  C   UNL     1      -5.312  -0.569 -33.752  1.00  0.00     0.043 A 
HETATM   10  C   UNL     1      -6.442   1.559 -33.655  1.00  0.00     0.014 A 
HETATM   11  C   UNL     1      -6.235  -1.067 -34.680  1.00  0.00     0.030 A 
HETATM   12  N   UNL     1      -4.216  -1.173 -33.188  1.00  0.00    -0.364 N 
HETATM   13  C   UNL     1      -7.267  -0.220 -35.087  1.00  0.00     0.002 A 
HETATM   14  C   UNL     1      -7.372   1.076 -34.585  1.00  0.00     0.001 A 
HETATM   15  H   UNL     1      -3.914  -2.119 -33.385  1.00  0.00     0.165 HD
HETATM   16  C   UNL     1      -3.598  -0.315 -32.322  1.00  0.00     0.102 A 
ENDBRANCH   6   7
ENDBRANCH   2   5
BRANCH   1  17
HETATM   17  C   UNL     1      -1.389   5.840 -30.476  1.00  0.00     0.197 C 
BRANCH  17  18
HETATM   18  N   UNL     1      -0.426   5.330 -29.488  1.00  0.00    -0.284 NA
HETATM   19  H   UNL     1      -0.782   4.510 -28.993  1.00  0.00     0.128 HD
BRANCH  18  20
HETATM   20  C   UNL     1       0.128   6.238 -28.568  1.00  0.00     0.008 A 
HETATM   21  C   UNL     1      -0.050   6.160 -27.182  1.00  0.00     0.024 A 
HETATM   22  C   UNL     1       0.455   7.147 -26.324  1.00  0.00     0.008 A 
HETATM   23  C   UNL     1       1.123   8.262 -26.836  1.00  0.00    -0.062 A 
HETATM   24  C   UNL     1       1.608   9.357 -25.934  1.00  0.00     0.048 C 
HETATM   25  C   UNL     1       1.285   8.365 -28.220  1.00  0.00     0.008 A 
HETATM   26  C   UNL     1       0.790   7.368 -29.069  1.00  0.00     0.024 A 
ENDBRANCH  18  20
ENDBRANCH  17  18
ENDBRANCH   1  17
TORSDOF 5
ENDMDL
MODEL 4
REMARK VINA RESULT:      -8.0      7.129     10.580
REMARK  5 active torsions:
REMARK  status: ('A' for Active; 'I' for Inactive)
REMARK    1  A    between atoms: C_5  and  N_6 
REMARK    2  A    between atoms: N_6  and  C_7 
REMARK    3  A    between atoms: C_7  and  C_8 
REMARK       I    between atoms: C_8  and  N_9 
REMARK    4  A    between atoms: N_9  and  N_10 
REMARK    5  A    between atoms: C_11  and  C_12 
ROOT
HETATM    1  C   UNL     1      -1.909   4.560 -32.093  1.00  0.00     0.250 C 
HETATM    2  N   UNL     1      -2.576   3.733 -31.198  1.00  0.00    -0.246 N 
HETATM    3  O   UNL     1      -2.310   4.855 -33.218  1.00  0.00    -0.270 OA
HETATM    4  H   UNL     1      -2.202   3.588 -30.266  1.00  0.00     0.192 HD
ENDROOT
BRANCH   2   5
HETATM    5  N   UNL     1      -3.729   3.120 -31.600  1.00  0.00    -0.184 NA
HETATM    6  C   UNL     1      -3.738   1.829 -31.618  1.00  0.00     0.152 C 
BRANCH   6   7
HETATM    7  C   UNL     1      -4.934   1.144 -32.070  1.00  0.00     0.011 A 
HETATM    8  C   UNL     1      -5.026  -0.053 -32.852  1.00  0.00     0.004 A 
HETATM    9  C   UNL     1      -6.385  -0.315 -33.056  1.00  0.00     0.043 A 
HETATM   10  C   UNL     1      -4.085  -0.940 -33.413  1.00  0.00     0.014 A 
HETATM   11  C   UNL     1      -6.846  -1.413 -33.793  1.00  0.00     0.030 A 
HETATM   12  N   UNL     1      -7.090   0.676 -32.419  1.00  0.00    -0.364 N 
HETATM   13  C   UNL     1      -5.891  -2.275 -34.337  1.00  0.00     0.002 A 
HETATM   14  C   UNL     1      -4.529  -2.046 -34.151  1.00  0.00     0.001 A 
HETATM   15  H   UNL     1      -8.100   0.743 -32.398  1.00  0.00     0.165 HD
HETATM   16  C   UNL     1      -6.232   1.558 -31.824  1.00  0.00     0.102 A 
ENDBRANCH   6   7
ENDBRANCH   2   5
BRANCH   1  17
HETATM   17  C   UNL     1      -0.569   5.071 -31.566  1.00  0.00     0.197 C 
BRANCH  17  18
HETATM   18  N   UNL     1      -0.419   4.801 -30.128  1.00  0.00    -0.284 NA
HETATM   19  H   UNL     1      -1.289   4.471 -29.706  1.00  0.00     0.128 HD
BRANCH  18  20
HETATM   20  C   UNL     1       0.153   5.801 -29.319  1.00  0.00     0.008 A 
HETATM   21  C   UNL     1       0.397   5.658 -27.948  1.00  0.00     0.024 A 
HETATM   22  C   UNL     1       0.886   6.723 -27.180  1.00  0.00     0.008 A 
HETATM   23  C   UNL     1       1.112   7.974 -27.758  1.00  0.00    -0.062 A 
HETATM   24  C   UNL     1       1.571   9.138 -26.931  1.00  0.00     0.048 C 
HETATM   25  C   UNL     1       0.848   8.137 -29.120  1.00  0.00     0.008 A 
HETATM   26  C   UNL     1       0.372   7.065 -29.884  1.00  0.00     0.024 A 
ENDBRANCH  18  20
ENDBRANCH  17  18
ENDBRANCH   1  17
TORSDOF 5
ENDMDL
MODEL 5
REMARK VINA RESULT:      -7.9      5.240      9.073
REMARK  5 active torsions:
REMARK  status: ('A' for Active; 'I' for Inactive)
REMARK    1  A    between atoms: C_5  and  N_6 
REMARK    2  A    between atoms: N_6  and  C_7 
REMARK    3  A    between atoms: C_7  and  C_8 
REMARK       I    between atoms: C_8  and  N_9 
REMARK    4  A    between atoms: N_9  and  N_10 
REMARK    5  A    between atoms: C_11  and  C_12 
ROOT
HETATM    1  C   UNL     1      -6.196   1.857 -33.326  1.00  0.00     0.250 C 
HETATM    2  N   UNL     1      -5.115   2.166 -32.510  1.00  0.00    -0.246 N 
HETATM    3  O   UNL     1      -6.567   2.521 -34.293  1.00  0.00    -0.270 OA
HETATM    4  H   UNL     1      -4.843   1.531 -31.767  1.00  0.00     0.192 HD
ENDROOT
BRANCH   2   5
HETATM    5  N   UNL     1      -4.441   3.334 -32.724  1.00  0.00    -0.184 NA
HETATM    6  C   UNL     1      -3.151   3.273 -32.771  1.00  0.00     0.152 C 
BRANCH   6   7
HETATM    7  C   UNL     1      -2.400   4.498 -32.964  1.00  0.00     0.011 A 
HETATM    8  C   UNL     1      -1.465   5.114 -32.069  1.00  0.00     0.004 A 
HETATM    9  C   UNL     1      -1.015   6.289 -32.680  1.00  0.00     0.043 A 
HETATM   10  C   UNL     1      -0.961   4.789 -30.793  1.00  0.00     0.014 A 
HETATM   11  C   UNL     1      -0.091   7.152 -32.077  1.00  0.00     0.030 A 
HETATM   12  N   UNL     1      -1.641   6.381 -33.897  1.00  0.00    -0.364 N 
HETATM   13  C   UNL     1       0.392   6.806 -30.813  1.00  0.00     0.002 A 
HETATM   14  C   UNL     1      -0.034   5.641 -30.178  1.00  0.00     0.001 A 
HETATM   15  H   UNL     1      -1.506   7.134 -34.560  1.00  0.00     0.165 HD
HETATM   16  C   UNL     1      -2.475   5.313 -34.080  1.00  0.00     0.102 A 
ENDBRANCH   6   7
ENDBRANCH   2   5
BRANCH   1  17
HETATM   17  C   UNL     1      -6.942   0.595 -32.895  1.00  0.00     0.197 C 
BRANCH  17  18
HETATM   18  N   UNL     1      -7.119  -0.337 -34.019  1.00  0.00    -0.284 NA
HETATM   19  H   UNL     1      -8.085  -0.660 -34.102  1.00  0.00     0.128 HD
BRANCH  18  20
HETATM   20  C   UNL     1      -6.241  -1.432 -34.121  1.00  0.00     0.008 A 
HETATM   21  C   UNL     1      -6.569  -2.648 -34.732  1.00  0.00     0.024 A 
HETATM   22  C   UNL     1      -5.680  -3.732 -34.722  1.00  0.00     0.008 A 
HETATM   23  C   UNL     1      -4.450  -3.639 -34.068  1.00  0.00    -0.062 A 
HETATM   24  C   UNL     1      -3.521  -4.814 -33.994  1.00  0.00     0.048 C 
HETATM   25  C   UNL     1      -4.121  -2.439 -33.433  1.00  0.00     0.008 A 
HETATM   26  C   UNL     1      -5.009  -1.356 -33.457  1.00  0.00     0.024 A 
ENDBRANCH  18  20
ENDBRANCH  17  18
ENDBRANCH   1  17
TORSDOF 5
ENDMDL
MODEL 6
REMARK VINA RESULT:      -7.8      4.732      6.967
REMARK  5 active torsions:
REMARK  status: ('A' for Active; 'I' for Inactive)
REMARK    1  A    between atoms: C_5  and  N_6 
REMARK    2  A    between atoms: N_6  and  C_7 
REMARK    3  A    between atoms: C_7  and  C_8 
REMARK       I    between atoms: C_8  and  N_9 
REMARK    4  A    between atoms: N_9  and  N_10 
REMARK    5  A    between atoms: C_11  and  C_12 
ROOT
HETATM    1  C   UNL     1      -6.493   2.476 -32.087  1.00  0.00     0.250 C 
HETATM    2  N   UNL     1      -6.276   1.603 -33.145  1.00  0.00    -0.246 N 
HETATM    3  O   UNL     1      -6.241   2.235 -30.907  1.00  0.00    -0.270 OA
HETATM    4  H   UNL     1      -6.459   1.904 -34.097  1.00  0.00     0.192 HD
ENDROOT
BRANCH   2   5
HETATM    5  N   UNL     1      -5.823   0.342 -32.878  1.00  0.00    -0.184 NA
HETATM    6  C   UNL     1      -4.576   0.099 -33.111  1.00  0.00     0.152 C 
BRANCH   6   7
HETATM    7  C   UNL     1      -4.067  -1.238 -32.869  1.00  0.00     0.011 A 
HETATM    8  C   UNL     1      -4.441  -2.458 -33.522  1.00  0.00     0.004 A 
HETATM    9  C   UNL     1      -3.697  -3.488 -32.937  1.00  0.00     0.043 A 
HETATM   10  C   UNL     1      -5.344  -2.789 -34.553  1.00  0.00     0.014 A 
HETATM   11  C   UNL     1      -3.816  -4.828 -33.329  1.00  0.00     0.030 A 
HETATM   12  N   UNL     1      -2.900  -2.920 -31.975  1.00  0.00    -0.364 N 
HETATM   13  C   UNL     1      -4.719  -5.127 -34.352  1.00  0.00     0.002 A 
HETATM   14  C   UNL     1      -5.473  -4.124 -34.958  1.00  0.00     0.001 A 
HETATM   15  H   UNL     1      -2.253  -3.429 -31.387  1.00  0.00     0.165 HD
HETATM   16  C   UNL     1      -3.113  -1.570 -31.924  1.00  0.00     0.102 A 
ENDBRANCH   6   7
ENDBRANCH   2   5
BRANCH   1  17
HETATM   17  C   UNL     1      -7.125   3.800 -32.511  1.00  0.00     0.197 C 
BRANCH  17  18
HETATM   18  N   UNL     1      -6.228   4.935 -32.244  1.00  0.00    -0.284 NA
HETATM   19  H   UNL     1      -6.690   5.833 -32.395  1.00  0.00     0.128 HD
BRANCH  18  20
HETATM   20  C   UNL     1      -4.962   4.942 -32.859  1.00  0.00     0.008 A 
HETATM   21  C   UNL     1      -3.749   4.934 -32.160  1.00  0.00     0.024 A 
HETATM   22  C   UNL     1      -2.521   5.031 -32.830  1.00  0.00     0.008 A 
HETATM   23  C   UNL     1      -2.476   5.176 -34.218  1.00  0.00    -0.062 A 
HETATM   24  C   UNL     1      -1.172   5.349 -34.937  1.00  0.00     0.048 C 
HETATM   25  C   UNL     1      -3.681   5.211 -34.924  1.00  0.00     0.008 A 
HETATM   26  C   UNL     1      -4.903   5.100 -34.250  1.00  0.00     0.024 A 
ENDBRANCH  18  20
ENDBRANCH  17  18
ENDBRANCH   1  17
TORSDOF 5
ENDMDL
MODEL 7
REMARK VINA RESULT:      -7.8      1.629      8.168
REMARK  5 active torsions:
REMARK  status: ('A' for Active; 'I' for Inactive)
REMARK    1  A    between atoms: C_5  and  N_6 
REMARK    2  A    between atoms: N_6  and  C_7 
REMARK    3  A    between atoms: C_7  and  C_8 
REMARK       I    between atoms: C_8  and  N_9 
REMARK    4  A    between atoms: N_9  and  N_10 
REMARK    5  A    between atoms: C_11  and  C_12 
ROOT
HETATM    1  C   UNL     1      -6.259   2.095 -33.158  1.00  0.00     0.250 C 
HETATM    2  N   UNL     1      -7.267   1.813 -32.245  1.00  0.00    -0.246 N 
HETATM    3  O   UNL     1      -6.375   2.832 -34.136  1.00  0.00    -0.270 OA
HETATM    4  H   UNL     1      -7.069   1.238 -31.432  1.00  0.00     0.192 HD
ENDROOT
BRANCH   2   5
HETATM    5  N   UNL     1      -8.518   2.314 -32.468  1.00  0.00    -0.184 NA
HETATM    6  C   UNL     1      -9.350   1.564 -33.113  1.00  0.00     0.152 C 
BRANCH   6   7
HETATM    7  C   UNL     1     -10.677   2.076 -33.397  1.00  0.00     0.011 A 
HETATM    8  C   UNL     1     -11.895   1.337 -33.555  1.00  0.00     0.004 A 
HETATM    9  C   UNL     1     -12.908   2.259 -33.840  1.00  0.00     0.043 A 
HETATM   10  C   UNL     1     -12.236  -0.029 -33.488  1.00  0.00     0.014 A 
HETATM   11  C   UNL     1     -14.238   1.881 -34.064  1.00  0.00     0.030 A 
HETATM   12  N   UNL     1     -12.333   3.505 -33.849  1.00  0.00    -0.364 N 
HETATM   13  C   UNL     1     -14.547   0.521 -33.992  1.00  0.00     0.002 A 
HETATM   14  C   UNL     1     -13.563  -0.423 -33.707  1.00  0.00     0.001 A 
HETATM   15  H   UNL     1     -12.830   4.368 -34.028  1.00  0.00     0.165 HD
HETATM   16  C   UNL     1     -10.995   3.410 -33.584  1.00  0.00     0.102 A 
ENDBRANCH   6   7
ENDBRANCH   2   5
BRANCH   1  17
HETATM   17  C   UNL     1      -4.950   1.365 -32.862  1.00  0.00     0.197 C 
BRANCH  17  18
HETATM   18  N   UNL     1      -5.194   0.036 -32.282  1.00  0.00    -0.284 NA
HETATM   19  H   UNL     1      -4.464  -0.233 -31.620  1.00  0.00     0.128 HD
BRANCH  18  20
HETATM   20  C   UNL     1      -5.462  -1.033 -33.155  1.00  0.00     0.008 A 
HETATM   21  C   UNL     1      -6.743  -1.384 -33.598  1.00  0.00     0.024 A 
HETATM   22  C   UNL     1      -6.954  -2.516 -34.398  1.00  0.00     0.008 A 
HETATM   23  C   UNL     1      -5.889  -3.350 -34.747  1.00  0.00    -0.062 A 
HETATM   24  C   UNL     1      -6.114  -4.599 -35.546  1.00  0.00     0.048 C 
HETATM   25  C   UNL     1      -4.610  -3.025 -34.291  1.00  0.00     0.008 A 
HETATM   26  C   UNL     1      -4.405  -1.885 -33.503  1.00  0.00     0.024 A 
ENDBRANCH  18  20
ENDBRANCH  17  18
ENDBRANCH   1  17
TORSDOF 5
ENDMDL
MODEL 8
REMARK VINA RESULT:      -7.7      1.252      2.211
REMARK  5 active torsions:
REMARK  status: ('A' for Active; 'I' for Inactive)
REMARK    1  A    between atoms: C_5  and  N_6 
REMARK    2  A    between atoms: N_6  and  C_7 
REMARK    3  A    between atoms: C_7  and  C_8 
REMARK       I    between atoms: C_8  and  N_9 
REMARK    4  A    between atoms: N_9  and  N_10 
REMARK    5  A    between atoms: C_11  and  C_12 
ROOT
HETATM    1  C   UNL     1      -8.774   1.809 -33.850  1.00  0.00     0.250 C 
HETATM    2  N   UNL     1      -8.481   0.826 -34.786  1.00  0.00    -0.246 N 
HETATM    3  O   UNL     1      -8.397   1.807 -32.679  1.00  0.00    -0.270 OA
HETATM    4  H   UNL     1      -8.785   0.935 -35.749  1.00  0.00     0.192 HD
ENDROOT
BRANCH   2   5
HETATM    5  N   UNL     1      -7.790  -0.282 -34.385  1.00  0.00    -0.184 NA
HETATM    6  C   UNL     1      -6.798  -0.659 -35.121  1.00  0.00     0.152 C 
BRANCH   6   7
HETATM    7  C   UNL     1      -6.061  -1.850 -34.744  1.00  0.00     0.011 A 
HETATM    8  C   UNL     1      -5.044  -1.982 -33.742  1.00  0.00     0.004 A 
HETATM    9  C   UNL     1      -4.613  -3.313 -33.757  1.00  0.00     0.043 A 
HETATM   10  C   UNL     1      -4.442  -1.096 -32.825  1.00  0.00     0.014 A 
HETATM   11  C   UNL     1      -3.612  -3.797 -32.906  1.00  0.00     0.030 A 
HETATM   12  N   UNL     1      -5.341  -3.965 -34.720  1.00  0.00    -0.364 N 
HETATM   13  C   UNL     1      -3.033  -2.898 -32.008  1.00  0.00     0.002 A 
HETATM   14  C   UNL     1      -3.440  -1.566 -31.965  1.00  0.00     0.001 A 
HETATM   15  H   UNL     1      -5.243  -4.945 -34.953  1.00  0.00     0.165 HD
HETATM   16  C   UNL     1      -6.214  -3.099 -35.320  1.00  0.00     0.102 A 
ENDBRANCH   6   7
ENDBRANCH   2   5
BRANCH   1  17
HETATM   17  C   UNL     1      -9.664   2.924 -34.397  1.00  0.00     0.197 C 
BRANCH  17  18
HETATM   18  N   UNL     1     -10.843   2.380 -35.089  1.00  0.00    -0.284 NA
HETATM   19  H   UNL     1     -10.963   2.786 -36.019  1.00  0.00     0.128 HD
BRANCH  18  20
HETATM   20  C   UNL     1     -12.074   2.380 -34.407  1.00  0.00     0.008 A 
HETATM   21  C   UNL     1     -12.539   3.444 -33.626  1.00  0.00     0.024 A 
HETATM   22  C   UNL     1     -13.734   3.348 -32.900  1.00  0.00     0.008 A 
HETATM   23  C   UNL     1     -14.480   2.167 -32.908  1.00  0.00    -0.062 A 
HETATM   24  C   UNL     1     -15.724   2.030 -32.082  1.00  0.00     0.048 C 
HETATM   25  C   UNL     1     -14.013   1.089 -33.665  1.00  0.00     0.008 A 
HETATM   26  C   UNL     1     -12.825   1.197 -34.398  1.00  0.00     0.024 A 
ENDBRANCH  18  20
ENDBRANCH  17  18
ENDBRANCH   1  17
TORSDOF 5
ENDMDL
MODEL 9
REMARK VINA RESULT:      -7.4      6.211      9.276
REMARK  5 active torsions:
REMARK  status: ('A' for Active; 'I' for Inactive)
REMARK    1  A    between atoms: C_5  and  N_6 
REMARK    2  A    between atoms: N_6  and  C_7 
REMARK    3  A    between atoms: C_7  and  C_8 
REMARK       I    between atoms: C_8  and  N_9 
REMARK    4  A    between atoms: N_9  and  N_10 
REMARK    5  A    between atoms: C_11  and  C_12 
ROOT
HETATM    1  C   UNL     1      -5.154   4.596 -31.379  1.00  0.00     0.250 C 
HETATM    2  N   UNL     1      -4.516   3.441 -31.816  1.00  0.00    -0.246 N 
HETATM    3  O   UNL     1      -6.350   4.843 -31.527  1.00  0.00    -0.270 OA
HETATM    4  H   UNL     1      -3.536   3.292 -31.601  1.00  0.00     0.192 HD
ENDROOT
BRANCH   2   5
HETATM    5  N   UNL     1      -5.229   2.528 -32.539  1.00  0.00    -0.184 NA
HETATM    6  C   UNL     1      -5.574   1.437 -31.938  1.00  0.00     0.152 C 
BRANCH   6   7
HETATM    7  C   UNL     1      -6.304   0.429 -32.684  1.00  0.00     0.011 A 
HETATM    8  C   UNL     1      -5.791  -0.758 -33.302  1.00  0.00     0.004 A 
HETATM    9  C   UNL     1      -6.867  -1.403 -33.922  1.00  0.00     0.043 A 
HETATM   10  C   UNL     1      -4.514  -1.347 -33.401  1.00  0.00     0.014 A 
HETATM   11  C   UNL     1      -6.726  -2.600 -34.635  1.00  0.00     0.030 A 
HETATM   12  N   UNL     1      -7.987  -0.646 -33.685  1.00  0.00    -0.364 N 
HETATM   13  C   UNL     1      -5.450  -3.161 -34.716  1.00  0.00     0.002 A 
HETATM   14  C   UNL     1      -4.357  -2.546 -34.108  1.00  0.00     0.001 A 
HETATM   15  H   UNL     1      -8.916  -0.871 -34.016  1.00  0.00     0.165 HD
HETATM   16  C   UNL     1      -7.663   0.457 -32.943  1.00  0.00     0.102 A 
ENDBRANCH   6   7
ENDBRANCH   2   5
BRANCH   1  17
HETATM   17  C   UNL     1      -4.213   5.592 -30.703  1.00  0.00     0.197 C 
BRANCH  17  18
HETATM   18  N   UNL     1      -2.860   5.528 -31.276  1.00  0.00    -0.284 NA
HETATM   19  H   UNL     1      -2.561   4.566 -31.447  1.00  0.00     0.128 HD
BRANCH  18  20
HETATM   20  C   UNL     1      -1.830   6.240 -30.634  1.00  0.00     0.008 A 
HETATM   21  C   UNL     1      -0.478   6.149 -30.982  1.00  0.00     0.024 A 
HETATM   22  C   UNL     1       0.511   6.816 -30.245  1.00  0.00     0.008 A 
HETATM   23  C   UNL     1       0.174   7.566 -29.116  1.00  0.00    -0.062 A 
HETATM   24  C   UNL     1       1.230   8.228 -28.282  1.00  0.00     0.048 C 
HETATM   25  C   UNL     1      -1.170   7.644 -28.744  1.00  0.00     0.008 A 
HETATM   26  C   UNL     1      -2.154   6.985 -29.492  1.00  0.00     0.024 A 
ENDBRANCH  18  20
ENDBRANCH  17  18
ENDBRANCH   1  17
TORSDOF 5
ENDMDL
MODEL 10
REMARK VINA RESULT:      -7.3      1.483      9.311
REMARK  5 active torsions:
REMARK  status: ('A' for Active; 'I' for Inactive)
REMARK    1  A    between atoms: C_5  and  N_6 
REMARK    2  A    between atoms: N_6  and  C_7 
REMARK    3  A    between atoms: C_7  and  C_8 
REMARK       I    between atoms: C_8  and  N_9 
REMARK    4  A    between atoms: N_9  and  N_10 
REMARK    5  A    between atoms: C_11  and  C_12 
ROOT
HETATM    1  C   UNL     1      -8.130   1.236 -33.669  1.00  0.00     0.250 C 
HETATM    2  N   UNL     1      -9.313   0.694 -34.155  1.00  0.00    -0.246 N 
HETATM    3  O   UNL     1      -8.030   1.921 -32.652  1.00  0.00    -0.270 OA
HETATM    4  H   UNL     1      -9.297   0.092 -34.972  1.00  0.00     0.192 HD
ENDROOT
BRANCH   2   5
HETATM    5  N   UNL     1     -10.485   0.994 -33.521  1.00  0.00    -0.184 NA
HETATM    6  C   UNL     1     -11.539   1.127 -34.257  1.00  0.00     0.152 C 
BRANCH   6   7
HETATM    7  C   UNL     1     -12.795   1.477 -33.622  1.00  0.00     0.011 A 
HETATM    8  C   UNL     1     -13.152   2.711 -32.986  1.00  0.00     0.004 A 
HETATM    9  C   UNL     1     -14.457   2.570 -32.503  1.00  0.00     0.043 A 
HETATM   10  C   UNL     1     -12.489   3.937 -32.769  1.00  0.00     0.014 A 
HETATM   11  C   UNL     1     -15.126   3.588 -31.813  1.00  0.00     0.030 A 
HETATM   12  N   UNL     1     -14.879   1.307 -32.836  1.00  0.00    -0.364 N 
HETATM   13  C   UNL     1     -14.446   4.791 -31.613  1.00  0.00     0.002 A 
HETATM   14  C   UNL     1     -13.146   4.967 -32.083  1.00  0.00     0.001 A 
HETATM   15  H   UNL     1     -15.790   0.926 -32.613  1.00  0.00     0.165 HD
HETATM   16  C   UNL     1     -13.892   0.641 -33.508  1.00  0.00     0.102 A 
ENDBRANCH   6   7
ENDBRANCH   2   5
BRANCH   1  17
HETATM   17  C   UNL     1      -6.916   0.933 -34.547  1.00  0.00     0.197 C 
BRANCH  17  18
HETATM   18  N   UNL     1      -7.008  -0.407 -35.146  1.00  0.00    -0.284 NA
HETATM   19  H   UNL     1      -7.970  -0.749 -35.178  1.00  0.00     0.128 HD
BRANCH  18  20
HETATM   20  C   UNL     1      -6.160  -1.416 -34.653  1.00  0.00     0.008 A 
HETATM   21  C   UNL     1      -5.044  -1.179 -33.843  1.00  0.00     0.024 A 
HETATM   22  C   UNL     1      -4.188  -2.220 -33.458  1.00  0.00     0.008 A 
HETATM   23  C   UNL     1      -4.407  -3.525 -33.904  1.00  0.00    -0.062 A 
HETATM   24  C   UNL     1      -3.459  -4.633 -33.554  1.00  0.00     0.048 C 
HETATM   25  C   UNL     1      -5.503  -3.771 -34.734  1.00  0.00     0.008 A 
HETATM   26  C   UNL     1      -6.362  -2.728 -35.105  1.00  0.00     0.024 A 
ENDBRANCH  18  20
ENDBRANCH  17  18
ENDBRANCH   1  17
TORSDOF 5
ENDMDL
