MODEL 1
REMARK VINA RESULT:     -10.5      0.000      0.000
REMARK  8 active torsions:
REMARK  status: ('A' for Active; 'I' for Inactive)
REMARK    1  A    between atoms: C_6  and  S_7 
REMARK    2  A    between atoms: S_7  and  C_8 
REMARK    3  A    between atoms: C_8  and  C_9 
REMARK       I    between atoms: C_9  and  N_10 
REMARK    4  A    between atoms: N_10  and  C_11 
REMARK    5  A    between atoms: C_24  and  C_25 
REMARK    6  A    between atoms: C_25  and  C_26 
REMARK       I    between atoms: C_26  and  N_27 
REMARK    7  A    between atoms: N_27  and  C_28 
REMARK    8  A    between atoms: C_28  and  C_29 
ROOT
HETATM    1  C   UNL     1      -3.692   5.962 -34.206  1.00  0.00     0.001 A 
HETATM    2  C   UNL     1      -4.705   5.006 -34.127  1.00  0.00     0.018 A 
HETATM    3  C   UNL     1      -4.473   3.823 -33.425  1.00  0.00     0.039 A 
HETATM    4  C   UNL     1      -3.247   3.585 -32.793  1.00  0.00     0.073 A 
HETATM    5  N   UNL     1      -3.017   2.445 -32.013  1.00  0.00    -0.223 NA
HETATM    6  C   UNL     1      -3.958   1.565 -31.924  1.00  0.00     0.178 C 
HETATM    7  N   UNL     1      -5.148   1.641 -32.632  1.00  0.00    -0.241 N 
HETATM    8  C   UNL     1      -5.481   2.762 -33.324  1.00  0.00     0.147 A 
HETATM    9  N   UNL     1      -6.673   2.817 -33.842  1.00  0.00    -0.256 NA
HETATM   10  C   UNL     1      -6.200   0.761 -32.727  1.00  0.00     0.257 A 
HETATM   11  O   UNL     1      -6.327  -0.372 -32.293  1.00  0.00    -0.270 OA
HETATM   12  C   UNL     1      -7.269   1.485 -33.523  1.00  0.00     0.211 A 
HETATM   13  C   UNL     1      -2.241   4.546 -32.885  1.00  0.00     0.032 A 
HETATM   14  C   UNL     1      -2.460   5.729 -33.591  1.00  0.00     0.002 A 
ENDROOT
BRANCH  12  15
HETATM   15  C   UNL     1      -8.585   1.602 -32.756  1.00  0.00     0.140 C 
BRANCH  15  16
HETATM   16  C   UNL     1      -8.889   3.029 -32.330  1.00  0.00     0.220 C 
HETATM   17  N   UNL     1      -9.599   3.848 -33.146  1.00  0.00    -0.357 N 
HETATM   18  H   UNL     1      -9.785   4.763 -32.752  1.00  0.00     0.162 HD
HETATM   19  O   UNL     1      -8.501   3.481 -31.250  1.00  0.00    -0.274 OA
BRANCH  17  20
HETATM   20  C   UNL     1     -10.291   3.507 -34.373  1.00  0.00     0.161 C 
BRANCH  20  21
HETATM   21  C   UNL     1     -11.630   2.876 -34.085  1.00  0.00    -0.038 A 
HETATM   22  C   UNL     1     -12.423   3.354 -33.029  1.00  0.00     0.048 A 
HETATM   23  C   UNL     1     -13.647   2.755 -32.809  1.00  0.00     0.105 A 
HETATM   24  C   UNL     1     -14.100   1.721 -33.593  1.00  0.00     0.105 A 
HETATM   25  O   UNL     1     -14.531   3.091 -31.833  1.00  0.00    -0.323 OA
HETATM   26  O   UNL     1     -15.328   1.279 -33.211  1.00  0.00    -0.323 OA
HETATM   27  C   UNL     1     -13.354   1.225 -34.640  1.00  0.00     0.040 A 
HETATM   28  C   UNL     1     -15.591   2.146 -32.088  1.00  0.00     0.352 A 
HETATM   29  C   UNL     1     -12.105   1.806 -34.882  1.00  0.00     0.012 A 
ENDBRANCH  20  21
ENDBRANCH  17  20
ENDBRANCH  15  16
ENDBRANCH  12  15
BRANCH   6  30
HETATM   30  S   UNL     1      -3.739   0.287 -30.760  1.00  0.00    -0.082 SA
BRANCH  30  31
HETATM   31  C   UNL     1      -2.595  -0.756 -31.727  1.00  0.00     0.185 C 
BRANCH  31  32
HETATM   32  C   UNL     1      -3.231  -2.081 -32.152  1.00  0.00     0.232 C 
HETATM   33  N   UNL     1      -3.933  -1.989 -33.347  1.00  0.00    -0.324 N 
HETATM   34  H   UNL     1      -3.939  -1.076 -33.809  1.00  0.00     0.169 HD
HETATM   35  O   UNL     1      -3.105  -3.076 -31.447  1.00  0.00    -0.272 OA
BRANCH  33  36
HETATM   36  C   UNL     1      -4.691  -2.983 -34.018  1.00  0.00     0.073 A 
HETATM   37  C   UNL     1      -4.312  -4.308 -34.258  1.00  0.00     0.143 A 
HETATM   38  F   UNL     1      -3.118  -4.792 -33.901  1.00  0.00    -0.204 F 
HETATM   39  C   UNL     1      -5.160  -5.192 -34.933  1.00  0.00     0.044 A 
HETATM   40  C   UNL     1      -6.408  -4.770 -35.385  1.00  0.00     0.003 A 
HETATM   41  C   UNL     1      -6.804  -3.458 -35.162  1.00  0.00     0.002 A 
HETATM   42  C   UNL     1      -5.953  -2.575 -34.488  1.00  0.00     0.033 A 
ENDBRANCH  33  36
ENDBRANCH  31  32
ENDBRANCH  30  31
ENDBRANCH   6  30
TORSDOF 8
ENDMDL
MODEL 2
REMARK VINA RESULT:     -10.3      4.086      8.264
REMARK  8 active torsions:
REMARK  status: ('A' for Active; 'I' for Inactive)
REMARK    1  A    between atoms: C_6  and  S_7 
REMARK    2  A    between atoms: S_7  and  C_8 
REMARK    3  A    between atoms: C_8  and  C_9 
REMARK       I    between atoms: C_9  and  N_10 
REMARK    4  A    between atoms: N_10  and  C_11 
REMARK    5  A    between atoms: C_24  and  C_25 
REMARK    6  A    between atoms: C_25  and  C_26 
REMARK       I    between atoms: C_26  and  N_27 
REMARK    7  A    between atoms: N_27  and  C_28 
REMARK    8  A    between atoms: C_28  and  C_29 
ROOT
HETATM    1  C   UNL     1      -5.480   7.393 -28.298  1.00  0.00     0.001 A 
HETATM    2  C   UNL     1      -4.754   6.649 -29.229  1.00  0.00     0.018 A 
HETATM    3  C   UNL     1      -5.403   5.652 -29.959  1.00  0.00     0.039 A 
HETATM    4  C   UNL     1      -6.766   5.395 -29.779  1.00  0.00     0.073 A 
HETATM    5  N   UNL     1      -7.459   4.459 -30.558  1.00  0.00    -0.223 NA
HETATM    6  C   UNL     1      -6.795   3.779 -31.432  1.00  0.00     0.178 C 
HETATM    7  N   UNL     1      -5.418   3.858 -31.579  1.00  0.00    -0.241 N 
HETATM    8  C   UNL     1      -4.698   4.812 -30.933  1.00  0.00     0.147 A 
HETATM    9  N   UNL     1      -3.436   4.918 -31.232  1.00  0.00    -0.256 NA
HETATM   10  C   UNL     1      -4.553   3.150 -32.380  1.00  0.00     0.257 A 
HETATM   11  O   UNL     1      -4.752   2.190 -33.107  1.00  0.00    -0.270 OA
HETATM   12  C   UNL     1      -3.199   3.810 -32.205  1.00  0.00     0.211 A 
HETATM   13  C   UNL     1      -7.478   6.141 -28.841  1.00  0.00     0.032 A 
HETATM   14  C   UNL     1      -6.838   7.135 -28.100  1.00  0.00     0.002 A 
ENDROOT
BRANCH  12  15
HETATM   15  C   UNL     1      -2.620   4.308 -33.528  1.00  0.00     0.140 C 
BRANCH  15  16
HETATM   16  C   UNL     1      -3.166   5.667 -33.931  1.00  0.00     0.220 C 
HETATM   17  N   UNL     1      -2.424   6.787 -33.732  1.00  0.00    -0.357 N 
HETATM   18  H   UNL     1      -2.859   7.636 -34.073  1.00  0.00     0.162 HD
HETATM   19  O   UNL     1      -4.283   5.795 -34.437  1.00  0.00    -0.274 OA
BRANCH  17  20
HETATM   20  C   UNL     1      -1.042   6.880 -33.309  1.00  0.00     0.161 C 
BRANCH  20  21
HETATM   21  C   UNL     1      -0.942   7.140 -31.827  1.00  0.00    -0.038 A 
HETATM   22  C   UNL     1      -0.083   6.365 -31.031  1.00  0.00     0.048 A 
HETATM   23  C   UNL     1      -0.014   6.647 -29.681  1.00  0.00     0.105 A 
HETATM   24  C   UNL     1      -0.753   7.656 -29.112  1.00  0.00     0.105 A 
HETATM   25  O   UNL     1       0.760   5.995 -28.773  1.00  0.00    -0.323 OA
HETATM   26  O   UNL     1      -0.534   7.768 -27.774  1.00  0.00    -0.323 OA
HETATM   27  C   UNL     1      -1.605   8.439 -29.858  1.00  0.00     0.040 A 
HETATM   28  C   UNL     1       0.418   6.704 -27.565  1.00  0.00     0.352 A 
HETATM   29  C   UNL     1      -1.703   8.172 -31.228  1.00  0.00     0.012 A 
ENDBRANCH  20  21
ENDBRANCH  17  20
ENDBRANCH  15  16
ENDBRANCH  12  15
BRANCH   6  30
HETATM   30  S   UNL     1      -7.716   2.807 -32.545  1.00  0.00    -0.082 SA
BRANCH  30  31
HETATM   31  C   UNL     1      -8.131   1.435 -31.415  1.00  0.00     0.185 C 
BRANCH  31  32
HETATM   32  C   UNL     1      -7.176   0.248 -31.562  1.00  0.00     0.232 C 
HETATM   33  N   UNL     1      -6.975  -0.126 -32.885  1.00  0.00    -0.324 N 
HETATM   34  H   UNL     1      -7.460   0.423 -33.599  1.00  0.00     0.169 HD
HETATM   35  O   UNL     1      -6.693  -0.278 -30.566  1.00  0.00    -0.272 OA
BRANCH  33  36
HETATM   36  C   UNL     1      -6.210  -1.204 -33.402  1.00  0.00     0.073 A 
HETATM   37  C   UNL     1      -4.857  -1.465 -33.161  1.00  0.00     0.143 A 
HETATM   38  F   UNL     1      -4.090  -0.663 -32.415  1.00  0.00    -0.204 F 
HETATM   39  C   UNL     1      -4.220  -2.571 -33.735  1.00  0.00     0.044 A 
HETATM   40  C   UNL     1      -4.923  -3.441 -34.564  1.00  0.00     0.003 A 
HETATM   41  C   UNL     1      -6.267  -3.200 -34.821  1.00  0.00     0.002 A 
HETATM   42  C   UNL     1      -6.901  -2.093 -34.247  1.00  0.00     0.033 A 
ENDBRANCH  33  36
ENDBRANCH  31  32
ENDBRANCH  30  31
ENDBRANCH   6  30
TORSDOF 8
ENDMDL
MODEL 3
REMARK VINA RESULT:     -10.2      3.872      6.657
REMARK  8 active torsions:
REMARK  status: ('A' for Active; 'I' for Inactive)
REMARK    1  A    between atoms: C_6  and  S_7 
REMARK    2  A    between atoms: S_7  and  C_8 
REMARK    3  A    between atoms: C_8  and  C_9 
REMARK       I    between atoms: C_9  and  N_10 
REMARK    4  A    between atoms: N_10  and  C_11 
REMARK    5  A    between atoms: C_24  and  C_25 
REMARK    6  A    between atoms: C_25  and  C_26 
REMARK       I    between atoms: C_26  and  N_27 
REMARK    7  A    between atoms: N_27  and  C_28 
REMARK    8  A    between atoms: C_28  and  C_29 
ROOT
HETATM    1  C   UNL     1      -0.793   7.398 -32.283  1.00  0.00     0.001 A 
HETATM    2  C   UNL     1      -2.069   7.026 -32.708  1.00  0.00     0.018 A 
HETATM    3  C   UNL     1      -2.530   5.738 -32.433  1.00  0.00     0.039 A 
HETATM    4  C   UNL     1      -1.739   4.820 -31.733  1.00  0.00     0.073 A 
HETATM    5  N   UNL     1      -2.209   3.551 -31.372  1.00  0.00    -0.223 NA
HETATM    6  C   UNL     1      -3.396   3.208 -31.749  1.00  0.00     0.178 C 
HETATM    7  N   UNL     1      -4.194   3.990 -32.570  1.00  0.00    -0.241 N 
HETATM    8  C   UNL     1      -3.848   5.268 -32.873  1.00  0.00     0.147 A 
HETATM    9  N   UNL     1      -4.714   5.987 -33.526  1.00  0.00    -0.256 NA
HETATM   10  C   UNL     1      -5.423   3.743 -33.135  1.00  0.00     0.257 A 
HETATM   11  O   UNL     1      -6.100   2.727 -33.149  1.00  0.00    -0.270 OA
HETATM   12  C   UNL     1      -5.841   5.044 -33.792  1.00  0.00     0.211 A 
HETATM   13  C   UNL     1      -0.463   5.202 -31.320  1.00  0.00     0.032 A 
HETATM   14  C   UNL     1       0.011   6.486 -31.596  1.00  0.00     0.002 A 
ENDROOT
BRANCH  12  15
HETATM   15  C   UNL     1      -7.175   5.563 -33.257  1.00  0.00     0.140 C 
BRANCH  15  16
HETATM   16  C   UNL     1      -7.264   5.497 -31.741  1.00  0.00     0.220 C 
HETATM   17  N   UNL     1      -6.816   6.532 -30.986  1.00  0.00    -0.357 N 
HETATM   18  H   UNL     1      -6.959   6.408 -29.990  1.00  0.00     0.162 HD
HETATM   19  O   UNL     1      -7.729   4.514 -31.159  1.00  0.00    -0.274 OA
BRANCH  17  20
HETATM   20  C   UNL     1      -6.382   7.841 -31.430  1.00  0.00     0.161 C 
BRANCH  20  21
HETATM   21  C   UNL     1      -5.087   8.238 -30.767  1.00  0.00    -0.038 A 
HETATM   22  C   UNL     1      -4.443   7.351 -29.889  1.00  0.00     0.048 A 
HETATM   23  C   UNL     1      -3.253   7.750 -29.315  1.00  0.00     0.105 A 
HETATM   24  C   UNL     1      -2.692   8.975 -29.585  1.00  0.00     0.105 A 
HETATM   25  O   UNL     1      -2.507   7.020 -28.445  1.00  0.00    -0.323 OA
HETATM   26  O   UNL     1      -1.520   9.168 -28.922  1.00  0.00    -0.323 OA
HETATM   27  C   UNL     1      -3.290   9.872 -30.443  1.00  0.00     0.040 A 
HETATM   28  C   UNL     1      -1.415   7.927 -28.193  1.00  0.00     0.352 A 
HETATM   29  C   UNL     1      -4.502   9.500 -31.033  1.00  0.00     0.012 A 
ENDBRANCH  20  21
ENDBRANCH  17  20
ENDBRANCH  15  16
ENDBRANCH  12  15
BRANCH   6  30
HETATM   30  S   UNL     1      -4.043   1.734 -31.084  1.00  0.00    -0.082 SA
BRANCH  30  31
HETATM   31  C   UNL     1      -3.489   0.590 -32.393  1.00  0.00     0.185 C 
BRANCH  31  32
HETATM   32  C   UNL     1      -4.390  -0.641 -32.513  1.00  0.00     0.232 C 
HETATM   33  N   UNL     1      -4.079  -1.438 -33.608  1.00  0.00    -0.324 N 
HETATM   34  H   UNL     1      -3.296  -1.133 -34.192  1.00  0.00     0.169 HD
HETATM   35  O   UNL     1      -5.287  -0.827 -31.698  1.00  0.00    -0.272 OA
BRANCH  33  36
HETATM   36  C   UNL     1      -4.724  -2.615 -34.069  1.00  0.00     0.073 A 
HETATM   37  C   UNL     1      -4.244  -3.925 -33.979  1.00  0.00     0.143 A 
HETATM   38  F   UNL     1      -3.047  -4.220 -33.462  1.00  0.00    -0.204 F 
HETATM   39  C   UNL     1      -4.985  -5.003 -34.475  1.00  0.00     0.044 A 
HETATM   40  C   UNL     1      -6.225  -4.794 -35.073  1.00  0.00     0.003 A 
HETATM   41  C   UNL     1      -6.722  -3.501 -35.176  1.00  0.00     0.002 A 
HETATM   42  C   UNL     1      -5.977  -2.424 -34.682  1.00  0.00     0.033 A 
ENDBRANCH  33  36
ENDBRANCH  31  32
ENDBRANCH  30  31
ENDBRANCH   6  30
TORSDOF 8
ENDMDL
MODEL 4
REMARK VINA RESULT:     -10.2      4.529      8.997
REMARK  8 active torsions:
REMARK  status: ('A' for Active; 'I' for Inactive)
REMARK    1  A    between atoms: C_6  and  S_7 
REMARK    2  A    between atoms: S_7  and  C_8 
REMARK    3  A    between atoms: C_8  and  C_9 
REMARK       I    between atoms: C_9  and  N_10 
REMARK    4  A    between atoms: N_10  and  C_11 
REMARK    5  A    between atoms: C_24  and  C_25 
REMARK    6  A    between atoms: C_25  and  C_26 
REMARK       I    between atoms: C_26  and  N_27 
REMARK    7  A    between atoms: N_27  and  C_28 
REMARK    8  A    between atoms: C_28  and  C_29 
ROOT
HETATM    1  C   UNL     1      -1.314   5.655 -34.523  1.00  0.00     0.001 A 
HETATM    2  C   UNL     1      -2.374   4.858 -34.089  1.00  0.00     0.018 A 
HETATM    3  C   UNL     1      -3.139   5.276 -32.999  1.00  0.00     0.039 A 
HETATM    4  C   UNL     1      -2.867   6.481 -32.344  1.00  0.00     0.073 A 
HETATM    5  N   UNL     1      -3.670   6.964 -31.303  1.00  0.00    -0.223 NA
HETATM    6  C   UNL     1      -4.662   6.237 -30.908  1.00  0.00     0.178 C 
HETATM    7  N   UNL     1      -4.920   4.964 -31.395  1.00  0.00    -0.241 N 
HETATM    8  C   UNL     1      -4.249   4.476 -32.471  1.00  0.00     0.147 A 
HETATM    9  N   UNL     1      -4.645   3.337 -32.960  1.00  0.00    -0.256 NA
HETATM   10  C   UNL     1      -5.860   4.030 -31.027  1.00  0.00     0.257 A 
HETATM   11  O   UNL     1      -6.657   4.029 -30.103  1.00  0.00    -0.270 OA
HETATM   12  C   UNL     1      -5.739   2.907 -32.039  1.00  0.00     0.211 A 
HETATM   13  C   UNL     1      -1.801   7.266 -32.784  1.00  0.00     0.032 A 
HETATM   14  C   UNL     1      -1.025   6.854 -33.868  1.00  0.00     0.002 A 
ENDROOT
BRANCH  12  15
HETATM   15  C   UNL     1      -7.052   2.645 -32.774  1.00  0.00     0.140 C 
BRANCH  15  16
HETATM   16  C   UNL     1      -7.699   1.332 -32.366  1.00  0.00     0.220 C 
HETATM   17  N   UNL     1      -7.457   0.202 -33.078  1.00  0.00    -0.357 N 
HETATM   18  H   UNL     1      -7.902  -0.627 -32.701  1.00  0.00     0.162 HD
HETATM   19  O   UNL     1      -8.458   1.255 -31.397  1.00  0.00    -0.274 OA
BRANCH  17  20
HETATM   20  C   UNL     1      -6.494   0.004 -34.142  1.00  0.00     0.161 C 
BRANCH  20  21
HETATM   21  C   UNL     1      -6.108  -1.448 -34.263  1.00  0.00    -0.038 A 
HETATM   22  C   UNL     1      -4.860  -1.888 -33.790  1.00  0.00     0.048 A 
HETATM   23  C   UNL     1      -4.554  -3.229 -33.910  1.00  0.00     0.105 A 
HETATM   24  C   UNL     1      -5.431  -4.127 -34.466  1.00  0.00     0.105 A 
HETATM   25  O   UNL     1      -3.395  -3.816 -33.509  1.00  0.00    -0.323 OA
HETATM   26  O   UNL     1      -4.937  -5.394 -34.484  1.00  0.00    -0.323 OA
HETATM   27  C   UNL     1      -6.665  -3.737 -34.939  1.00  0.00     0.040 A 
HETATM   28  C   UNL     1      -3.641  -5.187 -33.884  1.00  0.00     0.352 A 
HETATM   29  C   UNL     1      -7.001  -2.383 -34.841  1.00  0.00     0.012 A 
ENDBRANCH  20  21
ENDBRANCH  17  20
ENDBRANCH  15  16
ENDBRANCH  12  15
BRANCH   6  30
HETATM   30  S   UNL     1      -5.780   6.965 -29.789  1.00  0.00    -0.082 SA
BRANCH  30  31
HETATM   31  C   UNL     1      -4.987   6.425 -28.236  1.00  0.00     0.185 C 
BRANCH  31  32
HETATM   32  C   UNL     1      -3.804   7.314 -27.845  1.00  0.00     0.232 C 
HETATM   33  N   UNL     1      -2.574   6.745 -28.151  1.00  0.00    -0.324 N 
HETATM   34  H   UNL     1      -2.589   5.828 -28.603  1.00  0.00     0.169 HD
HETATM   35  O   UNL     1      -4.001   8.395 -27.304  1.00  0.00    -0.272 OA
BRANCH  33  36
HETATM   36  C   UNL     1      -1.270   7.241 -27.888  1.00  0.00     0.073 A 
HETATM   37  C   UNL     1      -0.743   7.598 -26.643  1.00  0.00     0.143 A 
HETATM   38  F   UNL     1      -1.460   7.548 -25.515  1.00  0.00    -0.204 F 
HETATM   39  C   UNL     1       0.567   8.074 -26.522  1.00  0.00     0.044 A 
HETATM   40  C   UNL     1       1.380   8.205 -27.645  1.00  0.00     0.003 A 
HETATM   41  C   UNL     1       0.877   7.860 -28.893  1.00  0.00     0.002 A 
HETATM   42  C   UNL     1      -0.435   7.386 -29.012  1.00  0.00     0.033 A 
ENDBRANCH  33  36
ENDBRANCH  31  32
ENDBRANCH  30  31
ENDBRANCH   6  30
TORSDOF 8
ENDMDL
MODEL 5
REMARK VINA RESULT:     -10.2      3.564      8.400
REMARK  8 active torsions:
REMARK  status: ('A' for Active; 'I' for Inactive)
REMARK    1  A    between atoms: C_6  and  S_7 
REMARK    2  A    between atoms: S_7  and  C_8 
REMARK    3  A    between atoms: C_8  and  C_9 
REMARK       I    between atoms: C_9  and  N_10 
REMARK    4  A    between atoms: N_10  and  C_11 
REMARK    5  A    between atoms: C_24  and  C_25 
REMARK    6  A    between atoms: C_25  and  C_26 
REMARK       I    between atoms: C_26  and  N_27 
REMARK    7  A    between atoms: N_27  and  C_28 
REMARK    8  A    between atoms: C_28  and  C_29 
ROOT
HETATM    1  C   UNL     1      -7.070   0.123 -34.749  1.00  0.00     0.001 A 
HETATM    2  C   UNL     1      -6.748   1.470 -34.579  1.00  0.00     0.018 A 
HETATM    3  C   UNL     1      -7.451   2.225 -33.640  1.00  0.00     0.039 A 
HETATM    4  C   UNL     1      -8.464   1.653 -32.863  1.00  0.00     0.073 A 
HETATM    5  N   UNL     1      -9.127   2.367 -31.857  1.00  0.00    -0.223 NA
HETATM    6  C   UNL     1      -8.821   3.609 -31.685  1.00  0.00     0.178 C 
HETATM    7  N   UNL     1      -7.939   4.301 -32.502  1.00  0.00    -0.241 N 
HETATM    8  C   UNL     1      -7.186   3.652 -33.428  1.00  0.00     0.147 A 
HETATM    9  N   UNL     1      -6.278   4.342 -34.055  1.00  0.00    -0.256 NA
HETATM   10  C   UNL     1      -7.576   5.627 -32.520  1.00  0.00     0.257 A 
HETATM   11  O   UNL     1      -8.008   6.576 -31.886  1.00  0.00    -0.270 OA
HETATM   12  C   UNL     1      -6.457   5.731 -33.538  1.00  0.00     0.211 A 
HETATM   13  C   UNL     1      -8.781   0.308 -33.047  1.00  0.00     0.032 A 
HETATM   14  C   UNL     1      -8.089  -0.455 -33.989  1.00  0.00     0.002 A 
ENDROOT
BRANCH  12  15
HETATM   15  C   UNL     1      -5.174   6.300 -32.934  1.00  0.00     0.140 C 
BRANCH  15  16
HETATM   16  C   UNL     1      -3.924   5.615 -33.463  1.00  0.00     0.220 C 
HETATM   17  N   UNL     1      -3.221   4.771 -32.667  1.00  0.00    -0.357 N 
HETATM   18  H   UNL     1      -2.430   4.334 -33.127  1.00  0.00     0.162 HD
HETATM   19  O   UNL     1      -3.513   5.809 -34.610  1.00  0.00    -0.274 OA
BRANCH  17  20
HETATM   20  C   UNL     1      -3.583   4.265 -31.359  1.00  0.00     0.161 C 
BRANCH  20  21
HETATM   21  C   UNL     1      -4.086   2.846 -31.444  1.00  0.00    -0.038 A 
HETATM   22  C   UNL     1      -3.490   1.939 -32.336  1.00  0.00     0.048 A 
HETATM   23  C   UNL     1      -3.975   0.647 -32.372  1.00  0.00     0.105 A 
HETATM   24  C   UNL     1      -5.006   0.235 -31.563  1.00  0.00     0.105 A 
HETATM   25  O   UNL     1      -3.517  -0.350 -33.175  1.00  0.00    -0.323 OA
HETATM   26  O   UNL     1      -5.325  -1.073 -31.752  1.00  0.00    -0.323 OA
HETATM   27  C   UNL     1      -5.615   1.093 -30.673  1.00  0.00     0.040 A 
HETATM   28  C   UNL     1      -4.384  -1.435 -32.784  1.00  0.00     0.352 A 
HETATM   29  C   UNL     1      -5.152   2.412 -30.620  1.00  0.00     0.012 A 
ENDBRANCH  20  21
ENDBRANCH  17  20
ENDBRANCH  15  16
ENDBRANCH  12  15
BRANCH   6  30
HETATM   30  S   UNL     1      -9.477   4.399 -30.278  1.00  0.00    -0.082 SA
BRANCH  30  31
HETATM   31  C   UNL     1     -10.996   5.069 -31.038  1.00  0.00     0.185 C 
BRANCH  31  32
HETATM   32  C   UNL     1     -12.101   4.018 -31.160  1.00  0.00     0.232 C 
HETATM   33  N   UNL     1     -12.148   3.423 -32.414  1.00  0.00    -0.324 N 
HETATM   34  H   UNL     1     -11.452   3.731 -33.098  1.00  0.00     0.169 HD
HETATM   35  O   UNL     1     -12.842   3.794 -30.210  1.00  0.00    -0.272 OA
BRANCH  33  36
HETATM   36  C   UNL     1     -13.063   2.458 -32.912  1.00  0.00     0.073 A 
HETATM   37  C   UNL     1     -14.459   2.523 -32.866  1.00  0.00     0.143 A 
HETATM   38  F   UNL     1     -15.115   3.531 -32.282  1.00  0.00    -0.204 F 
HETATM   39  C   UNL     1     -15.249   1.499 -33.399  1.00  0.00     0.044 A 
HETATM   40  C   UNL     1     -14.659   0.384 -33.989  1.00  0.00     0.003 A 
HETATM   41  C   UNL     1     -13.274   0.295 -34.043  1.00  0.00     0.002 A 
HETATM   42  C   UNL     1     -12.486   1.321 -33.508  1.00  0.00     0.033 A 
ENDBRANCH  33  36
ENDBRANCH  31  32
ENDBRANCH  30  31
ENDBRANCH   6  30
TORSDOF 8
ENDMDL
MODEL 6
REMARK VINA RESULT:     -10.1      3.129      7.796
REMARK  8 active torsions:
REMARK  status: ('A' for Active; 'I' for Inactive)
REMARK    1  A    between atoms: C_6  and  S_7 
REMARK    2  A    between atoms: S_7  and  C_8 
REMARK    3  A    between atoms: C_8  and  C_9 
REMARK       I    between atoms: C_9  and  N_10 
REMARK    4  A    between atoms: N_10  and  C_11 
REMARK    5  A    between atoms: C_24  and  C_25 
REMARK    6  A    between atoms: C_25  and  C_26 
REMARK       I    between atoms: C_26  and  N_27 
REMARK    7  A    between atoms: N_27  and  C_28 
REMARK    8  A    between atoms: C_28  and  C_29 
ROOT
HETATM    1  C   UNL     1      -2.276   4.178 -33.152  1.00  0.00     0.001 A 
HETATM    2  C   UNL     1      -3.264   3.381 -32.574  1.00  0.00     0.018 A 
HETATM    3  C   UNL     1      -4.574   3.856 -32.514  1.00  0.00     0.039 A 
HETATM    4  C   UNL     1      -4.913   5.111 -33.032  1.00  0.00     0.073 A 
HETATM    5  N   UNL     1      -6.234   5.576 -33.060  1.00  0.00    -0.223 NA
HETATM    6  C   UNL     1      -7.155   4.835 -32.540  1.00  0.00     0.178 C 
HETATM    7  N   UNL     1      -6.896   3.647 -31.874  1.00  0.00    -0.241 N 
HETATM    8  C   UNL     1      -5.659   3.086 -31.895  1.00  0.00     0.147 A 
HETATM    9  N   UNL     1      -5.526   1.902 -31.373  1.00  0.00    -0.256 NA
HETATM   10  C   UNL     1      -7.731   2.794 -31.190  1.00  0.00     0.257 A 
HETATM   11  O   UNL     1      -8.911   2.905 -30.900  1.00  0.00    -0.270 OA
HETATM   12  C   UNL     1      -6.881   1.593 -30.826  1.00  0.00     0.211 A 
HETATM   13  C   UNL     1      -3.915   5.900 -33.602  1.00  0.00     0.032 A 
HETATM   14  C   UNL     1      -2.599   5.438 -33.660  1.00  0.00     0.002 A 
ENDROOT
BRANCH  12  15
HETATM   15  C   UNL     1      -7.451   0.289 -31.382  1.00  0.00     0.140 C 
BRANCH  15  16
HETATM   16  C   UNL     1      -8.123   0.471 -32.732  1.00  0.00     0.220 C 
HETATM   17  N   UNL     1      -7.382   0.471 -33.869  1.00  0.00    -0.357 N 
HETATM   18  H   UNL     1      -7.929   0.557 -34.718  1.00  0.00     0.162 HD
HETATM   19  O   UNL     1      -9.342   0.631 -32.835  1.00  0.00    -0.274 OA
BRANCH  17  20
HETATM   20  C   UNL     1      -5.978   0.148 -34.021  1.00  0.00     0.161 C 
BRANCH  20  21
HETATM   21  C   UNL     1      -5.777  -1.337 -34.192  1.00  0.00    -0.038 A 
HETATM   22  C   UNL     1      -4.610  -1.952 -33.710  1.00  0.00     0.048 A 
HETATM   23  C   UNL     1      -4.474  -3.315 -33.877  1.00  0.00     0.105 A 
HETATM   24  C   UNL     1      -5.444  -4.071 -34.490  1.00  0.00     0.105 A 
HETATM   25  O   UNL     1      -3.411  -4.062 -33.476  1.00  0.00    -0.323 OA
HETATM   26  O   UNL     1      -5.115  -5.390 -34.548  1.00  0.00    -0.323 OA
HETATM   27  C   UNL     1      -6.604  -3.508 -34.974  1.00  0.00     0.040 A 
HETATM   28  C   UNL     1      -3.820  -5.374 -33.912  1.00  0.00     0.352 A 
HETATM   29  C   UNL     1      -6.767  -2.126 -34.828  1.00  0.00     0.012 A 
ENDBRANCH  20  21
ENDBRANCH  17  20
ENDBRANCH  15  16
ENDBRANCH  12  15
BRANCH   6  30
HETATM   30  S   UNL     1      -8.806   5.321 -32.806  1.00  0.00    -0.082 SA
BRANCH  30  31
HETATM   31  C   UNL     1      -9.111   4.387 -34.344  1.00  0.00     0.185 C 
BRANCH  31  32
HETATM   32  C   UNL     1     -10.585   4.017 -34.521  1.00  0.00     0.232 C 
HETATM   33  N   UNL     1     -11.022   3.073 -33.599  1.00  0.00    -0.324 N 
HETATM   34  H   UNL     1     -10.337   2.746 -32.914  1.00  0.00     0.169 HD
HETATM   35  O   UNL     1     -11.244   4.528 -35.419  1.00  0.00    -0.272 OA
BRANCH  33  36
HETATM   36  C   UNL     1     -12.294   2.453 -33.490  1.00  0.00     0.073 A 
HETATM   37  C   UNL     1     -13.372   2.882 -32.708  1.00  0.00     0.143 A 
HETATM   38  F   UNL     1     -13.303   3.951 -31.908  1.00  0.00    -0.204 F 
HETATM   39  C   UNL     1     -14.579   2.176 -32.692  1.00  0.00     0.044 A 
HETATM   40  C   UNL     1     -14.736   1.023 -33.457  1.00  0.00     0.003 A 
HETATM   41  C   UNL     1     -13.678   0.576 -34.239  1.00  0.00     0.002 A 
HETATM   42  C   UNL     1     -12.470   1.283 -34.252  1.00  0.00     0.033 A 
ENDBRANCH  33  36
ENDBRANCH  31  32
ENDBRANCH  30  31
ENDBRANCH   6  30
TORSDOF 8
ENDMDL
MODEL 7
REMARK VINA RESULT:     -10.1      2.806      6.424
REMARK  8 active torsions:
REMARK  status: ('A' for Active; 'I' for Inactive)
REMARK    1  A    between atoms: C_6  and  S_7 
REMARK    2  A    between atoms: S_7  and  C_8 
REMARK    3  A    between atoms: C_8  and  C_9 
REMARK       I    between atoms: C_9  and  N_10 
REMARK    4  A    between atoms: N_10  and  C_11 
REMARK    5  A    between atoms: C_24  and  C_25 
REMARK    6  A    between atoms: C_25  and  C_26 
REMARK       I    between atoms: C_26  and  N_27 
REMARK    7  A    between atoms: N_27  and  C_28 
REMARK    8  A    between atoms: C_28  and  C_29 
ROOT
HETATM    1  C   UNL     1      -6.409  -3.058 -34.866  1.00  0.00     0.001 A 
HETATM    2  C   UNL     1      -6.990  -1.993 -34.178  1.00  0.00     0.018 A 
HETATM    3  C   UNL     1      -6.181  -1.156 -33.409  1.00  0.00     0.039 A 
HETATM    4  C   UNL     1      -4.800  -1.362 -33.324  1.00  0.00     0.073 A 
HETATM    5  N   UNL     1      -3.955  -0.489 -32.628  1.00  0.00    -0.223 NA
HETATM    6  C   UNL     1      -4.487   0.508 -32.003  1.00  0.00     0.178 C 
HETATM    7  N   UNL     1      -5.855   0.709 -31.906  1.00  0.00    -0.241 N 
HETATM    8  C   UNL     1      -6.727  -0.035 -32.636  1.00  0.00     0.147 A 
HETATM    9  N   UNL     1      -7.982   0.307 -32.605  1.00  0.00    -0.256 NA
HETATM   10  C   UNL     1      -6.583   1.648 -31.213  1.00  0.00     0.257 A 
HETATM   11  O   UNL     1      -6.224   2.498 -30.414  1.00  0.00    -0.270 OA
HETATM   12  C   UNL     1      -8.025   1.443 -31.637  1.00  0.00     0.211 A 
HETATM   13  C   UNL     1      -4.232  -2.434 -34.012  1.00  0.00     0.032 A 
HETATM   14  C   UNL     1      -5.033  -3.282 -34.778  1.00  0.00     0.002 A 
ENDROOT
BRANCH  12  15
HETATM   15  C   UNL     1      -8.636   2.705 -32.245  1.00  0.00     0.140 C 
BRANCH  15  16
HETATM   16  C   UNL     1      -9.503   3.469 -31.258  1.00  0.00     0.220 C 
HETATM   17  N   UNL     1     -10.379   4.406 -31.703  1.00  0.00    -0.357 N 
HETATM   18  H   UNL     1     -10.939   4.827 -30.971  1.00  0.00     0.162 HD
HETATM   19  O   UNL     1      -9.433   3.272 -30.043  1.00  0.00    -0.274 OA
BRANCH  17  20
HETATM   20  C   UNL     1     -10.754   4.701 -33.071  1.00  0.00     0.161 C 
BRANCH  20  21
HETATM   21  C   UNL     1     -11.721   3.673 -33.603  1.00  0.00    -0.038 A 
HETATM   22  C   UNL     1     -12.875   3.344 -32.874  1.00  0.00     0.048 A 
HETATM   23  C   UNL     1     -13.738   2.407 -33.405  1.00  0.00     0.105 A 
HETATM   24  C   UNL     1     -13.498   1.804 -34.616  1.00  0.00     0.105 A 
HETATM   25  O   UNL     1     -14.892   1.975 -32.830  1.00  0.00    -0.323 OA
HETATM   26  O   UNL     1     -14.472   0.918 -34.957  1.00  0.00    -0.323 OA
HETATM   27  C   UNL     1     -12.379   2.100 -35.364  1.00  0.00     0.040 A 
HETATM   28  C   UNL     1     -15.347   1.025 -33.815  1.00  0.00     0.352 A 
HETATM   29  C   UNL     1     -11.481   3.039 -34.847  1.00  0.00     0.012 A 
ENDBRANCH  20  21
ENDBRANCH  17  20
ENDBRANCH  15  16
ENDBRANCH  12  15
BRANCH   6  30
HETATM   30  S   UNL     1      -3.401   1.707 -31.356  1.00  0.00    -0.082 SA
BRANCH  30  31
HETATM   31  C   UNL     1      -3.537   2.936 -32.698  1.00  0.00     0.185 C 
BRANCH  31  32
HETATM   32  C   UNL     1      -2.514   4.066 -32.561  1.00  0.00     0.232 C 
HETATM   33  N   UNL     1      -2.366   4.510 -31.252  1.00  0.00    -0.324 N 
HETATM   34  H   UNL     1      -2.929   4.039 -30.540  1.00  0.00     0.169 HD
HETATM   35  O   UNL     1      -1.938   4.497 -33.553  1.00  0.00    -0.272 OA
BRANCH  33  36
HETATM   36  C   UNL     1      -1.562   5.566 -30.752  1.00  0.00     0.073 A 
HETATM   37  C   UNL     1      -0.172   5.683 -30.854  1.00  0.00     0.143 A 
HETATM   38  F   UNL     1       0.591   4.745 -31.424  1.00  0.00    -0.204 F 
HETATM   39  C   UNL     1       0.502   6.785 -30.316  1.00  0.00     0.044 A 
HETATM   40  C   UNL     1      -0.199   7.794 -29.662  1.00  0.00     0.003 A 
HETATM   41  C   UNL     1      -1.580   7.698 -29.545  1.00  0.00     0.002 A 
HETATM   42  C   UNL     1      -2.252   6.595 -30.083  1.00  0.00     0.033 A 
ENDBRANCH  33  36
ENDBRANCH  31  32
ENDBRANCH  30  31
ENDBRANCH   6  30
TORSDOF 8
ENDMDL
MODEL 8
REMARK VINA RESULT:      -9.8      5.488      9.174
REMARK  8 active torsions:
REMARK  status: ('A' for Active; 'I' for Inactive)
REMARK    1  A    between atoms: C_6  and  S_7 
REMARK    2  A    between atoms: S_7  and  C_8 
REMARK    3  A    between atoms: C_8  and  C_9 
REMARK       I    between atoms: C_9  and  N_10 
REMARK    4  A    between atoms: N_10  and  C_11 
REMARK    5  A    between atoms: C_24  and  C_25 
REMARK    6  A    between atoms: C_25  and  C_26 
REMARK       I    between atoms: C_26  and  N_27 
REMARK    7  A    between atoms: N_27  and  C_28 
REMARK    8  A    between atoms: C_28  and  C_29 
ROOT
HETATM    1  C   UNL     1       0.407   7.092 -30.067  1.00  0.00     0.001 A 
HETATM    2  C   UNL     1      -0.912   7.428 -29.761  1.00  0.00     0.018 A 
HETATM    3  C   UNL     1      -1.953   6.706 -30.346  1.00  0.00     0.039 A 
HETATM    4  C   UNL     1      -1.695   5.649 -31.225  1.00  0.00     0.073 A 
HETATM    5  N   UNL     1      -2.717   4.856 -31.760  1.00  0.00    -0.223 NA
HETATM    6  C   UNL     1      -3.939   5.153 -31.466  1.00  0.00     0.178 C 
HETATM    7  N   UNL     1      -4.299   6.268 -30.726  1.00  0.00    -0.241 N 
HETATM    8  C   UNL     1      -3.363   7.021 -30.093  1.00  0.00     0.147 A 
HETATM    9  N   UNL     1      -3.784   7.964 -29.300  1.00  0.00    -0.256 NA
HETATM   10  C   UNL     1      -5.535   6.779 -30.405  1.00  0.00     0.257 A 
HETATM   11  O   UNL     1      -6.651   6.444 -30.770  1.00  0.00    -0.270 OA
HETATM   12  C   UNL     1      -5.269   7.920 -29.442  1.00  0.00     0.211 A 
HETATM   13  C   UNL     1      -0.372   5.327 -31.528  1.00  0.00     0.032 A 
HETATM   14  C   UNL     1       0.676   6.048 -30.954  1.00  0.00     0.002 A 
ENDROOT
BRANCH  12  15
HETATM   15  C   UNL     1      -5.979   7.726 -28.103  1.00  0.00     0.140 C 
BRANCH  15  16
HETATM   16  C   UNL     1      -5.533   6.467 -27.380  1.00  0.00     0.220 C 
HETATM   17  N   UNL     1      -4.514   6.518 -26.485  1.00  0.00    -0.357 N 
HETATM   18  H   UNL     1      -4.322   5.634 -26.027  1.00  0.00     0.162 HD
HETATM   19  O   UNL     1      -6.068   5.375 -27.586  1.00  0.00    -0.274 OA
BRANCH  17  20
HETATM   20  C   UNL     1      -3.843   7.690 -25.961  1.00  0.00     0.161 C 
BRANCH  20  21
HETATM   21  C   UNL     1      -2.346   7.570 -26.107  1.00  0.00    -0.038 A 
HETATM   22  C   UNL     1      -1.541   8.721 -26.084  1.00  0.00     0.048 A 
HETATM   23  C   UNL     1      -0.175   8.563 -26.209  1.00  0.00     0.105 A 
HETATM   24  C   UNL     1       0.403   7.324 -26.345  1.00  0.00     0.105 A 
HETATM   25  O   UNL     1       0.742   9.566 -26.211  1.00  0.00    -0.323 OA
HETATM   26  O   UNL     1       1.757   7.391 -26.447  1.00  0.00    -0.323 OA
HETATM   27  C   UNL     1      -0.351   6.172 -26.369  1.00  0.00     0.040 A 
HETATM   28  C   UNL     1       1.964   8.817 -26.372  1.00  0.00     0.352 A 
HETATM   29  C   UNL     1      -1.739   6.300 -26.254  1.00  0.00     0.012 A 
ENDBRANCH  20  21
ENDBRANCH  17  20
ENDBRANCH  15  16
ENDBRANCH  12  15
BRANCH   6  30
HETATM   30  S   UNL     1      -5.167   4.013 -31.942  1.00  0.00    -0.082 SA
BRANCH  30  31
HETATM   31  C   UNL     1      -4.984   2.837 -30.558  1.00  0.00     0.185 C 
BRANCH  31  32
HETATM   32  C   UNL     1      -5.112   1.380 -31.008  1.00  0.00     0.232 C 
HETATM   33  N   UNL     1      -5.185   1.242 -32.389  1.00  0.00    -0.324 N 
HETATM   34  H   UNL     1      -5.134   2.102 -32.941  1.00  0.00     0.169 HD
HETATM   35  O   UNL     1      -5.158   0.481 -30.176  1.00  0.00    -0.272 OA
BRANCH  33  36
HETATM   36  C   UNL     1      -5.364   0.066 -33.162  1.00  0.00     0.073 A 
HETATM   37  C   UNL     1      -4.448  -0.979 -33.324  1.00  0.00     0.143 A 
HETATM   38  F   UNL     1      -3.229  -0.961 -32.775  1.00  0.00    -0.204 F 
HETATM   39  C   UNL     1      -4.751  -2.091 -34.117  1.00  0.00     0.044 A 
HETATM   40  C   UNL     1      -5.979  -2.182 -34.768  1.00  0.00     0.003 A 
HETATM   41  C   UNL     1      -6.903  -1.155 -34.625  1.00  0.00     0.002 A 
HETATM   42  C   UNL     1      -6.597  -0.043 -33.832  1.00  0.00     0.033 A 
ENDBRANCH  33  36
ENDBRANCH  31  32
ENDBRANCH  30  31
ENDBRANCH   6  30
TORSDOF 8
ENDMDL
MODEL 9
REMARK VINA RESULT:      -9.8      4.496      8.172
REMARK  8 active torsions:
REMARK  status: ('A' for Active; 'I' for Inactive)
REMARK    1  A    between atoms: C_6  and  S_7 
REMARK    2  A    between atoms: S_7  and  C_8 
REMARK    3  A    between atoms: C_8  and  C_9 
REMARK       I    between atoms: C_9  and  N_10 
REMARK    4  A    between atoms: N_10  and  C_11 
REMARK    5  A    between atoms: C_24  and  C_25 
REMARK    6  A    between atoms: C_25  and  C_26 
REMARK       I    between atoms: C_26  and  N_27 
REMARK    7  A    between atoms: N_27  and  C_28 
REMARK    8  A    between atoms: C_28  and  C_29 
ROOT
HETATM    1  C   UNL     1      -5.384   0.287 -30.602  1.00  0.00     0.001 A 
HETATM    2  C   UNL     1      -5.664   1.608 -30.252  1.00  0.00     0.018 A 
HETATM    3  C   UNL     1      -4.811   2.623 -30.686  1.00  0.00     0.039 A 
HETATM    4  C   UNL     1      -3.688   2.339 -31.471  1.00  0.00     0.073 A 
HETATM    5  N   UNL     1      -2.864   3.345 -31.989  1.00  0.00    -0.223 NA
HETATM    6  C   UNL     1      -3.129   4.571 -31.681  1.00  0.00     0.178 C 
HETATM    7  N   UNL     1      -4.128   4.939 -30.793  1.00  0.00    -0.241 N 
HETATM    8  C   UNL     1      -5.027   4.030 -30.333  1.00  0.00     0.147 A 
HETATM    9  N   UNL     1      -6.020   4.475 -29.620  1.00  0.00    -0.256 NA
HETATM   10  C   UNL     1      -4.479   6.169 -30.288  1.00  0.00     0.257 A 
HETATM   11  O   UNL     1      -3.942   7.259 -30.408  1.00  0.00    -0.270 OA
HETATM   12  C   UNL     1      -5.749   5.938 -29.492  1.00  0.00     0.211 A 
HETATM   13  C   UNL     1      -3.416   1.013 -31.808  1.00  0.00     0.032 A 
HETATM   14  C   UNL     1      -4.258  -0.011 -31.373  1.00  0.00     0.002 A 
ENDROOT
BRANCH  12  15
HETATM   15  C   UNL     1      -6.912   6.794 -29.993  1.00  0.00     0.140 C 
BRANCH  15  16
HETATM   16  C   UNL     1      -8.204   6.005 -30.128  1.00  0.00     0.220 C 
HETATM   17  N   UNL     1      -8.586   5.524 -31.339  1.00  0.00    -0.357 N 
HETATM   18  H   UNL     1      -9.439   4.978 -31.314  1.00  0.00     0.162 HD
HETATM   19  O   UNL     1      -8.937   5.788 -29.160  1.00  0.00    -0.274 OA
BRANCH  17  20
HETATM   20  C   UNL     1      -7.830   5.510 -32.574  1.00  0.00     0.161 C 
BRANCH  20  21
HETATM   21  C   UNL     1      -7.499   4.099 -32.992  1.00  0.00    -0.038 A 
HETATM   22  C   UNL     1      -8.288   3.027 -32.545  1.00  0.00     0.048 A 
HETATM   23  C   UNL     1      -7.956   1.754 -32.963  1.00  0.00     0.105 A 
HETATM   24  C   UNL     1      -6.891   1.519 -33.798  1.00  0.00     0.105 A 
HETATM   25  O   UNL     1      -8.609   0.611 -32.622  1.00  0.00    -0.323 OA
HETATM   26  O   UNL     1      -6.741   0.199 -34.091  1.00  0.00    -0.323 OA
HETATM   27  C   UNL     1      -6.094   2.543 -34.261  1.00  0.00     0.040 A 
HETATM   28  C   UNL     1      -7.829  -0.371 -33.333  1.00  0.00     0.352 A 
HETATM   29  C   UNL     1      -6.399   3.844 -33.847  1.00  0.00     0.012 A 
ENDBRANCH  20  21
ENDBRANCH  17  20
ENDBRANCH  15  16
ENDBRANCH  12  15
BRANCH   6  30
HETATM   30  S   UNL     1      -2.244   5.809 -32.530  1.00  0.00    -0.082 SA
BRANCH  30  31
HETATM   31  C   UNL     1      -0.555   5.252 -32.121  1.00  0.00     0.185 C 
BRANCH  31  32
HETATM   32  C   UNL     1      -0.224   5.430 -30.638  1.00  0.00     0.232 C 
HETATM   33  N   UNL     1      -0.446   6.724 -30.183  1.00  0.00    -0.324 N 
HETATM   34  H   UNL     1      -0.809   7.396 -30.863  1.00  0.00     0.169 HD
HETATM   35  O   UNL     1       0.207   4.485 -29.987  1.00  0.00    -0.272 OA
BRANCH  33  36
HETATM   36  C   UNL     1      -0.203   7.273 -28.897  1.00  0.00     0.073 A 
HETATM   37  C   UNL     1      -1.069   7.255 -27.799  1.00  0.00     0.143 A 
HETATM   38  F   UNL     1      -2.296   6.728 -27.858  1.00  0.00    -0.204 F 
HETATM   39  C   UNL     1      -0.703   7.834 -26.580  1.00  0.00     0.044 A 
HETATM   40  C   UNL     1       0.538   8.448 -26.431  1.00  0.00     0.003 A 
HETATM   41  C   UNL     1       1.414   8.482 -27.509  1.00  0.00     0.002 A 
HETATM   42  C   UNL     1       1.045   7.903 -28.729  1.00  0.00     0.033 A 
ENDBRANCH  33  36
ENDBRANCH  31  32
ENDBRANCH  30  31
ENDBRANCH   6  30
TORSDOF 8
ENDMDL
MODEL 10
REMARK VINA RESULT:      -9.5      4.404      8.653
REMARK  8 active torsions:
REMARK  status: ('A' for Active; 'I' for Inactive)
REMARK    1  A    between atoms: C_6  and  S_7 
REMARK    2  A    between atoms: S_7  and  C_8 
REMARK    3  A    between atoms: C_8  and  C_9 
REMARK       I    between atoms: C_9  and  N_10 
REMARK    4  A    between atoms: N_10  and  C_11 
REMARK    5  A    between atoms: C_24  and  C_25 
REMARK    6  A    between atoms: C_25  and  C_26 
REMARK       I    between atoms: C_26  and  N_27 
REMARK    7  A    between atoms: N_27  and  C_28 
REMARK    8  A    between atoms: C_28  and  C_29 
ROOT
HETATM    1  C   UNL     1      -7.976   8.020 -31.993  1.00  0.00     0.001 A 
HETATM    2  C   UNL     1      -6.651   7.585 -31.949  1.00  0.00     0.018 A 
HETATM    3  C   UNL     1      -6.385   6.215 -31.932  1.00  0.00     0.039 A 
HETATM    4  C   UNL     1      -7.421   5.276 -31.966  1.00  0.00     0.073 A 
HETATM    5  N   UNL     1      -7.178   3.898 -32.035  1.00  0.00    -0.223 NA
HETATM    6  C   UNL     1      -5.953   3.491 -32.011  1.00  0.00     0.178 C 
HETATM    7  N   UNL     1      -4.869   4.335 -31.829  1.00  0.00    -0.241 N 
HETATM    8  C   UNL     1      -5.019   5.685 -31.858  1.00  0.00     0.147 A 
HETATM    9  N   UNL     1      -3.939   6.411 -31.827  1.00  0.00    -0.256 NA
HETATM   10  C   UNL     1      -3.528   4.066 -31.688  1.00  0.00     0.257 A 
HETATM   11  O   UNL     1      -2.940   3.001 -31.582  1.00  0.00    -0.270 OA
HETATM   12  C   UNL     1      -2.836   5.415 -31.685  1.00  0.00     0.211 A 
HETATM   13  C   UNL     1      -8.741   5.724 -32.003  1.00  0.00     0.032 A 
HETATM   14  C   UNL     1      -9.019   7.092 -32.013  1.00  0.00     0.002 A 
ENDROOT
BRANCH  12  15
HETATM   15  C   UNL     1      -1.793   5.535 -32.794  1.00  0.00     0.140 C 
BRANCH  15  16
HETATM   16  C   UNL     1      -1.177   6.922 -32.871  1.00  0.00     0.220 C 
HETATM   17  N   UNL     1      -0.273   7.320 -31.940  1.00  0.00    -0.357 N 
HETATM   18  H   UNL     1       0.109   8.244 -32.105  1.00  0.00     0.162 HD
HETATM   19  O   UNL     1      -1.480   7.719 -33.763  1.00  0.00    -0.274 OA
BRANCH  17  20
HETATM   20  C   UNL     1       0.354   6.523 -30.906  1.00  0.00     0.161 C 
BRANCH  20  21
HETATM   21  C   UNL     1       0.067   7.086 -29.537  1.00  0.00    -0.038 A 
HETATM   22  C   UNL     1      -1.176   6.855 -28.925  1.00  0.00     0.048 A 
HETATM   23  C   UNL     1      -1.391   7.379 -27.666  1.00  0.00     0.105 A 
HETATM   24  C   UNL     1      -0.427   8.103 -27.007  1.00  0.00     0.105 A 
HETATM   25  O   UNL     1      -2.533   7.253 -26.939  1.00  0.00    -0.323 OA
HETATM   26  O   UNL     1      -0.840   8.522 -25.781  1.00  0.00    -0.323 OA
HETATM   27  C   UNL     1       0.806   8.349 -27.571  1.00  0.00     0.040 A 
HETATM   28  C   UNL     1      -2.179   7.988 -25.749  1.00  0.00     0.352 A 
HETATM   29  C   UNL     1       1.050   7.840 -28.850  1.00  0.00     0.012 A 
ENDBRANCH  20  21
ENDBRANCH  17  20
ENDBRANCH  15  16
ENDBRANCH  12  15
BRANCH   6  30
HETATM   30  S   UNL     1      -5.674   1.804 -32.342  1.00  0.00    -0.082 SA
BRANCH  30  31
HETATM   31  C   UNL     1      -6.870   1.601 -33.705  1.00  0.00     0.185 C 
BRANCH  31  32
HETATM   32  C   UNL     1      -6.660   0.298 -34.478  1.00  0.00     0.232 C 
HETATM   33  N   UNL     1      -6.241  -0.753 -33.670  1.00  0.00    -0.324 N 
HETATM   34  H   UNL     1      -6.135  -0.552 -32.673  1.00  0.00     0.169 HD
HETATM   35  O   UNL     1      -6.843   0.266 -35.690  1.00  0.00    -0.272 OA
BRANCH  33  36
HETATM   36  C   UNL     1      -5.895  -2.079 -34.036  1.00  0.00     0.073 A 
HETATM   37  C   UNL     1      -4.633  -2.674 -33.941  1.00  0.00     0.143 A 
HETATM   38  F   UNL     1      -3.553  -2.010 -33.515  1.00  0.00    -0.204 F 
HETATM   39  C   UNL     1      -4.426  -4.000 -34.337  1.00  0.00     0.044 A 
HETATM   40  C   UNL     1      -5.479  -4.762 -34.837  1.00  0.00     0.003 A 
HETATM   41  C   UNL     1      -6.741  -4.191 -34.944  1.00  0.00     0.002 A 
HETATM   42  C   UNL     1      -6.945  -2.864 -34.550  1.00  0.00     0.033 A 
ENDBRANCH  33  36
ENDBRANCH  31  32
ENDBRANCH  30  31
ENDBRANCH   6  30
TORSDOF 8
ENDMDL
