MODEL 1
REMARK VINA RESULT:      -8.8      0.000      0.000
REMARK  7 active torsions:
REMARK  status: ('A' for Active; 'I' for Inactive)
REMARK    1  A    between atoms: O_2  and  C_3 
REMARK    2  A    between atoms: C_4  and  N_5 
REMARK    3  A    between atoms: N_5  and  C_6 
REMARK    4  A    between atoms: C_6  and  C_7 
REMARK       I    between atoms: C_7  and  N_8 
REMARK    5  A    between atoms: N_8  and  N_9 
REMARK       I    between atoms: N_9  and  C_10 
REMARK    6  A    between atoms: C_10  and  C_11 
REMARK    7  A    between atoms: N_13  and  C_14 
ROOT
HETATM    1  N   UNL     1      -3.689   3.773 -31.687  1.00  0.00    -0.263 N 
HETATM    2  C   UNL     1      -4.570   2.863 -31.118  1.00  0.00     0.273 C 
HETATM    3  O   UNL     1      -5.047   2.952 -29.992  1.00  0.00    -0.266 OA
HETATM    4  H   UNL     1      -3.095   3.448 -32.443  1.00  0.00     0.190 HD
ENDROOT
BRANCH   1   5
HETATM    5  N   UNL     1      -3.137   4.778 -30.879  1.00  0.00    -0.266 N 
HETATM    6  C   UNL     1      -1.811   5.147 -31.086  1.00  0.00     0.249 C 
HETATM    7  O   UNL     1      -1.010   4.521 -31.775  1.00  0.00    -0.270 OA
HETATM    8  H   UNL     1      -3.756   5.539 -30.593  1.00  0.00     0.190 HD
BRANCH   6   9
HETATM    9  C   UNL     1      -1.470   6.455 -30.369  1.00  0.00     0.197 C 
BRANCH   9  10
HETATM   10  N   UNL     1      -1.192   6.189 -28.949  1.00  0.00    -0.282 NA
HETATM   11  H   UNL     1      -1.107   5.197 -28.714  1.00  0.00     0.128 HD
BRANCH  10  12
HETATM   12  C   UNL     1      -0.178   6.900 -28.278  1.00  0.00     0.042 A 
HETATM   13  C   UNL     1      -0.043   6.725 -26.878  1.00  0.00     0.089 A 
HETATM   14  C   UNL     1       0.911   7.452 -26.158  1.00  0.00     0.038 A 
HETATM   15  C   UNL     1       1.712   8.392 -26.806  1.00  0.00     0.003 A 
HETATM   16  C   UNL     1       1.559   8.609 -28.170  1.00  0.00     0.002 A 
HETATM   17  C   UNL     1       0.614   7.879 -28.895  1.00  0.00     0.026 A 
BRANCH  13  18
HETATM   18  O   UNL     1      -0.876   5.781 -26.318  1.00  0.00    -0.354 OA
HETATM   19  C   UNL     1      -1.984   6.289 -25.583  1.00  0.00     0.210 C 
ENDBRANCH  13  18
ENDBRANCH  10  12
ENDBRANCH   9  10
ENDBRANCH   6   9
ENDBRANCH   1   5
BRANCH   2  20
HETATM   20  C   UNL     1      -4.876   1.756 -32.005  1.00  0.00     0.070 A 
HETATM   21  C   UNL     1      -4.441   0.452 -31.884  1.00  0.00     0.137 A 
HETATM   22  N   UNL     1      -4.953  -0.255 -32.950  1.00  0.00    -0.244 N 
HETATM   23  N   UNL     1      -5.751   0.532 -33.720  1.00  0.00    -0.179 NA
HETATM   24  C   UNL     1      -5.690   1.734 -33.152  1.00  0.00     0.157 A 
BRANCH  22  25
HETATM   25  C   UNL     1      -4.720  -1.613 -33.303  1.00  0.00     0.059 A 
HETATM   26  C   UNL     1      -5.521  -2.264 -34.251  1.00  0.00     0.055 A 
HETATM   27  C   UNL     1      -5.278  -3.605 -34.553  1.00  0.00     0.036 A 
HETATM   28 CL   UNL     1      -6.278  -4.416 -35.697  1.00  0.00    -0.084 Cl
HETATM   29  C   UNL     1      -4.241  -4.302 -33.933  1.00  0.00     0.024 A 
HETATM   30  C   UNL     1      -3.439  -3.657 -32.994  1.00  0.00     0.004 A 
HETATM   31  C   UNL     1      -3.680  -2.319 -32.675  1.00  0.00     0.031 A 
ENDBRANCH  22  25
ENDBRANCH   2  20
TORSDOF 7
ENDMDL
MODEL 2
REMARK VINA RESULT:      -8.8      1.728      2.533
REMARK  7 active torsions:
REMARK  status: ('A' for Active; 'I' for Inactive)
REMARK    1  A    between atoms: O_2  and  C_3 
REMARK    2  A    between atoms: C_4  and  N_5 
REMARK    3  A    between atoms: N_5  and  C_6 
REMARK    4  A    between atoms: C_6  and  C_7 
REMARK       I    between atoms: C_7  and  N_8 
REMARK    5  A    between atoms: N_8  and  N_9 
REMARK       I    between atoms: N_9  and  C_10 
REMARK    6  A    between atoms: C_10  and  C_11 
REMARK    7  A    between atoms: N_13  and  C_14 
ROOT
HETATM    1  N   UNL     1      -4.688   3.746 -30.996  1.00  0.00    -0.263 N 
HETATM    2  C   UNL     1      -3.871   2.811 -31.616  1.00  0.00     0.273 C 
HETATM    3  O   UNL     1      -2.647   2.790 -31.550  1.00  0.00    -0.266 OA
HETATM    4  H   UNL     1      -5.616   3.895 -31.382  1.00  0.00     0.190 HD
ENDROOT
BRANCH   1   5
HETATM    5  N   UNL     1      -4.100   4.871 -30.398  1.00  0.00    -0.266 N 
HETATM    6  C   UNL     1      -4.353   6.126 -30.945  1.00  0.00     0.249 C 
HETATM    7  O   UNL     1      -4.876   6.320 -32.039  1.00  0.00    -0.270 OA
HETATM    8  H   UNL     1      -3.997   4.857 -29.382  1.00  0.00     0.190 HD
BRANCH   6   9
HETATM    9  C   UNL     1      -3.922   7.251 -30.000  1.00  0.00     0.197 C 
BRANCH   9  10
HETATM   10  N   UNL     1      -3.045   6.712 -28.949  1.00  0.00    -0.282 NA
HETATM   11  H   UNL     1      -3.002   5.691 -28.918  1.00  0.00     0.128 HD
BRANCH  10  12
HETATM   12  C   UNL     1      -1.744   7.224 -28.779  1.00  0.00     0.042 A 
HETATM   13  C   UNL     1      -0.670   6.571 -29.433  1.00  0.00     0.089 A 
HETATM   14  C   UNL     1       0.647   7.007 -29.249  1.00  0.00     0.038 A 
HETATM   15  C   UNL     1       0.921   8.065 -28.383  1.00  0.00     0.003 A 
HETATM   16  C   UNL     1      -0.117   8.686 -27.699  1.00  0.00     0.002 A 
HETATM   17  C   UNL     1      -1.434   8.260 -27.885  1.00  0.00     0.026 A 
BRANCH  13  18
HETATM   18  O   UNL     1      -1.028   5.533 -30.265  1.00  0.00    -0.354 OA
HETATM   19  C   UNL     1      -0.267   5.405 -31.461  1.00  0.00     0.210 C 
ENDBRANCH  13  18
ENDBRANCH  10  12
ENDBRANCH   9  10
ENDBRANCH   6   9
ENDBRANCH   1   5
BRANCH   2  20
HETATM   20  C   UNL     1      -4.623   1.835 -32.382  1.00  0.00     0.070 A 
HETATM   21  C   UNL     1      -4.372   0.480 -32.471  1.00  0.00     0.137 A 
HETATM   22  N   UNL     1      -5.316  -0.059 -33.318  1.00  0.00    -0.244 N 
HETATM   23  N   UNL     1      -6.202   0.888 -33.729  1.00  0.00    -0.179 NA
HETATM   24  C   UNL     1      -5.772   2.017 -33.172  1.00  0.00     0.157 A 
BRANCH  22  25
HETATM   25  C   UNL     1      -5.423  -1.399 -33.783  1.00  0.00     0.059 A 
HETATM   26  C   UNL     1      -4.379  -2.315 -33.604  1.00  0.00     0.055 A 
HETATM   27  C   UNL     1      -4.511  -3.615 -34.097  1.00  0.00     0.036 A 
HETATM   28 CL   UNL     1      -3.218  -4.736 -33.902  1.00  0.00    -0.084 Cl
HETATM   29  C   UNL     1      -5.674  -4.017 -34.754  1.00  0.00     0.024 A 
HETATM   30  C   UNL     1      -6.717  -3.110 -34.929  1.00  0.00     0.004 A 
HETATM   31  C   UNL     1      -6.591  -1.804 -34.451  1.00  0.00     0.031 A 
ENDBRANCH  22  25
ENDBRANCH   2  20
TORSDOF 7
ENDMDL
MODEL 3
REMARK VINA RESULT:      -8.6      2.308      3.003
REMARK  7 active torsions:
REMARK  status: ('A' for Active; 'I' for Inactive)
REMARK    1  A    between atoms: O_2  and  C_3 
REMARK    2  A    between atoms: C_4  and  N_5 
REMARK    3  A    between atoms: N_5  and  C_6 
REMARK    4  A    between atoms: C_6  and  C_7 
REMARK       I    between atoms: C_7  and  N_8 
REMARK    5  A    between atoms: N_8  and  N_9 
REMARK       I    between atoms: N_9  and  C_10 
REMARK    6  A    between atoms: C_10  and  C_11 
REMARK    7  A    between atoms: N_13  and  C_14 
ROOT
HETATM    1  N   UNL     1      -3.535   3.902 -33.120  1.00  0.00    -0.263 N 
HETATM    2  C   UNL     1      -3.413   2.871 -32.199  1.00  0.00     0.273 C 
HETATM    3  O   UNL     1      -2.632   2.859 -31.254  1.00  0.00    -0.266 OA
HETATM    4  H   UNL     1      -3.929   3.681 -34.030  1.00  0.00     0.190 HD
ENDROOT
BRANCH   1   5
HETATM    5  N   UNL     1      -2.585   4.935 -33.113  1.00  0.00    -0.266 N 
HETATM    6  C   UNL     1      -2.740   5.989 -34.009  1.00  0.00     0.249 C 
HETATM    7  O   UNL     1      -3.519   5.992 -34.958  1.00  0.00    -0.270 OA
HETATM    8  H   UNL     1      -2.185   5.193 -32.209  1.00  0.00     0.190 HD
BRANCH   6   9
HETATM    9  C   UNL     1      -1.832   7.170 -33.654  1.00  0.00     0.197 C 
BRANCH   9  10
HETATM   10  N   UNL     1      -2.267   7.768 -32.382  1.00  0.00    -0.282 NA
HETATM   11  H   UNL     1      -3.229   7.545 -32.118  1.00  0.00     0.128 HD
BRANCH  10  12
HETATM   12  C   UNL     1      -1.451   7.673 -31.238  1.00  0.00     0.042 A 
HETATM   13  C   UNL     1      -1.793   8.443 -30.099  1.00  0.00     0.089 A 
HETATM   14  C   UNL     1      -0.982   8.426 -28.958  1.00  0.00     0.038 A 
HETATM   15  C   UNL     1       0.197   7.683 -28.946  1.00  0.00     0.003 A 
HETATM   16  C   UNL     1       0.571   6.961 -30.073  1.00  0.00     0.002 A 
HETATM   17  C   UNL     1      -0.239   6.966 -31.211  1.00  0.00     0.026 A 
BRANCH  13  18
HETATM   18  O   UNL     1      -2.971   9.150 -30.196  1.00  0.00    -0.354 OA
HETATM   19  C   UNL     1      -2.850  10.568 -30.150  1.00  0.00     0.210 C 
ENDBRANCH  13  18
ENDBRANCH  10  12
ENDBRANCH   9  10
ENDBRANCH   6   9
ENDBRANCH   1   5
BRANCH   2  20
HETATM   20  C   UNL     1      -4.318   1.771 -32.472  1.00  0.00     0.070 A 
HETATM   21  C   UNL     1      -3.982   0.521 -32.953  1.00  0.00     0.137 A 
HETATM   22  N   UNL     1      -5.150  -0.199 -33.081  1.00  0.00    -0.244 N 
HETATM   23  N   UNL     1      -6.218   0.519 -32.642  1.00  0.00    -0.179 NA
HETATM   24  C   UNL     1      -5.711   1.698 -32.290  1.00  0.00     0.157 A 
BRANCH  22  25
HETATM   25  C   UNL     1      -5.327  -1.507 -33.610  1.00  0.00     0.059 A 
HETATM   26  C   UNL     1      -4.303  -2.462 -33.544  1.00  0.00     0.055 A 
HETATM   27  C   UNL     1      -4.506  -3.728 -34.098  1.00  0.00     0.036 A 
HETATM   28 CL   UNL     1      -3.240  -4.895 -34.043  1.00  0.00    -0.084 Cl
HETATM   29  C   UNL     1      -5.718  -4.059 -34.704  1.00  0.00     0.024 A 
HETATM   30  C   UNL     1      -6.740  -3.115 -34.766  1.00  0.00     0.004 A 
HETATM   31  C   UNL     1      -6.544  -1.842 -34.227  1.00  0.00     0.031 A 
ENDBRANCH  22  25
ENDBRANCH   2  20
TORSDOF 7
ENDMDL
MODEL 4
REMARK VINA RESULT:      -8.5      1.664      2.000
REMARK  7 active torsions:
REMARK  status: ('A' for Active; 'I' for Inactive)
REMARK    1  A    between atoms: O_2  and  C_3 
REMARK    2  A    between atoms: C_4  and  N_5 
REMARK    3  A    between atoms: N_5  and  C_6 
REMARK    4  A    between atoms: C_6  and  C_7 
REMARK       I    between atoms: C_7  and  N_8 
REMARK    5  A    between atoms: N_8  and  N_9 
REMARK       I    between atoms: N_9  and  C_10 
REMARK    6  A    between atoms: C_10  and  C_11 
REMARK    7  A    between atoms: N_13  and  C_14 
ROOT
HETATM    1  N   UNL     1      -4.603   3.754 -31.108  1.00  0.00    -0.263 N 
HETATM    2  C   UNL     1      -3.842   2.675 -31.536  1.00  0.00     0.273 C 
HETATM    3  O   UNL     1      -2.643   2.529 -31.324  1.00  0.00    -0.266 OA
HETATM    4  H   UNL     1      -5.459   3.960 -31.613  1.00  0.00     0.190 HD
ENDROOT
BRANCH   1   5
HETATM    5  N   UNL     1      -3.952   4.866 -30.553  1.00  0.00    -0.266 N 
HETATM    6  C   UNL     1      -4.039   6.088 -31.214  1.00  0.00     0.249 C 
HETATM    7  O   UNL     1      -4.461   6.237 -32.357  1.00  0.00    -0.270 OA
HETATM    8  H   UNL     1      -3.923   4.928 -29.534  1.00  0.00     0.190 HD
BRANCH   6   9
HETATM    9  C   UNL     1      -3.569   7.244 -30.327  1.00  0.00     0.197 C 
BRANCH   9  10
HETATM   10  N   UNL     1      -2.904   6.714 -29.126  1.00  0.00    -0.282 NA
HETATM   11  H   UNL     1      -2.981   5.701 -29.014  1.00  0.00     0.128 HD
BRANCH  10  12
HETATM   12  C   UNL     1      -1.587   7.104 -28.814  1.00  0.00     0.042 A 
HETATM   13  C   UNL     1      -1.357   7.797 -27.600  1.00  0.00     0.089 A 
HETATM   14  C   UNL     1      -0.076   8.255 -27.273  1.00  0.00     0.038 A 
HETATM   15  C   UNL     1       0.983   8.071 -28.161  1.00  0.00     0.003 A 
HETATM   16  C   UNL     1       0.764   7.435 -29.377  1.00  0.00     0.002 A 
HETATM   17  C   UNL     1      -0.511   6.967 -29.705  1.00  0.00     0.026 A 
BRANCH  13  18
HETATM   18  O   UNL     1      -2.457   7.939 -26.784  1.00  0.00    -0.354 OA
HETATM   19  C   UNL     1      -2.347   7.364 -25.486  1.00  0.00     0.210 C 
ENDBRANCH  13  18
ENDBRANCH  10  12
ENDBRANCH   9  10
ENDBRANCH   6   9
ENDBRANCH   1   5
BRANCH   2  20
HETATM   20  C   UNL     1      -4.619   1.710 -32.290  1.00  0.00     0.070 A 
HETATM   21  C   UNL     1      -4.347   0.365 -32.444  1.00  0.00     0.137 A 
HETATM   22  N   UNL     1      -5.329  -0.165 -33.251  1.00  0.00    -0.244 N 
HETATM   23  N   UNL     1      -6.258   0.775 -33.573  1.00  0.00    -0.179 NA
HETATM   24  C   UNL     1      -5.818   1.893 -33.002  1.00  0.00     0.157 A 
BRANCH  22  25
HETATM   25  C   UNL     1      -5.437  -1.490 -33.757  1.00  0.00     0.059 A 
HETATM   26  C   UNL     1      -4.388  -2.408 -33.619  1.00  0.00     0.055 A 
HETATM   27  C   UNL     1      -4.522  -3.692 -34.151  1.00  0.00     0.036 A 
HETATM   28 CL   UNL     1      -3.223  -4.814 -34.007  1.00  0.00    -0.084 Cl
HETATM   29  C   UNL     1      -5.691  -4.077 -34.808  1.00  0.00     0.024 A 
HETATM   30  C   UNL     1      -6.738  -3.169 -34.942  1.00  0.00     0.004 A 
HETATM   31  C   UNL     1      -6.611  -1.879 -34.425  1.00  0.00     0.031 A 
ENDBRANCH  22  25
ENDBRANCH   2  20
TORSDOF 7
ENDMDL
MODEL 5
REMARK VINA RESULT:      -8.5      3.903     10.509
REMARK  7 active torsions:
REMARK  status: ('A' for Active; 'I' for Inactive)
REMARK    1  A    between atoms: O_2  and  C_3 
REMARK    2  A    between atoms: C_4  and  N_5 
REMARK    3  A    between atoms: N_5  and  C_6 
REMARK    4  A    between atoms: C_6  and  C_7 
REMARK       I    between atoms: C_7  and  N_8 
REMARK    5  A    between atoms: N_8  and  N_9 
REMARK       I    between atoms: N_9  and  C_10 
REMARK    6  A    between atoms: C_10  and  C_11 
REMARK    7  A    between atoms: N_13  and  C_14 
ROOT
HETATM    1  N   UNL     1      -3.262   3.904 -31.061  1.00  0.00    -0.263 N 
HETATM    2  C   UNL     1      -2.293   4.402 -31.921  1.00  0.00     0.273 C 
HETATM    3  O   UNL     1      -2.225   4.164 -33.121  1.00  0.00    -0.266 OA
HETATM    4  H   UNL     1      -3.041   3.862 -30.071  1.00  0.00     0.190 HD
ENDROOT
BRANCH   1   5
HETATM    5  N   UNL     1      -4.131   2.903 -31.524  1.00  0.00    -0.266 N 
HETATM    6  C   UNL     1      -5.368   2.755 -30.904  1.00  0.00     0.249 C 
HETATM    7  O   UNL     1      -5.687   3.284 -29.843  1.00  0.00    -0.270 OA
HETATM    8  H   UNL     1      -4.125   2.710 -32.527  1.00  0.00     0.190 HD
BRANCH   6   9
HETATM    9  C   UNL     1      -6.308   1.867 -31.724  1.00  0.00     0.197 C 
BRANCH   9  10
HETATM   10  N   UNL     1      -5.683   1.536 -33.014  1.00  0.00    -0.282 NA
HETATM   11  H   UNL     1      -4.762   1.958 -33.157  1.00  0.00     0.128 HD
BRANCH  10  12
HETATM   12  C   UNL     1      -5.644   0.201 -33.462  1.00  0.00     0.042 A 
HETATM   13  C   UNL     1      -4.434  -0.523 -33.321  1.00  0.00     0.089 A 
HETATM   14  C   UNL     1      -4.328  -1.833 -33.803  1.00  0.00     0.038 A 
HETATM   15  C   UNL     1      -5.401  -2.425 -34.466  1.00  0.00     0.003 A 
HETATM   16  C   UNL     1      -6.578  -1.711 -34.654  1.00  0.00     0.002 A 
HETATM   17  C   UNL     1      -6.693  -0.406 -34.167  1.00  0.00     0.026 A 
BRANCH  13  18
HETATM   18  O   UNL     1      -3.424   0.138 -32.658  1.00  0.00    -0.354 OA
HETATM   19  C   UNL     1      -2.902  -0.519 -31.508  1.00  0.00     0.210 C 
ENDBRANCH  13  18
ENDBRANCH  10  12
ENDBRANCH   9  10
ENDBRANCH   6   9
ENDBRANCH   1   5
BRANCH   2  20
HETATM   20  C   UNL     1      -1.332   5.252 -31.244  1.00  0.00     0.070 A 
HETATM   21  C   UNL     1      -1.588   6.137 -30.215  1.00  0.00     0.137 A 
HETATM   22  N   UNL     1      -0.396   6.747 -29.889  1.00  0.00    -0.244 N 
HETATM   23  N   UNL     1       0.629   6.244 -30.629  1.00  0.00    -0.179 NA
HETATM   24  C   UNL     1       0.056   5.359 -31.442  1.00  0.00     0.157 A 
BRANCH  22  25
HETATM   25  C   UNL     1      -0.164   7.786 -28.947  1.00  0.00     0.059 A 
HETATM   26  C   UNL     1      -1.157   8.728 -28.645  1.00  0.00     0.055 A 
HETATM   27  C   UNL     1      -0.883   9.749 -27.733  1.00  0.00     0.036 A 
HETATM   28 CL   UNL     1      -2.093  10.924 -27.381  1.00  0.00    -0.084 Cl
HETATM   29  C   UNL     1       0.361   9.837 -27.108  1.00  0.00     0.024 A 
HETATM   30  C   UNL     1       1.348   8.899 -27.401  1.00  0.00     0.004 A 
HETATM   31  C   UNL     1       1.090   7.881 -28.321  1.00  0.00     0.031 A 
ENDBRANCH  22  25
ENDBRANCH   2  20
TORSDOF 7
ENDMDL
MODEL 6
REMARK VINA RESULT:      -8.2      2.382      3.475
REMARK  7 active torsions:
REMARK  status: ('A' for Active; 'I' for Inactive)
REMARK    1  A    between atoms: O_2  and  C_3 
REMARK    2  A    between atoms: C_4  and  N_5 
REMARK    3  A    between atoms: N_5  and  C_6 
REMARK    4  A    between atoms: C_6  and  C_7 
REMARK       I    between atoms: C_7  and  N_8 
REMARK    5  A    between atoms: N_8  and  N_9 
REMARK       I    between atoms: N_9  and  C_10 
REMARK    6  A    between atoms: C_10  and  C_11 
REMARK    7  A    between atoms: N_13  and  C_14 
ROOT
HETATM    1  N   UNL     1      -4.734   3.440 -30.956  1.00  0.00    -0.263 N 
HETATM    2  C   UNL     1      -3.937   2.395 -31.405  1.00  0.00     0.273 C 
HETATM    3  O   UNL     1      -2.745   2.260 -31.155  1.00  0.00    -0.266 OA
HETATM    4  H   UNL     1      -5.575   3.655 -31.482  1.00  0.00     0.190 HD
ENDROOT
BRANCH   1   5
HETATM    5  N   UNL     1      -4.124   4.536 -30.325  1.00  0.00    -0.266 N 
HETATM    6  C   UNL     1      -4.643   5.807 -30.551  1.00  0.00     0.249 C 
HETATM    7  O   UNL     1      -5.460   6.085 -31.425  1.00  0.00    -0.270 OA
HETATM    8  H   UNL     1      -3.749   4.383 -29.388  1.00  0.00     0.190 HD
BRANCH   6   9
HETATM    9  C   UNL     1      -4.090   6.827 -29.552  1.00  0.00     0.197 C 
BRANCH   9  10
HETATM   10  N   UNL     1      -2.661   7.056 -29.811  1.00  0.00    -0.282 NA
HETATM   11  H   UNL     1      -2.032   6.576 -29.163  1.00  0.00     0.128 HD
BRANCH  10  12
HETATM   12  C   UNL     1      -2.146   6.929 -31.116  1.00  0.00     0.042 A 
HETATM   13  C   UNL     1      -1.209   5.898 -31.375  1.00  0.00     0.089 A 
HETATM   14  C   UNL     1      -0.627   5.767 -32.641  1.00  0.00     0.038 A 
HETATM   15  C   UNL     1      -0.932   6.678 -33.652  1.00  0.00     0.003 A 
HETATM   16  C   UNL     1      -1.813   7.723 -33.398  1.00  0.00     0.002 A 
HETATM   17  C   UNL     1      -2.404   7.853 -32.140  1.00  0.00     0.026 A 
BRANCH  13  18
HETATM   18  O   UNL     1      -0.962   5.046 -30.322  1.00  0.00    -0.354 OA
HETATM   19  C   UNL     1       0.355   5.088 -29.784  1.00  0.00     0.210 C 
ENDBRANCH  13  18
ENDBRANCH  10  12
ENDBRANCH   9  10
ENDBRANCH   6   9
ENDBRANCH   1   5
BRANCH   2  20
HETATM   20  C   UNL     1      -4.668   1.453 -32.232  1.00  0.00     0.070 A 
HETATM   21  C   UNL     1      -4.432   0.099 -32.352  1.00  0.00     0.137 A 
HETATM   22  N   UNL     1      -5.345  -0.401 -33.254  1.00  0.00    -0.244 N 
HETATM   23  N   UNL     1      -6.200   0.570 -33.673  1.00  0.00    -0.179 NA
HETATM   24  C   UNL     1      -5.780   1.676 -33.064  1.00  0.00     0.157 A 
BRANCH  22  25
HETATM   25  C   UNL     1      -5.450  -1.725 -33.764  1.00  0.00     0.059 A 
HETATM   26  C   UNL     1      -4.381  -2.627 -33.668  1.00  0.00     0.055 A 
HETATM   27  C   UNL     1      -4.513  -3.909 -34.203  1.00  0.00     0.036 A 
HETATM   28 CL   UNL     1      -3.192  -5.011 -34.111  1.00  0.00    -0.084 Cl
HETATM   29  C   UNL     1      -5.698  -4.310 -34.820  1.00  0.00     0.024 A 
HETATM   30  C   UNL     1      -6.765  -3.418 -34.912  1.00  0.00     0.004 A 
HETATM   31  C   UNL     1      -6.640  -2.129 -34.392  1.00  0.00     0.031 A 
ENDBRANCH  22  25
ENDBRANCH   2  20
TORSDOF 7
ENDMDL
MODEL 7
REMARK VINA RESULT:      -8.1      2.568      3.695
REMARK  7 active torsions:
REMARK  status: ('A' for Active; 'I' for Inactive)
REMARK    1  A    between atoms: O_2  and  C_3 
REMARK    2  A    between atoms: C_4  and  N_5 
REMARK    3  A    between atoms: N_5  and  C_6 
REMARK    4  A    between atoms: C_6  and  C_7 
REMARK       I    between atoms: C_7  and  N_8 
REMARK    5  A    between atoms: N_8  and  N_9 
REMARK       I    between atoms: N_9  and  C_10 
REMARK    6  A    between atoms: C_10  and  C_11 
REMARK    7  A    between atoms: N_13  and  C_14 
ROOT
HETATM    1  N   UNL     1      -5.940   3.304 -33.126  1.00  0.00    -0.263 N 
HETATM    2  C   UNL     1      -6.848   2.319 -32.762  1.00  0.00     0.273 C 
HETATM    3  O   UNL     1      -7.646   2.403 -31.836  1.00  0.00    -0.266 OA
HETATM    4  H   UNL     1      -5.115   3.021 -33.646  1.00  0.00     0.190 HD
ENDROOT
BRANCH   1   5
HETATM    5  N   UNL     1      -5.765   4.411 -32.281  1.00  0.00    -0.266 N 
HETATM    6  C   UNL     1      -4.703   4.401 -31.382  1.00  0.00     0.249 C 
HETATM    7  O   UNL     1      -4.024   3.414 -31.110  1.00  0.00    -0.270 OA
HETATM    8  H   UNL     1      -5.998   5.329 -32.662  1.00  0.00     0.190 HD
BRANCH   6   9
HETATM    9  C   UNL     1      -4.457   5.789 -30.783  1.00  0.00     0.197 C 
BRANCH   9  10
HETATM   10  N   UNL     1      -3.512   6.537 -31.627  1.00  0.00    -0.282 NA
HETATM   11  H   UNL     1      -3.866   7.436 -31.962  1.00  0.00     0.128 HD
BRANCH  10  12
HETATM   12  C   UNL     1      -2.173   6.701 -31.220  1.00  0.00     0.042 A 
HETATM   13  C   UNL     1      -1.173   5.932 -31.864  1.00  0.00     0.089 A 
HETATM   14  C   UNL     1       0.163   6.017 -31.457  1.00  0.00     0.038 A 
HETATM   15  C   UNL     1       0.518   6.831 -30.382  1.00  0.00     0.003 A 
HETATM   16  C   UNL     1      -0.459   7.556 -29.711  1.00  0.00     0.002 A 
HETATM   17  C   UNL     1      -1.793   7.481 -30.118  1.00  0.00     0.026 A 
BRANCH  13  18
HETATM   18  O   UNL     1      -1.610   5.152 -32.912  1.00  0.00    -0.354 OA
HETATM   19  C   UNL     1      -1.199   5.569 -34.210  1.00  0.00     0.210 C 
ENDBRANCH  13  18
ENDBRANCH  10  12
ENDBRANCH   9  10
ENDBRANCH   6   9
ENDBRANCH   1   5
BRANCH   2  20
HETATM   20  C   UNL     1      -6.755   1.140 -33.602  1.00  0.00     0.070 A 
HETATM   21  C   UNL     1      -6.394  -0.133 -33.207  1.00  0.00     0.137 A 
HETATM   22  N   UNL     1      -6.420  -0.935 -34.327  1.00  0.00    -0.244 N 
HETATM   23  N   UNL     1      -6.843  -0.241 -35.417  1.00  0.00    -0.179 NA
HETATM   24  C   UNL     1      -7.030   1.001 -34.974  1.00  0.00     0.157 A 
BRANCH  22  25
HETATM   25  C   UNL     1      -6.050  -2.304 -34.441  1.00  0.00     0.059 A 
HETATM   26  C   UNL     1      -4.838  -2.775 -33.920  1.00  0.00     0.055 A 
HETATM   27  C   UNL     1      -4.498  -4.120 -34.075  1.00  0.00     0.036 A 
HETATM   28 CL   UNL     1      -2.995  -4.696 -33.461  1.00  0.00    -0.084 Cl
HETATM   29  C   UNL     1      -5.355  -5.005 -34.730  1.00  0.00     0.024 A 
HETATM   30  C   UNL     1      -6.565  -4.542 -35.243  1.00  0.00     0.004 A 
HETATM   31  C   UNL     1      -6.909  -3.196 -35.106  1.00  0.00     0.031 A 
ENDBRANCH  22  25
ENDBRANCH   2  20
TORSDOF 7
ENDMDL
MODEL 8
REMARK VINA RESULT:      -8.1      3.976     10.825
REMARK  7 active torsions:
REMARK  status: ('A' for Active; 'I' for Inactive)
REMARK    1  A    between atoms: O_2  and  C_3 
REMARK    2  A    between atoms: C_4  and  N_5 
REMARK    3  A    between atoms: N_5  and  C_6 
REMARK    4  A    between atoms: C_6  and  C_7 
REMARK       I    between atoms: C_7  and  N_8 
REMARK    5  A    between atoms: N_8  and  N_9 
REMARK       I    between atoms: N_9  and  C_10 
REMARK    6  A    between atoms: C_10  and  C_11 
REMARK    7  A    between atoms: N_13  and  C_14 
ROOT
HETATM    1  N   UNL     1      -3.314   3.742 -31.185  1.00  0.00    -0.263 N 
HETATM    2  C   UNL     1      -2.416   4.272 -32.102  1.00  0.00     0.273 C 
HETATM    3  O   UNL     1      -2.390   4.007 -33.298  1.00  0.00    -0.266 OA
HETATM    4  H   UNL     1      -3.046   3.739 -30.206  1.00  0.00     0.190 HD
ENDROOT
BRANCH   1   5
HETATM    5  N   UNL     1      -4.143   2.682 -31.583  1.00  0.00    -0.266 N 
HETATM    6  C   UNL     1      -3.745   1.380 -31.296  1.00  0.00     0.249 C 
HETATM    7  O   UNL     1      -2.624   1.060 -30.911  1.00  0.00    -0.270 OA
HETATM    8  H   UNL     1      -5.152   2.843 -31.549  1.00  0.00     0.190 HD
BRANCH   6   9
HETATM    9  C   UNL     1      -4.891   0.384 -31.491  1.00  0.00     0.197 C 
BRANCH   9  10
HETATM   10  N   UNL     1      -5.281   0.343 -32.909  1.00  0.00    -0.282 NA
HETATM   11  H   UNL     1      -4.781   1.007 -33.504  1.00  0.00     0.128 HD
BRANCH  10  12
HETATM   12  C   UNL     1      -5.372  -0.889 -33.586  1.00  0.00     0.042 A 
HETATM   13  C   UNL     1      -6.649  -1.340 -33.999  1.00  0.00     0.089 A 
HETATM   14  C   UNL     1      -6.798  -2.584 -34.624  1.00  0.00     0.038 A 
HETATM   15  C   UNL     1      -5.692  -3.413 -34.808  1.00  0.00     0.003 A 
HETATM   16  C   UNL     1      -4.440  -3.005 -34.365  1.00  0.00     0.002 A 
HETATM   17  C   UNL     1      -4.284  -1.761 -33.749  1.00  0.00     0.026 A 
BRANCH  13  18
HETATM   18  O   UNL     1      -7.687  -0.462 -33.776  1.00  0.00    -0.354 OA
HETATM   19  C   UNL     1      -8.091   0.320 -34.895  1.00  0.00     0.210 C 
ENDBRANCH  13  18
ENDBRANCH  10  12
ENDBRANCH   9  10
ENDBRANCH   6   9
ENDBRANCH   1   5
BRANCH   2  20
HETATM   20  C   UNL     1      -1.476   5.193 -31.491  1.00  0.00     0.070 A 
HETATM   21  C   UNL     1      -1.448   5.595 -30.170  1.00  0.00     0.137 A 
HETATM   22  N   UNL     1      -0.406   6.486 -30.032  1.00  0.00    -0.244 N 
HETATM   23  N   UNL     1       0.275   6.627 -31.201  1.00  0.00    -0.179 NA
HETATM   24  C   UNL     1      -0.379   5.858 -32.068  1.00  0.00     0.157 A 
BRANCH  22  25
HETATM   25  C   UNL     1      -0.027   7.230 -28.881  1.00  0.00     0.059 A 
HETATM   26  C   UNL     1      -0.540   8.513 -28.644  1.00  0.00     0.055 A 
HETATM   27  C   UNL     1      -0.124   9.222 -27.515  1.00  0.00     0.036 A 
HETATM   28 CL   UNL     1      -0.731  10.810 -27.236  1.00  0.00    -0.084 Cl
HETATM   29  C   UNL     1       0.785   8.667 -26.615  1.00  0.00     0.024 A 
HETATM   30  C   UNL     1       1.292   7.390 -26.844  1.00  0.00     0.004 A 
HETATM   31  C   UNL     1       0.893   6.676 -27.976  1.00  0.00     0.031 A 
ENDBRANCH  22  25
ENDBRANCH   2  20
TORSDOF 7
ENDMDL
MODEL 9
REMARK VINA RESULT:      -8.1      6.755     10.076
REMARK  7 active torsions:
REMARK  status: ('A' for Active; 'I' for Inactive)
REMARK    1  A    between atoms: O_2  and  C_3 
REMARK    2  A    between atoms: C_4  and  N_5 
REMARK    3  A    between atoms: N_5  and  C_6 
REMARK    4  A    between atoms: C_6  and  C_7 
REMARK       I    between atoms: C_7  and  N_8 
REMARK    5  A    between atoms: N_8  and  N_9 
REMARK       I    between atoms: N_9  and  C_10 
REMARK    6  A    between atoms: C_10  and  C_11 
REMARK    7  A    between atoms: N_13  and  C_14 
ROOT
HETATM    1  N   UNL     1      -7.220   1.582 -33.014  1.00  0.00    -0.263 N 
HETATM    2  C   UNL     1      -7.681   2.720 -32.367  1.00  0.00     0.273 C 
HETATM    3  O   UNL     1      -6.998   3.460 -31.667  1.00  0.00    -0.266 OA
HETATM    4  H   UNL     1      -7.898   0.869 -33.260  1.00  0.00     0.190 HD
ENDROOT
BRANCH   1   5
HETATM    5  N   UNL     1      -5.932   1.108 -32.718  1.00  0.00    -0.266 N 
HETATM    6  C   UNL     1      -5.800   0.057 -31.817  1.00  0.00     0.249 C 
HETATM    7  O   UNL     1      -6.698  -0.359 -31.089  1.00  0.00    -0.270 OA
HETATM    8  H   UNL     1      -5.249   1.114 -33.477  1.00  0.00     0.190 HD
BRANCH   6   9
HETATM    9  C   UNL     1      -4.395  -0.549 -31.858  1.00  0.00     0.197 C 
BRANCH   9  10
HETATM   10  N   UNL     1      -4.080  -0.989 -33.226  1.00  0.00    -0.282 NA
HETATM   11  H   UNL     1      -3.183  -0.651 -33.582  1.00  0.00     0.128 HD
BRANCH  10  12
HETATM   12  C   UNL     1      -4.230  -2.342 -33.589  1.00  0.00     0.042 A 
HETATM   13  C   UNL     1      -5.280  -2.692 -34.473  1.00  0.00     0.089 A 
HETATM   14  C   UNL     1      -5.505  -4.029 -34.818  1.00  0.00     0.038 A 
HETATM   15  C   UNL     1      -4.721  -5.039 -34.261  1.00  0.00     0.003 A 
HETATM   16  C   UNL     1      -3.718  -4.715 -33.356  1.00  0.00     0.002 A 
HETATM   17  C   UNL     1      -3.483  -3.381 -33.014  1.00  0.00     0.026 A 
BRANCH  13  18
HETATM   18  O   UNL     1      -6.008  -1.635 -34.975  1.00  0.00    -0.354 OA
HETATM   19  C   UNL     1      -7.395  -1.630 -34.658  1.00  0.00     0.210 C 
ENDBRANCH  13  18
ENDBRANCH  10  12
ENDBRANCH   9  10
ENDBRANCH   6   9
ENDBRANCH   1   5
BRANCH   2  20
HETATM   20  C   UNL     1      -9.094   2.957 -32.595  1.00  0.00     0.070 A 
HETATM   21  C   UNL     1     -10.076   2.002 -32.773  1.00  0.00     0.137 A 
HETATM   22  N   UNL     1     -11.265   2.667 -32.978  1.00  0.00    -0.244 N 
HETATM   23  N   UNL     1     -11.096   4.013 -32.878  1.00  0.00    -0.179 NA
HETATM   24  C   UNL     1      -9.793   4.175 -32.660  1.00  0.00     0.157 A 
BRANCH  22  25
HETATM   25  C   UNL     1     -12.541   2.120 -33.284  1.00  0.00     0.059 A 
HETATM   26  C   UNL     1     -13.688   2.516 -32.583  1.00  0.00     0.055 A 
HETATM   27  C   UNL     1     -14.920   1.937 -32.895  1.00  0.00     0.036 A 
HETATM   28 CL   UNL     1     -16.327   2.401 -32.016  1.00  0.00    -0.084 Cl
HETATM   29  C   UNL     1     -15.027   0.980 -33.905  1.00  0.00     0.024 A 
HETATM   30  C   UNL     1     -13.890   0.589 -34.608  1.00  0.00     0.004 A 
HETATM   31  C   UNL     1     -12.651   1.151 -34.296  1.00  0.00     0.031 A 
ENDBRANCH  22  25
ENDBRANCH   2  20
TORSDOF 7
ENDMDL
MODEL 10
REMARK VINA RESULT:      -8.0      4.410      9.769
REMARK  7 active torsions:
REMARK  status: ('A' for Active; 'I' for Inactive)
REMARK    1  A    between atoms: O_2  and  C_3 
REMARK    2  A    between atoms: C_4  and  N_5 
REMARK    3  A    between atoms: N_5  and  C_6 
REMARK    4  A    between atoms: C_6  and  C_7 
REMARK       I    between atoms: C_7  and  N_8 
REMARK    5  A    between atoms: N_8  and  N_9 
REMARK       I    between atoms: N_9  and  C_10 
REMARK    6  A    between atoms: C_10  and  C_11 
REMARK    7  A    between atoms: N_13  and  C_14 
ROOT
HETATM    1  N   UNL     1      -6.223   3.159 -32.943  1.00  0.00    -0.263 N 
HETATM    2  C   UNL     1      -6.112   4.395 -33.564  1.00  0.00     0.273 C 
HETATM    3  O   UNL     1      -7.015   4.967 -34.165  1.00  0.00    -0.266 OA
HETATM    4  H   UNL     1      -5.373   2.626 -32.792  1.00  0.00     0.190 HD
ENDROOT
BRANCH   1   5
HETATM    5  N   UNL     1      -7.381   2.394 -33.156  1.00  0.00    -0.266 N 
HETATM    6  C   UNL     1      -7.440   1.574 -34.278  1.00  0.00     0.249 C 
HETATM    7  O   UNL     1      -6.653   1.617 -35.219  1.00  0.00    -0.270 OA
HETATM    8  H   UNL     1      -7.855   2.029 -32.328  1.00  0.00     0.190 HD
BRANCH   6   9
HETATM    9  C   UNL     1      -8.599   0.578 -34.188  1.00  0.00     0.197 C 
BRANCH   9  10
HETATM   10  N   UNL     1      -8.226  -0.546 -33.315  1.00  0.00    -0.282 NA
HETATM   11  H   UNL     1      -8.970  -1.233 -33.171  1.00  0.00     0.128 HD
BRANCH  10  12
HETATM   12  C   UNL     1      -7.012  -1.230 -33.518  1.00  0.00     0.042 A 
HETATM   13  C   UNL     1      -5.911  -0.913 -32.685  1.00  0.00     0.089 A 
HETATM   14  C   UNL     1      -4.667  -1.524 -32.884  1.00  0.00     0.038 A 
HETATM   15  C   UNL     1      -4.488  -2.422 -33.934  1.00  0.00     0.003 A 
HETATM   16  C   UNL     1      -5.546  -2.708 -34.789  1.00  0.00     0.002 A 
HETATM   17  C   UNL     1      -6.792  -2.108 -34.589  1.00  0.00     0.026 A 
BRANCH  13  18
HETATM   18  O   UNL     1      -6.173  -0.013 -31.675  1.00  0.00    -0.354 OA
HETATM   19  C   UNL     1      -5.066   0.340 -30.854  1.00  0.00     0.210 C 
ENDBRANCH  13  18
ENDBRANCH  10  12
ENDBRANCH   9  10
ENDBRANCH   6   9
ENDBRANCH   1   5
BRANCH   2  20
HETATM   20  C   UNL     1      -4.782   4.963 -33.441  1.00  0.00     0.070 A 
HETATM   21  C   UNL     1      -4.053   5.122 -32.280  1.00  0.00     0.137 A 
HETATM   22  N   UNL     1      -2.858   5.717 -32.621  1.00  0.00    -0.244 N 
HETATM   23  N   UNL     1      -2.765   5.891 -33.967  1.00  0.00    -0.179 NA
HETATM   24  C   UNL     1      -3.925   5.446 -34.446  1.00  0.00     0.157 A 
BRANCH  22  25
HETATM   25  C   UNL     1      -1.812   6.153 -31.763  1.00  0.00     0.059 A 
HETATM   26  C   UNL     1      -2.015   7.184 -30.835  1.00  0.00     0.055 A 
HETATM   27  C   UNL     1      -0.955   7.602 -30.028  1.00  0.00     0.036 A 
HETATM   28 CL   UNL     1      -1.194   8.888 -28.907  1.00  0.00    -0.084 Cl
HETATM   29  C   UNL     1       0.299   6.998 -30.121  1.00  0.00     0.024 A 
HETATM   30  C   UNL     1       0.503   5.968 -31.037  1.00  0.00     0.004 A 
HETATM   31  C   UNL     1      -0.546   5.551 -31.859  1.00  0.00     0.031 A 
ENDBRANCH  22  25
ENDBRANCH   2  20
TORSDOF 7
ENDMDL
