MODEL 1
REMARK VINA RESULT:      -8.5      0.000      0.000
REMARK  2 active torsions:
REMARK  status: ('A' for Active; 'I' for Inactive)
REMARK    1  A    between atoms: C_6  and  C_8 
REMARK    2  A    between atoms: C_6  and  O_7 
ROOT
HETATM    1  C   UNL     1      -5.459  -2.958 -35.302  1.00  0.00     0.048 C 
HETATM    2  C   UNL     1      -5.737  -1.973 -34.204  1.00  0.00    -0.059 A 
HETATM    3  C   UNL     1      -6.990  -1.360 -34.093  1.00  0.00     0.037 A 
HETATM    4  C   UNL     1      -7.180  -0.472 -33.054  1.00  0.00     0.046 A 
HETATM    5  C   UNL     1      -6.183  -0.158 -32.120  1.00  0.00     0.023 A 
HETATM    6  C   UNL     1      -6.759   0.811 -31.101  1.00  0.00     0.199 A 
HETATM    7  C   UNL     1      -8.219   1.018 -31.642  1.00  0.00     0.266 A 
HETATM    8  O   UNL     1      -9.120   1.695 -31.174  1.00  0.00    -0.269 OA
HETATM    9  N   UNL     1      -8.353   0.212 -32.771  1.00  0.00    -0.323 N 
HETATM   10  C   UNL     1      -4.938  -0.779 -32.200  1.00  0.00    -0.049 A 
HETATM   11  C   UNL     1      -3.828  -0.490 -31.235  1.00  0.00     0.049 C 
HETATM   12  C   UNL     1      -4.726  -1.675 -33.265  1.00  0.00     0.014 A 
HETATM   13  H   UNL     1      -9.214   0.155 -33.294  1.00  0.00     0.169 HD
ENDROOT
BRANCH   6  14
HETATM   14  C   UNL     1      -5.947   2.080 -31.129  1.00  0.00     0.018 A 
HETATM   15  C   UNL     1      -5.691   2.973 -32.234  1.00  0.00     0.002 A 
HETATM   16  C   UNL     1      -4.916   4.032 -31.752  1.00  0.00     0.043 A 
HETATM   17  C   UNL     1      -6.049   2.994 -33.601  1.00  0.00     0.014 A 
HETATM   18  C   UNL     1      -4.491   5.098 -32.554  1.00  0.00     0.030 A 
HETATM   19  N   UNL     1      -4.699   3.802 -30.416  1.00  0.00    -0.365 N 
HETATM   20  C   UNL     1      -4.868   5.092 -33.898  1.00  0.00     0.002 A 
HETATM   21  C   UNL     1      -5.635   4.054 -34.418  1.00  0.00     0.001 A 
HETATM   22  H   UNL     1      -4.176   4.415 -29.807  1.00  0.00     0.165 HD
HETATM   23  C   UNL     1      -5.309   2.644 -30.032  1.00  0.00     0.100 A 
ENDBRANCH   6  14
BRANCH   6  24
HETATM   24  O   UNL     1      -6.777   0.191 -29.815  1.00  0.00    -0.371 OA
HETATM   25  H   UNL     1      -5.849   0.063 -29.561  1.00  0.00     0.212 HD
ENDBRANCH   6  24
TORSDOF 2
ENDMDL
MODEL 2
REMARK VINA RESULT:      -8.3      2.948      4.802
REMARK  2 active torsions:
REMARK  status: ('A' for Active; 'I' for Inactive)
REMARK    1  A    between atoms: C_6  and  C_8 
REMARK    2  A    between atoms: C_6  and  O_7 
ROOT
HETATM    1  C   UNL     1      -3.870  -2.147 -32.623  1.00  0.00     0.048 C 
HETATM    2  C   UNL     1      -4.962  -1.118 -32.662  1.00  0.00    -0.059 A 
HETATM    3  C   UNL     1      -5.362  -0.454 -31.497  1.00  0.00     0.037 A 
HETATM    4  C   UNL     1      -6.366   0.487 -31.608  1.00  0.00     0.046 A 
HETATM    5  C   UNL     1      -6.996   0.800 -32.820  1.00  0.00     0.023 A 
HETATM    6  C   UNL     1      -8.008   1.905 -32.571  1.00  0.00     0.199 A 
HETATM    7  C   UNL     1      -7.870   2.126 -31.023  1.00  0.00     0.266 A 
HETATM    8  O   UNL     1      -8.452   2.927 -30.309  1.00  0.00    -0.269 OA
HETATM    9  N   UNL     1      -6.877   1.258 -30.574  1.00  0.00    -0.323 N 
HETATM   10  C   UNL     1      -6.592   0.167 -33.994  1.00  0.00    -0.049 A 
HETATM   11  C   UNL     1      -7.222   0.453 -35.324  1.00  0.00     0.049 C 
HETATM   12  C   UNL     1      -5.580  -0.806 -33.892  1.00  0.00     0.014 A 
HETATM   13  H   UNL     1      -6.588   1.221 -29.608  1.00  0.00     0.169 HD
ENDROOT
BRANCH   6  14
HETATM   14  C   UNL     1      -9.375   1.405 -32.965  1.00  0.00     0.018 A 
HETATM   15  C   UNL     1     -10.345   2.009 -33.848  1.00  0.00     0.002 A 
HETATM   16  C   UNL     1     -11.441   1.145 -33.924  1.00  0.00     0.043 A 
HETATM   17  C   UNL     1     -10.400   3.203 -34.601  1.00  0.00     0.014 A 
HETATM   18  C   UNL     1     -12.571   1.408 -34.708  1.00  0.00     0.030 A 
HETATM   19  N   UNL     1     -11.164   0.064 -33.124  1.00  0.00    -0.365 N 
HETATM   20  C   UNL     1     -12.591   2.593 -35.445  1.00  0.00     0.002 A 
HETATM   21  C   UNL     1     -11.522   3.481 -35.392  1.00  0.00     0.001 A 
HETATM   22  H   UNL     1     -11.779  -0.728 -32.997  1.00  0.00     0.165 HD
HETATM   23  C   UNL     1      -9.936   0.205 -32.549  1.00  0.00     0.100 A 
ENDBRANCH   6  14
BRANCH   6  24
HETATM   24  O   UNL     1      -7.617   3.076 -33.288  1.00  0.00    -0.371 OA
HETATM   25  H   UNL     1      -7.056   3.590 -32.685  1.00  0.00     0.212 HD
ENDBRANCH   6  24
TORSDOF 2
ENDMDL
MODEL 3
REMARK VINA RESULT:      -8.2      1.616      1.948
REMARK  2 active torsions:
REMARK  status: ('A' for Active; 'I' for Inactive)
REMARK    1  A    between atoms: C_6  and  C_8 
REMARK    2  A    between atoms: C_6  and  O_7 
ROOT
HETATM    1  C   UNL     1      -5.236  -2.515 -34.944  1.00  0.00     0.048 C 
HETATM    2  C   UNL     1      -6.087  -1.500 -34.237  1.00  0.00    -0.059 A 
HETATM    3  C   UNL     1      -7.142  -0.864 -34.900  1.00  0.00     0.037 A 
HETATM    4  C   UNL     1      -7.889   0.051 -34.187  1.00  0.00     0.046 A 
HETATM    5  C   UNL     1      -7.637   0.369 -32.845  1.00  0.00     0.023 A 
HETATM    6  C   UNL     1      -8.681   1.370 -32.378  1.00  0.00     0.199 A 
HETATM    7  C   UNL     1      -9.523   1.589 -33.685  1.00  0.00     0.266 A 
HETATM    8  O   UNL     1     -10.508   2.292 -33.852  1.00  0.00    -0.269 OA
HETATM    9  N   UNL     1      -8.980   0.760 -34.665  1.00  0.00    -0.323 N 
HETATM   10  C   UNL     1      -6.607  -0.275 -32.162  1.00  0.00    -0.049 A 
HETATM   11  C   UNL     1      -6.283   0.017 -30.728  1.00  0.00     0.049 C 
HETATM   12  C   UNL     1      -5.827  -1.198 -32.883  1.00  0.00     0.014 A 
HETATM   13  H   UNL     1      -9.361   0.706 -35.598  1.00  0.00     0.169 HD
ENDROOT
BRANCH   6  14
HETATM   14  C   UNL     1      -7.977   2.624 -31.926  1.00  0.00     0.018 A 
HETATM   15  C   UNL     1      -7.008   3.429 -32.632  1.00  0.00     0.002 A 
HETATM   16  C   UNL     1      -6.680   4.512 -31.811  1.00  0.00     0.043 A 
HETATM   17  C   UNL     1      -6.380   3.352 -33.896  1.00  0.00     0.014 A 
HETATM   18  C   UNL     1      -5.773   5.511 -32.186  1.00  0.00     0.030 A 
HETATM   19  N   UNL     1      -7.406   4.380 -30.653  1.00  0.00    -0.365 N 
HETATM   20  C   UNL     1      -5.175   5.408 -33.444  1.00  0.00     0.002 A 
HETATM   21  C   UNL     1      -5.472   4.343 -34.288  1.00  0.00     0.001 A 
HETATM   22  H   UNL     1      -7.377   5.031 -29.881  1.00  0.00     0.165 HD
HETATM   23  C   UNL     1      -8.185   3.262 -30.710  1.00  0.00     0.100 A 
ENDBRANCH   6  14
BRANCH   6  24
HETATM   24  O   UNL     1      -9.478   0.780 -31.353  1.00  0.00    -0.371 OA
HETATM   25  H   UNL     1      -9.113   1.092 -30.509  1.00  0.00     0.212 HD
ENDBRANCH   6  24
TORSDOF 2
ENDMDL
MODEL 4
REMARK VINA RESULT:      -8.1      2.375      3.506
REMARK  2 active torsions:
REMARK  status: ('A' for Active; 'I' for Inactive)
REMARK    1  A    between atoms: C_6  and  C_8 
REMARK    2  A    between atoms: C_6  and  O_7 
ROOT
HETATM    1  C   UNL     1      -6.155  -3.981 -35.304  1.00  0.00     0.048 C 
HETATM    2  C   UNL     1      -5.705  -2.779 -34.525  1.00  0.00    -0.059 A 
HETATM    3  C   UNL     1      -4.597  -2.850 -33.675  1.00  0.00     0.037 A 
HETATM    4  C   UNL     1      -4.233  -1.704 -32.998  1.00  0.00     0.046 A 
HETATM    5  C   UNL     1      -4.920  -0.489 -33.120  1.00  0.00     0.023 A 
HETATM    6  C   UNL     1      -4.214   0.556 -32.273  1.00  0.00     0.199 A 
HETATM    7  C   UNL     1      -3.054  -0.282 -31.628  1.00  0.00     0.266 A 
HETATM    8  O   UNL     1      -2.171   0.089 -30.870  1.00  0.00    -0.269 OA
HETATM    9  N   UNL     1      -3.156  -1.577 -32.133  1.00  0.00    -0.323 N 
HETATM   10  C   UNL     1      -6.010  -0.393 -33.983  1.00  0.00    -0.049 A 
HETATM   11  C   UNL     1      -6.790   0.875 -34.162  1.00  0.00     0.049 C 
HETATM   12  C   UNL     1      -6.402  -1.559 -34.668  1.00  0.00     0.014 A 
HETATM   13  H   UNL     1      -2.508  -2.308 -31.881  1.00  0.00     0.169 HD
ENDROOT
BRANCH   6  14
HETATM   14  C   UNL     1      -5.186   1.083 -31.248  1.00  0.00     0.018 A 
HETATM   15  C   UNL     1      -5.833   2.372 -31.185  1.00  0.00     0.002 A 
HETATM   16  C   UNL     1      -6.675   2.369 -30.069  1.00  0.00     0.043 A 
HETATM   17  C   UNL     1      -5.796   3.545 -31.972  1.00  0.00     0.014 A 
HETATM   18  C   UNL     1      -7.474   3.460 -29.708  1.00  0.00     0.030 A 
HETATM   19  N   UNL     1      -6.550   1.140 -29.469  1.00  0.00    -0.365 N 
HETATM   20  C   UNL     1      -7.419   4.601 -30.511  1.00  0.00     0.002 A 
HETATM   21  C   UNL     1      -6.591   4.646 -31.628  1.00  0.00     0.001 A 
HETATM   22  H   UNL     1      -7.055   0.852 -28.642  1.00  0.00     0.165 HD
HETATM   23  C   UNL     1      -5.669   0.364 -30.162  1.00  0.00     0.100 A 
ENDBRANCH   6  14
BRANCH   6  24
HETATM   24  O   UNL     1      -3.692   1.579 -33.120  1.00  0.00    -0.371 OA
HETATM   25  H   UNL     1      -4.442   1.914 -33.638  1.00  0.00     0.212 HD
ENDBRANCH   6  24
TORSDOF 2
ENDMDL
MODEL 5
REMARK VINA RESULT:      -8.0      1.473      2.049
REMARK  2 active torsions:
REMARK  status: ('A' for Active; 'I' for Inactive)
REMARK    1  A    between atoms: C_6  and  C_8 
REMARK    2  A    between atoms: C_6  and  O_7 
ROOT
HETATM    1  C   UNL     1      -5.821  -3.995 -35.380  1.00  0.00     0.048 C 
HETATM    2  C   UNL     1      -5.912  -2.727 -34.579  1.00  0.00    -0.059 A 
HETATM    3  C   UNL     1      -7.155  -2.189 -34.230  1.00  0.00     0.037 A 
HETATM    4  C   UNL     1      -7.164  -1.027 -33.485  1.00  0.00     0.046 A 
HETATM    5  C   UNL     1      -5.997  -0.370 -33.072  1.00  0.00     0.023 A 
HETATM    6  C   UNL     1      -6.388   0.837 -32.237  1.00  0.00     0.199 A 
HETATM    7  C   UNL     1      -7.956   0.771 -32.289  1.00  0.00     0.266 A 
HETATM    8  O   UNL     1      -8.772   1.507 -31.756  1.00  0.00    -0.269 OA
HETATM    9  N   UNL     1      -8.292  -0.362 -33.029  1.00  0.00    -0.323 N 
HETATM   10  C   UNL     1      -4.750  -0.907 -33.388  1.00  0.00    -0.049 A 
HETATM   11  C   UNL     1      -3.463  -0.257 -32.979  1.00  0.00     0.049 C 
HETATM   12  C   UNL     1      -4.727  -2.083 -34.162  1.00  0.00     0.014 A 
HETATM   13  H   UNL     1      -9.249  -0.635 -33.192  1.00  0.00     0.169 HD
ENDROOT
BRANCH   6  14
HETATM   14  C   UNL     1      -5.840   2.077 -32.896  1.00  0.00     0.018 A 
HETATM   15  C   UNL     1      -4.691   2.872 -32.529  1.00  0.00     0.002 A 
HETATM   16  C   UNL     1      -4.568   3.897 -33.470  1.00  0.00     0.043 A 
HETATM   17  C   UNL     1      -3.732   2.817 -31.492  1.00  0.00     0.014 A 
HETATM   18  C   UNL     1      -3.547   4.855 -33.431  1.00  0.00     0.030 A 
HETATM   19  N   UNL     1      -5.593   3.748 -34.371  1.00  0.00    -0.365 N 
HETATM   20  C   UNL     1      -2.612   4.768 -32.398  1.00  0.00     0.002 A 
HETATM   21  C   UNL     1      -2.703   3.765 -31.438  1.00  0.00     0.001 A 
HETATM   22  H   UNL     1      -5.744   4.346 -35.172  1.00  0.00     0.165 HD
HETATM   23  C   UNL     1      -6.356   2.667 -34.042  1.00  0.00     0.100 A 
ENDBRANCH   6  14
BRANCH   6  24
HETATM   24  O   UNL     1      -5.916   0.663 -30.902  1.00  0.00    -0.371 OA
HETATM   25  H   UNL     1      -5.352  -0.127 -30.912  1.00  0.00     0.212 HD
ENDBRANCH   6  24
TORSDOF 2
ENDMDL
MODEL 6
REMARK VINA RESULT:      -7.8      1.357      5.306
REMARK  2 active torsions:
REMARK  status: ('A' for Active; 'I' for Inactive)
REMARK    1  A    between atoms: C_6  and  C_8 
REMARK    2  A    between atoms: C_6  and  O_7 
ROOT
HETATM    1  C   UNL     1      -1.880   4.797 -33.413  1.00  0.00     0.048 C 
HETATM    2  C   UNL     1      -3.084   4.036 -32.938  1.00  0.00    -0.059 A 
HETATM    3  C   UNL     1      -3.006   3.197 -31.821  1.00  0.00     0.037 A 
HETATM    4  C   UNL     1      -4.154   2.536 -31.433  1.00  0.00     0.046 A 
HETATM    5  C   UNL     1      -5.378   2.665 -32.104  1.00  0.00     0.023 A 
HETATM    6  C   UNL     1      -6.422   1.836 -31.374  1.00  0.00     0.199 A 
HETATM    7  C   UNL     1      -5.573   1.194 -30.219  1.00  0.00     0.266 A 
HETATM    8  O   UNL     1      -5.939   0.450 -29.323  1.00  0.00    -0.269 OA
HETATM    9  N   UNL     1      -4.275   1.685 -30.345  1.00  0.00    -0.323 N 
HETATM   10  C   UNL     1      -5.480   3.516 -33.202  1.00  0.00    -0.049 A 
HETATM   11  C   UNL     1      -6.757   3.701 -33.965  1.00  0.00     0.049 C 
HETATM   12  C   UNL     1      -4.313   4.184 -33.618  1.00  0.00     0.014 A 
HETATM   13  H   UNL     1      -3.537   1.432 -29.705  1.00  0.00     0.169 HD
ENDROOT
BRANCH   6  14
HETATM   14  C   UNL     1      -6.973   0.807 -32.327  1.00  0.00     0.018 A 
HETATM   15  C   UNL     1      -6.281  -0.250 -33.026  1.00  0.00     0.002 A 
HETATM   16  C   UNL     1      -7.231  -0.965 -33.761  1.00  0.00     0.043 A 
HETATM   17  C   UNL     1      -4.937  -0.680 -33.102  1.00  0.00     0.014 A 
HETATM   18  C   UNL     1      -6.913  -2.075 -34.552  1.00  0.00     0.030 A 
HETATM   19  N   UNL     1      -8.450  -0.375 -33.532  1.00  0.00    -0.365 N 
HETATM   20  C   UNL     1      -5.577  -2.478 -34.600  1.00  0.00     0.002 A 
HETATM   21  C   UNL     1      -4.600  -1.790 -33.888  1.00  0.00     0.001 A 
HETATM   22  H   UNL     1      -9.324  -0.693 -33.927  1.00  0.00     0.165 HD
HETATM   23  C   UNL     1      -8.311   0.679 -32.678  1.00  0.00     0.100 A 
ENDBRANCH   6  14
BRANCH   6  24
HETATM   24  O   UNL     1      -7.427   2.700 -30.846  1.00  0.00    -0.371 OA
HETATM   25  H   UNL     1      -7.044   3.116 -30.058  1.00  0.00     0.212 HD
ENDBRANCH   6  24
TORSDOF 2
ENDMDL
MODEL 7
REMARK VINA RESULT:      -7.8      2.144      5.383
REMARK  2 active torsions:
REMARK  status: ('A' for Active; 'I' for Inactive)
REMARK    1  A    between atoms: C_6  and  C_8 
REMARK    2  A    between atoms: C_6  and  O_7 
ROOT
HETATM    1  C   UNL     1      -6.576   4.843 -29.385  1.00  0.00     0.048 C 
HETATM    2  C   UNL     1      -7.014   3.888 -30.457  1.00  0.00    -0.059 A 
HETATM    3  C   UNL     1      -8.013   2.941 -30.207  1.00  0.00     0.037 A 
HETATM    4  C   UNL     1      -8.374   2.101 -31.241  1.00  0.00     0.046 A 
HETATM    5  C   UNL     1      -7.787   2.152 -32.512  1.00  0.00     0.023 A 
HETATM    6  C   UNL     1      -8.461   1.121 -33.401  1.00  0.00     0.199 A 
HETATM    7  C   UNL     1      -9.484   0.460 -32.409  1.00  0.00     0.266 A 
HETATM    8  O   UNL     1     -10.299  -0.423 -32.626  1.00  0.00    -0.269 OA
HETATM    9  N   UNL     1      -9.353   1.121 -31.189  1.00  0.00    -0.323 N 
HETATM   10  C   UNL     1      -6.808   3.106 -32.786  1.00  0.00    -0.049 A 
HETATM   11  C   UNL     1      -6.139   3.216 -34.123  1.00  0.00     0.049 C 
HETATM   12  C   UNL     1      -6.420   3.959 -31.736  1.00  0.00     0.014 A 
HETATM   13  H   UNL     1      -9.920   0.890 -30.387  1.00  0.00     0.169 HD
ENDROOT
BRANCH   6  14
HETATM   14  C   UNL     1      -7.417   0.148 -33.888  1.00  0.00     0.018 A 
HETATM   15  C   UNL     1      -6.262  -0.371 -33.194  1.00  0.00     0.002 A 
HETATM   16  C   UNL     1      -5.624  -1.273 -34.051  1.00  0.00     0.043 A 
HETATM   17  C   UNL     1      -5.697  -0.173 -31.914  1.00  0.00     0.014 A 
HETATM   18  C   UNL     1      -4.468  -1.980 -33.696  1.00  0.00     0.030 A 
HETATM   19  N   UNL     1      -6.345  -1.305 -35.219  1.00  0.00    -0.365 N 
HETATM   20  C   UNL     1      -3.939  -1.766 -32.422  1.00  0.00     0.002 A 
HETATM   21  C   UNL     1      -4.542  -0.874 -31.542  1.00  0.00     0.001 A 
HETATM   22  H   UNL     1      -6.120  -1.883 -36.016  1.00  0.00     0.165 HD
HETATM   23  C   UNL     1      -7.417  -0.466 -35.134  1.00  0.00     0.100 A 
ENDBRANCH   6  14
BRANCH   6  24
HETATM   24  O   UNL     1      -9.141   1.784 -34.466  1.00  0.00    -0.371 OA
HETATM   25  H   UNL     1      -9.265   2.704 -34.179  1.00  0.00     0.212 HD
ENDBRANCH   6  24
TORSDOF 2
ENDMDL
MODEL 8
REMARK VINA RESULT:      -7.4      1.201      2.003
REMARK  2 active torsions:
REMARK  status: ('A' for Active; 'I' for Inactive)
REMARK    1  A    between atoms: C_6  and  C_8 
REMARK    2  A    between atoms: C_6  and  O_7 
ROOT
HETATM    1  C   UNL     1      -5.408  -3.522 -35.153  1.00  0.00     0.048 C 
HETATM    2  C   UNL     1      -5.807  -2.350 -34.304  1.00  0.00    -0.059 A 
HETATM    3  C   UNL     1      -7.104  -1.828 -34.367  1.00  0.00     0.037 A 
HETATM    4  C   UNL     1      -7.405  -0.757 -33.551  1.00  0.00     0.046 A 
HETATM    5  C   UNL     1      -6.478  -0.173 -32.677  1.00  0.00     0.023 A 
HETATM    6  C   UNL     1      -7.168   0.942 -31.910  1.00  0.00     0.199 A 
HETATM    7  C   UNL     1      -8.612   0.913 -32.529  1.00  0.00     0.266 A 
HETATM    8  O   UNL     1      -9.580   1.601 -32.246  1.00  0.00    -0.269 OA
HETATM    9  N   UNL     1      -8.635  -0.123 -33.460  1.00  0.00    -0.323 N 
HETATM   10  C   UNL     1      -5.190  -0.696 -32.582  1.00  0.00    -0.049 A 
HETATM   11  C   UNL     1      -4.150  -0.121 -31.668  1.00  0.00     0.049 C 
HETATM   12  C   UNL     1      -4.865  -1.779 -33.420  1.00  0.00     0.014 A 
HETATM   13  H   UNL     1      -9.464  -0.358 -33.985  1.00  0.00     0.169 HD
ENDROOT
BRANCH   6  14
HETATM   14  C   UNL     1      -6.447   2.237 -32.187  1.00  0.00     0.018 A 
HETATM   15  C   UNL     1      -6.065   3.281 -31.266  1.00  0.00     0.002 A 
HETATM   16  C   UNL     1      -5.383   4.259 -31.995  1.00  0.00     0.043 A 
HETATM   17  C   UNL     1      -6.223   3.491 -29.877  1.00  0.00     0.014 A 
HETATM   18  C   UNL     1      -4.853   5.418 -31.414  1.00  0.00     0.030 A 
HETATM   19  N   UNL     1      -5.349   3.842 -33.303  1.00  0.00    -0.365 N 
HETATM   20  C   UNL     1      -5.020   5.592 -30.039  1.00  0.00     0.002 A 
HETATM   21  C   UNL     1      -5.698   4.644 -29.279  1.00  0.00     0.001 A 
HETATM   22  H   UNL     1      -4.906   4.351 -34.055  1.00  0.00     0.165 HD
HETATM   23  C   UNL     1      -5.977   2.638 -33.430  1.00  0.00     0.100 A 
ENDBRANCH   6  14
BRANCH   6  24
HETATM   24  O   UNL     1      -7.204   0.611 -30.522  1.00  0.00    -0.371 OA
HETATM   25  H   UNL     1      -6.712  -0.220 -30.427  1.00  0.00     0.212 HD
ENDBRANCH   6  24
TORSDOF 2
ENDMDL
MODEL 9
REMARK VINA RESULT:      -7.3      1.456      1.760
REMARK  2 active torsions:
REMARK  status: ('A' for Active; 'I' for Inactive)
REMARK    1  A    between atoms: C_6  and  C_8 
REMARK    2  A    between atoms: C_6  and  O_7 
ROOT
HETATM    1  C   UNL     1      -5.805  -2.284 -34.926  1.00  0.00     0.048 C 
HETATM    2  C   UNL     1      -6.239  -1.124 -34.077  1.00  0.00    -0.059 A 
HETATM    3  C   UNL     1      -6.978  -0.072 -34.626  1.00  0.00     0.037 A 
HETATM    4  C   UNL     1      -7.352   0.957 -33.785  1.00  0.00     0.046 A 
HETATM    5  C   UNL     1      -7.023   0.994 -32.423  1.00  0.00     0.023 A 
HETATM    6  C   UNL     1      -7.637   2.240 -31.808  1.00  0.00     0.199 A 
HETATM    7  C   UNL     1      -8.320   2.910 -33.053  1.00  0.00     0.266 A 
HETATM    8  O   UNL     1      -8.978   3.938 -33.105  1.00  0.00    -0.269 OA
HETATM    9  N   UNL     1      -8.101   2.068 -34.142  1.00  0.00    -0.323 N 
HETATM   10  C   UNL     1      -6.310  -0.059 -31.854  1.00  0.00    -0.049 A 
HETATM   11  C   UNL     1      -5.926  -0.085 -30.405  1.00  0.00     0.049 C 
HETATM   12  C   UNL     1      -5.909  -1.107 -32.704  1.00  0.00     0.014 A 
HETATM   13  H   UNL     1      -8.460   2.272 -35.063  1.00  0.00     0.169 HD
ENDROOT
BRANCH   6  14
HETATM   14  C   UNL     1      -6.532   3.087 -31.230  1.00  0.00     0.018 A 
HETATM   15  C   UNL     1      -5.411   3.703 -31.900  1.00  0.00     0.002 A 
HETATM   16  C   UNL     1      -4.688   4.418 -30.942  1.00  0.00     0.043 A 
HETATM   17  C   UNL     1      -4.941   3.733 -33.232  1.00  0.00     0.014 A 
HETATM   18  C   UNL     1      -3.537   5.157 -31.245  1.00  0.00     0.030 A 
HETATM   19  N   UNL     1      -5.326   4.249 -29.738  1.00  0.00    -0.365 N 
HETATM   20  C   UNL     1      -3.103   5.171 -32.571  1.00  0.00     0.002 A 
HETATM   21  C   UNL     1      -3.793   4.468 -33.553  1.00  0.00     0.001 A 
HETATM   22  H   UNL     1      -5.028   4.666 -28.867  1.00  0.00     0.165 HD
HETATM   23  C   UNL     1      -6.428   3.460 -29.896  1.00  0.00     0.100 A 
ENDBRANCH   6  14
BRANCH   6  24
HETATM   24  O   UNL     1      -8.611   1.859 -30.838  1.00  0.00    -0.371 OA
HETATM   25  H   UNL     1      -9.329   1.425 -31.327  1.00  0.00     0.212 HD
ENDBRANCH   6  24
TORSDOF 2
ENDMDL
MODEL 10
REMARK VINA RESULT:      -7.3      2.631      5.421
REMARK  2 active torsions:
REMARK  status: ('A' for Active; 'I' for Inactive)
REMARK    1  A    between atoms: C_6  and  C_8 
REMARK    2  A    between atoms: C_6  and  O_7 
ROOT
HETATM    1  C   UNL     1      -8.606   5.215 -29.713  1.00  0.00     0.048 C 
HETATM    2  C   UNL     1      -7.443   4.423 -30.238  1.00  0.00    -0.059 A 
HETATM    3  C   UNL     1      -6.596   4.957 -31.215  1.00  0.00     0.037 A 
HETATM    4  C   UNL     1      -5.541   4.178 -31.644  1.00  0.00     0.046 A 
HETATM    5  C   UNL     1      -5.287   2.890 -31.152  1.00  0.00     0.023 A 
HETATM    6  C   UNL     1      -4.026   2.357 -31.812  1.00  0.00     0.199 A 
HETATM    7  C   UNL     1      -3.647   3.535 -32.780  1.00  0.00     0.266 A 
HETATM    8  O   UNL     1      -2.692   3.628 -33.535  1.00  0.00    -0.269 OA
HETATM    9  N   UNL     1      -4.589   4.543 -32.584  1.00  0.00    -0.323 N 
HETATM   10  C   UNL     1      -6.104   2.354 -30.160  1.00  0.00    -0.049 A 
HETATM   11  C   UNL     1      -5.890   0.984 -29.589  1.00  0.00     0.049 C 
HETATM   12  C   UNL     1      -7.194   3.131 -29.724  1.00  0.00     0.014 A 
HETATM   13  H   UNL     1      -4.553   5.420 -33.082  1.00  0.00     0.169 HD
ENDROOT
BRANCH   6  14
HETATM   14  C   UNL     1      -4.368   1.089 -32.552  1.00  0.00     0.018 A 
HETATM   15  C   UNL     1      -5.507   0.805 -33.393  1.00  0.00     0.002 A 
HETATM   16  C   UNL     1      -5.356  -0.495 -33.883  1.00  0.00     0.043 A 
HETATM   17  C   UNL     1      -6.652   1.527 -33.797  1.00  0.00     0.014 A 
HETATM   18  C   UNL     1      -6.276  -1.100 -34.749  1.00  0.00     0.030 A 
HETATM   19  N   UNL     1      -4.185  -0.992 -33.367  1.00  0.00    -0.365 N 
HETATM   20  C   UNL     1      -7.393  -0.356 -35.134  1.00  0.00     0.002 A 
HETATM   21  C   UNL     1      -7.582   0.939 -34.664  1.00  0.00     0.001 A 
HETATM   22  H   UNL     1      -3.816  -1.912 -33.564  1.00  0.00     0.165 HD
HETATM   23  C   UNL     1      -3.586  -0.057 -32.575  1.00  0.00     0.100 A 
ENDBRANCH   6  14
BRANCH   6  24
HETATM   24  O   UNL     1      -3.017   2.168 -30.822  1.00  0.00    -0.371 OA
HETATM   25  H   UNL     1      -2.196   1.975 -31.303  1.00  0.00     0.212 HD
ENDBRANCH   6  24
TORSDOF 2
ENDMDL
