MODEL 1
REMARK VINA RESULT:     -10.3      0.000      0.000
REMARK  9 active torsions:
REMARK  status: ('A' for Active; 'I' for Inactive)
REMARK    1  A    between atoms: O_2  and  C_3 
REMARK    2  A    between atoms: C_6  and  C_7 
REMARK    3  A    between atoms: C_8  and  C_9 
REMARK    4  A    between atoms: C_9  and  O_10 
REMARK    5  A    between atoms: O_10  and  C_11 
REMARK    6  A    between atoms: C_14  and  C_15 
REMARK    7  A    between atoms: C_17  and  O_18 
REMARK    8  A    between atoms: N_26  and  C_28 
REMARK    9  A    between atoms: C_28  and  C_29 
ROOT
HETATM    1  C   UNL     1      -3.155   6.583 -30.867  1.00  0.00     0.243 C 
HETATM    2  N   UNL     1      -2.715   5.995 -32.149  1.00  0.00    -0.235 NA
HETATM    3  C   UNL     1      -3.411   5.010 -32.580  1.00  0.00     0.173 C 
HETATM    4  C   UNL     1      -4.519   4.401 -31.886  1.00  0.00     0.057 A 
HETATM    5  C   UNL     1      -4.745   4.817 -30.598  1.00  0.00     0.087 A 
HETATM    6  S   UNL     1      -6.027   4.007 -29.845  1.00  0.00    -0.074 SA
HETATM    7  C   UNL     1      -6.306   3.071 -31.236  1.00  0.00     0.018 A 
HETATM    8  C   UNL     1      -5.448   3.382 -32.279  1.00  0.00    -0.024 A 
HETATM    9  C   UNL     1      -5.517   2.656 -33.590  1.00  0.00     0.068 C 
HETATM   10  C   UNL     1      -6.785   1.781 -33.707  1.00  0.00     0.240 C 
HETATM   11  N   UNL     1      -7.107   1.044 -32.411  1.00  0.00    -0.063 N 
HETATM   12  H   UNL     1      -7.989   0.541 -32.548  1.00  0.00     0.280 HD
HETATM   13  C   UNL     1      -7.375   2.038 -31.288  1.00  0.00     0.282 C 
HETATM   14  N   UNL     1      -3.985   5.753 -30.009  1.00  0.00    -0.357 N 
HETATM   15  H   UNL     1      -4.240   6.159 -29.114  1.00  0.00     0.162 HD
ENDROOT
BRANCH   1  16
HETATM   16  C   UNL     1      -1.984   7.057 -30.018  1.00  0.00    -0.014 A 
HETATM   17  C   UNL     1      -2.199   7.416 -28.674  1.00  0.00     0.014 A 
HETATM   18  C   UNL     1      -1.127   7.720 -27.831  1.00  0.00     0.038 A 
HETATM   19  C   UNL     1       0.170   7.678 -28.332  1.00  0.00     0.079 A 
HETATM   20  C   UNL     1       0.405   7.346 -29.668  1.00  0.00     0.038 A 
HETATM   21  C   UNL     1      -0.668   7.031 -30.505  1.00  0.00     0.014 A 
BRANCH  19  22
HETATM   22  O   UNL     1       1.331   7.831 -27.539  1.00  0.00    -0.276 OA
BRANCH  22  23
HETATM   23  C   UNL     1       1.624   8.947 -26.768  1.00  0.00     0.288 C 
HETATM   24  O   UNL     1       1.327  10.109 -26.999  1.00  0.00    -0.260 OA
BRANCH  23  25
HETATM   25  C   UNL     1       2.301   8.542 -25.514  1.00  0.00     0.083 C 
HETATM   26  C   UNL     1       2.974   9.385 -24.716  1.00  0.00     0.017 C 
BRANCH  26  27
HETATM   27  C   UNL     1       3.719   8.943 -23.536  1.00  0.00    -0.036 A 
HETATM   28  C   UNL     1       5.096   9.173 -23.419  1.00  0.00     0.014 A 
HETATM   29  C   UNL     1       5.781   8.828 -22.248  1.00  0.00     0.037 A 
HETATM   30  C   UNL     1       5.095   8.254 -21.179  1.00  0.00     0.068 A 
HETATM   31  C   UNL     1       3.725   8.009 -21.301  1.00  0.00     0.037 A 
HETATM   32  C   UNL     1       3.036   8.360 -22.466  1.00  0.00     0.014 A 
BRANCH  30  33
HETATM   33  O   UNL     1       5.638   7.890 -19.978  1.00  0.00    -0.356 OA
HETATM   34  C   UNL     1       6.510   6.766 -19.987  1.00  0.00     0.210 C 
ENDBRANCH  30  33
ENDBRANCH  26  27
ENDBRANCH  23  25
ENDBRANCH  22  23
ENDBRANCH  19  22
ENDBRANCH   1  16
BRANCH   3  35
HETATM   35  O   UNL     1      -3.084   4.471 -33.768  1.00  0.00    -0.344 OA
HETATM   36  H   UNL     1      -2.873   5.218 -34.358  1.00  0.00     0.219 HD
ENDBRANCH   3  35
BRANCH  11  37
HETATM   37  C   UNL     1      -6.078  -0.012 -32.070  1.00  0.00     0.273 C 
BRANCH  37  38
HETATM   38  C   UNL     1      -5.936  -1.085 -33.115  1.00  0.00    -0.033 A 
HETATM   39  C   UNL     1      -7.063  -1.629 -33.751  1.00  0.00     0.009 A 
HETATM   40  C   UNL     1      -6.914  -2.646 -34.696  1.00  0.00     0.001 A 
HETATM   41  C   UNL     1      -5.644  -3.124 -35.017  1.00  0.00     0.000 A 
HETATM   42  C   UNL     1      -4.520  -2.586 -34.398  1.00  0.00     0.001 A 
HETATM   43  C   UNL     1      -4.662  -1.572 -33.451  1.00  0.00     0.009 A 
ENDBRANCH  37  38
ENDBRANCH  11  37
TORSDOF 9
ENDMDL
MODEL 2
REMARK VINA RESULT:     -10.2      1.905      2.624
REMARK  9 active torsions:
REMARK  status: ('A' for Active; 'I' for Inactive)
REMARK    1  A    between atoms: O_2  and  C_3 
REMARK    2  A    between atoms: C_6  and  C_7 
REMARK    3  A    between atoms: C_8  and  C_9 
REMARK    4  A    between atoms: C_9  and  O_10 
REMARK    5  A    between atoms: O_10  and  C_11 
REMARK    6  A    between atoms: C_14  and  C_15 
REMARK    7  A    between atoms: C_17  and  O_18 
REMARK    8  A    between atoms: N_26  and  C_28 
REMARK    9  A    between atoms: C_28  and  C_29 
ROOT
HETATM    1  C   UNL     1      -4.935   5.667 -30.838  1.00  0.00     0.243 C 
HETATM    2  N   UNL     1      -5.212   5.837 -32.280  1.00  0.00    -0.235 NA
HETATM    3  C   UNL     1      -5.708   4.819 -32.877  1.00  0.00     0.173 C 
HETATM    4  C   UNL     1      -5.940   3.527 -32.278  1.00  0.00     0.057 A 
HETATM    5  C   UNL     1      -5.449   3.338 -31.010  1.00  0.00     0.087 A 
HETATM    6  S   UNL     1      -5.718   1.777 -30.411  1.00  0.00    -0.074 SA
HETATM    7  C   UNL     1      -6.496   1.315 -31.850  1.00  0.00     0.018 A 
HETATM    8  C   UNL     1      -6.576   2.343 -32.776  1.00  0.00    -0.024 A 
HETATM    9  C   UNL     1      -7.210   2.137 -34.120  1.00  0.00     0.068 C 
HETATM   10  C   UNL     1      -7.974   0.796 -34.206  1.00  0.00     0.240 C 
HETATM   11  N   UNL     1      -7.220  -0.348 -33.536  1.00  0.00    -0.063 N 
HETATM   12  H   UNL     1      -7.815  -1.181 -33.577  1.00  0.00     0.280 HD
HETATM   13  C   UNL     1      -7.027  -0.059 -32.052  1.00  0.00     0.282 C 
HETATM   14  N   UNL     1      -4.797   4.306 -30.348  1.00  0.00    -0.357 N 
HETATM   15  H   UNL     1      -4.563   4.212 -29.364  1.00  0.00     0.162 HD
ENDROOT
BRANCH   1  16
HETATM   16  C   UNL     1      -3.687   6.419 -30.399  1.00  0.00    -0.014 A 
HETATM   17  C   UNL     1      -3.684   7.104 -29.169  1.00  0.00     0.014 A 
HETATM   18  C   UNL     1      -2.514   7.685 -28.673  1.00  0.00     0.038 A 
HETATM   19  C   UNL     1      -1.339   7.595 -29.412  1.00  0.00     0.079 A 
HETATM   20  C   UNL     1      -1.325   6.940 -30.644  1.00  0.00     0.038 A 
HETATM   21  C   UNL     1      -2.493   6.350 -31.132  1.00  0.00     0.014 A 
BRANCH  19  22
HETATM   22  O   UNL     1      -0.075   8.023 -28.944  1.00  0.00    -0.276 OA
BRANCH  22  23
HETATM   23  C   UNL     1       0.771   7.269 -28.143  1.00  0.00     0.288 C 
HETATM   24  O   UNL     1       1.015   6.077 -28.235  1.00  0.00    -0.260 OA
BRANCH  23  25
HETATM   25  C   UNL     1       1.456   8.140 -27.159  1.00  0.00     0.083 C 
HETATM   26  C   UNL     1       1.290   8.048 -25.830  1.00  0.00     0.017 C 
BRANCH  26  27
HETATM   27  C   UNL     1       1.899   8.985 -24.884  1.00  0.00    -0.036 A 
HETATM   28  C   UNL     1       1.111   9.778 -24.040  1.00  0.00     0.014 A 
HETATM   29  C   UNL     1       1.704  10.603 -23.076  1.00  0.00     0.037 A 
HETATM   30  C   UNL     1       3.091  10.638 -22.943  1.00  0.00     0.068 A 
HETATM   31  C   UNL     1       3.878   9.861 -23.795  1.00  0.00     0.037 A 
HETATM   32  C   UNL     1       3.290   9.030 -24.753  1.00  0.00     0.014 A 
BRANCH  30  33
HETATM   33  O   UNL     1       3.792  11.382 -22.034  1.00  0.00    -0.356 OA
HETATM   34  C   UNL     1       5.149  11.013 -21.817  1.00  0.00     0.210 C 
ENDBRANCH  30  33
ENDBRANCH  26  27
ENDBRANCH  23  25
ENDBRANCH  22  23
ENDBRANCH  19  22
ENDBRANCH   1  16
BRANCH   3  35
HETATM   35  O   UNL     1      -6.027   4.937 -34.178  1.00  0.00    -0.344 OA
HETATM   36  H   UNL     1      -6.931   5.301 -34.206  1.00  0.00     0.219 HD
ENDBRANCH   3  35
BRANCH  11  37
HETATM   37  C   UNL     1      -5.946  -0.714 -34.265  1.00  0.00     0.273 C 
BRANCH  37  38
HETATM   38  C   UNL     1      -5.695  -2.195 -34.348  1.00  0.00    -0.033 A 
HETATM   39  C   UNL     1      -4.432  -2.733 -34.054  1.00  0.00     0.009 A 
HETATM   40  C   UNL     1      -4.210  -4.107 -34.167  1.00  0.00     0.001 A 
HETATM   41  C   UNL     1      -5.242  -4.953 -34.567  1.00  0.00     0.000 A 
HETATM   42  C   UNL     1      -6.500  -4.432 -34.854  1.00  0.00     0.001 A 
HETATM   43  C   UNL     1      -6.728  -3.060 -34.746  1.00  0.00     0.009 A 
ENDBRANCH  37  38
ENDBRANCH  11  37
TORSDOF 9
ENDMDL
MODEL 3
REMARK VINA RESULT:      -9.6      3.961     12.783
REMARK  9 active torsions:
REMARK  status: ('A' for Active; 'I' for Inactive)
REMARK    1  A    between atoms: O_2  and  C_3 
REMARK    2  A    between atoms: C_6  and  C_7 
REMARK    3  A    between atoms: C_8  and  C_9 
REMARK    4  A    between atoms: C_9  and  O_10 
REMARK    5  A    between atoms: O_10  and  C_11 
REMARK    6  A    between atoms: C_14  and  C_15 
REMARK    7  A    between atoms: C_17  and  O_18 
REMARK    8  A    between atoms: N_26  and  C_28 
REMARK    9  A    between atoms: C_28  and  C_29 
ROOT
HETATM    1  C   UNL     1      -5.749   5.559 -32.808  1.00  0.00     0.243 C 
HETATM    2  N   UNL     1      -5.734   6.879 -32.143  1.00  0.00    -0.235 NA
HETATM    3  C   UNL     1      -4.647   7.190 -31.542  1.00  0.00     0.173 C 
HETATM    4  C   UNL     1      -3.492   6.337 -31.407  1.00  0.00     0.057 A 
HETATM    5  C   UNL     1      -3.631   5.037 -31.827  1.00  0.00     0.087 A 
HETATM    6  S   UNL     1      -2.244   4.098 -31.577  1.00  0.00    -0.074 SA
HETATM    7  C   UNL     1      -1.424   5.418 -30.890  1.00  0.00     0.018 A 
HETATM    8  C   UNL     1      -2.185   6.576 -30.868  1.00  0.00    -0.024 A 
HETATM    9  C   UNL     1      -1.651   7.852 -30.285  1.00  0.00     0.068 C 
HETATM   10  C   UNL     1      -0.133   7.774 -30.003  1.00  0.00     0.240 C 
HETATM   11  N   UNL     1       0.282   6.432 -29.409  1.00  0.00    -0.063 N 
HETATM   12  H   UNL     1       1.302   6.435 -29.312  1.00  0.00     0.280 HD
HETATM   13  C   UNL     1      -0.032   5.301 -30.381  1.00  0.00     0.282 C 
HETATM   14  N   UNL     1      -4.777   4.579 -32.351  1.00  0.00    -0.357 N 
HETATM   15  H   UNL     1      -4.833   3.664 -32.790  1.00  0.00     0.162 HD
ENDROOT
BRANCH   1  16
HETATM   16  C   UNL     1      -7.114   4.891 -32.733  1.00  0.00    -0.014 A 
HETATM   17  C   UNL     1      -7.961   4.909 -33.857  1.00  0.00     0.014 A 
HETATM   18  C   UNL     1      -9.157   4.188 -33.867  1.00  0.00     0.038 A 
HETATM   19  C   UNL     1      -9.521   3.451 -32.745  1.00  0.00     0.079 A 
HETATM   20  C   UNL     1      -8.707   3.437 -31.611  1.00  0.00     0.038 A 
HETATM   21  C   UNL     1      -7.506   4.150 -31.607  1.00  0.00     0.014 A 
BRANCH  19  22
HETATM   22  O   UNL     1     -10.633   2.579 -32.697  1.00  0.00    -0.276 OA
BRANCH  22  23
HETATM   23  C   UNL     1     -10.748   1.398 -33.416  1.00  0.00     0.288 C 
HETATM   24  O   UNL     1     -11.647   1.075 -34.177  1.00  0.00    -0.260 OA
BRANCH  23  25
HETATM   25  C   UNL     1      -9.543   0.559 -33.219  1.00  0.00     0.083 C 
HETATM   26  C   UNL     1      -8.537   0.469 -34.102  1.00  0.00     0.017 C 
BRANCH  26  27
HETATM   27  C   UNL     1      -7.405  -0.445 -33.931  1.00  0.00    -0.036 A 
HETATM   28  C   UNL     1      -7.241  -1.560 -34.763  1.00  0.00     0.014 A 
HETATM   29  C   UNL     1      -6.108  -2.374 -34.650  1.00  0.00     0.037 A 
HETATM   30  C   UNL     1      -5.124  -2.078 -33.707  1.00  0.00     0.068 A 
HETATM   31  C   UNL     1      -5.295  -0.977 -32.866  1.00  0.00     0.037 A 
HETATM   32  C   UNL     1      -6.421  -0.157 -32.981  1.00  0.00     0.014 A 
BRANCH  30  33
HETATM   33  O   UNL     1      -3.966  -2.778 -33.509  1.00  0.00    -0.356 OA
HETATM   34  C   UNL     1      -3.920  -4.100 -34.033  1.00  0.00     0.210 C 
ENDBRANCH  30  33
ENDBRANCH  26  27
ENDBRANCH  23  25
ENDBRANCH  22  23
ENDBRANCH  19  22
ENDBRANCH   1  16
BRANCH   3  35
HETATM   35  O   UNL     1      -4.563   8.401 -30.965  1.00  0.00    -0.344 OA
HETATM   36  H   UNL     1      -5.252   8.424 -30.275  1.00  0.00     0.219 HD
ENDBRANCH   3  35
BRANCH  11  37
HETATM   37  C   UNL     1      -0.265   6.217 -28.014  1.00  0.00     0.273 C 
BRANCH  37  38
HETATM   38  C   UNL     1       0.184   7.251 -27.018  1.00  0.00    -0.033 A 
HETATM   39  C   UNL     1      -0.745   8.066 -26.352  1.00  0.00     0.009 A 
HETATM   40  C   UNL     1      -0.307   9.043 -25.454  1.00  0.00     0.001 A 
HETATM   41  C   UNL     1       1.054   9.211 -25.211  1.00  0.00     0.000 A 
HETATM   42  C   UNL     1       1.984   8.404 -25.860  1.00  0.00     0.001 A 
HETATM   43  C   UNL     1       1.554   7.428 -26.759  1.00  0.00     0.009 A 
ENDBRANCH  37  38
ENDBRANCH  11  37
TORSDOF 9
ENDMDL
MODEL 4
REMARK VINA RESULT:      -9.6      4.999     12.226
REMARK  9 active torsions:
REMARK  status: ('A' for Active; 'I' for Inactive)
REMARK    1  A    between atoms: O_2  and  C_3 
REMARK    2  A    between atoms: C_6  and  C_7 
REMARK    3  A    between atoms: C_8  and  C_9 
REMARK    4  A    between atoms: C_9  and  O_10 
REMARK    5  A    between atoms: O_10  and  C_11 
REMARK    6  A    between atoms: C_14  and  C_15 
REMARK    7  A    between atoms: C_17  and  O_18 
REMARK    8  A    between atoms: N_26  and  C_28 
REMARK    9  A    between atoms: C_28  and  C_29 
ROOT
HETATM    1  C   UNL     1      -7.304   5.689 -29.256  1.00  0.00     0.243 C 
HETATM    2  N   UNL     1      -6.655   5.154 -28.042  1.00  0.00    -0.235 NA
HETATM    3  C   UNL     1      -5.489   5.615 -27.781  1.00  0.00     0.173 C 
HETATM    4  C   UNL     1      -4.751   6.539 -28.606  1.00  0.00     0.057 A 
HETATM    5  C   UNL     1      -5.282   6.827 -29.839  1.00  0.00     0.087 A 
HETATM    6  S   UNL     1      -4.320   7.874 -30.758  1.00  0.00    -0.074 SA
HETATM    7  C   UNL     1      -3.160   7.961 -29.519  1.00  0.00     0.018 A 
HETATM    8  C   UNL     1      -3.506   7.219 -28.401  1.00  0.00    -0.024 A 
HETATM    9  C   UNL     1      -2.606   7.148 -27.201  1.00  0.00     0.068 C 
HETATM   10  C   UNL     1      -1.462   8.184 -27.268  1.00  0.00     0.240 C 
HETATM   11  N   UNL     1      -0.861   8.301 -28.664  1.00  0.00    -0.063 N 
HETATM   12  H   UNL     1      -0.159   9.048 -28.641  1.00  0.00     0.280 HD
HETATM   13  C   UNL     1      -1.917   8.765 -29.660  1.00  0.00     0.282 C 
HETATM   14  N   UNL     1      -6.437   6.289 -30.258  1.00  0.00    -0.357 N 
HETATM   15  H   UNL     1      -6.898   6.611 -31.105  1.00  0.00     0.162 HD
ENDROOT
BRANCH   1  16
HETATM   16  C   UNL     1      -8.141   4.640 -29.973  1.00  0.00    -0.014 A 
HETATM   17  C   UNL     1      -9.220   5.044 -30.782  1.00  0.00     0.014 A 
HETATM   18  C   UNL     1      -9.919   4.119 -31.562  1.00  0.00     0.038 A 
HETATM   19  C   UNL     1      -9.551   2.778 -31.527  1.00  0.00     0.079 A 
HETATM   20  C   UNL     1      -8.498   2.352 -30.714  1.00  0.00     0.038 A 
HETATM   21  C   UNL     1      -7.794   3.281 -29.945  1.00  0.00     0.014 A 
BRANCH  19  22
HETATM   22  O   UNL     1     -10.095   1.785 -32.374  1.00  0.00    -0.276 OA
BRANCH  22  23
HETATM   23  C   UNL     1      -9.705   1.561 -33.687  1.00  0.00     0.288 C 
HETATM   24  O   UNL     1      -9.966   2.243 -34.666  1.00  0.00    -0.260 OA
BRANCH  23  25
HETATM   25  C   UNL     1      -8.810   0.383 -33.762  1.00  0.00     0.083 C 
HETATM   26  C   UNL     1      -7.473   0.448 -33.666  1.00  0.00     0.017 C 
BRANCH  26  27
HETATM   27  C   UNL     1      -6.603  -0.717 -33.845  1.00  0.00    -0.036 A 
HETATM   28  C   UNL     1      -7.062  -1.873 -34.490  1.00  0.00     0.014 A 
HETATM   29  C   UNL     1      -6.196  -2.945 -34.736  1.00  0.00     0.037 A 
HETATM   30  C   UNL     1      -4.860  -2.869 -34.345  1.00  0.00     0.068 A 
HETATM   31  C   UNL     1      -4.406  -1.724 -33.687  1.00  0.00     0.037 A 
HETATM   32  C   UNL     1      -5.266  -0.649 -33.446  1.00  0.00     0.014 A 
BRANCH  30  33
HETATM   33  O   UNL     1      -3.910  -3.833 -34.542  1.00  0.00    -0.356 OA
HETATM   34  C   UNL     1      -3.559  -4.624 -33.413  1.00  0.00     0.210 C 
ENDBRANCH  30  33
ENDBRANCH  26  27
ENDBRANCH  23  25
ENDBRANCH  22  23
ENDBRANCH  19  22
ENDBRANCH   1  16
BRANCH   3  35
HETATM   35  O   UNL     1      -4.876   5.199 -26.659  1.00  0.00    -0.344 OA
HETATM   36  H   UNL     1      -4.343   5.952 -26.343  1.00  0.00     0.219 HD
ENDBRANCH   3  35
BRANCH  11  37
HETATM   37  C   UNL     1      -0.120   7.051 -29.087  1.00  0.00     0.273 C 
BRANCH  37  38
HETATM   38  C   UNL     1      -0.504   6.547 -30.452  1.00  0.00    -0.033 A 
HETATM   39  C   UNL     1      -0.228   7.299 -31.605  1.00  0.00     0.009 A 
HETATM   40  C   UNL     1      -0.620   6.830 -32.860  1.00  0.00     0.001 A 
HETATM   41  C   UNL     1      -1.285   5.611 -32.976  1.00  0.00     0.000 A 
HETATM   42  C   UNL     1      -1.557   4.854 -31.840  1.00  0.00     0.001 A 
HETATM   43  C   UNL     1      -1.170   5.317 -30.583  1.00  0.00     0.009 A 
ENDBRANCH  37  38
ENDBRANCH  11  37
TORSDOF 9
ENDMDL
MODEL 5
REMARK VINA RESULT:      -9.5      4.392     13.102
REMARK  9 active torsions:
REMARK  status: ('A' for Active; 'I' for Inactive)
REMARK    1  A    between atoms: O_2  and  C_3 
REMARK    2  A    between atoms: C_6  and  C_7 
REMARK    3  A    between atoms: C_8  and  C_9 
REMARK    4  A    between atoms: C_9  and  O_10 
REMARK    5  A    between atoms: O_10  and  C_11 
REMARK    6  A    between atoms: C_14  and  C_15 
REMARK    7  A    between atoms: C_17  and  O_18 
REMARK    8  A    between atoms: N_26  and  C_28 
REMARK    9  A    between atoms: C_28  and  C_29 
ROOT
HETATM    1  C   UNL     1      -7.954   5.637 -29.564  1.00  0.00     0.243 C 
HETATM    2  N   UNL     1      -6.991   4.881 -28.737  1.00  0.00    -0.235 NA
HETATM    3  C   UNL     1      -6.038   5.564 -28.223  1.00  0.00     0.173 C 
HETATM    4  C   UNL     1      -5.798   6.968 -28.448  1.00  0.00     0.057 A 
HETATM    5  C   UNL     1      -6.568   7.580 -29.406  1.00  0.00     0.087 A 
HETATM    6  S   UNL     1      -6.177   9.211 -29.641  1.00  0.00    -0.074 SA
HETATM    7  C   UNL     1      -4.957   9.131 -28.460  1.00  0.00     0.018 A 
HETATM    8  C   UNL     1      -4.857   7.881 -27.870  1.00  0.00    -0.024 A 
HETATM    9  C   UNL     1      -3.828   7.596 -26.815  1.00  0.00     0.068 C 
HETATM   10  C   UNL     1      -3.144   8.883 -26.304  1.00  0.00     0.240 C 
HETATM   11  N   UNL     1      -2.828   9.863 -27.430  1.00  0.00    -0.063 N 
HETATM   12  H   UNL     1      -2.439  10.711 -27.006  1.00  0.00     0.280 HD
HETATM   13  C   UNL     1      -4.111  10.306 -28.122  1.00  0.00     0.282 C 
HETATM   14  N   UNL     1      -7.507   6.915 -30.096  1.00  0.00    -0.357 N 
HETATM   15  H   UNL     1      -8.167   7.398 -30.698  1.00  0.00     0.162 HD
ENDROOT
BRANCH   1  16
HETATM   16  C   UNL     1      -8.462   4.825 -30.746  1.00  0.00    -0.014 A 
HETATM   17  C   UNL     1      -7.590   4.524 -31.810  1.00  0.00     0.014 A 
HETATM   18  C   UNL     1      -7.984   3.665 -32.840  1.00  0.00     0.038 A 
HETATM   19  C   UNL     1      -9.259   3.111 -32.819  1.00  0.00     0.079 A 
HETATM   20  C   UNL     1     -10.147   3.413 -31.785  1.00  0.00     0.038 A 
HETATM   21  C   UNL     1      -9.747   4.263 -30.751  1.00  0.00     0.014 A 
BRANCH  19  22
HETATM   22  O   UNL     1      -9.710   2.128 -33.730  1.00  0.00    -0.276 OA
BRANCH  22  23
HETATM   23  C   UNL     1     -10.008   0.814 -33.396  1.00  0.00     0.288 C 
HETATM   24  O   UNL     1     -11.113   0.320 -33.237  1.00  0.00    -0.260 OA
BRANCH  23  25
HETATM   25  C   UNL     1      -8.768   0.005 -33.337  1.00  0.00     0.083 C 
HETATM   26  C   UNL     1      -7.912  -0.134 -34.362  1.00  0.00     0.017 C 
BRANCH  26  27
HETATM   27  C   UNL     1      -6.747  -1.019 -34.313  1.00  0.00    -0.036 A 
HETATM   28  C   UNL     1      -5.541  -0.599 -33.735  1.00  0.00     0.014 A 
HETATM   29  C   UNL     1      -4.463  -1.483 -33.611  1.00  0.00     0.037 A 
HETATM   30  C   UNL     1      -4.581  -2.798 -34.059  1.00  0.00     0.068 A 
HETATM   31  C   UNL     1      -5.777  -3.213 -34.650  1.00  0.00     0.037 A 
HETATM   32  C   UNL     1      -6.858  -2.335 -34.768  1.00  0.00     0.014 A 
BRANCH  30  33
HETATM   33  O   UNL     1      -3.615  -3.763 -33.980  1.00  0.00    -0.356 OA
HETATM   34  C   UNL     1      -4.063  -5.100 -33.788  1.00  0.00     0.210 C 
ENDBRANCH  30  33
ENDBRANCH  26  27
ENDBRANCH  23  25
ENDBRANCH  22  23
ENDBRANCH  19  22
ENDBRANCH   1  16
BRANCH   3  35
HETATM   35  O   UNL     1      -5.164   4.932 -27.419  1.00  0.00    -0.344 OA
HETATM   36  H   UNL     1      -4.540   4.466 -28.006  1.00  0.00     0.219 HD
ENDBRANCH   3  35
BRANCH  11  37
HETATM   37  C   UNL     1      -1.763   9.346 -28.372  1.00  0.00     0.273 C 
BRANCH  37  38
HETATM   38  C   UNL     1      -0.486   8.943 -27.687  1.00  0.00    -0.033 A 
HETATM   39  C   UNL     1       0.271   9.876 -26.962  1.00  0.00     0.009 A 
HETATM   40  C   UNL     1       1.471   9.492 -26.359  1.00  0.00     0.001 A 
HETATM   41  C   UNL     1       1.920   8.178 -26.470  1.00  0.00     0.000 A 
HETATM   42  C   UNL     1       1.174   7.242 -27.180  1.00  0.00     0.001 A 
HETATM   43  C   UNL     1      -0.024   7.620 -27.786  1.00  0.00     0.009 A 
ENDBRANCH  37  38
ENDBRANCH  11  37
TORSDOF 9
ENDMDL
MODEL 6
REMARK VINA RESULT:      -9.3      1.979      3.228
REMARK  9 active torsions:
REMARK  status: ('A' for Active; 'I' for Inactive)
REMARK    1  A    between atoms: O_2  and  C_3 
REMARK    2  A    between atoms: C_6  and  C_7 
REMARK    3  A    between atoms: C_8  and  C_9 
REMARK    4  A    between atoms: C_9  and  O_10 
REMARK    5  A    between atoms: O_10  and  C_11 
REMARK    6  A    between atoms: C_14  and  C_15 
REMARK    7  A    between atoms: C_17  and  O_18 
REMARK    8  A    between atoms: N_26  and  C_28 
REMARK    9  A    between atoms: C_28  and  C_29 
ROOT
HETATM    1  C   UNL     1      -0.533   7.835 -29.554  1.00  0.00     0.243 C 
HETATM    2  N   UNL     1       0.109   6.667 -30.191  1.00  0.00    -0.235 NA
HETATM    3  C   UNL     1      -0.623   6.001 -31.003  1.00  0.00     0.173 C 
HETATM    4  C   UNL     1      -2.016   6.256 -31.277  1.00  0.00     0.057 A 
HETATM    5  C   UNL     1      -2.638   7.194 -30.490  1.00  0.00     0.087 A 
HETATM    6  S   UNL     1      -4.283   7.385 -30.846  1.00  0.00    -0.074 SA
HETATM    7  C   UNL     1      -4.199   6.203 -32.064  1.00  0.00     0.018 A 
HETATM    8  C   UNL     1      -2.926   5.679 -32.222  1.00  0.00    -0.024 A 
HETATM    9  C   UNL     1      -2.642   4.608 -33.235  1.00  0.00     0.068 C 
HETATM   10  C   UNL     1      -3.821   4.400 -34.211  1.00  0.00     0.240 C 
HETATM   11  N   UNL     1      -5.175   4.445 -33.509  1.00  0.00    -0.063 N 
HETATM   12  H   UNL     1      -5.902   4.365 -34.227  1.00  0.00     0.280 HD
HETATM   13  C   UNL     1      -5.391   5.807 -32.859  1.00  0.00     0.282 C 
HETATM   14  N   UNL     1      -1.987   7.854 -29.521  1.00  0.00    -0.357 N 
HETATM   15  H   UNL     1      -2.408   8.643 -29.040  1.00  0.00     0.162 HD
ENDROOT
BRANCH   1  16
HETATM   16  C   UNL     1      -0.061   8.043 -28.123  1.00  0.00    -0.014 A 
HETATM   17  C   UNL     1       1.118   7.413 -27.679  1.00  0.00     0.014 A 
HETATM   18  C   UNL     1       1.653   7.693 -26.419  1.00  0.00     0.038 A 
HETATM   19  C   UNL     1       1.004   8.599 -25.587  1.00  0.00     0.079 A 
HETATM   20  C   UNL     1      -0.178   9.219 -25.997  1.00  0.00     0.038 A 
HETATM   21  C   UNL     1      -0.705   8.945 -27.262  1.00  0.00     0.014 A 
BRANCH  19  22
HETATM   22  O   UNL     1       1.527   9.058 -24.356  1.00  0.00    -0.276 OA
BRANCH  22  23
HETATM   23  C   UNL     1       2.479  10.060 -24.223  1.00  0.00     0.288 C 
HETATM   24  O   UNL     1       2.415  11.206 -24.641  1.00  0.00    -0.260 OA
BRANCH  23  25
HETATM   25  C   UNL     1       3.609   9.585 -23.392  1.00  0.00     0.083 C 
HETATM   26  C   UNL     1       3.527   8.567 -22.521  1.00  0.00     0.017 C 
BRANCH  26  27
HETATM   27  C   UNL     1       4.629   8.182 -21.638  1.00  0.00    -0.036 A 
HETATM   28  C   UNL     1       5.214   6.912 -21.719  1.00  0.00     0.014 A 
HETATM   29  C   UNL     1       6.325   6.586 -20.933  1.00  0.00     0.037 A 
HETATM   30  C   UNL     1       6.868   7.530 -20.062  1.00  0.00     0.068 A 
HETATM   31  C   UNL     1       6.276   8.791 -19.969  1.00  0.00     0.037 A 
HETATM   32  C   UNL     1       5.171   9.123 -20.757  1.00  0.00     0.014 A 
BRANCH  30  33
HETATM   33  O   UNL     1       7.959   7.347 -19.258  1.00  0.00    -0.356 OA
HETATM   34  C   UNL     1       8.766   6.206 -19.526  1.00  0.00     0.210 C 
ENDBRANCH  30  33
ENDBRANCH  26  27
ENDBRANCH  23  25
ENDBRANCH  22  23
ENDBRANCH  19  22
ENDBRANCH   1  16
BRANCH   3  35
HETATM   35  O   UNL     1      -0.071   4.959 -31.650  1.00  0.00    -0.344 OA
HETATM   36  H   UNL     1      -0.427   4.155 -31.227  1.00  0.00     0.219 HD
ENDBRANCH   3  35
BRANCH  11  37
HETATM   37  C   UNL     1      -5.387   3.274 -32.575  1.00  0.00     0.273 C 
BRANCH  37  38
HETATM   38  C   UNL     1      -5.759   1.996 -33.275  1.00  0.00    -0.033 A 
HETATM   39  C   UNL     1      -6.668   1.995 -34.345  1.00  0.00     0.009 A 
HETATM   40  C   UNL     1      -7.026   0.794 -34.962  1.00  0.00     0.001 A 
HETATM   41  C   UNL     1      -6.480  -0.410 -34.522  1.00  0.00     0.000 A 
HETATM   42  C   UNL     1      -5.572  -0.420 -33.467  1.00  0.00     0.001 A 
HETATM   43  C   UNL     1      -5.212   0.775 -32.845  1.00  0.00     0.009 A 
ENDBRANCH  37  38
ENDBRANCH  11  37
TORSDOF 9
ENDMDL
MODEL 7
REMARK VINA RESULT:      -9.2      1.837      2.799
REMARK  9 active torsions:
REMARK  status: ('A' for Active; 'I' for Inactive)
REMARK    1  A    between atoms: O_2  and  C_3 
REMARK    2  A    between atoms: C_6  and  C_7 
REMARK    3  A    between atoms: C_8  and  C_9 
REMARK    4  A    between atoms: C_9  and  O_10 
REMARK    5  A    between atoms: O_10  and  C_11 
REMARK    6  A    between atoms: C_14  and  C_15 
REMARK    7  A    between atoms: C_17  and  O_18 
REMARK    8  A    between atoms: N_26  and  C_28 
REMARK    9  A    between atoms: C_28  and  C_29 
ROOT
HETATM    1  C   UNL     1      -5.532   6.061 -31.212  1.00  0.00     0.243 C 
HETATM    2  N   UNL     1      -5.338   6.024 -32.676  1.00  0.00    -0.235 NA
HETATM    3  C   UNL     1      -5.667   4.931 -33.256  1.00  0.00     0.173 C 
HETATM    4  C   UNL     1      -6.129   3.737 -32.592  1.00  0.00     0.057 A 
HETATM    5  C   UNL     1      -6.068   3.731 -31.220  1.00  0.00     0.087 A 
HETATM    6  S   UNL     1      -6.577   2.269 -30.532  1.00  0.00    -0.074 SA
HETATM    7  C   UNL     1      -6.886   1.607 -32.066  1.00  0.00     0.018 A 
HETATM    8  C   UNL     1      -6.629   2.494 -33.100  1.00  0.00    -0.024 A 
HETATM    9  C   UNL     1      -6.821   2.097 -34.535  1.00  0.00     0.068 C 
HETATM   10  C   UNL     1      -7.577   0.757 -34.674  1.00  0.00     0.240 C 
HETATM   11  N   UNL     1      -7.120  -0.279 -33.653  1.00  0.00    -0.063 N 
HETATM   12  H   UNL     1      -7.708  -1.111 -33.767  1.00  0.00     0.280 HD
HETATM   13  C   UNL     1      -7.387   0.218 -32.237  1.00  0.00     0.282 C 
HETATM   14  N   UNL     1      -5.613   4.783 -30.524  1.00  0.00    -0.357 N 
HETATM   15  H   UNL     1      -5.702   4.830 -29.513  1.00  0.00     0.162 HD
ENDROOT
BRANCH   1  16
HETATM   16  C   UNL     1      -4.453   6.870 -30.508  1.00  0.00    -0.014 A 
HETATM   17  C   UNL     1      -3.127   6.397 -30.492  1.00  0.00     0.014 A 
HETATM   18  C   UNL     1      -2.090   7.180 -29.977  1.00  0.00     0.038 A 
HETATM   19  C   UNL     1      -2.376   8.440 -29.462  1.00  0.00     0.079 A 
HETATM   20  C   UNL     1      -3.687   8.920 -29.448  1.00  0.00     0.038 A 
HETATM   21  C   UNL     1      -4.719   8.140 -29.973  1.00  0.00     0.014 A 
BRANCH  19  22
HETATM   22  O   UNL     1      -1.392   9.366 -29.046  1.00  0.00    -0.276 OA
BRANCH  22  23
HETATM   23  C   UNL     1      -1.493  10.183 -27.928  1.00  0.00     0.288 C 
HETATM   24  O   UNL     1      -2.212  11.159 -27.783  1.00  0.00    -0.260 OA
BRANCH  23  25
HETATM   25  C   UNL     1      -0.648   9.657 -26.831  1.00  0.00     0.083 C 
HETATM   26  C   UNL     1      -0.012  10.429 -25.936  1.00  0.00     0.017 C 
BRANCH  26  27
HETATM   27  C   UNL     1       0.899   9.891 -24.924  1.00  0.00    -0.036 A 
HETATM   28  C   UNL     1       2.033   9.152 -25.287  1.00  0.00     0.014 A 
HETATM   29  C   UNL     1       2.945   8.721 -24.316  1.00  0.00     0.037 A 
HETATM   30  C   UNL     1       2.736   9.030 -22.973  1.00  0.00     0.068 A 
HETATM   31  C   UNL     1       1.598   9.753 -22.608  1.00  0.00     0.037 A 
HETATM   32  C   UNL     1       0.689  10.191 -23.575  1.00  0.00     0.014 A 
BRANCH  30  33
HETATM   33  O   UNL     1       3.556   8.688 -21.933  1.00  0.00    -0.356 OA
HETATM   34  C   UNL     1       4.920   9.079 -22.041  1.00  0.00     0.210 C 
ENDBRANCH  30  33
ENDBRANCH  26  27
ENDBRANCH  23  25
ENDBRANCH  22  23
ENDBRANCH  19  22
ENDBRANCH   1  16
BRANCH   3  35
HETATM   35  O   UNL     1      -5.559   4.863 -34.595  1.00  0.00    -0.344 OA
HETATM   36  H   UNL     1      -6.274   5.418 -34.956  1.00  0.00     0.219 HD
ENDBRANCH   3  35
BRANCH  11  37
HETATM   37  C   UNL     1      -5.698  -0.744 -33.888  1.00  0.00     0.273 C 
BRANCH  37  38
HETATM   38  C   UNL     1      -5.575  -2.220 -34.148  1.00  0.00    -0.033 A 
HETATM   39  C   UNL     1      -4.365  -2.896 -33.925  1.00  0.00     0.009 A 
HETATM   40  C   UNL     1      -4.260  -4.260 -34.203  1.00  0.00     0.001 A 
HETATM   41  C   UNL     1      -5.358  -4.960 -34.700  1.00  0.00     0.000 A 
HETATM   42  C   UNL     1      -6.565  -4.302 -34.918  1.00  0.00     0.001 A 
HETATM   43  C   UNL     1      -6.675  -2.939 -34.645  1.00  0.00     0.009 A 
ENDBRANCH  37  38
ENDBRANCH  11  37
TORSDOF 9
ENDMDL
MODEL 8
REMARK VINA RESULT:      -9.2      3.825      5.940
REMARK  9 active torsions:
REMARK  status: ('A' for Active; 'I' for Inactive)
REMARK    1  A    between atoms: O_2  and  C_3 
REMARK    2  A    between atoms: C_6  and  C_7 
REMARK    3  A    between atoms: C_8  and  C_9 
REMARK    4  A    between atoms: C_9  and  O_10 
REMARK    5  A    between atoms: O_10  and  C_11 
REMARK    6  A    between atoms: C_14  and  C_15 
REMARK    7  A    between atoms: C_17  and  O_18 
REMARK    8  A    between atoms: N_26  and  C_28 
REMARK    9  A    between atoms: C_28  and  C_29 
ROOT
HETATM    1  C   UNL     1      -6.346   6.473 -29.664  1.00  0.00     0.243 C 
HETATM    2  N   UNL     1      -5.769   6.661 -31.011  1.00  0.00    -0.235 NA
HETATM    3  C   UNL     1      -5.950   5.699 -31.836  1.00  0.00     0.173 C 
HETATM    4  C   UNL     1      -6.595   4.445 -31.532  1.00  0.00     0.057 A 
HETATM    5  C   UNL     1      -6.902   4.213 -30.214  1.00  0.00     0.087 A 
HETATM    6  S   UNL     1      -7.603   2.695 -29.945  1.00  0.00    -0.074 SA
HETATM    7  C   UNL     1      -7.503   2.311 -31.598  1.00  0.00     0.018 A 
HETATM    8  C   UNL     1      -6.963   3.335 -32.360  1.00  0.00    -0.024 A 
HETATM    9  C   UNL     1      -6.771   3.189 -33.841  1.00  0.00     0.068 C 
HETATM   10  C   UNL     1      -7.486   1.939 -34.402  1.00  0.00     0.240 C 
HETATM   11  N   UNL     1      -7.338   0.724 -33.492  1.00  0.00    -0.063 N 
HETATM   12  H   UNL     1      -7.889  -0.039 -33.897  1.00  0.00     0.280 HD
HETATM   13  C   UNL     1      -7.964   1.001 -32.131  1.00  0.00     0.282 C 
HETATM   14  N   UNL     1      -6.631   5.108 -29.252  1.00  0.00    -0.357 N 
HETATM   15  H   UNL     1      -6.986   4.996 -28.307  1.00  0.00     0.162 HD
ENDROOT
BRANCH   1  16
HETATM   16  C   UNL     1      -5.480   7.087 -28.574  1.00  0.00    -0.014 A 
HETATM   17  C   UNL     1      -4.931   6.262 -27.573  1.00  0.00     0.014 A 
HETATM   18  C   UNL     1      -4.021   6.770 -26.643  1.00  0.00     0.038 A 
HETATM   19  C   UNL     1      -3.662   8.113 -26.700  1.00  0.00     0.079 A 
HETATM   20  C   UNL     1      -4.211   8.954 -27.670  1.00  0.00     0.038 A 
HETATM   21  C   UNL     1      -5.112   8.441 -28.606  1.00  0.00     0.014 A 
BRANCH  19  22
HETATM   22  O   UNL     1      -2.652   8.697 -25.901  1.00  0.00    -0.276 OA
BRANCH  22  23
HETATM   23  C   UNL     1      -1.293   8.647 -26.178  1.00  0.00     0.288 C 
HETATM   24  O   UNL     1      -0.376   9.042 -25.475  1.00  0.00    -0.260 OA
BRANCH  23  25
HETATM   25  C   UNL     1      -1.056   7.941 -27.459  1.00  0.00     0.083 C 
HETATM   26  C   UNL     1      -0.994   8.551 -28.653  1.00  0.00     0.017 C 
BRANCH  26  27
HETATM   27  C   UNL     1      -0.860   7.820 -29.915  1.00  0.00    -0.036 A 
HETATM   28  C   UNL     1       0.238   6.985 -30.157  1.00  0.00     0.014 A 
HETATM   29  C   UNL     1       0.310   6.222 -31.329  1.00  0.00     0.037 A 
HETATM   30  C   UNL     1      -0.719   6.281 -32.267  1.00  0.00     0.068 A 
HETATM   31  C   UNL     1      -1.806   7.126 -32.035  1.00  0.00     0.037 A 
HETATM   32  C   UNL     1      -1.886   7.884 -30.863  1.00  0.00     0.014 A 
BRANCH  30  33
HETATM   33  O   UNL     1      -0.781   5.575 -33.437  1.00  0.00    -0.356 OA
HETATM   34  C   UNL     1      -1.942   4.779 -33.642  1.00  0.00     0.210 C 
ENDBRANCH  30  33
ENDBRANCH  26  27
ENDBRANCH  23  25
ENDBRANCH  22  23
ENDBRANCH  19  22
ENDBRANCH   1  16
BRANCH   3  35
HETATM   35  O   UNL     1      -5.489   5.842 -33.091  1.00  0.00    -0.344 OA
HETATM   36  H   UNL     1      -4.942   6.649 -33.092  1.00  0.00     0.219 HD
ENDBRANCH   3  35
BRANCH  11  37
HETATM   37  C   UNL     1      -5.914   0.215 -33.426  1.00  0.00     0.273 C 
BRANCH  37  38
HETATM   38  C   UNL     1      -5.754  -1.209 -33.882  1.00  0.00    -0.033 A 
HETATM   39  C   UNL     1      -6.840  -1.926 -34.409  1.00  0.00     0.009 A 
HETATM   40  C   UNL     1      -6.681  -3.258 -34.799  1.00  0.00     0.001 A 
HETATM   41  C   UNL     1      -5.441  -3.881 -34.671  1.00  0.00     0.000 A 
HETATM   42  C   UNL     1      -4.356  -3.178 -34.156  1.00  0.00     0.001 A 
HETATM   43  C   UNL     1      -4.509  -1.848 -33.763  1.00  0.00     0.009 A 
ENDBRANCH  37  38
ENDBRANCH  11  37
TORSDOF 9
ENDMDL
MODEL 9
REMARK VINA RESULT:      -9.2      4.568     12.663
REMARK  9 active torsions:
REMARK  status: ('A' for Active; 'I' for Inactive)
REMARK    1  A    between atoms: O_2  and  C_3 
REMARK    2  A    between atoms: C_6  and  C_7 
REMARK    3  A    between atoms: C_8  and  C_9 
REMARK    4  A    between atoms: C_9  and  O_10 
REMARK    5  A    between atoms: O_10  and  C_11 
REMARK    6  A    between atoms: C_14  and  C_15 
REMARK    7  A    between atoms: C_17  and  O_18 
REMARK    8  A    between atoms: N_26  and  C_28 
REMARK    9  A    between atoms: C_28  and  C_29 
ROOT
HETATM    1  C   UNL     1      -7.838   6.519 -32.791  1.00  0.00     0.243 C 
HETATM    2  N   UNL     1      -7.768   7.310 -31.545  1.00  0.00    -0.235 NA
HETATM    3  C   UNL     1      -6.592   7.627 -31.150  1.00  0.00     0.173 C 
HETATM    4  C   UNL     1      -5.359   7.214 -31.774  1.00  0.00     0.057 A 
HETATM    5  C   UNL     1      -5.458   6.288 -32.782  1.00  0.00     0.087 A 
HETATM    6  S   UNL     1      -3.958   5.822 -33.416  1.00  0.00    -0.074 SA
HETATM    7  C   UNL     1      -3.138   6.853 -32.342  1.00  0.00     0.018 A 
HETATM    8  C   UNL     1      -3.994   7.569 -31.519  1.00  0.00    -0.024 A 
HETATM    9  C   UNL     1      -3.469   8.522 -30.486  1.00  0.00     0.068 C 
HETATM   10  C   UNL     1      -1.959   8.798 -30.660  1.00  0.00     0.240 C 
HETATM   11  N   UNL     1      -1.171   7.537 -31.002  1.00  0.00    -0.063 N 
HETATM   12  H   UNL     1      -0.197   7.811 -31.164  1.00  0.00     0.280 HD
HETATM   13  C   UNL     1      -1.655   6.952 -32.324  1.00  0.00     0.282 C 
HETATM   14  N   UNL     1      -6.639   5.794 -33.182  1.00  0.00    -0.357 N 
HETATM   15  H   UNL     1      -6.722   5.221 -34.017  1.00  0.00     0.162 HD
ENDROOT
BRANCH   1  16
HETATM   16  C   UNL     1      -8.973   5.506 -32.768  1.00  0.00    -0.014 A 
HETATM   17  C   UNL     1      -9.713   5.261 -33.941  1.00  0.00     0.014 A 
HETATM   18  C   UNL     1     -10.666   4.241 -33.990  1.00  0.00     0.038 A 
HETATM   19  C   UNL     1     -10.895   3.465 -32.859  1.00  0.00     0.079 A 
HETATM   20  C   UNL     1     -10.190   3.704 -31.678  1.00  0.00     0.038 A 
HETATM   21  C   UNL     1      -9.230   4.718 -31.636  1.00  0.00     0.014 A 
BRANCH  19  22
HETATM   22  O   UNL     1     -11.731   2.324 -32.838  1.00  0.00    -0.276 OA
BRANCH  22  23
HETATM   23  C   UNL     1     -11.579   1.213 -33.656  1.00  0.00     0.288 C 
HETATM   24  O   UNL     1     -12.316   0.848 -34.558  1.00  0.00    -0.260 OA
BRANCH  23  25
HETATM   25  C   UNL     1     -10.301   0.526 -33.355  1.00  0.00     0.083 C 
HETATM   26  C   UNL     1      -9.163   0.723 -34.038  1.00  0.00     0.017 C 
BRANCH  26  27
HETATM   27  C   UNL     1      -7.940  -0.041 -33.787  1.00  0.00    -0.036 A 
HETATM   28  C   UNL     1      -7.333  -0.794 -34.801  1.00  0.00     0.014 A 
HETATM   29  C   UNL     1      -6.116  -1.447 -34.575  1.00  0.00     0.037 A 
HETATM   30  C   UNL     1      -5.489  -1.349 -33.334  1.00  0.00     0.068 A 
HETATM   31  C   UNL     1      -6.100  -0.612 -32.317  1.00  0.00     0.037 A 
HETATM   32  C   UNL     1      -7.312   0.047 -32.541  1.00  0.00     0.014 A 
BRANCH  30  33
HETATM   33  O   UNL     1      -4.294  -1.919 -32.991  1.00  0.00    -0.356 OA
HETATM   34  C   UNL     1      -3.282  -1.041 -32.511  1.00  0.00     0.210 C 
ENDBRANCH  30  33
ENDBRANCH  26  27
ENDBRANCH  23  25
ENDBRANCH  22  23
ENDBRANCH  19  22
ENDBRANCH   1  16
BRANCH   3  35
HETATM   35  O   UNL     1      -6.475   8.391 -30.049  1.00  0.00    -0.344 OA
HETATM   36  H   UNL     1      -5.940   7.878 -29.416  1.00  0.00     0.219 HD
ENDBRANCH   3  35
BRANCH  11  37
HETATM   37  C   UNL     1      -1.136   6.543 -29.862  1.00  0.00     0.273 C 
BRANCH  37  38
HETATM   38  C   UNL     1      -0.323   6.998 -28.681  1.00  0.00    -0.033 A 
HETATM   39  C   UNL     1       0.749   7.890 -28.842  1.00  0.00     0.009 A 
HETATM   40  C   UNL     1       1.513   8.277 -27.739  1.00  0.00     0.001 A 
HETATM   41  C   UNL     1       1.214   7.783 -26.471  1.00  0.00     0.000 A 
HETATM   42  C   UNL     1       0.149   6.903 -26.299  1.00  0.00     0.001 A 
HETATM   43  C   UNL     1      -0.617   6.511 -27.397  1.00  0.00     0.009 A 
ENDBRANCH  37  38
ENDBRANCH  11  37
TORSDOF 9
ENDMDL
MODEL 10
REMARK VINA RESULT:      -9.0      2.725      4.299
REMARK  9 active torsions:
REMARK  status: ('A' for Active; 'I' for Inactive)
REMARK    1  A    between atoms: O_2  and  C_3 
REMARK    2  A    between atoms: C_6  and  C_7 
REMARK    3  A    between atoms: C_8  and  C_9 
REMARK    4  A    between atoms: C_9  and  O_10 
REMARK    5  A    between atoms: O_10  and  C_11 
REMARK    6  A    between atoms: C_14  and  C_15 
REMARK    7  A    between atoms: C_17  and  O_18 
REMARK    8  A    between atoms: N_26  and  C_28 
REMARK    9  A    between atoms: C_28  and  C_29 
ROOT
HETATM    1  C   UNL     1      -2.766   3.792 -32.127  1.00  0.00     0.243 C 
HETATM    2  N   UNL     1      -2.774   2.562 -31.308  1.00  0.00    -0.235 NA
HETATM    3  C   UNL     1      -3.692   1.713 -31.583  1.00  0.00     0.173 C 
HETATM    4  C   UNL     1      -4.738   1.898 -32.559  1.00  0.00     0.057 A 
HETATM    5  C   UNL     1      -4.840   3.144 -33.126  1.00  0.00     0.087 A 
HETATM    6  S   UNL     1      -6.130   3.284 -34.215  1.00  0.00    -0.074 SA
HETATM    7  C   UNL     1      -6.586   1.670 -33.943  1.00  0.00     0.018 A 
HETATM    8  C   UNL     1      -5.754   1.014 -33.049  1.00  0.00    -0.024 A 
HETATM    9  C   UNL     1      -5.996  -0.415 -32.660  1.00  0.00     0.068 C 
HETATM   10  C   UNL     1      -7.053  -1.094 -33.559  1.00  0.00     0.240 C 
HETATM   11  N   UNL     1      -8.233  -0.178 -33.867  1.00  0.00    -0.063 N 
HETATM   12  H   UNL     1      -8.852  -0.674 -34.516  1.00  0.00     0.280 HD
HETATM   13  C   UNL     1      -7.762   1.060 -34.620  1.00  0.00     0.282 C 
HETATM   14  N   UNL     1      -4.004   4.143 -32.804  1.00  0.00    -0.357 N 
HETATM   15  H   UNL     1      -3.991   5.014 -33.325  1.00  0.00     0.162 HD
ENDROOT
BRANCH   1  16
HETATM   16  C   UNL     1      -2.344   5.015 -31.326  1.00  0.00    -0.014 A 
HETATM   17  C   UNL     1      -0.979   5.348 -31.231  1.00  0.00     0.014 A 
HETATM   18  C   UNL     1      -0.570   6.538 -30.623  1.00  0.00     0.038 A 
HETATM   19  C   UNL     1      -1.526   7.399 -30.094  1.00  0.00     0.079 A 
HETATM   20  C   UNL     1      -2.883   7.078 -30.157  1.00  0.00     0.038 A 
HETATM   21  C   UNL     1      -3.289   5.893 -30.775  1.00  0.00     0.014 A 
BRANCH  19  22
HETATM   22  O   UNL     1      -1.236   8.686 -29.584  1.00  0.00    -0.276 OA
BRANCH  22  23
HETATM   23  C   UNL     1      -1.966   9.330 -28.594  1.00  0.00     0.288 C 
HETATM   24  O   UNL     1      -3.120   9.723 -28.659  1.00  0.00    -0.260 OA
BRANCH  23  25
HETATM   25  C   UNL     1      -1.173   9.415 -27.346  1.00  0.00     0.083 C 
HETATM   26  C   UNL     1       0.142   9.157 -27.271  1.00  0.00     0.017 C 
BRANCH  26  27
HETATM   27  C   UNL     1       0.883   9.149 -26.008  1.00  0.00    -0.036 A 
HETATM   28  C   UNL     1       2.196   8.667 -25.940  1.00  0.00     0.014 A 
HETATM   29  C   UNL     1       2.926   8.748 -24.748  1.00  0.00     0.037 A 
HETATM   30  C   UNL     1       2.351   9.318 -23.613  1.00  0.00     0.068 A 
HETATM   31  C   UNL     1       1.036   9.784 -23.675  1.00  0.00     0.037 A 
HETATM   32  C   UNL     1       0.307   9.711 -24.865  1.00  0.00     0.014 A 
BRANCH  30  33
HETATM   33  O   UNL     1       2.959   9.476 -22.398  1.00  0.00    -0.356 OA
HETATM   34  C   UNL     1       3.514   8.307 -21.806  1.00  0.00     0.210 C 
ENDBRANCH  30  33
ENDBRANCH  26  27
ENDBRANCH  23  25
ENDBRANCH  22  23
ENDBRANCH  19  22
ENDBRANCH   1  16
BRANCH   3  35
HETATM   35  O   UNL     1      -3.712   0.554 -30.902  1.00  0.00    -0.344 OA
HETATM   36  H   UNL     1      -3.513   0.778 -29.975  1.00  0.00     0.219 HD
ENDBRANCH   3  35
BRANCH  11  37
HETATM   37  C   UNL     1      -9.072   0.124 -32.644  1.00  0.00     0.273 C 
BRANCH  37  38
HETATM   38  C   UNL     1     -10.212   1.069 -32.906  1.00  0.00    -0.033 A 
HETATM   39  C   UNL     1     -10.164   2.401 -32.467  1.00  0.00     0.009 A 
HETATM   40  C   UNL     1     -11.245   3.256 -32.691  1.00  0.00     0.001 A 
HETATM   41  C   UNL     1     -12.377   2.792 -33.357  1.00  0.00     0.000 A 
HETATM   42  C   UNL     1     -12.434   1.475 -33.805  1.00  0.00     0.001 A 
HETATM   43  C   UNL     1     -11.358   0.616 -33.581  1.00  0.00     0.009 A 
ENDBRANCH  37  38
ENDBRANCH  11  37
TORSDOF 9
ENDMDL
