MODEL 1
REMARK VINA RESULT:      -8.7      0.000      0.000
REMARK  4 active torsions:
REMARK  status: ('A' for Active; 'I' for Inactive)
REMARK    1  A    between atoms: C_6  and  C_7 
REMARK    2  A    between atoms: C_8  and  C_9 
REMARK       I    between atoms: C_9  and  N_10 
REMARK    3  A    between atoms: N_10  and  C_11 
REMARK    4  A    between atoms: C_18  and  C_19 
REMARK       I    between atoms: C_19  and  N_20 
ROOT
HETATM    1  C   UNL     1      -4.017   3.558 -32.440  1.00  0.00     0.035 A 
HETATM    2  C   UNL     1      -2.778   4.099 -32.069  1.00  0.00     0.046 A 
HETATM    3  C   UNL     1      -2.249   5.193 -32.791  1.00  0.00     0.030 A 
HETATM    4  C   UNL     1      -2.974   5.702 -33.860  1.00  0.00     0.063 A 
HETATM    5  N   UNL     1      -2.221   6.732 -34.351  1.00  0.00    -0.277 N 
HETATM    6  H   UNL     1      -2.441   7.332 -35.137  1.00  0.00     0.189 HD
HETATM    7  N   UNL     1      -1.072   6.947 -33.688  1.00  0.00    -0.168 NA
HETATM    8  C   UNL     1      -1.076   6.004 -32.719  1.00  0.00     0.156 A 
HETATM    9  C   UNL     1      -4.208   5.187 -34.259  1.00  0.00     0.034 A 
HETATM   10  C   UNL     1      -4.715   4.109 -33.523  1.00  0.00     0.032 A 
ENDROOT
BRANCH   1  11
HETATM   11  N   UNL     1      -4.639   2.488 -31.761  1.00  0.00    -0.327 N 
HETATM   12  C   UNL     1      -4.202   1.185 -31.671  1.00  0.00     0.227 C 
HETATM   13  O   UNL     1      -3.242   0.696 -32.250  1.00  0.00    -0.273 OA
HETATM   14  H   UNL     1      -5.538   2.691 -31.351  1.00  0.00     0.169 HD
BRANCH  12  15
HETATM   15  C   UNL     1      -4.991   0.282 -30.781  1.00  0.00     0.087 A 
HETATM   16  C   UNL     1      -6.170  -0.524 -31.296  1.00  0.00     0.032 A 
HETATM   17  C   UNL     1      -6.368   0.538 -30.237  1.00  0.00     0.025 A 
BRANCH  16  18
HETATM   18  C   UNL     1      -6.768  -0.325 -32.669  1.00  0.00    -0.051 A 
HETATM   19  C   UNL     1      -7.888   0.503 -32.861  1.00  0.00     0.031 A 
HETATM   20  C   UNL     1      -8.455   0.671 -34.125  1.00  0.00     0.034 A 
HETATM   21  C   UNL     1      -7.927   0.012 -35.230  1.00  0.00     0.024 A 
HETATM   22 CL   UNL     1      -9.822   1.701 -34.315  1.00  0.00    -0.084 Cl
HETATM   23  C   UNL     1      -6.826  -0.824 -35.063  1.00  0.00     0.002 A 
HETATM   24  C   UNL     1      -6.261  -0.994 -33.796  1.00  0.00     0.007 A 
ENDBRANCH  16  18
ENDBRANCH  12  15
ENDBRANCH   1  11
BRANCH   8  25
HETATM   25  C   UNL     1       0.026   5.907 -31.750  1.00  0.00     0.270 C 
HETATM   26  N   UNL     1       0.485   7.116 -31.306  1.00  0.00    -0.365 N 
HETATM   27  H   UNL     1       0.046   7.960 -31.652  1.00  0.00     0.159 HD
HETATM   28  H   UNL     1       1.232   7.148 -30.630  1.00  0.00     0.159 HD
HETATM   29  O   UNL     1       0.514   4.857 -31.349  1.00  0.00    -0.266 OA
ENDBRANCH   8  25
TORSDOF 4
ENDMDL
MODEL 2
REMARK VINA RESULT:      -8.3      2.281      2.910
REMARK  4 active torsions:
REMARK  status: ('A' for Active; 'I' for Inactive)
REMARK    1  A    between atoms: C_6  and  C_7 
REMARK    2  A    between atoms: C_8  and  C_9 
REMARK       I    between atoms: C_9  and  N_10 
REMARK    3  A    between atoms: N_10  and  C_11 
REMARK    4  A    between atoms: C_18  and  C_19 
REMARK       I    between atoms: C_19  and  N_20 
ROOT
HETATM    1  C   UNL     1      -4.984   3.949 -33.238  1.00  0.00     0.035 A 
HETATM    2  C   UNL     1      -3.885   4.186 -32.400  1.00  0.00     0.046 A 
HETATM    3  C   UNL     1      -2.815   4.985 -32.863  1.00  0.00     0.030 A 
HETATM    4  C   UNL     1      -2.878   5.512 -34.146  1.00  0.00     0.063 A 
HETATM    5  N   UNL     1      -1.722   6.222 -34.304  1.00  0.00    -0.277 N 
HETATM    6  H   UNL     1      -1.428   6.742 -35.122  1.00  0.00     0.189 HD
HETATM    7  N   UNL     1      -0.913   6.215 -33.231  1.00  0.00    -0.168 NA
HETATM    8  C   UNL     1      -1.576   5.455 -32.330  1.00  0.00     0.156 A 
HETATM    9  C   UNL     1      -3.955   5.294 -35.008  1.00  0.00     0.034 A 
HETATM   10  C   UNL     1      -5.007   4.506 -34.523  1.00  0.00     0.032 A 
ENDROOT
BRANCH   1  11
HETATM   11  N   UNL     1      -6.112   3.191 -32.854  1.00  0.00    -0.327 N 
HETATM   12  C   UNL     1      -6.770   2.233 -33.594  1.00  0.00     0.227 C 
HETATM   13  O   UNL     1      -6.553   1.937 -34.761  1.00  0.00    -0.273 OA
HETATM   14  H   UNL     1      -6.517   3.427 -31.961  1.00  0.00     0.169 HD
BRANCH  12  15
HETATM   15  C   UNL     1      -7.863   1.493 -32.896  1.00  0.00     0.087 A 
HETATM   16  C   UNL     1      -7.730   0.027 -32.525  1.00  0.00     0.032 A 
HETATM   17  C   UNL     1      -8.791   0.479 -33.504  1.00  0.00     0.025 A 
BRANCH  16  18
HETATM   18  C   UNL     1      -6.597  -0.847 -33.009  1.00  0.00    -0.051 A 
HETATM   19  C   UNL     1      -5.371  -0.893 -32.323  1.00  0.00     0.031 A 
HETATM   20  C   UNL     1      -4.314  -1.682 -32.781  1.00  0.00     0.034 A 
HETATM   21  C   UNL     1      -4.449  -2.439 -33.939  1.00  0.00     0.024 A 
HETATM   22 CL   UNL     1      -2.833  -1.714 -31.904  1.00  0.00    -0.084 Cl
HETATM   23  C   UNL     1      -5.649  -2.400 -34.645  1.00  0.00     0.002 A 
HETATM   24  C   UNL     1      -6.704  -1.606 -34.187  1.00  0.00     0.007 A 
ENDBRANCH  16  18
ENDBRANCH  12  15
ENDBRANCH   1  11
BRANCH   8  25
HETATM   25  C   UNL     1      -1.021   5.205 -30.992  1.00  0.00     0.270 C 
HETATM   26  N   UNL     1      -1.668   5.871 -29.987  1.00  0.00    -0.365 N 
HETATM   27  H   UNL     1      -2.460   6.457 -30.224  1.00  0.00     0.159 HD
HETATM   28  H   UNL     1      -1.365   5.751 -29.034  1.00  0.00     0.159 HD
HETATM   29  O   UNL     1      -0.068   4.472 -30.756  1.00  0.00    -0.266 OA
ENDBRANCH   8  25
TORSDOF 4
ENDMDL
MODEL 3
REMARK VINA RESULT:      -8.3      4.713      8.440
REMARK  4 active torsions:
REMARK  status: ('A' for Active; 'I' for Inactive)
REMARK    1  A    between atoms: C_6  and  C_7 
REMARK    2  A    between atoms: C_8  and  C_9 
REMARK       I    between atoms: C_9  and  N_10 
REMARK    3  A    between atoms: N_10  and  C_11 
REMARK    4  A    between atoms: C_18  and  C_19 
REMARK       I    between atoms: C_19  and  N_20 
ROOT
HETATM    1  C   UNL     1      -8.849   0.836 -33.098  1.00  0.00     0.035 A 
HETATM    2  C   UNL     1     -10.169   0.380 -33.224  1.00  0.00     0.046 A 
HETATM    3  C   UNL     1     -11.178   1.273 -33.650  1.00  0.00     0.030 A 
HETATM    4  C   UNL     1     -10.834   2.589 -33.928  1.00  0.00     0.063 A 
HETATM    5  N   UNL     1     -11.998   3.196 -34.306  1.00  0.00    -0.277 N 
HETATM    6  H   UNL     1     -12.125   4.163 -34.581  1.00  0.00     0.189 HD
HETATM    7  N   UNL     1     -13.072   2.389 -34.310  1.00  0.00    -0.168 NA
HETATM    8  C   UNL     1     -12.580   1.195 -33.908  1.00  0.00     0.156 A 
HETATM    9  C   UNL     1      -9.532   3.078 -33.811  1.00  0.00     0.034 A 
HETATM   10  C   UNL     1      -8.548   2.172 -33.396  1.00  0.00     0.032 A 
ENDROOT
BRANCH   1  11
HETATM   11  N   UNL     1      -7.770   0.012 -32.711  1.00  0.00    -0.327 N 
HETATM   12  C   UNL     1      -6.645  -0.296 -33.444  1.00  0.00     0.227 C 
HETATM   13  O   UNL     1      -6.427   0.010 -34.607  1.00  0.00    -0.273 OA
HETATM   14  H   UNL     1      -7.868  -0.451 -31.820  1.00  0.00     0.169 HD
BRANCH  12  15
HETATM   15  C   UNL     1      -5.595  -1.093 -32.742  1.00  0.00     0.087 A 
HETATM   16  C   UNL     1      -4.637  -0.462 -31.748  1.00  0.00     0.032 A 
HETATM   17  C   UNL     1      -4.119  -1.083 -33.027  1.00  0.00     0.025 A 
BRANCH  16  18
HETATM   18  C   UNL     1      -4.523   1.031 -31.548  1.00  0.00    -0.051 A 
HETATM   19  C   UNL     1      -3.607   1.796 -32.291  1.00  0.00     0.031 A 
HETATM   20  C   UNL     1      -3.484   3.172 -32.093  1.00  0.00     0.034 A 
HETATM   21  C   UNL     1      -4.265   3.821 -31.142  1.00  0.00     0.024 A 
HETATM   22 CL   UNL     1      -2.355   4.071 -33.031  1.00  0.00    -0.084 Cl
HETATM   23  C   UNL     1      -5.169   3.083 -30.383  1.00  0.00     0.002 A 
HETATM   24  C   UNL     1      -5.289   1.705 -30.581  1.00  0.00     0.007 A 
ENDBRANCH  16  18
ENDBRANCH  12  15
ENDBRANCH   1  11
BRANCH   8  25
HETATM   25  C   UNL     1     -13.451   0.016 -33.790  1.00  0.00     0.270 C 
HETATM   26  N   UNL     1     -14.718   0.210 -34.269  1.00  0.00    -0.365 N 
HETATM   27  H   UNL     1     -14.955   1.111 -34.666  1.00  0.00     0.159 HD
HETATM   28  H   UNL     1     -15.383  -0.548 -34.241  1.00  0.00     0.159 HD
HETATM   29  O   UNL     1     -13.111  -1.061 -33.315  1.00  0.00    -0.266 OA
ENDBRANCH   8  25
TORSDOF 4
ENDMDL
MODEL 4
REMARK VINA RESULT:      -8.2      2.496      3.021
REMARK  4 active torsions:
REMARK  status: ('A' for Active; 'I' for Inactive)
REMARK    1  A    between atoms: C_6  and  C_7 
REMARK    2  A    between atoms: C_8  and  C_9 
REMARK       I    between atoms: C_9  and  N_10 
REMARK    3  A    between atoms: N_10  and  C_11 
REMARK    4  A    between atoms: C_18  and  C_19 
REMARK       I    between atoms: C_19  and  N_20 
ROOT
HETATM    1  C   UNL     1      -3.515   4.296 -31.477  1.00  0.00     0.035 A 
HETATM    2  C   UNL     1      -3.346   5.658 -31.187  1.00  0.00     0.046 A 
HETATM    3  C   UNL     1      -2.634   6.480 -32.089  1.00  0.00     0.030 A 
HETATM    4  C   UNL     1      -2.111   5.913 -33.243  1.00  0.00     0.063 A 
HETATM    5  N   UNL     1      -1.488   6.936 -33.901  1.00  0.00    -0.277 N 
HETATM    6  H   UNL     1      -0.993   6.887 -34.784  1.00  0.00     0.189 HD
HETATM    7  N   UNL     1      -1.567   8.126 -33.283  1.00  0.00    -0.168 NA
HETATM    8  C   UNL     1      -2.275   7.861 -32.161  1.00  0.00     0.156 A 
HETATM    9  C   UNL     1      -2.257   4.562 -33.563  1.00  0.00     0.034 A 
HETATM   10  C   UNL     1      -2.974   3.769 -32.657  1.00  0.00     0.032 A 
ENDROOT
BRANCH   1  11
HETATM   11  N   UNL     1      -4.235   3.404 -30.654  1.00  0.00    -0.327 N 
HETATM   12  C   UNL     1      -5.522   2.947 -30.839  1.00  0.00     0.227 C 
HETATM   13  O   UNL     1      -6.310   3.313 -31.700  1.00  0.00    -0.273 OA
HETATM   14  H   UNL     1      -3.775   3.122 -29.803  1.00  0.00     0.169 HD
BRANCH  12  15
HETATM   15  C   UNL     1      -5.998   1.906 -29.880  1.00  0.00     0.087 A 
HETATM   16  C   UNL     1      -5.669   0.435 -30.061  1.00  0.00     0.032 A 
HETATM   17  C   UNL     1      -7.104   0.913 -30.108  1.00  0.00     0.025 A 
BRANCH  16  18
HETATM   18  C   UNL     1      -5.029  -0.117 -31.312  1.00  0.00    -0.051 A 
HETATM   19  C   UNL     1      -5.809  -0.627 -32.364  1.00  0.00     0.031 A 
HETATM   20  C   UNL     1      -5.219  -1.159 -33.512  1.00  0.00     0.034 A 
HETATM   21  C   UNL     1      -3.835  -1.204 -33.638  1.00  0.00     0.024 A 
HETATM   22 CL   UNL     1      -6.215  -1.764 -34.780  1.00  0.00    -0.084 Cl
HETATM   23  C   UNL     1      -3.039  -0.718 -32.604  1.00  0.00     0.002 A 
HETATM   24  C   UNL     1      -3.632  -0.190 -31.454  1.00  0.00     0.007 A 
ENDBRANCH  16  18
ENDBRANCH  12  15
ENDBRANCH   1  11
BRANCH   8  25
HETATM   25  C   UNL     1      -2.597   8.924 -31.197  1.00  0.00     0.270 C 
HETATM   26  N   UNL     1      -1.862   8.872 -30.044  1.00  0.00    -0.365 N 
HETATM   27  H   UNL     1      -1.168   8.141 -29.944  1.00  0.00     0.159 HD
HETATM   28  H   UNL     1      -2.005   9.568 -29.330  1.00  0.00     0.159 HD
HETATM   29  O   UNL     1      -3.437   9.798 -31.374  1.00  0.00    -0.266 OA
ENDBRANCH   8  25
TORSDOF 4
ENDMDL
MODEL 5
REMARK VINA RESULT:      -8.1      5.090      6.547
REMARK  4 active torsions:
REMARK  status: ('A' for Active; 'I' for Inactive)
REMARK    1  A    between atoms: C_6  and  C_7 
REMARK    2  A    between atoms: C_8  and  C_9 
REMARK       I    between atoms: C_9  and  N_10 
REMARK    3  A    between atoms: N_10  and  C_11 
REMARK    4  A    between atoms: C_18  and  C_19 
REMARK       I    between atoms: C_19  and  N_20 
ROOT
HETATM    1  C   UNL     1      -7.169  -0.022 -32.464  1.00  0.00     0.035 A 
HETATM    2  C   UNL     1      -5.980  -0.685 -32.127  1.00  0.00     0.046 A 
HETATM    3  C   UNL     1      -5.367  -1.540 -33.071  1.00  0.00     0.030 A 
HETATM    4  C   UNL     1      -5.966  -1.707 -34.312  1.00  0.00     0.063 A 
HETATM    5  N   UNL     1      -5.158  -2.575 -34.991  1.00  0.00    -0.277 N 
HETATM    6  H   UNL     1      -5.287  -2.926 -35.933  1.00  0.00     0.189 HD
HETATM    7  N   UNL     1      -4.076  -2.982 -34.306  1.00  0.00    -0.168 NA
HETATM    8  C   UNL     1      -4.190  -2.348 -33.116  1.00  0.00     0.156 A 
HETATM    9  C   UNL     1      -7.150  -1.066 -34.681  1.00  0.00     0.034 A 
HETATM   10  C   UNL     1      -7.734  -0.217 -33.732  1.00  0.00     0.032 A 
ENDROOT
BRANCH   1  11
HETATM   11  N   UNL     1      -7.837   0.874 -31.602  1.00  0.00    -0.327 N 
HETATM   12  C   UNL     1      -7.672   2.239 -31.520  1.00  0.00     0.227 C 
HETATM   13  O   UNL     1      -6.840   2.910 -32.114  1.00  0.00    -0.273 OA
HETATM   14  H   UNL     1      -8.459   0.454 -30.928  1.00  0.00     0.169 HD
BRANCH  12  15
HETATM   15  C   UNL     1      -8.602   2.964 -30.604  1.00  0.00     0.087 A 
HETATM   16  C   UNL     1      -9.901   3.576 -31.096  1.00  0.00     0.032 A 
HETATM   17  C   UNL     1      -8.807   4.451 -30.525  1.00  0.00     0.025 A 
BRANCH  16  18
HETATM   18  C   UNL     1     -10.255   3.690 -32.560  1.00  0.00    -0.051 A 
HETATM   19  C   UNL     1     -11.042   2.713 -33.195  1.00  0.00     0.031 A 
HETATM   20  C   UNL     1     -11.352   2.804 -34.553  1.00  0.00     0.034 A 
HETATM   21  C   UNL     1     -10.879   3.867 -35.316  1.00  0.00     0.024 A 
HETATM   22 CL   UNL     1     -12.325   1.590 -35.288  1.00  0.00    -0.084 Cl
HETATM   23  C   UNL     1     -10.086   4.840 -34.713  1.00  0.00     0.002 A 
HETATM   24  C   UNL     1      -9.774   4.745 -33.354  1.00  0.00     0.007 A 
ENDBRANCH  16  18
ENDBRANCH  12  15
ENDBRANCH   1  11
BRANCH   8  25
HETATM   25  C   UNL     1      -3.179  -2.522 -32.064  1.00  0.00     0.270 C 
HETATM   26  N   UNL     1      -2.602  -1.353 -31.647  1.00  0.00    -0.365 N 
HETATM   27  H   UNL     1      -2.907  -0.484 -32.069  1.00  0.00     0.159 HD
HETATM   28  H   UNL     1      -1.904  -1.372 -30.920  1.00  0.00     0.159 HD
HETATM   29  O   UNL     1      -2.855  -3.597 -31.573  1.00  0.00    -0.266 OA
ENDBRANCH   8  25
TORSDOF 4
ENDMDL
MODEL 6
REMARK VINA RESULT:      -8.1      3.833      7.095
REMARK  4 active torsions:
REMARK  status: ('A' for Active; 'I' for Inactive)
REMARK    1  A    between atoms: C_6  and  C_7 
REMARK    2  A    between atoms: C_8  and  C_9 
REMARK       I    between atoms: C_9  and  N_10 
REMARK    3  A    between atoms: N_10  and  C_11 
REMARK    4  A    between atoms: C_18  and  C_19 
REMARK       I    between atoms: C_19  and  N_20 
ROOT
HETATM    1  C   UNL     1      -6.279   1.178 -33.577  1.00  0.00     0.035 A 
HETATM    2  C   UNL     1      -5.281   0.396 -32.978  1.00  0.00     0.046 A 
HETATM    3  C   UNL     1      -5.046  -0.915 -33.451  1.00  0.00     0.030 A 
HETATM    4  C   UNL     1      -5.819  -1.399 -34.498  1.00  0.00     0.063 A 
HETATM    5  N   UNL     1      -5.368  -2.669 -34.725  1.00  0.00    -0.277 N 
HETATM    6  H   UNL     1      -5.706  -3.325 -35.420  1.00  0.00     0.189 HD
HETATM    7  N   UNL     1      -4.360  -3.054 -33.925  1.00  0.00    -0.168 NA
HETATM    8  C   UNL     1      -4.148  -1.979 -33.132  1.00  0.00     0.156 A 
HETATM    9  C   UNL     1      -6.822  -0.650 -35.115  1.00  0.00     0.034 A 
HETATM   10  C   UNL     1      -7.030   0.650 -34.635  1.00  0.00     0.032 A 
ENDROOT
BRANCH   1  11
HETATM   11  N   UNL     1      -6.565   2.507 -33.196  1.00  0.00    -0.327 N 
HETATM   12  C   UNL     1      -6.047   3.203 -32.126  1.00  0.00     0.227 C 
HETATM   13  O   UNL     1      -5.316   2.758 -31.252  1.00  0.00    -0.273 OA
HETATM   14  H   UNL     1      -7.279   2.974 -33.734  1.00  0.00     0.169 HD
BRANCH  12  15
HETATM   15  C   UNL     1      -6.427   4.643 -32.027  1.00  0.00     0.087 A 
HETATM   16  C   UNL     1      -5.572   5.744 -32.628  1.00  0.00     0.032 A 
HETATM   17  C   UNL     1      -5.801   5.678 -31.134  1.00  0.00     0.025 A 
BRANCH  16  18
HETATM   18  C   UNL     1      -4.187   5.503 -33.179  1.00  0.00    -0.051 A 
HETATM   19  C   UNL     1      -3.063   5.480 -32.335  1.00  0.00     0.031 A 
HETATM   20  C   UNL     1      -1.779   5.280 -32.845  1.00  0.00     0.034 A 
HETATM   21  C   UNL     1      -1.580   5.105 -34.210  1.00  0.00     0.024 A 
HETATM   22 CL   UNL     1      -0.432   5.251 -31.773  1.00  0.00    -0.084 Cl
HETATM   23  C   UNL     1      -2.676   5.138 -35.069  1.00  0.00     0.002 A 
HETATM   24  C   UNL     1      -3.961   5.343 -34.557  1.00  0.00     0.007 A 
ENDBRANCH  16  18
ENDBRANCH  12  15
ENDBRANCH   1  11
BRANCH   8  25
HETATM   25  C   UNL     1      -3.097  -1.990 -32.104  1.00  0.00     0.270 C 
HETATM   26  N   UNL     1      -2.878  -3.219 -31.543  1.00  0.00    -0.365 N 
HETATM   27  H   UNL     1      -3.426  -4.006 -31.869  1.00  0.00     0.159 HD
HETATM   28  H   UNL     1      -2.167  -3.325 -30.837  1.00  0.00     0.159 HD
HETATM   29  O   UNL     1      -2.448  -1.010 -31.756  1.00  0.00    -0.266 OA
ENDBRANCH   8  25
TORSDOF 4
ENDMDL
MODEL 7
REMARK VINA RESULT:      -8.0      3.584      8.433
REMARK  4 active torsions:
REMARK  status: ('A' for Active; 'I' for Inactive)
REMARK    1  A    between atoms: C_6  and  C_7 
REMARK    2  A    between atoms: C_8  and  C_9 
REMARK       I    between atoms: C_9  and  N_10 
REMARK    3  A    between atoms: N_10  and  C_11 
REMARK    4  A    between atoms: C_18  and  C_19 
REMARK       I    between atoms: C_19  and  N_20 
ROOT
HETATM    1  C   UNL     1      -4.219   3.460 -31.975  1.00  0.00     0.035 A 
HETATM    2  C   UNL     1      -4.532   2.164 -32.407  1.00  0.00     0.046 A 
HETATM    3  C   UNL     1      -5.378   1.351 -31.619  1.00  0.00     0.030 A 
HETATM    4  C   UNL     1      -5.876   1.859 -30.426  1.00  0.00     0.063 A 
HETATM    5  N   UNL     1      -6.644   0.861 -29.898  1.00  0.00    -0.277 N 
HETATM    6  H   UNL     1      -7.163   0.880 -29.028  1.00  0.00     0.189 HD
HETATM    7  N   UNL     1      -6.703  -0.253 -30.647  1.00  0.00    -0.168 NA
HETATM    8  C   UNL     1      -5.926   0.035 -31.716  1.00  0.00     0.156 A 
HETATM    9  C   UNL     1      -5.583   3.144 -29.964  1.00  0.00     0.034 A 
HETATM   10  C   UNL     1      -4.749   3.933 -30.766  1.00  0.00     0.032 A 
ENDROOT
BRANCH   1  11
HETATM   11  N   UNL     1      -3.410   4.355 -32.707  1.00  0.00    -0.327 N 
HETATM   12  C   UNL     1      -2.066   4.604 -32.533  1.00  0.00     0.227 C 
HETATM   13  O   UNL     1      -1.352   4.165 -31.643  1.00  0.00    -0.273 OA
HETATM   14  H   UNL     1      -3.888   4.921 -33.391  1.00  0.00     0.169 HD
BRANCH  12  15
HETATM   15  C   UNL     1      -1.427   5.511 -33.532  1.00  0.00     0.087 A 
HETATM   16  C   UNL     1      -0.817   6.844 -33.135  1.00  0.00     0.032 A 
HETATM   17  C   UNL     1      -1.997   6.790 -34.080  1.00  0.00     0.025 A 
BRANCH  16  18
HETATM   18  C   UNL     1      -0.990   7.452 -31.763  1.00  0.00    -0.051 A 
HETATM   19  C   UNL     1      -0.103   7.150 -30.716  1.00  0.00     0.031 A 
HETATM   20  C   UNL     1      -0.274   7.694 -29.442  1.00  0.00     0.034 A 
HETATM   21  C   UNL     1      -1.340   8.546 -29.176  1.00  0.00     0.024 A 
HETATM   22 CL   UNL     1       0.843   7.302 -28.192  1.00  0.00    -0.084 Cl
HETATM   23  C   UNL     1      -2.241   8.850 -30.192  1.00  0.00     0.002 A 
HETATM   24  C   UNL     1      -2.070   8.302 -31.467  1.00  0.00     0.007 A 
ENDBRANCH  16  18
ENDBRANCH  12  15
ENDBRANCH   1  11
BRANCH   8  25
HETATM   25  C   UNL     1      -5.733  -0.940 -32.799  1.00  0.00     0.270 C 
HETATM   26  N   UNL     1      -6.880  -1.255 -33.476  1.00  0.00    -0.365 N 
HETATM   27  H   UNL     1      -7.745  -0.805 -33.201  1.00  0.00     0.159 HD
HETATM   28  H   UNL     1      -6.843  -1.907 -34.243  1.00  0.00     0.159 HD
HETATM   29  O   UNL     1      -4.659  -1.445 -33.104  1.00  0.00    -0.266 OA
ENDBRANCH   8  25
TORSDOF 4
ENDMDL
MODEL 8
REMARK VINA RESULT:      -7.8      4.742      6.601
REMARK  4 active torsions:
REMARK  status: ('A' for Active; 'I' for Inactive)
REMARK    1  A    between atoms: C_6  and  C_7 
REMARK    2  A    between atoms: C_8  and  C_9 
REMARK       I    between atoms: C_9  and  N_10 
REMARK    3  A    between atoms: N_10  and  C_11 
REMARK    4  A    between atoms: C_18  and  C_19 
REMARK       I    between atoms: C_19  and  N_20 
ROOT
HETATM    1  C   UNL     1      -7.229   1.146 -33.906  1.00  0.00     0.035 A 
HETATM    2  C   UNL     1      -6.152   0.808 -33.075  1.00  0.00     0.046 A 
HETATM    3  C   UNL     1      -5.500  -0.434 -33.248  1.00  0.00     0.030 A 
HETATM    4  C   UNL     1      -5.951  -1.295 -34.239  1.00  0.00     0.063 A 
HETATM    5  N   UNL     1      -5.141  -2.393 -34.163  1.00  0.00    -0.277 N 
HETATM    6  H   UNL     1      -5.182  -3.227 -34.737  1.00  0.00     0.189 HD
HETATM    7  N   UNL     1      -4.192  -2.320 -33.215  1.00  0.00    -0.168 NA
HETATM    8  C   UNL     1      -4.400  -1.113 -32.641  1.00  0.00     0.156 A 
HETATM    9  C   UNL     1      -7.022  -0.993 -35.083  1.00  0.00     0.034 A 
HETATM   10  C   UNL     1      -7.646   0.247 -34.897  1.00  0.00     0.032 A 
ENDROOT
BRANCH   1  11
HETATM   11  N   UNL     1      -7.922   2.374 -33.830  1.00  0.00    -0.327 N 
HETATM   12  C   UNL     1      -8.727   2.820 -32.805  1.00  0.00     0.227 C 
HETATM   13  O   UNL     1      -9.067   2.186 -31.816  1.00  0.00    -0.273 OA
HETATM   14  H   UNL     1      -7.869   2.959 -34.649  1.00  0.00     0.169 HD
BRANCH  12  15
HETATM   15  C   UNL     1      -9.238   4.218 -32.926  1.00  0.00     0.087 A 
HETATM   16  C   UNL     1     -10.685   4.517 -33.275  1.00  0.00     0.032 A 
HETATM   17  C   UNL     1      -9.567   4.946 -34.199  1.00  0.00     0.025 A 
BRANCH  16  18
HETATM   18  C   UNL     1     -11.659   3.456 -33.730  1.00  0.00    -0.051 A 
HETATM   19  C   UNL     1     -12.787   3.125 -32.959  1.00  0.00     0.031 A 
HETATM   20  C   UNL     1     -13.676   2.129 -33.366  1.00  0.00     0.034 A 
HETATM   21  C   UNL     1     -13.460   1.430 -34.549  1.00  0.00     0.024 A 
HETATM   22 CL   UNL     1     -15.048   1.762 -32.394  1.00  0.00    -0.084 Cl
HETATM   23  C   UNL     1     -12.342   1.730 -35.324  1.00  0.00     0.002 A 
HETATM   24  C   UNL     1     -11.451   2.725 -34.913  1.00  0.00     0.007 A 
ENDBRANCH  16  18
ENDBRANCH  12  15
ENDBRANCH   1  11
BRANCH   8  25
HETATM   25  C   UNL     1      -3.545  -0.638 -31.543  1.00  0.00     0.270 C 
HETATM   26  N   UNL     1      -2.258  -1.097 -31.600  1.00  0.00    -0.365 N 
HETATM   27  H   UNL     1      -1.991  -1.700 -32.369  1.00  0.00     0.159 HD
HETATM   28  H   UNL     1      -1.596  -0.814 -30.895  1.00  0.00     0.159 HD
HETATM   29  O   UNL     1      -3.913   0.107 -30.642  1.00  0.00    -0.266 OA
ENDBRANCH   8  25
TORSDOF 4
ENDMDL
MODEL 9
REMARK VINA RESULT:      -7.8      5.043      7.823
REMARK  4 active torsions:
REMARK  status: ('A' for Active; 'I' for Inactive)
REMARK    1  A    between atoms: C_6  and  C_7 
REMARK    2  A    between atoms: C_8  and  C_9 
REMARK       I    between atoms: C_9  and  N_10 
REMARK    3  A    between atoms: N_10  and  C_11 
REMARK    4  A    between atoms: C_18  and  C_19 
REMARK       I    between atoms: C_19  and  N_20 
ROOT
HETATM    1  C   UNL     1      -8.675   1.303 -33.165  1.00  0.00     0.035 A 
HETATM    2  C   UNL     1      -9.441   2.293 -33.795  1.00  0.00     0.046 A 
HETATM    3  C   UNL     1     -10.823   2.081 -34.000  1.00  0.00     0.030 A 
HETATM    4  C   UNL     1     -11.388   0.886 -33.574  1.00  0.00     0.063 A 
HETATM    5  N   UNL     1     -12.711   0.972 -33.905  1.00  0.00    -0.277 N 
HETATM    6  H   UNL     1     -13.430   0.276 -33.744  1.00  0.00     0.189 HD
HETATM    7  N   UNL     1     -13.063   2.123 -34.500  1.00  0.00    -0.168 NA
HETATM    8  C   UNL     1     -11.906   2.821 -34.565  1.00  0.00     0.156 A 
HETATM    9  C   UNL     1     -10.656  -0.122 -32.945  1.00  0.00     0.034 A 
HETATM   10  C   UNL     1      -9.290   0.115 -32.747  1.00  0.00     0.032 A 
ENDROOT
BRANCH   1  11
HETATM   11  N   UNL     1      -7.297   1.436 -32.889  1.00  0.00    -0.327 N 
HETATM   12  C   UNL     1      -6.588   0.857 -31.860  1.00  0.00     0.227 C 
HETATM   13  O   UNL     1      -7.048   0.200 -30.937  1.00  0.00    -0.273 OA
HETATM   14  H   UNL     1      -6.791   2.080 -33.478  1.00  0.00     0.169 HD
BRANCH  12  15
HETATM   15  C   UNL     1      -5.109   1.065 -31.875  1.00  0.00     0.087 A 
HETATM   16  C   UNL     1      -4.183   0.192 -32.703  1.00  0.00     0.032 A 
HETATM   17  C   UNL     1      -4.075   0.214 -31.194  1.00  0.00     0.025 A 
BRANCH  16  18
HETATM   18  C   UNL     1      -4.641  -1.068 -33.397  1.00  0.00    -0.051 A 
HETATM   19  C   UNL     1      -3.952  -2.282 -33.228  1.00  0.00     0.031 A 
HETATM   20  C   UNL     1      -4.361  -3.444 -33.886  1.00  0.00     0.034 A 
HETATM   21  C   UNL     1      -5.461  -3.424 -34.736  1.00  0.00     0.024 A 
HETATM   22 CL   UNL     1      -3.493  -4.910 -33.644  1.00  0.00    -0.084 Cl
HETATM   23  C   UNL     1      -6.151  -2.231 -34.931  1.00  0.00     0.002 A 
HETATM   24  C   UNL     1      -5.739  -1.068 -34.274  1.00  0.00     0.007 A 
ENDBRANCH  16  18
ENDBRANCH  12  15
ENDBRANCH   1  11
BRANCH   8  25
HETATM   25  C   UNL     1     -11.864   4.169 -35.151  1.00  0.00     0.270 C 
HETATM   26  N   UNL     1     -13.094   4.748 -35.304  1.00  0.00    -0.365 N 
HETATM   27  H   UNL     1     -13.914   4.234 -35.005  1.00  0.00     0.159 HD
HETATM   28  H   UNL     1     -13.163   5.678 -35.687  1.00  0.00     0.159 HD
HETATM   29  O   UNL     1     -10.841   4.757 -35.482  1.00  0.00    -0.266 OA
ENDBRANCH   8  25
TORSDOF 4
ENDMDL
MODEL 10
REMARK VINA RESULT:      -7.7      3.557      8.298
REMARK  4 active torsions:
REMARK  status: ('A' for Active; 'I' for Inactive)
REMARK    1  A    between atoms: C_6  and  C_7 
REMARK    2  A    between atoms: C_8  and  C_9 
REMARK       I    between atoms: C_9  and  N_10 
REMARK    3  A    between atoms: N_10  and  C_11 
REMARK    4  A    between atoms: C_18  and  C_19 
REMARK       I    between atoms: C_19  and  N_20 
ROOT
HETATM    1  C   UNL     1      -4.804   4.223 -32.103  1.00  0.00     0.035 A 
HETATM    2  C   UNL     1      -5.564   3.414 -32.959  1.00  0.00     0.046 A 
HETATM    3  C   UNL     1      -6.509   2.516 -32.414  1.00  0.00     0.030 A 
HETATM    4  C   UNL     1      -6.656   2.454 -31.035  1.00  0.00     0.063 A 
HETATM    5  N   UNL     1      -7.622   1.512 -30.815  1.00  0.00    -0.277 N 
HETATM    6  H   UNL     1      -7.986   1.204 -29.921  1.00  0.00     0.189 HD
HETATM    7  N   UNL     1      -8.128   0.961 -31.931  1.00  0.00    -0.168 NA
HETATM    8  C   UNL     1      -7.451   1.573 -32.929  1.00  0.00     0.156 A 
HETATM    9  C   UNL     1      -5.915   3.241 -30.152  1.00  0.00     0.034 A 
HETATM   10  C   UNL     1      -4.991   4.130 -30.717  1.00  0.00     0.032 A 
ENDROOT
BRANCH   1  11
HETATM   11  N   UNL     1      -3.860   5.171 -32.554  1.00  0.00    -0.327 N 
HETATM   12  C   UNL     1      -2.554   4.941 -32.928  1.00  0.00     0.227 C 
HETATM   13  O   UNL     1      -1.946   3.884 -32.841  1.00  0.00    -0.273 OA
HETATM   14  H   UNL     1      -4.162   6.133 -32.538  1.00  0.00     0.169 HD
BRANCH  12  15
HETATM   15  C   UNL     1      -1.811   6.109 -33.487  1.00  0.00     0.087 A 
HETATM   16  C   UNL     1      -0.682   6.782 -32.728  1.00  0.00     0.032 A 
HETATM   17  C   UNL     1      -1.944   7.545 -33.064  1.00  0.00     0.025 A 
BRANCH  16  18
HETATM   18  C   UNL     1      -0.362   6.474 -31.284  1.00  0.00    -0.051 A 
HETATM   19  C   UNL     1      -0.875   7.264 -30.241  1.00  0.00     0.031 A 
HETATM   20  C   UNL     1      -0.563   6.995 -28.907  1.00  0.00     0.034 A 
HETATM   21  C   UNL     1       0.276   5.936 -28.579  1.00  0.00     0.024 A 
HETATM   22 CL   UNL     1      -1.221   7.985 -27.662  1.00  0.00    -0.084 Cl
HETATM   23  C   UNL     1       0.808   5.146 -29.594  1.00  0.00     0.002 A 
HETATM   24  C   UNL     1       0.498   5.419 -30.929  1.00  0.00     0.007 A 
ENDBRANCH  16  18
ENDBRANCH  12  15
ENDBRANCH   1  11
BRANCH   8  25
HETATM   25  C   UNL     1      -7.722   1.253 -34.338  1.00  0.00     0.270 C 
HETATM   26  N   UNL     1      -9.038   1.375 -34.694  1.00  0.00    -0.365 N 
HETATM   27  H   UNL     1      -9.704   1.676 -33.993  1.00  0.00     0.159 HD
HETATM   28  H   UNL     1      -9.317   1.188 -35.644  1.00  0.00     0.159 HD
HETATM   29  O   UNL     1      -6.875   0.909 -35.153  1.00  0.00    -0.266 OA
ENDBRANCH   8  25
TORSDOF 4
ENDMDL
