MODEL 1
REMARK VINA RESULT:      -8.9      0.000      0.000
REMARK  8 active torsions:
REMARK  status: ('A' for Active; 'I' for Inactive)
REMARK    1  A    between atoms: C_5  and  S_6 
REMARK    2  A    between atoms: S_6  and  C_7 
REMARK    3  A    between atoms: C_7  and  C_8 
REMARK       I    between atoms: C_8  and  N_9 
REMARK    4  A    between atoms: N_9  and  N_10 
REMARK       I    between atoms: N_10  and  C_11 
REMARK    5  A    between atoms: C_11  and  C_12 
REMARK    6  A    between atoms: C_15  and  O_16 
REMARK    7  A    between atoms: C_23  and  C_24 
REMARK    8  A    between atoms: C_24  and  C_25 
ROOT
HETATM    1  C   UNL     1      -2.721   3.790 -33.049  1.00  0.00     0.187 C 
ENDROOT
BRANCH   1   2
HETATM    2  S   UNL     1      -4.464   4.244 -33.236  1.00  0.00    -0.083 SA
BRANCH   2   3
HETATM    3  C   UNL     1      -5.252   2.881 -32.529  1.00  0.00     0.167 A 
HETATM    4  N   UNL     1      -5.063   2.539 -31.223  1.00  0.00    -0.337 N 
HETATM    5  C   UNL     1      -5.774   1.390 -30.984  1.00  0.00     0.032 A 
HETATM    6  H   UNL     1      -4.526   3.075 -30.552  1.00  0.00     0.168 HD
HETATM    7  C   UNL     1      -5.805   0.729 -29.662  1.00  0.00     0.070 C 
HETATM    8  C   UNL     1      -6.360   1.078 -32.202  1.00  0.00     0.063 A 
HETATM    9  N   UNL     1      -6.043   2.040 -33.145  1.00  0.00    -0.227 NA
BRANCH   8  10
HETATM   10  C   UNL     1      -7.248  -0.066 -32.556  1.00  0.00     0.100 C 
BRANCH  10  11
HETATM   11  C   UNL     1      -6.376  -1.079 -33.258  1.00  0.00    -0.052 A 
HETATM   12  C   UNL     1      -5.046  -1.283 -32.862  1.00  0.00     0.007 A 
HETATM   13  C   UNL     1      -4.247  -2.223 -33.517  1.00  0.00     0.001 A 
HETATM   14  C   UNL     1      -4.769  -2.971 -34.572  1.00  0.00     0.000 A 
HETATM   15  C   UNL     1      -6.087  -2.777 -34.977  1.00  0.00     0.001 A 
HETATM   16  C   UNL     1      -6.886  -1.837 -34.325  1.00  0.00     0.007 A 
ENDBRANCH  10  11
ENDBRANCH   8  10
ENDBRANCH   2   3
ENDBRANCH   1   2
BRANCH   1  17
HETATM   17  C   UNL     1      -1.987   4.863 -32.271  1.00  0.00     0.245 C 
HETATM   18  N   UNL     1      -1.845   4.609 -30.920  1.00  0.00    -0.267 N 
HETATM   19  H   UNL     1      -2.499   3.994 -30.432  1.00  0.00     0.190 HD
HETATM   20  O   UNL     1      -1.552   5.896 -32.788  1.00  0.00    -0.271 OA
BRANCH  18  21
HETATM   21  N   UNL     1      -1.333   5.661 -30.134  1.00  0.00    -0.263 N 
HETATM   22  C   UNL     1      -0.063   5.501 -29.612  1.00  0.00     0.270 C 
HETATM   23  O   UNL     1       0.670   4.573 -29.941  1.00  0.00    -0.266 OA
HETATM   24  H   UNL     1      -2.036   6.212 -29.643  1.00  0.00     0.190 HD
BRANCH  22  25
HETATM   25  C   UNL     1       0.359   6.496 -28.588  1.00  0.00     0.033 A 
HETATM   26  C   UNL     1       0.121   6.210 -27.240  1.00  0.00     0.020 A 
HETATM   27  C   UNL     1       0.495   7.125 -26.252  1.00  0.00     0.038 A 
HETATM   28  C   UNL     1       1.116   8.329 -26.593  1.00  0.00     0.068 A 
HETATM   29  C   UNL     1       1.368   8.610 -27.936  1.00  0.00     0.038 A 
HETATM   30  C   UNL     1       0.995   7.697 -28.931  1.00  0.00     0.020 A 
BRANCH  28  31
HETATM   31  O   UNL     1       1.428   9.132 -25.533  1.00  0.00    -0.356 OA
HETATM   32  C   UNL     1       2.526   8.734 -24.720  1.00  0.00     0.210 C 
ENDBRANCH  28  31
ENDBRANCH  22  25
ENDBRANCH  18  21
ENDBRANCH   1  17
TORSDOF 8
ENDMDL
MODEL 2
REMARK VINA RESULT:      -8.7      3.046     10.191
REMARK  8 active torsions:
REMARK  status: ('A' for Active; 'I' for Inactive)
REMARK    1  A    between atoms: C_5  and  S_6 
REMARK    2  A    between atoms: S_6  and  C_7 
REMARK    3  A    between atoms: C_7  and  C_8 
REMARK       I    between atoms: C_8  and  N_9 
REMARK    4  A    between atoms: N_9  and  N_10 
REMARK       I    between atoms: N_10  and  C_11 
REMARK    5  A    between atoms: C_11  and  C_12 
REMARK    6  A    between atoms: C_15  and  O_16 
REMARK    7  A    between atoms: C_23  and  C_24 
REMARK    8  A    between atoms: C_24  and  C_25 
ROOT
HETATM    1  C   UNL     1      -5.238   4.434 -30.382  1.00  0.00     0.187 C 
ENDROOT
BRANCH   1   2
HETATM    2  S   UNL     1      -5.577   5.736 -31.595  1.00  0.00    -0.083 SA
BRANCH   2   3
HETATM    3  C   UNL     1      -4.016   5.971 -32.292  1.00  0.00     0.167 A 
HETATM    4  N   UNL     1      -3.643   5.348 -33.445  1.00  0.00    -0.337 N 
HETATM    5  C   UNL     1      -2.339   5.691 -33.704  1.00  0.00     0.032 A 
HETATM    6  H   UNL     1      -4.247   4.773 -34.020  1.00  0.00     0.168 HD
HETATM    7  C   UNL     1      -1.602   5.200 -34.886  1.00  0.00     0.070 C 
HETATM    8  C   UNL     1      -1.977   6.517 -32.649  1.00  0.00     0.063 A 
HETATM    9  N   UNL     1      -3.050   6.701 -31.795  1.00  0.00    -0.227 NA
BRANCH   8  10
HETATM   10  C   UNL     1      -0.676   7.196 -32.387  1.00  0.00     0.100 C 
BRANCH  10  11
HETATM   11  C   UNL     1      -0.174   6.659 -31.068  1.00  0.00    -0.052 A 
HETATM   12  C   UNL     1      -0.169   7.462 -29.918  1.00  0.00     0.007 A 
HETATM   13  C   UNL     1       0.296   6.958 -28.702  1.00  0.00     0.001 A 
HETATM   14  C   UNL     1       0.759   5.645 -28.621  1.00  0.00     0.000 A 
HETATM   15  C   UNL     1       0.762   4.837 -29.756  1.00  0.00     0.001 A 
HETATM   16  C   UNL     1       0.299   5.340 -30.972  1.00  0.00     0.007 A 
ENDBRANCH  10  11
ENDBRANCH   8  10
ENDBRANCH   2   3
ENDBRANCH   1   2
BRANCH   1  17
HETATM   17  C   UNL     1      -4.842   3.155 -31.092  1.00  0.00     0.245 C 
HETATM   18  N   UNL     1      -5.899   2.397 -31.559  1.00  0.00    -0.267 N 
HETATM   19  H   UNL     1      -6.823   2.468 -31.128  1.00  0.00     0.190 HD
HETATM   20  O   UNL     1      -3.670   2.798 -31.239  1.00  0.00    -0.271 OA
BRANCH  18  21
HETATM   21  N   UNL     1      -5.581   1.118 -32.058  1.00  0.00    -0.263 N 
HETATM   22  C   UNL     1      -5.989   0.823 -33.346  1.00  0.00     0.270 C 
HETATM   23  O   UNL     1      -6.457   1.672 -34.098  1.00  0.00    -0.266 OA
HETATM   24  H   UNL     1      -5.505   0.387 -31.352  1.00  0.00     0.190 HD
BRANCH  22  25
HETATM   25  C   UNL     1      -5.872  -0.602 -33.763  1.00  0.00     0.033 A 
HETATM   26  C   UNL     1      -4.660  -1.265 -33.548  1.00  0.00     0.020 A 
HETATM   27  C   UNL     1      -4.513  -2.600 -33.934  1.00  0.00     0.038 A 
HETATM   28  C   UNL     1      -5.570  -3.291 -34.531  1.00  0.00     0.068 A 
HETATM   29  C   UNL     1      -6.785  -2.636 -34.733  1.00  0.00     0.038 A 
HETATM   30  C   UNL     1      -6.940  -1.298 -34.348  1.00  0.00     0.020 A 
BRANCH  28  31
HETATM   31  O   UNL     1      -5.292  -4.587 -34.862  1.00  0.00    -0.356 OA
HETATM   32  C   UNL     1      -4.288  -5.248 -34.100  1.00  0.00     0.210 C 
ENDBRANCH  28  31
ENDBRANCH  22  25
ENDBRANCH  18  21
ENDBRANCH   1  17
TORSDOF 8
ENDMDL
MODEL 3
REMARK VINA RESULT:      -8.6      3.130      9.551
REMARK  8 active torsions:
REMARK  status: ('A' for Active; 'I' for Inactive)
REMARK    1  A    between atoms: C_5  and  S_6 
REMARK    2  A    between atoms: S_6  and  C_7 
REMARK    3  A    between atoms: C_7  and  C_8 
REMARK       I    between atoms: C_8  and  N_9 
REMARK    4  A    between atoms: N_9  and  N_10 
REMARK       I    between atoms: N_10  and  C_11 
REMARK    5  A    between atoms: C_11  and  C_12 
REMARK    6  A    between atoms: C_15  and  O_16 
REMARK    7  A    between atoms: C_23  and  C_24 
REMARK    8  A    between atoms: C_24  and  C_25 
ROOT
HETATM    1  C   UNL     1      -5.553   5.496 -30.127  1.00  0.00     0.187 C 
ENDROOT
BRANCH   1   2
HETATM    2  S   UNL     1      -5.788   6.478 -31.631  1.00  0.00    -0.083 SA
BRANCH   2   3
HETATM    3  C   UNL     1      -4.204   6.446 -32.314  1.00  0.00     0.167 A 
HETATM    4  N   UNL     1      -3.890   5.635 -33.362  1.00  0.00    -0.337 N 
HETATM    5  C   UNL     1      -2.554   5.797 -33.632  1.00  0.00     0.032 A 
HETATM    6  H   UNL     1      -4.548   5.056 -33.870  1.00  0.00     0.168 HD
HETATM    7  C   UNL     1      -1.863   5.071 -34.719  1.00  0.00     0.070 C 
HETATM    8  C   UNL     1      -2.113   6.714 -32.689  1.00  0.00     0.063 A 
HETATM    9  N   UNL     1      -3.168   7.128 -31.895  1.00  0.00    -0.227 NA
BRANCH   8  10
HETATM   10  C   UNL     1      -0.747   7.277 -32.488  1.00  0.00     0.100 C 
BRANCH  10  11
HETATM   11  C   UNL     1      -0.234   6.696 -31.193  1.00  0.00    -0.052 A 
HETATM   12  C   UNL     1       0.192   5.361 -31.120  1.00  0.00     0.007 A 
HETATM   13  C   UNL     1       0.665   4.832 -29.917  1.00  0.00     0.001 A 
HETATM   14  C   UNL     1       0.720   5.631 -28.775  1.00  0.00     0.000 A 
HETATM   15  C   UNL     1       0.297   6.957 -28.833  1.00  0.00     0.001 A 
HETATM   16  C   UNL     1      -0.178   7.487 -30.033  1.00  0.00     0.007 A 
ENDBRANCH  10  11
ENDBRANCH   8  10
ENDBRANCH   2   3
ENDBRANCH   1   2
BRANCH   1  17
HETATM   17  C   UNL     1      -5.708   4.022 -30.441  1.00  0.00     0.245 C 
HETATM   18  N   UNL     1      -4.536   3.291 -30.395  1.00  0.00    -0.267 N 
HETATM   19  H   UNL     1      -3.631   3.744 -30.540  1.00  0.00     0.190 HD
HETATM   20  O   UNL     1      -6.789   3.501 -30.729  1.00  0.00    -0.271 OA
BRANCH  18  21
HETATM   21  N   UNL     1      -4.607   1.962 -30.858  1.00  0.00    -0.263 N 
HETATM   22  C   UNL     1      -4.020   1.686 -32.079  1.00  0.00     0.270 C 
HETATM   23  O   UNL     1      -3.320   2.502 -32.671  1.00  0.00    -0.266 OA
HETATM   24  H   UNL     1      -5.418   1.437 -30.535  1.00  0.00     0.190 HD
BRANCH  22  25
HETATM   25  C   UNL     1      -4.320   0.351 -32.667  1.00  0.00     0.033 A 
HETATM   26  C   UNL     1      -5.432   0.225 -33.506  1.00  0.00     0.020 A 
HETATM   27  C   UNL     1      -5.748  -1.015 -34.068  1.00  0.00     0.038 A 
HETATM   28  C   UNL     1      -4.960  -2.139 -33.809  1.00  0.00     0.068 A 
HETATM   29  C   UNL     1      -3.841  -2.012 -32.984  1.00  0.00     0.038 A 
HETATM   30  C   UNL     1      -3.518  -0.771 -32.418  1.00  0.00     0.020 A 
BRANCH  28  31
HETATM   31  O   UNL     1      -5.381  -3.287 -34.419  1.00  0.00    -0.356 OA
HETATM   32  C   UNL     1      -6.763  -3.377 -34.744  1.00  0.00     0.210 C 
ENDBRANCH  28  31
ENDBRANCH  22  25
ENDBRANCH  18  21
ENDBRANCH   1  17
TORSDOF 8
ENDMDL
MODEL 4
REMARK VINA RESULT:      -8.5      1.203      2.063
REMARK  8 active torsions:
REMARK  status: ('A' for Active; 'I' for Inactive)
REMARK    1  A    between atoms: C_5  and  S_6 
REMARK    2  A    between atoms: S_6  and  C_7 
REMARK    3  A    between atoms: C_7  and  C_8 
REMARK       I    between atoms: C_8  and  N_9 
REMARK    4  A    between atoms: N_9  and  N_10 
REMARK       I    between atoms: N_10  and  C_11 
REMARK    5  A    between atoms: C_11  and  C_12 
REMARK    6  A    between atoms: C_15  and  O_16 
REMARK    7  A    between atoms: C_23  and  C_24 
REMARK    8  A    between atoms: C_24  and  C_25 
ROOT
HETATM    1  C   UNL     1      -3.068   3.974 -32.825  1.00  0.00     0.187 C 
ENDROOT
BRANCH   1   2
HETATM    2  S   UNL     1      -4.558   4.607 -33.637  1.00  0.00    -0.083 SA
BRANCH   2   3
HETATM    3  C   UNL     1      -5.651   3.289 -33.426  1.00  0.00     0.167 A 
HETATM    4  N   UNL     1      -6.889   3.284 -33.994  1.00  0.00    -0.337 N 
HETATM    5  C   UNL     1      -7.529   2.137 -33.595  1.00  0.00     0.032 A 
HETATM    6  H   UNL     1      -7.242   3.989 -34.631  1.00  0.00     0.168 HD
HETATM    7  C   UNL     1      -8.900   1.794 -34.027  1.00  0.00     0.070 C 
HETATM    8  C   UNL     1      -6.619   1.497 -32.766  1.00  0.00     0.063 A 
HETATM    9  N   UNL     1      -5.442   2.221 -32.698  1.00  0.00    -0.227 NA
BRANCH   8  10
HETATM   10  C   UNL     1      -6.757   0.204 -32.036  1.00  0.00     0.100 C 
BRANCH  10  11
HETATM   11  C   UNL     1      -6.257  -0.869 -32.973  1.00  0.00    -0.052 A 
HETATM   12  C   UNL     1      -7.122  -1.488 -33.887  1.00  0.00     0.007 A 
HETATM   13  C   UNL     1      -6.651  -2.479 -34.750  1.00  0.00     0.001 A 
HETATM   14  C   UNL     1      -5.310  -2.861 -34.711  1.00  0.00     0.000 A 
HETATM   15  C   UNL     1      -4.441  -2.257 -33.806  1.00  0.00     0.001 A 
HETATM   16  C   UNL     1      -4.910  -1.267 -32.942  1.00  0.00     0.007 A 
ENDBRANCH  10  11
ENDBRANCH   8  10
ENDBRANCH   2   3
ENDBRANCH   1   2
BRANCH   1  17
HETATM   17  C   UNL     1      -2.738   4.821 -31.613  1.00  0.00     0.245 C 
HETATM   18  N   UNL     1      -1.423   4.753 -31.195  1.00  0.00    -0.267 N 
HETATM   19  H   UNL     1      -0.848   3.935 -31.408  1.00  0.00     0.190 HD
HETATM   20  O   UNL     1      -3.573   5.515 -31.025  1.00  0.00    -0.271 OA
BRANCH  18  21
HETATM   21  N   UNL     1      -1.121   5.378 -29.968  1.00  0.00    -0.263 N 
HETATM   22  C   UNL     1      -0.284   6.478 -30.008  1.00  0.00     0.270 C 
HETATM   23  O   UNL     1       0.057   7.007 -31.062  1.00  0.00    -0.266 OA
HETATM   24  H   UNL     1      -1.139   4.762 -29.157  1.00  0.00     0.190 HD
BRANCH  22  25
HETATM   25  C   UNL     1       0.224   6.967 -28.697  1.00  0.00     0.033 A 
HETATM   26  C   UNL     1       1.088   8.067 -28.681  1.00  0.00     0.020 A 
HETATM   27  C   UNL     1       1.590   8.546 -27.469  1.00  0.00     0.038 A 
HETATM   28  C   UNL     1       1.234   7.943 -26.260  1.00  0.00     0.068 A 
HETATM   29  C   UNL     1       0.361   6.855 -26.271  1.00  0.00     0.038 A 
HETATM   30  C   UNL     1      -0.147   6.370 -27.484  1.00  0.00     0.020 A 
BRANCH  28  31
HETATM   31  O   UNL     1       1.797   8.509 -25.150  1.00  0.00    -0.356 OA
HETATM   32  C   UNL     1       1.169   9.674 -24.629  1.00  0.00     0.210 C 
ENDBRANCH  28  31
ENDBRANCH  22  25
ENDBRANCH  18  21
ENDBRANCH   1  17
TORSDOF 8
ENDMDL
MODEL 5
REMARK VINA RESULT:      -8.4      5.225      8.911
REMARK  8 active torsions:
REMARK  status: ('A' for Active; 'I' for Inactive)
REMARK    1  A    between atoms: C_5  and  S_6 
REMARK    2  A    between atoms: S_6  and  C_7 
REMARK    3  A    between atoms: C_7  and  C_8 
REMARK       I    between atoms: C_8  and  N_9 
REMARK    4  A    between atoms: N_9  and  N_10 
REMARK       I    between atoms: N_10  and  C_11 
REMARK    5  A    between atoms: C_11  and  C_12 
REMARK    6  A    between atoms: C_15  and  O_16 
REMARK    7  A    between atoms: C_23  and  C_24 
REMARK    8  A    between atoms: C_24  and  C_25 
ROOT
HETATM    1  C   UNL     1      -4.036   5.707 -33.199  1.00  0.00     0.187 C 
ENDROOT
BRANCH   1   2
HETATM    2  S   UNL     1      -4.125   5.372 -31.421  1.00  0.00    -0.083 SA
BRANCH   2   3
HETATM    3  C   UNL     1      -4.466   3.681 -31.406  1.00  0.00     0.167 A 
HETATM    4  N   UNL     1      -5.220   3.109 -30.426  1.00  0.00    -0.337 N 
HETATM    5  C   UNL     1      -5.259   1.757 -30.662  1.00  0.00     0.032 A 
HETATM    6  H   UNL     1      -5.697   3.613 -29.687  1.00  0.00     0.168 HD
HETATM    7  C   UNL     1      -5.998   0.815 -29.795  1.00  0.00     0.070 C 
HETATM    8  C   UNL     1      -4.486   1.577 -31.799  1.00  0.00     0.063 A 
HETATM    9  N   UNL     1      -4.025   2.796 -32.263  1.00  0.00    -0.227 NA
BRANCH   8  10
HETATM   10  C   UNL     1      -4.163   0.317 -32.529  1.00  0.00     0.100 C 
BRANCH  10  11
HETATM   11  C   UNL     1      -5.347   0.024 -33.417  1.00  0.00    -0.052 A 
HETATM   12  C   UNL     1      -5.792  -1.292 -33.615  1.00  0.00     0.007 A 
HETATM   13  C   UNL     1      -6.889  -1.554 -34.439  1.00  0.00     0.001 A 
HETATM   14  C   UNL     1      -7.555  -0.504 -35.071  1.00  0.00     0.000 A 
HETATM   15  C   UNL     1      -7.123   0.806 -34.885  1.00  0.00     0.001 A 
HETATM   16  C   UNL     1      -6.026   1.070 -34.064  1.00  0.00     0.007 A 
ENDBRANCH  10  11
ENDBRANCH   8  10
ENDBRANCH   2   3
ENDBRANCH   1   2
BRANCH   1  17
HETATM   17  C   UNL     1      -5.337   5.311 -33.867  1.00  0.00     0.245 C 
HETATM   18  N   UNL     1      -6.472   5.868 -33.308  1.00  0.00    -0.267 N 
HETATM   19  H   UNL     1      -6.479   6.169 -32.331  1.00  0.00     0.190 HD
HETATM   20  O   UNL     1      -5.397   4.541 -34.830  1.00  0.00    -0.271 OA
BRANCH  18  21
HETATM   21  N   UNL     1      -7.707   5.383 -33.781  1.00  0.00    -0.263 N 
HETATM   22  C   UNL     1      -8.280   4.331 -33.089  1.00  0.00     0.270 C 
HETATM   23  O   UNL     1      -7.838   3.933 -32.016  1.00  0.00    -0.266 OA
HETATM   24  H   UNL     1      -7.859   5.497 -34.782  1.00  0.00     0.190 HD
BRANCH  22  25
HETATM   25  C   UNL     1      -9.444   3.670 -33.742  1.00  0.00     0.033 A 
HETATM   26  C   UNL     1      -9.793   2.378 -33.337  1.00  0.00     0.020 A 
HETATM   27  C   UNL     1     -10.874   1.724 -33.934  1.00  0.00     0.038 A 
HETATM   28  C   UNL     1     -11.624   2.351 -34.933  1.00  0.00     0.068 A 
HETATM   29  C   UNL     1     -11.288   3.646 -35.327  1.00  0.00     0.038 A 
HETATM   30  C   UNL     1     -10.205   4.307 -34.732  1.00  0.00     0.020 A 
BRANCH  28  31
HETATM   31  O   UNL     1     -12.651   1.601 -35.433  1.00  0.00    -0.356 OA
HETATM   32  C   UNL     1     -13.752   1.352 -34.566  1.00  0.00     0.210 C 
ENDBRANCH  28  31
ENDBRANCH  22  25
ENDBRANCH  18  21
ENDBRANCH   1  17
TORSDOF 8
ENDMDL
MODEL 6
REMARK VINA RESULT:      -8.3      3.909      9.360
REMARK  8 active torsions:
REMARK  status: ('A' for Active; 'I' for Inactive)
REMARK    1  A    between atoms: C_5  and  S_6 
REMARK    2  A    between atoms: S_6  and  C_7 
REMARK    3  A    between atoms: C_7  and  C_8 
REMARK       I    between atoms: C_8  and  N_9 
REMARK    4  A    between atoms: N_9  and  N_10 
REMARK       I    between atoms: N_10  and  C_11 
REMARK    5  A    between atoms: C_11  and  C_12 
REMARK    6  A    between atoms: C_15  and  O_16 
REMARK    7  A    between atoms: C_23  and  C_24 
REMARK    8  A    between atoms: C_24  and  C_25 
ROOT
HETATM    1  C   UNL     1      -7.564   4.562 -28.921  1.00  0.00     0.187 C 
ENDROOT
BRANCH   1   2
HETATM    2  S   UNL     1      -7.007   5.941 -29.954  1.00  0.00    -0.083 SA
BRANCH   2   3
HETATM    3  C   UNL     1      -6.021   5.127 -31.112  1.00  0.00     0.167 A 
HETATM    4  N   UNL     1      -6.512   4.721 -32.317  1.00  0.00    -0.337 N 
HETATM    5  C   UNL     1      -5.507   4.061 -32.979  1.00  0.00     0.032 A 
HETATM    6  H   UNL     1      -7.443   4.920 -32.664  1.00  0.00     0.168 HD
HETATM    7  C   UNL     1      -5.682   3.484 -34.328  1.00  0.00     0.070 C 
HETATM    8  C   UNL     1      -4.432   4.089 -32.103  1.00  0.00     0.063 A 
HETATM    9  N   UNL     1      -4.767   4.785 -30.955  1.00  0.00    -0.227 NA
BRANCH   8  10
HETATM   10  C   UNL     1      -3.062   3.526 -32.274  1.00  0.00     0.100 C 
BRANCH  10  11
HETATM   11  C   UNL     1      -2.115   4.702 -32.263  1.00  0.00    -0.052 A 
HETATM   12  C   UNL     1      -1.216   4.895 -31.204  1.00  0.00     0.007 A 
HETATM   13  C   UNL     1      -0.344   5.985 -31.202  1.00  0.00     0.001 A 
HETATM   14  C   UNL     1      -0.358   6.893 -32.261  1.00  0.00     0.000 A 
HETATM   15  C   UNL     1      -1.246   6.715 -33.318  1.00  0.00     0.001 A 
HETATM   16  C   UNL     1      -2.120   5.627 -33.320  1.00  0.00     0.007 A 
ENDBRANCH  10  11
ENDBRANCH   8  10
ENDBRANCH   2   3
ENDBRANCH   1   2
BRANCH   1  17
HETATM   17  C   UNL     1      -7.770   3.326 -29.773  1.00  0.00     0.245 C 
HETATM   18  N   UNL     1      -6.830   2.330 -29.592  1.00  0.00    -0.267 N 
HETATM   19  H   UNL     1      -5.894   2.552 -29.246  1.00  0.00     0.190 HD
HETATM   20  O   UNL     1      -8.697   3.208 -30.581  1.00  0.00    -0.271 OA
BRANCH  18  21
HETATM   21  N   UNL     1      -6.880   1.248 -30.493  1.00  0.00    -0.263 N 
HETATM   22  C   UNL     1      -5.674   0.702 -30.893  1.00  0.00     0.270 C 
HETATM   23  O   UNL     1      -4.607   1.016 -30.374  1.00  0.00    -0.266 OA
HETATM   24  H   UNL     1      -7.690   1.240 -31.111  1.00  0.00     0.190 HD
BRANCH  22  25
HETATM   25  C   UNL     1      -5.732  -0.262 -32.026  1.00  0.00     0.033 A 
HETATM   26  C   UNL     1      -6.940  -0.416 -32.712  1.00  0.00     0.020 A 
HETATM   27  C   UNL     1      -7.033  -1.318 -33.776  1.00  0.00     0.038 A 
HETATM   28  C   UNL     1      -5.924  -2.069 -34.173  1.00  0.00     0.068 A 
HETATM   29  C   UNL     1      -4.713  -1.906 -33.501  1.00  0.00     0.038 A 
HETATM   30  C   UNL     1      -4.613  -1.003 -32.433  1.00  0.00     0.020 A 
BRANCH  28  31
HETATM   31  O   UNL     1      -6.151  -2.913 -35.224  1.00  0.00    -0.356 OA
HETATM   32  C   UNL     1      -6.658  -4.206 -34.917  1.00  0.00     0.210 C 
ENDBRANCH  28  31
ENDBRANCH  22  25
ENDBRANCH  18  21
ENDBRANCH   1  17
TORSDOF 8
ENDMDL
MODEL 7
REMARK VINA RESULT:      -8.2      5.058      9.589
REMARK  8 active torsions:
REMARK  status: ('A' for Active; 'I' for Inactive)
REMARK    1  A    between atoms: C_5  and  S_6 
REMARK    2  A    between atoms: S_6  and  C_7 
REMARK    3  A    between atoms: C_7  and  C_8 
REMARK       I    between atoms: C_8  and  N_9 
REMARK    4  A    between atoms: N_9  and  N_10 
REMARK       I    between atoms: N_10  and  C_11 
REMARK    5  A    between atoms: C_11  and  C_12 
REMARK    6  A    between atoms: C_15  and  O_16 
REMARK    7  A    between atoms: C_23  and  C_24 
REMARK    8  A    between atoms: C_24  and  C_25 
ROOT
HETATM    1  C   UNL     1      -9.659   4.144 -32.489  1.00  0.00     0.187 C 
ENDROOT
BRANCH   1   2
HETATM    2  S   UNL     1      -8.395   4.783 -31.360  1.00  0.00    -0.083 SA
BRANCH   2   3
HETATM    3  C   UNL     1      -6.945   4.378 -32.203  1.00  0.00     0.167 A 
HETATM    4  N   UNL     1      -6.039   3.498 -31.692  1.00  0.00    -0.337 N 
HETATM    5  C   UNL     1      -4.980   3.434 -32.563  1.00  0.00     0.032 A 
HETATM    6  H   UNL     1      -6.162   2.962 -30.841  1.00  0.00     0.168 HD
HETATM    7  C   UNL     1      -3.805   2.568 -32.330  1.00  0.00     0.070 C 
HETATM    8  C   UNL     1      -5.305   4.321 -33.578  1.00  0.00     0.063 A 
HETATM    9  N   UNL     1      -6.551   4.877 -33.347  1.00  0.00    -0.227 NA
BRANCH   8  10
HETATM   10  C   UNL     1      -4.533   4.675 -34.804  1.00  0.00     0.100 C 
BRANCH  10  11
HETATM   11  C   UNL     1      -3.334   5.465 -34.337  1.00  0.00    -0.052 A 
HETATM   12  C   UNL     1      -2.068   5.255 -34.903  1.00  0.00     0.007 A 
HETATM   13  C   UNL     1      -0.964   5.990 -34.466  1.00  0.00     0.001 A 
HETATM   14  C   UNL     1      -1.114   6.944 -33.460  1.00  0.00     0.000 A 
HETATM   15  C   UNL     1      -2.365   7.161 -32.888  1.00  0.00     0.001 A 
HETATM   16  C   UNL     1      -3.468   6.426 -33.322  1.00  0.00     0.007 A 
ENDBRANCH  10  11
ENDBRANCH   8  10
ENDBRANCH   2   3
ENDBRANCH   1   2
BRANCH   1  17
HETATM   17  C   UNL     1      -9.187   2.848 -33.116  1.00  0.00     0.245 C 
HETATM   18  N   UNL     1      -9.020   1.799 -32.232  1.00  0.00    -0.267 N 
HETATM   19  H   UNL     1      -8.835   1.976 -31.242  1.00  0.00     0.190 HD
HETATM   20  O   UNL     1      -8.954   2.726 -34.322  1.00  0.00    -0.271 OA
BRANCH  18  21
HETATM   21  N   UNL     1      -8.409   0.638 -32.744  1.00  0.00    -0.263 N 
HETATM   22  C   UNL     1      -7.210   0.249 -32.173  1.00  0.00     0.270 C 
HETATM   23  O   UNL     1      -6.765   0.777 -31.159  1.00  0.00    -0.266 OA
HETATM   24  H   UNL     1      -8.611   0.441 -33.723  1.00  0.00     0.190 HD
BRANCH  22  25
HETATM   25  C   UNL     1      -6.459  -0.821 -32.885  1.00  0.00     0.033 A 
HETATM   26  C   UNL     1      -5.108  -1.008 -32.576  1.00  0.00     0.020 A 
HETATM   27  C   UNL     1      -4.370  -1.998 -33.231  1.00  0.00     0.038 A 
HETATM   28  C   UNL     1      -4.967  -2.815 -34.193  1.00  0.00     0.068 A 
HETATM   29  C   UNL     1      -6.319  -2.640 -34.493  1.00  0.00     0.038 A 
HETATM   30  C   UNL     1      -7.065  -1.650 -33.839  1.00  0.00     0.020 A 
BRANCH  28  31
HETATM   31  O   UNL     1      -4.134  -3.739 -34.757  1.00  0.00    -0.356 OA
HETATM   32  C   UNL     1      -3.580  -4.724 -33.892  1.00  0.00     0.210 C 
ENDBRANCH  28  31
ENDBRANCH  22  25
ENDBRANCH  18  21
ENDBRANCH   1  17
TORSDOF 8
ENDMDL
MODEL 8
REMARK VINA RESULT:      -8.2      3.229      4.928
REMARK  8 active torsions:
REMARK  status: ('A' for Active; 'I' for Inactive)
REMARK    1  A    between atoms: C_5  and  S_6 
REMARK    2  A    between atoms: S_6  and  C_7 
REMARK    3  A    between atoms: C_7  and  C_8 
REMARK       I    between atoms: C_8  and  N_9 
REMARK    4  A    between atoms: N_9  and  N_10 
REMARK       I    between atoms: N_10  and  C_11 
REMARK    5  A    between atoms: C_11  and  C_12 
REMARK    6  A    between atoms: C_15  and  O_16 
REMARK    7  A    between atoms: C_23  and  C_24 
REMARK    8  A    between atoms: C_24  and  C_25 
ROOT
HETATM    1  C   UNL     1      -9.416   4.757 -33.206  1.00  0.00     0.187 C 
ENDROOT
BRANCH   1   2
HETATM    2  S   UNL     1      -9.902   3.445 -32.057  1.00  0.00    -0.083 SA
BRANCH   2   3
HETATM    3  C   UNL     1      -8.487   2.458 -32.042  1.00  0.00     0.167 A 
HETATM    4  N   UNL     1      -8.166   1.678 -30.972  1.00  0.00    -0.337 N 
HETATM    5  C   UNL     1      -6.967   1.068 -31.242  1.00  0.00     0.032 A 
HETATM    6  H   UNL     1      -8.744   1.548 -30.150  1.00  0.00     0.168 HD
HETATM    7  C   UNL     1      -6.312   0.138 -30.299  1.00  0.00     0.070 C 
HETATM    8  C   UNL     1      -6.606   1.541 -32.495  1.00  0.00     0.063 A 
HETATM    9  N   UNL     1      -7.585   2.386 -32.988  1.00  0.00    -0.227 NA
BRANCH   8  10
HETATM   10  C   UNL     1      -5.396   1.230 -33.308  1.00  0.00     0.100 C 
BRANCH  10  11
HETATM   11  C   UNL     1      -5.541  -0.205 -33.754  1.00  0.00    -0.052 A 
HETATM   12  C   UNL     1      -6.710  -0.648 -34.389  1.00  0.00     0.007 A 
HETATM   13  C   UNL     1      -6.836  -1.977 -34.799  1.00  0.00     0.001 A 
HETATM   14  C   UNL     1      -5.793  -2.878 -34.581  1.00  0.00     0.000 A 
HETATM   15  C   UNL     1      -4.627  -2.451 -33.950  1.00  0.00     0.001 A 
HETATM   16  C   UNL     1      -4.501  -1.124 -33.538  1.00  0.00     0.007 A 
ENDBRANCH  10  11
ENDBRANCH   8  10
ENDBRANCH   2   3
ENDBRANCH   1   2
BRANCH   1  17
HETATM   17  C   UNL     1      -8.114   5.386 -32.753  1.00  0.00     0.245 C 
HETATM   18  N   UNL     1      -7.111   5.397 -33.704  1.00  0.00    -0.267 N 
HETATM   19  H   UNL     1      -7.101   4.710 -34.461  1.00  0.00     0.190 HD
HETATM   20  O   UNL     1      -7.944   5.849 -31.622  1.00  0.00    -0.271 OA
BRANCH  18  21
HETATM   21  N   UNL     1      -5.835   5.804 -33.265  1.00  0.00    -0.263 N 
HETATM   22  C   UNL     1      -4.743   5.329 -33.969  1.00  0.00     0.270 C 
HETATM   23  O   UNL     1      -4.859   4.719 -35.027  1.00  0.00    -0.266 OA
HETATM   24  H   UNL     1      -5.768   6.009 -32.269  1.00  0.00     0.190 HD
BRANCH  22  25
HETATM   25  C   UNL     1      -3.409   5.558 -33.347  1.00  0.00     0.033 A 
HETATM   26  C   UNL     1      -3.059   4.808 -32.220  1.00  0.00     0.020 A 
HETATM   27  C   UNL     1      -1.819   5.003 -31.607  1.00  0.00     0.038 A 
HETATM   28  C   UNL     1      -0.912   5.939 -32.111  1.00  0.00     0.068 A 
HETATM   29  C   UNL     1      -1.253   6.678 -33.244  1.00  0.00     0.038 A 
HETATM   30  C   UNL     1      -2.495   6.487 -33.864  1.00  0.00     0.020 A 
BRANCH  28  31
HETATM   31  O   UNL     1       0.261   6.031 -31.416  1.00  0.00    -0.356 OA
HETATM   32  C   UNL     1       0.414   5.176 -30.289  1.00  0.00     0.210 C 
ENDBRANCH  28  31
ENDBRANCH  22  25
ENDBRANCH  18  21
ENDBRANCH   1  17
TORSDOF 8
ENDMDL
MODEL 9
REMARK VINA RESULT:      -8.1      5.897      9.519
REMARK  8 active torsions:
REMARK  status: ('A' for Active; 'I' for Inactive)
REMARK    1  A    between atoms: C_5  and  S_6 
REMARK    2  A    between atoms: S_6  and  C_7 
REMARK    3  A    between atoms: C_7  and  C_8 
REMARK       I    between atoms: C_8  and  N_9 
REMARK    4  A    between atoms: N_9  and  N_10 
REMARK       I    between atoms: N_10  and  C_11 
REMARK    5  A    between atoms: C_11  and  C_12 
REMARK    6  A    between atoms: C_15  and  O_16 
REMARK    7  A    between atoms: C_23  and  C_24 
REMARK    8  A    between atoms: C_24  and  C_25 
ROOT
HETATM    1  C   UNL     1      -6.805   4.639 -31.220  1.00  0.00     0.187 C 
ENDROOT
BRANCH   1   2
HETATM    2  S   UNL     1      -7.971   4.138 -29.928  1.00  0.00    -0.083 SA
BRANCH   2   3
HETATM    3  C   UNL     1      -9.460   4.115 -30.799  1.00  0.00     0.167 A 
HETATM    4  N   UNL     1     -10.665   4.180 -30.166  1.00  0.00    -0.337 N 
HETATM    5  C   UNL     1     -11.646   4.083 -31.120  1.00  0.00     0.032 A 
HETATM    6  H   UNL     1     -10.793   4.322 -29.171  1.00  0.00     0.168 HD
HETATM    7  C   UNL     1     -13.087   4.123 -30.793  1.00  0.00     0.070 C 
HETATM    8  C   UNL     1     -10.960   3.941 -32.317  1.00  0.00     0.063 A 
HETATM    9  N   UNL     1      -9.595   3.993 -32.096  1.00  0.00    -0.227 NA
BRANCH   8  10
HETATM   10  C   UNL     1     -11.498   3.789 -33.700  1.00  0.00     0.100 C 
BRANCH  10  11
HETATM   11  C   UNL     1     -12.214   2.461 -33.734  1.00  0.00    -0.052 A 
HETATM   12  C   UNL     1     -11.515   1.260 -33.543  1.00  0.00     0.007 A 
HETATM   13  C   UNL     1     -12.185   0.035 -33.576  1.00  0.00     0.001 A 
HETATM   14  C   UNL     1     -13.562  -0.003 -33.798  1.00  0.00     0.000 A 
HETATM   15  C   UNL     1     -14.267   1.182 -33.991  1.00  0.00     0.001 A 
HETATM   16  C   UNL     1     -13.599   2.406 -33.961  1.00  0.00     0.007 A 
ENDBRANCH  10  11
ENDBRANCH   8  10
ENDBRANCH   2   3
ENDBRANCH   1   2
BRANCH   1  17
HETATM   17  C   UNL     1      -6.100   3.421 -31.783  1.00  0.00     0.245 C 
HETATM   18  N   UNL     1      -6.489   3.062 -33.060  1.00  0.00    -0.267 N 
HETATM   19  H   UNL     1      -7.412   3.319 -33.417  1.00  0.00     0.190 HD
HETATM   20  O   UNL     1      -5.250   2.781 -31.157  1.00  0.00    -0.271 OA
BRANCH  18  21
HETATM   21  N   UNL     1      -5.994   1.834 -33.544  1.00  0.00    -0.263 N 
HETATM   22  C   UNL     1      -6.879   0.772 -33.596  1.00  0.00     0.270 C 
HETATM   23  O   UNL     1      -8.082   0.910 -33.394  1.00  0.00    -0.266 OA
HETATM   24  H   UNL     1      -4.999   1.680 -33.389  1.00  0.00     0.190 HD
BRANCH  22  25
HETATM   25  C   UNL     1      -6.285  -0.566 -33.865  1.00  0.00     0.033 A 
HETATM   26  C   UNL     1      -4.946  -0.784 -33.528  1.00  0.00     0.020 A 
HETATM   27  C   UNL     1      -4.354  -2.026 -33.775  1.00  0.00     0.038 A 
HETATM   28  C   UNL     1      -5.089  -3.065 -34.352  1.00  0.00     0.068 A 
HETATM   29  C   UNL     1      -6.429  -2.855 -34.675  1.00  0.00     0.038 A 
HETATM   30  C   UNL     1      -7.029  -1.612 -34.430  1.00  0.00     0.020 A 
BRANCH  28  31
HETATM   31  O   UNL     1      -4.390  -4.224 -34.540  1.00  0.00    -0.356 OA
HETATM   32  C   UNL     1      -3.477  -4.602 -33.517  1.00  0.00     0.210 C 
ENDBRANCH  28  31
ENDBRANCH  22  25
ENDBRANCH  18  21
ENDBRANCH   1  17
TORSDOF 8
ENDMDL
MODEL 10
REMARK VINA RESULT:      -8.1      4.751      9.511
REMARK  8 active torsions:
REMARK  status: ('A' for Active; 'I' for Inactive)
REMARK    1  A    between atoms: C_5  and  S_6 
REMARK    2  A    between atoms: S_6  and  C_7 
REMARK    3  A    between atoms: C_7  and  C_8 
REMARK       I    between atoms: C_8  and  N_9 
REMARK    4  A    between atoms: N_9  and  N_10 
REMARK       I    between atoms: N_10  and  C_11 
REMARK    5  A    between atoms: C_11  and  C_12 
REMARK    6  A    between atoms: C_15  and  O_16 
REMARK    7  A    between atoms: C_23  and  C_24 
REMARK    8  A    between atoms: C_24  and  C_25 
ROOT
HETATM    1  C   UNL     1      -9.641   4.261 -30.370  1.00  0.00     0.187 C 
ENDROOT
BRANCH   1   2
HETATM    2  S   UNL     1      -9.080   5.677 -31.349  1.00  0.00    -0.083 SA
BRANCH   2   3
HETATM    3  C   UNL     1      -7.369   5.576 -31.151  1.00  0.00     0.167 A 
HETATM    4  N   UNL     1      -6.630   6.641 -30.732  1.00  0.00    -0.337 N 
HETATM    5  C   UNL     1      -5.311   6.261 -30.731  1.00  0.00     0.032 A 
HETATM    6  H   UNL     1      -7.008   7.532 -30.434  1.00  0.00     0.168 HD
HETATM    7  C   UNL     1      -4.217   7.169 -30.324  1.00  0.00     0.070 C 
HETATM    8  C   UNL     1      -5.322   4.950 -31.183  1.00  0.00     0.063 A 
HETATM    9  N   UNL     1      -6.622   4.533 -31.411  1.00  0.00    -0.227 NA
BRANCH   8  10
HETATM   10  C   UNL     1      -4.179   4.015 -31.392  1.00  0.00     0.100 C 
BRANCH  10  11
HETATM   11  C   UNL     1      -3.414   4.539 -32.583  1.00  0.00    -0.052 A 
HETATM   12  C   UNL     1      -4.057   4.772 -33.808  1.00  0.00     0.007 A 
HETATM   13  C   UNL     1      -3.342   5.257 -34.905  1.00  0.00     0.001 A 
HETATM   14  C   UNL     1      -1.976   5.517 -34.789  1.00  0.00     0.000 A 
HETATM   15  C   UNL     1      -1.325   5.288 -33.580  1.00  0.00     0.001 A 
HETATM   16  C   UNL     1      -2.038   4.801 -32.483  1.00  0.00     0.007 A 
ENDBRANCH  10  11
ENDBRANCH   8  10
ENDBRANCH   2   3
ENDBRANCH   1   2
BRANCH   1  17
HETATM   17  C   UNL     1      -9.424   2.977 -31.145  1.00  0.00     0.245 C 
HETATM   18  N   UNL     1      -8.509   2.106 -30.585  1.00  0.00    -0.267 N 
HETATM   19  H   UNL     1      -7.772   2.451 -29.965  1.00  0.00     0.190 HD
HETATM   20  O   UNL     1     -10.005   2.718 -32.203  1.00  0.00    -0.271 OA
BRANCH  18  21
HETATM   21  N   UNL     1      -8.144   0.991 -31.365  1.00  0.00    -0.263 N 
HETATM   22  C   UNL     1      -6.805   0.644 -31.386  1.00  0.00     0.270 C 
HETATM   23  O   UNL     1      -5.981   1.162 -30.638  1.00  0.00    -0.266 OA
HETATM   24  H   UNL     1      -8.744   0.815 -32.170  1.00  0.00     0.190 HD
BRANCH  22  25
HETATM   25  C   UNL     1      -6.403  -0.366 -32.403  1.00  0.00     0.033 A 
HETATM   26  C   UNL     1      -7.368  -0.830 -33.302  1.00  0.00     0.020 A 
HETATM   27  C   UNL     1      -7.027  -1.785 -34.265  1.00  0.00     0.038 A 
HETATM   28  C   UNL     1      -5.724  -2.281 -34.348  1.00  0.00     0.068 A 
HETATM   29  C   UNL     1      -4.756  -1.808 -33.461  1.00  0.00     0.038 A 
HETATM   30  C   UNL     1      -5.091  -0.851 -32.494  1.00  0.00     0.020 A 
BRANCH  28  31
HETATM   31  O   UNL     1      -5.526  -3.210 -35.330  1.00  0.00    -0.356 OA
HETATM   32  C   UNL     1      -5.725  -4.574 -34.980  1.00  0.00     0.210 C 
ENDBRANCH  28  31
ENDBRANCH  22  25
ENDBRANCH  18  21
ENDBRANCH   1  17
TORSDOF 8
ENDMDL
