MODEL 1
REMARK VINA RESULT:      -9.7      0.000      0.000
REMARK  2 active torsions:
REMARK  status: ('A' for Active; 'I' for Inactive)
REMARK    1  A    between atoms: N_4  and  C_5 
REMARK    2  A    between atoms: C_15  and  C_16 
REMARK       I    between atoms: C_16  and  N_17 
ROOT
HETATM    1  C   UNL     1      -7.167   3.841 -29.347  1.00  0.00     0.073 C 
HETATM    2  C   UNL     1      -5.908   4.052 -30.102  1.00  0.00     0.069 C 
HETATM    3  N   UNL     1      -5.424   5.289 -30.285  1.00  0.00    -0.170 NA
HETATM    4  N   UNL     1      -4.240   5.115 -30.951  1.00  0.00    -0.216 N 
HETATM    5  C   UNL     1      -4.128   3.802 -31.374  1.00  0.00     0.145 C 
HETATM    6  C   UNL     1      -5.121   3.084 -30.754  1.00  0.00     0.087 C 
HETATM    7  N   UNL     1      -3.261   3.241 -32.251  1.00  0.00    -0.349 N 
HETATM    8  C   UNL     1      -3.416   1.897 -32.540  1.00  0.00     0.111 C 
HETATM    9  C   UNL     1      -4.328   1.082 -31.960  1.00  0.00     0.099 C 
HETATM   10  C   UNL     1      -5.223   1.644 -30.896  1.00  0.00     0.205 C 
HETATM   11  O   UNL     1      -5.965   0.961 -30.201  1.00  0.00    -0.286 OA
HETATM   12  H   UNL     1      -2.648   3.777 -32.865  1.00  0.00     0.167 HD
ENDROOT
BRANCH   9  13
HETATM   13  C   UNL     1      -4.278  -0.341 -32.378  1.00  0.00     0.264 C 
HETATM   14  N   UNL     1      -5.334  -0.875 -33.098  1.00  0.00    -0.309 N 
HETATM   15  C   UNL     1      -6.629  -0.244 -33.488  1.00  0.00     0.093 C 
HETATM   16  C   UNL     1      -5.315  -2.171 -33.682  1.00  0.00     0.044 A 
HETATM   17  C   UNL     1      -6.443   0.797 -34.595  1.00  0.00     0.033 C 
HETATM   18  C   UNL     1      -7.549  -1.391 -33.961  1.00  0.00     0.066 C 
HETATM   19  C   UNL     1      -6.561  -2.477 -34.232  1.00  0.00    -0.029 A 
HETATM   20  C   UNL     1      -6.799  -3.685 -34.872  1.00  0.00     0.009 A 
HETATM   21  C   UNL     1      -5.749  -4.595 -34.979  1.00  0.00     0.001 A 
HETATM   22  C   UNL     1      -4.493  -4.292 -34.438  1.00  0.00     0.002 A 
HETATM   23  C   UNL     1      -4.272  -3.078 -33.779  1.00  0.00     0.030 A 
HETATM   24  O   UNL     1      -3.239  -0.956 -32.117  1.00  0.00    -0.267 OA
ENDBRANCH   9  13
BRANCH   4  25
HETATM   25  C   UNL     1      -3.323   6.197 -31.076  1.00  0.00     0.060 A 
HETATM   26  C   UNL     1      -2.674   6.738 -29.959  1.00  0.00     0.031 A 
HETATM   27  C   UNL     1      -1.810   7.827 -30.108  1.00  0.00     0.002 A 
HETATM   28  C   UNL     1      -1.593   8.383 -31.367  1.00  0.00     0.000 A 
HETATM   29  C   UNL     1      -2.247   7.861 -32.480  1.00  0.00     0.002 A 
HETATM   30  C   UNL     1      -3.117   6.778 -32.337  1.00  0.00     0.031 A 
ENDBRANCH   4  25
TORSDOF 2
ENDMDL
MODEL 2
REMARK VINA RESULT:      -9.6      1.920      8.512
REMARK  2 active torsions:
REMARK  status: ('A' for Active; 'I' for Inactive)
REMARK    1  A    between atoms: N_4  and  C_5 
REMARK    2  A    between atoms: C_15  and  C_16 
REMARK       I    between atoms: C_16  and  N_17 
ROOT
HETATM    1  C   UNL     1      -9.369   1.781 -34.221  1.00  0.00     0.073 C 
HETATM    2  C   UNL     1      -8.100   1.074 -33.921  1.00  0.00     0.069 C 
HETATM    3  N   UNL     1      -8.009  -0.256 -34.074  1.00  0.00    -0.170 NA
HETATM    4  N   UNL     1      -6.708  -0.562 -33.780  1.00  0.00    -0.216 N 
HETATM    5  C   UNL     1      -6.080   0.539 -33.225  1.00  0.00     0.145 C 
HETATM    6  C   UNL     1      -6.909   1.620 -33.405  1.00  0.00     0.087 C 
HETATM    7  N   UNL     1      -4.892   0.631 -32.580  1.00  0.00    -0.349 N 
HETATM    8  C   UNL     1      -4.531   1.865 -32.067  1.00  0.00     0.111 C 
HETATM    9  C   UNL     1      -5.246   3.004 -32.220  1.00  0.00     0.099 C 
HETATM   10  C   UNL     1      -6.505   2.962 -33.033  1.00  0.00     0.205 C 
HETATM   11  O   UNL     1      -7.135   3.959 -33.364  1.00  0.00    -0.286 OA
HETATM   12  H   UNL     1      -4.354  -0.175 -32.265  1.00  0.00     0.167 HD
ENDROOT
BRANCH   9  13
HETATM   13  C   UNL     1      -4.640   4.227 -31.635  1.00  0.00     0.264 C 
HETATM   14  N   UNL     1      -3.746   4.969 -32.390  1.00  0.00    -0.309 N 
HETATM   15  C   UNL     1      -3.196   4.692 -33.749  1.00  0.00     0.093 C 
HETATM   16  C   UNL     1      -3.237   6.234 -31.989  1.00  0.00     0.044 A 
HETATM   17  C   UNL     1      -4.246   4.909 -34.842  1.00  0.00     0.033 C 
HETATM   18  C   UNL     1      -1.999   5.649 -33.939  1.00  0.00     0.066 C 
HETATM   19  C   UNL     1      -2.265   6.676 -32.889  1.00  0.00    -0.029 A 
HETATM   20  C   UNL     1      -1.619   7.893 -32.725  1.00  0.00     0.009 A 
HETATM   21  C   UNL     1      -1.978   8.692 -31.642  1.00  0.00     0.001 A 
HETATM   22  C   UNL     1      -2.959   8.260 -30.738  1.00  0.00     0.002 A 
HETATM   23  C   UNL     1      -3.589   7.022 -30.905  1.00  0.00     0.030 A 
HETATM   24  O   UNL     1      -5.039   4.557 -30.514  1.00  0.00    -0.267 OA
ENDBRANCH   9  13
BRANCH   4  25
HETATM   25  C   UNL     1      -6.186  -1.848 -34.096  1.00  0.00     0.060 A 
HETATM   26  C   UNL     1      -4.809  -2.104 -34.071  1.00  0.00     0.031 A 
HETATM   27  C   UNL     1      -4.323  -3.366 -34.425  1.00  0.00     0.002 A 
HETATM   28  C   UNL     1      -5.204  -4.375 -34.810  1.00  0.00     0.000 A 
HETATM   29  C   UNL     1      -6.573  -4.124 -34.852  1.00  0.00     0.002 A 
HETATM   30  C   UNL     1      -7.065  -2.863 -34.506  1.00  0.00     0.031 A 
ENDBRANCH   4  25
TORSDOF 2
ENDMDL
MODEL 3
REMARK VINA RESULT:      -9.3      2.838      4.740
REMARK  2 active torsions:
REMARK  status: ('A' for Active; 'I' for Inactive)
REMARK    1  A    between atoms: N_4  and  C_5 
REMARK    2  A    between atoms: C_15  and  C_16 
REMARK       I    between atoms: C_16  and  N_17 
ROOT
HETATM    1  C   UNL     1      -1.296   5.217 -34.955  1.00  0.00     0.073 C 
HETATM    2  C   UNL     1      -1.634   5.336 -33.516  1.00  0.00     0.069 C 
HETATM    3  N   UNL     1      -0.680   5.613 -32.614  1.00  0.00    -0.170 NA
HETATM    4  N   UNL     1      -1.337   5.715 -31.418  1.00  0.00    -0.216 N 
HETATM    5  C   UNL     1      -2.640   5.271 -31.558  1.00  0.00     0.145 C 
HETATM    6  C   UNL     1      -2.884   5.128 -32.903  1.00  0.00     0.087 C 
HETATM    7  N   UNL     1      -3.566   4.974 -30.614  1.00  0.00    -0.349 N 
HETATM    8  C   UNL     1      -4.788   4.485 -31.041  1.00  0.00     0.111 C 
HETATM    9  C   UNL     1      -5.154   4.344 -32.337  1.00  0.00     0.099 C 
HETATM   10  C   UNL     1      -4.197   4.778 -33.407  1.00  0.00     0.205 C 
HETATM   11  O   UNL     1      -4.489   4.842 -34.595  1.00  0.00    -0.286 OA
HETATM   12  H   UNL     1      -3.354   4.885 -29.621  1.00  0.00     0.167 HD
ENDROOT
BRANCH   9  13
HETATM   13  C   UNL     1      -6.536   3.855 -32.566  1.00  0.00     0.264 C 
HETATM   14  N   UNL     1      -6.749   2.508 -32.812  1.00  0.00    -0.309 N 
HETATM   15  C   UNL     1      -5.754   1.407 -32.970  1.00  0.00     0.093 C 
HETATM   16  C   UNL     1      -8.037   1.914 -32.884  1.00  0.00     0.044 A 
HETATM   17  C   UNL     1      -5.111   1.027 -31.634  1.00  0.00     0.033 C 
HETATM   18  C   UNL     1      -6.522   0.209 -33.571  1.00  0.00     0.066 C 
HETATM   19  C   UNL     1      -7.937   0.576 -33.269  1.00  0.00    -0.029 A 
HETATM   20  C   UNL     1      -9.057  -0.231 -33.403  1.00  0.00     0.009 A 
HETATM   21  C   UNL     1     -10.306   0.319 -33.119  1.00  0.00     0.001 A 
HETATM   22  C   UNL     1     -10.416   1.659 -32.724  1.00  0.00     0.002 A 
HETATM   23  C   UNL     1      -9.279   2.466 -32.611  1.00  0.00     0.030 A 
HETATM   24  O   UNL     1      -7.441   4.686 -32.444  1.00  0.00    -0.267 OA
ENDBRANCH   9  13
BRANCH   4  25
HETATM   25  C   UNL     1      -0.677   6.263 -30.283  1.00  0.00     0.060 A 
HETATM   26  C   UNL     1       0.185   5.489 -29.494  1.00  0.00     0.031 A 
HETATM   27  C   UNL     1       0.788   6.043 -28.360  1.00  0.00     0.002 A 
HETATM   28  C   UNL     1       0.532   7.366 -28.006  1.00  0.00     0.000 A 
HETATM   29  C   UNL     1      -0.336   8.137 -28.776  1.00  0.00     0.002 A 
HETATM   30  C   UNL     1      -0.946   7.588 -29.905  1.00  0.00     0.031 A 
ENDBRANCH   4  25
TORSDOF 2
ENDMDL
MODEL 4
REMARK VINA RESULT:      -9.2      2.496      3.942
REMARK  2 active torsions:
REMARK  status: ('A' for Active; 'I' for Inactive)
REMARK    1  A    between atoms: N_4  and  C_5 
REMARK    2  A    between atoms: C_15  and  C_16 
REMARK       I    between atoms: C_16  and  N_17 
ROOT
HETATM    1  C   UNL     1      -5.974   8.259 -29.507  1.00  0.00     0.073 C 
HETATM    2  C   UNL     1      -4.685   7.535 -29.622  1.00  0.00     0.069 C 
HETATM    3  N   UNL     1      -3.573   8.031 -29.058  1.00  0.00    -0.170 NA
HETATM    4  N   UNL     1      -2.603   7.096 -29.296  1.00  0.00    -0.216 N 
HETATM    5  C   UNL     1      -3.068   6.156 -30.199  1.00  0.00     0.145 C 
HETATM    6  C   UNL     1      -4.421   6.351 -30.336  1.00  0.00     0.087 C 
HETATM    7  N   UNL     1      -2.395   5.205 -30.891  1.00  0.00    -0.349 N 
HETATM    8  C   UNL     1      -3.112   4.430 -31.785  1.00  0.00     0.111 C 
HETATM    9  C   UNL     1      -4.451   4.504 -31.972  1.00  0.00     0.099 C 
HETATM   10  C   UNL     1      -5.243   5.461 -31.133  1.00  0.00     0.205 C 
HETATM   11  O   UNL     1      -6.468   5.492 -31.110  1.00  0.00    -0.286 OA
HETATM   12  H   UNL     1      -1.378   5.164 -30.957  1.00  0.00     0.167 HD
ENDROOT
BRANCH   9  13
HETATM   13  C   UNL     1      -5.020   3.534 -32.941  1.00  0.00     0.264 C 
HETATM   14  N   UNL     1      -5.235   2.224 -32.544  1.00  0.00    -0.309 N 
HETATM   15  C   UNL     1      -4.903   1.561 -31.249  1.00  0.00     0.093 C 
HETATM   16  C   UNL     1      -5.920   1.263 -33.336  1.00  0.00     0.044 A 
HETATM   17  C   UNL     1      -5.831   2.020 -30.121  1.00  0.00     0.033 C 
HETATM   18  C   UNL     1      -5.040   0.041 -31.490  1.00  0.00     0.066 C 
HETATM   19  C   UNL     1      -5.869   0.006 -32.731  1.00  0.00    -0.029 A 
HETATM   20  C   UNL     1      -6.473  -1.104 -33.302  1.00  0.00     0.009 A 
HETATM   21  C   UNL     1      -7.165  -0.937 -34.501  1.00  0.00     0.001 A 
HETATM   22  C   UNL     1      -7.229   0.323 -35.111  1.00  0.00     0.002 A 
HETATM   23  C   UNL     1      -6.598   1.430 -34.533  1.00  0.00     0.030 A 
HETATM   24  O   UNL     1      -5.346   3.984 -34.044  1.00  0.00    -0.267 OA
ENDBRANCH   9  13
BRANCH   4  25
HETATM   25  C   UNL     1      -1.358   7.165 -28.611  1.00  0.00     0.060 A 
HETATM   26  C   UNL     1      -1.223   6.713 -27.292  1.00  0.00     0.031 A 
HETATM   27  C   UNL     1       0.004   6.833 -26.630  1.00  0.00     0.002 A 
HETATM   28  C   UNL     1       1.097   7.406 -27.277  1.00  0.00     0.000 A 
HETATM   29  C   UNL     1       0.966   7.872 -28.583  1.00  0.00     0.002 A 
HETATM   30  C   UNL     1      -0.258   7.762 -29.247  1.00  0.00     0.031 A 
ENDBRANCH   4  25
TORSDOF 2
ENDMDL
MODEL 5
REMARK VINA RESULT:      -9.1      4.884      7.556
REMARK  2 active torsions:
REMARK  status: ('A' for Active; 'I' for Inactive)
REMARK    1  A    between atoms: N_4  and  C_5 
REMARK    2  A    between atoms: C_15  and  C_16 
REMARK       I    between atoms: C_16  and  N_17 
ROOT
HETATM    1  C   UNL     1      -9.692   5.673 -34.852  1.00  0.00     0.073 C 
HETATM    2  C   UNL     1     -10.311   4.510 -34.171  1.00  0.00     0.069 C 
HETATM    3  N   UNL     1     -11.646   4.408 -34.075  1.00  0.00    -0.170 NA
HETATM    4  N   UNL     1     -11.870   3.206 -33.461  1.00  0.00    -0.216 N 
HETATM    5  C   UNL     1     -10.678   2.696 -32.977  1.00  0.00     0.145 C 
HETATM    6  C   UNL     1      -9.661   3.451 -33.510  1.00  0.00     0.087 C 
HETATM    7  N   UNL     1     -10.453   1.674 -32.116  1.00  0.00    -0.349 N 
HETATM    8  C   UNL     1      -9.143   1.415 -31.752  1.00  0.00     0.111 C 
HETATM    9  C   UNL     1      -8.061   2.062 -32.244  1.00  0.00     0.099 C 
HETATM   10  C   UNL     1      -8.267   3.117 -33.290  1.00  0.00     0.205 C 
HETATM   11  O   UNL     1      -7.353   3.646 -33.912  1.00  0.00    -0.286 OA
HETATM   12  H   UNL     1     -11.183   1.229 -31.562  1.00  0.00     0.167 HD
ENDROOT
BRANCH   9  13
HETATM   13  C   UNL     1      -6.745   1.580 -31.757  1.00  0.00     0.264 C 
HETATM   14  N   UNL     1      -6.181   0.452 -32.330  1.00  0.00    -0.309 N 
HETATM   15  C   UNL     1      -6.739  -0.461 -33.370  1.00  0.00     0.093 C 
HETATM   16  C   UNL     1      -4.862   0.002 -32.052  1.00  0.00     0.044 A 
HETATM   17  C   UNL     1      -6.753   0.194 -34.754  1.00  0.00     0.033 C 
HETATM   18  C   UNL     1      -5.846  -1.722 -33.368  1.00  0.00     0.066 C 
HETATM   19  C   UNL     1      -4.621  -1.223 -32.677  1.00  0.00    -0.029 A 
HETATM   20  C   UNL     1      -3.400  -1.870 -32.568  1.00  0.00     0.009 A 
HETATM   21  C   UNL     1      -2.389  -1.257 -31.829  1.00  0.00     0.001 A 
HETATM   22  C   UNL     1      -2.619  -0.023 -31.205  1.00  0.00     0.002 A 
HETATM   23  C   UNL     1      -3.862   0.610 -31.308  1.00  0.00     0.030 A 
HETATM   24  O   UNL     1      -6.186   2.273 -30.902  1.00  0.00    -0.267 OA
ENDBRANCH   9  13
BRANCH   4  25
HETATM   25  C   UNL     1     -13.178   2.647 -33.437  1.00  0.00     0.060 A 
HETATM   26  C   UNL     1     -14.123   3.040 -32.479  1.00  0.00     0.031 A 
HETATM   27  C   UNL     1     -15.388   2.443 -32.453  1.00  0.00     0.002 A 
HETATM   28  C   UNL     1     -15.714   1.453 -33.377  1.00  0.00     0.000 A 
HETATM   29  C   UNL     1     -14.776   1.046 -34.322  1.00  0.00     0.002 A 
HETATM   30  C   UNL     1     -13.509   1.632 -34.348  1.00  0.00     0.031 A 
ENDBRANCH   4  25
TORSDOF 2
ENDMDL
MODEL 6
REMARK VINA RESULT:      -9.1      1.791      2.833
REMARK  2 active torsions:
REMARK  status: ('A' for Active; 'I' for Inactive)
REMARK    1  A    between atoms: N_4  and  C_5 
REMARK    2  A    between atoms: C_15  and  C_16 
REMARK       I    between atoms: C_16  and  N_17 
ROOT
HETATM    1  C   UNL     1      -6.721   6.282 -29.248  1.00  0.00     0.073 C 
HETATM    2  C   UNL     1      -5.377   6.018 -29.817  1.00  0.00     0.069 C 
HETATM    3  N   UNL     1      -4.357   6.852 -29.568  1.00  0.00    -0.170 NA
HETATM    4  N   UNL     1      -3.272   6.284 -30.178  1.00  0.00    -0.216 N 
HETATM    5  C   UNL     1      -3.682   5.240 -30.989  1.00  0.00     0.145 C 
HETATM    6  C   UNL     1      -4.998   4.982 -30.691  1.00  0.00     0.087 C 
HETATM    7  N   UNL     1      -3.003   4.558 -31.942  1.00  0.00    -0.349 N 
HETATM    8  C   UNL     1      -3.688   3.587 -32.651  1.00  0.00     0.111 C 
HETATM    9  C   UNL     1      -4.969   3.219 -32.418  1.00  0.00     0.099 C 
HETATM   10  C   UNL     1      -5.711   3.869 -31.288  1.00  0.00     0.205 C 
HETATM   11  O   UNL     1      -6.810   3.498 -30.894  1.00  0.00    -0.286 OA
HETATM   12  H   UNL     1      -2.100   4.851 -32.314  1.00  0.00     0.167 HD
ENDROOT
BRANCH   9  13
HETATM   13  C   UNL     1      -5.485   2.112 -33.261  1.00  0.00     0.264 C 
HETATM   14  N   UNL     1      -4.967   0.837 -33.101  1.00  0.00    -0.309 N 
HETATM   15  C   UNL     1      -3.856   0.371 -32.220  1.00  0.00     0.093 C 
HETATM   16  C   UNL     1      -5.499  -0.316 -33.739  1.00  0.00     0.044 A 
HETATM   17  C   UNL     1      -4.269   0.352 -30.746  1.00  0.00     0.033 C 
HETATM   18  C   UNL     1      -3.481  -1.047 -32.704  1.00  0.00     0.066 C 
HETATM   19  C   UNL     1      -4.693  -1.428 -33.488  1.00  0.00    -0.029 A 
HETATM   20  C   UNL     1      -5.002  -2.683 -33.993  1.00  0.00     0.009 A 
HETATM   21  C   UNL     1      -6.164  -2.823 -34.750  1.00  0.00     0.001 A 
HETATM   22  C   UNL     1      -6.983  -1.714 -35.000  1.00  0.00     0.002 A 
HETATM   23  C   UNL     1      -6.649  -0.450 -34.500  1.00  0.00     0.030 A 
HETATM   24  O   UNL     1      -6.421   2.387 -34.019  1.00  0.00    -0.267 OA
ENDBRANCH   9  13
BRANCH   4  25
HETATM   25  C   UNL     1      -1.960   6.760 -29.897  1.00  0.00     0.060 A 
HETATM   26  C   UNL     1      -0.900   6.549 -30.788  1.00  0.00     0.031 A 
HETATM   27  C   UNL     1       0.387   6.992 -30.465  1.00  0.00     0.002 A 
HETATM   28  C   UNL     1       0.623   7.642 -29.256  1.00  0.00     0.000 A 
HETATM   29  C   UNL     1      -0.423   7.841 -28.358  1.00  0.00     0.002 A 
HETATM   30  C   UNL     1      -1.709   7.394 -28.670  1.00  0.00     0.031 A 
ENDBRANCH   4  25
TORSDOF 2
ENDMDL
MODEL 7
REMARK VINA RESULT:      -9.0      4.364      8.499
REMARK  2 active torsions:
REMARK  status: ('A' for Active; 'I' for Inactive)
REMARK    1  A    between atoms: N_4  and  C_5 
REMARK    2  A    between atoms: C_15  and  C_16 
REMARK       I    between atoms: C_16  and  N_17 
ROOT
HETATM    1  C   UNL     1      -5.992   0.795 -29.906  1.00  0.00     0.073 C 
HETATM    2  C   UNL     1      -6.164   0.336 -31.306  1.00  0.00     0.069 C 
HETATM    3  N   UNL     1      -5.568  -0.789 -31.731  1.00  0.00    -0.170 NA
HETATM    4  N   UNL     1      -5.985  -0.948 -33.025  1.00  0.00    -0.216 N 
HETATM    5  C   UNL     1      -6.636   0.196 -33.453  1.00  0.00     0.145 C 
HETATM    6  C   UNL     1      -6.858   0.980 -32.347  1.00  0.00     0.087 C 
HETATM    7  N   UNL     1      -7.001   0.575 -34.701  1.00  0.00    -0.349 N 
HETATM    8  C   UNL     1      -7.594   1.816 -34.850  1.00  0.00     0.111 C 
HETATM    9  C   UNL     1      -7.900   2.654 -33.831  1.00  0.00     0.099 C 
HETATM   10  C   UNL     1      -7.620   2.211 -32.426  1.00  0.00     0.205 C 
HETATM   11  O   UNL     1      -8.002   2.819 -31.433  1.00  0.00    -0.286 OA
HETATM   12  H   UNL     1      -6.681   0.112 -35.551  1.00  0.00     0.167 HD
ENDROOT
BRANCH   9  13
HETATM   13  C   UNL     1      -8.588   3.911 -34.216  1.00  0.00     0.264 C 
HETATM   14  N   UNL     1      -9.939   3.880 -34.523  1.00  0.00    -0.309 N 
HETATM   15  C   UNL     1     -10.863   2.711 -34.609  1.00  0.00     0.093 C 
HETATM   16  C   UNL     1     -10.724   5.043 -34.745  1.00  0.00     0.044 A 
HETATM   17  C   UNL     1     -11.198   2.148 -33.225  1.00  0.00     0.033 C 
HETATM   18  C   UNL     1     -12.138   3.214 -35.322  1.00  0.00     0.066 C 
HETATM   19  C   UNL     1     -12.011   4.692 -35.157  1.00  0.00    -0.029 A 
HETATM   20  C   UNL     1     -12.976   5.650 -35.430  1.00  0.00     0.009 A 
HETATM   21  C   UNL     1     -12.642   6.993 -35.261  1.00  0.00     0.001 A 
HETATM   22  C   UNL     1     -11.356   7.354 -34.840  1.00  0.00     0.002 A 
HETATM   23  C   UNL     1     -10.386   6.378 -34.586  1.00  0.00     0.030 A 
HETATM   24  O   UNL     1      -7.916   4.945 -34.165  1.00  0.00    -0.267 OA
ENDBRANCH   9  13
BRANCH   4  25
HETATM   25  C   UNL     1      -5.761  -2.179 -33.703  1.00  0.00     0.060 A 
HETATM   26  C   UNL     1      -6.798  -2.844 -34.371  1.00  0.00     0.031 A 
HETATM   27  C   UNL     1      -6.557  -4.073 -34.994  1.00  0.00     0.002 A 
HETATM   28  C   UNL     1      -5.288  -4.645 -34.950  1.00  0.00     0.000 A 
HETATM   29  C   UNL     1      -4.256  -3.998 -34.274  1.00  0.00     0.002 A 
HETATM   30  C   UNL     1      -4.491  -2.774 -33.644  1.00  0.00     0.031 A 
ENDBRANCH   4  25
TORSDOF 2
ENDMDL
MODEL 8
REMARK VINA RESULT:      -9.0      1.783      8.525
REMARK  2 active torsions:
REMARK  status: ('A' for Active; 'I' for Inactive)
REMARK    1  A    between atoms: N_4  and  C_5 
REMARK    2  A    between atoms: C_15  and  C_16 
REMARK       I    between atoms: C_16  and  N_17 
ROOT
HETATM    1  C   UNL     1      -8.807   1.589 -34.358  1.00  0.00     0.073 C 
HETATM    2  C   UNL     1      -7.573   0.817 -34.076  1.00  0.00     0.069 C 
HETATM    3  N   UNL     1      -7.588  -0.525 -34.108  1.00  0.00    -0.170 NA
HETATM    4  N   UNL     1      -6.294  -0.903 -33.873  1.00  0.00    -0.216 N 
HETATM    5  C   UNL     1      -5.551   0.192 -33.467  1.00  0.00     0.145 C 
HETATM    6  C   UNL     1      -6.312   1.312 -33.694  1.00  0.00     0.087 C 
HETATM    7  N   UNL     1      -4.316   0.249 -32.914  1.00  0.00    -0.349 N 
HETATM    8  C   UNL     1      -3.833   1.492 -32.544  1.00  0.00     0.111 C 
HETATM    9  C   UNL     1      -4.474   2.665 -32.757  1.00  0.00     0.099 C 
HETATM   10  C   UNL     1      -5.789   2.647 -33.477  1.00  0.00     0.205 C 
HETATM   11  O   UNL     1      -6.369   3.656 -33.859  1.00  0.00    -0.286 OA
HETATM   12  H   UNL     1      -3.815  -0.565 -32.560  1.00  0.00     0.167 HD
ENDROOT
BRANCH   9  13
HETATM   13  C   UNL     1      -3.743   3.885 -32.331  1.00  0.00     0.264 C 
HETATM   14  N   UNL     1      -4.294   4.703 -31.359  1.00  0.00    -0.309 N 
HETATM   15  C   UNL     1      -5.616   4.600 -30.674  1.00  0.00     0.093 C 
HETATM   16  C   UNL     1      -3.608   5.798 -30.768  1.00  0.00     0.044 A 
HETATM   17  C   UNL     1      -5.649   3.443 -29.672  1.00  0.00     0.033 C 
HETATM   18  C   UNL     1      -5.844   5.951 -29.961  1.00  0.00     0.066 C 
HETATM   19  C   UNL     1      -4.459   6.507 -29.919  1.00  0.00    -0.029 A 
HETATM   20  C   UNL     1      -4.025   7.619 -29.212  1.00  0.00     0.009 A 
HETATM   21  C   UNL     1      -2.694   8.011 -29.348  1.00  0.00     0.001 A 
HETATM   22  C   UNL     1      -1.830   7.300 -30.192  1.00  0.00     0.002 A 
HETATM   23  C   UNL     1      -2.287   6.192 -30.913  1.00  0.00     0.030 A 
HETATM   24  O   UNL     1      -2.626   4.058 -32.828  1.00  0.00    -0.267 OA
ENDBRANCH   9  13
BRANCH   4  25
HETATM   25  C   UNL     1      -5.889  -2.248 -34.099  1.00  0.00     0.060 A 
HETATM   26  C   UNL     1      -4.578  -2.670 -33.842  1.00  0.00     0.031 A 
HETATM   27  C   UNL     1      -4.197  -3.988 -34.113  1.00  0.00     0.002 A 
HETATM   28  C   UNL     1      -5.118  -4.889 -34.644  1.00  0.00     0.000 A 
HETATM   29  C   UNL     1      -6.420  -4.473 -34.917  1.00  0.00     0.002 A 
HETATM   30  C   UNL     1      -6.803  -3.157 -34.656  1.00  0.00     0.031 A 
ENDBRANCH   4  25
TORSDOF 2
ENDMDL
MODEL 9
REMARK VINA RESULT:      -9.0      3.848      5.976
REMARK  2 active torsions:
REMARK  status: ('A' for Active; 'I' for Inactive)
REMARK    1  A    between atoms: N_4  and  C_5 
REMARK    2  A    between atoms: C_15  and  C_16 
REMARK       I    between atoms: C_16  and  N_17 
ROOT
HETATM    1  C   UNL     1      -7.300   5.667 -32.950  1.00  0.00     0.073 C 
HETATM    2  C   UNL     1      -8.338   4.681 -32.561  1.00  0.00     0.069 C 
HETATM    3  N   UNL     1      -9.574   5.088 -32.232  1.00  0.00    -0.170 NA
HETATM    4  N   UNL     1     -10.278   3.939 -31.997  1.00  0.00    -0.216 N 
HETATM    5  C   UNL     1      -9.414   2.859 -31.951  1.00  0.00     0.145 C 
HETATM    6  C   UNL     1      -8.194   3.288 -32.414  1.00  0.00     0.087 C 
HETATM    7  N   UNL     1      -9.625   1.591 -31.522  1.00  0.00    -0.349 N 
HETATM    8  C   UNL     1      -8.551   0.720 -31.533  1.00  0.00     0.111 C 
HETATM    9  C   UNL     1      -7.318   1.018 -32.005  1.00  0.00     0.099 C 
HETATM   10  C   UNL     1      -7.083   2.375 -32.600  1.00  0.00     0.205 C 
HETATM   11  O   UNL     1      -6.060   2.689 -33.195  1.00  0.00    -0.286 OA
HETATM   12  H   UNL     1     -10.451   1.300 -31.000  1.00  0.00     0.167 HD
ENDROOT
BRANCH   9  13
HETATM   13  C   UNL     1      -6.330  -0.089 -31.973  1.00  0.00     0.264 C 
HETATM   14  N   UNL     1      -6.316  -1.016 -33.003  1.00  0.00    -0.309 N 
HETATM   15  C   UNL     1      -7.230  -1.141 -34.176  1.00  0.00     0.093 C 
HETATM   16  C   UNL     1      -5.315  -2.014 -33.152  1.00  0.00     0.044 A 
HETATM   17  C   UNL     1      -6.983  -0.039 -35.209  1.00  0.00     0.033 C 
HETATM   18  C   UNL     1      -6.968  -2.535 -34.787  1.00  0.00     0.066 C 
HETATM   19  C   UNL     1      -5.637  -2.874 -34.203  1.00  0.00    -0.029 A 
HETATM   20  C   UNL     1      -4.811  -3.931 -34.560  1.00  0.00     0.009 A 
HETATM   21  C   UNL     1      -3.623  -4.110 -33.853  1.00  0.00     0.001 A 
HETATM   22  C   UNL     1      -3.289  -3.246 -32.802  1.00  0.00     0.002 A 
HETATM   23  C   UNL     1      -4.140  -2.195 -32.441  1.00  0.00     0.030 A 
HETATM   24  O   UNL     1      -5.513  -0.072 -31.048  1.00  0.00    -0.267 OA
ENDBRANCH   9  13
BRANCH   4  25
HETATM   25  C   UNL     1     -11.696   3.978 -31.884  1.00  0.00     0.060 A 
HETATM   26  C   UNL     1     -12.324   4.485 -30.738  1.00  0.00     0.031 A 
HETATM   27  C   UNL     1     -13.719   4.473 -30.638  1.00  0.00     0.002 A 
HETATM   28  C   UNL     1     -14.492   3.954 -31.674  1.00  0.00     0.000 A 
HETATM   29  C   UNL     1     -13.875   3.435 -32.810  1.00  0.00     0.002 A 
HETATM   30  C   UNL     1     -12.483   3.437 -32.913  1.00  0.00     0.031 A 
ENDBRANCH   4  25
TORSDOF 2
ENDMDL
MODEL 10
REMARK VINA RESULT:      -9.0      4.880      7.738
REMARK  2 active torsions:
REMARK  status: ('A' for Active; 'I' for Inactive)
REMARK    1  A    between atoms: N_4  and  C_5 
REMARK    2  A    between atoms: C_15  and  C_16 
REMARK       I    between atoms: C_16  and  N_17 
ROOT
HETATM    1  C   UNL     1      -9.516   5.113 -34.351  1.00  0.00     0.073 C 
HETATM    2  C   UNL     1     -10.262   3.909 -33.912  1.00  0.00     0.069 C 
HETATM    3  N   UNL     1     -11.551   4.000 -33.551  1.00  0.00    -0.170 NA
HETATM    4  N   UNL     1     -11.937   2.717 -33.274  1.00  0.00    -0.216 N 
HETATM    5  C   UNL     1     -10.828   1.889 -33.239  1.00  0.00     0.145 C 
HETATM    6  C   UNL     1      -9.768   2.600 -33.749  1.00  0.00     0.087 C 
HETATM    7  N   UNL     1     -10.702   0.620 -32.783  1.00  0.00    -0.349 N 
HETATM    8  C   UNL     1      -9.443   0.046 -32.815  1.00  0.00     0.111 C 
HETATM    9  C   UNL     1      -8.339   0.633 -33.331  1.00  0.00     0.099 C 
HETATM   10  C   UNL     1      -8.469   1.990 -33.955  1.00  0.00     0.205 C 
HETATM   11  O   UNL     1      -7.574   2.537 -34.588  1.00  0.00    -0.286 OA
HETATM   12  H   UNL     1     -11.413   0.143 -32.230  1.00  0.00     0.167 HD
ENDROOT
BRANCH   9  13
HETATM   13  C   UNL     1      -7.104  -0.190 -33.314  1.00  0.00     0.264 C 
HETATM   14  N   UNL     1      -6.015   0.233 -32.569  1.00  0.00    -0.309 N 
HETATM   15  C   UNL     1      -5.834   1.492 -31.789  1.00  0.00     0.093 C 
HETATM   16  C   UNL     1      -4.852  -0.555 -32.356  1.00  0.00     0.044 A 
HETATM   17  C   UNL     1      -6.670   1.492 -30.506  1.00  0.00     0.033 C 
HETATM   18  C   UNL     1      -4.328   1.591 -31.464  1.00  0.00     0.066 C 
HETATM   19  C   UNL     1      -3.880   0.183 -31.677  1.00  0.00    -0.029 A 
HETATM   20  C   UNL     1      -2.651  -0.365 -31.339  1.00  0.00     0.009 A 
HETATM   21  C   UNL     1      -2.406  -1.695 -31.674  1.00  0.00     0.001 A 
HETATM   22  C   UNL     1      -3.379  -2.446 -32.347  1.00  0.00     0.002 A 
HETATM   23  C   UNL     1      -4.607  -1.875 -32.699  1.00  0.00     0.030 A 
HETATM   24  O   UNL     1      -7.151  -1.266 -33.918  1.00  0.00    -0.267 OA
ENDBRANCH   9  13
BRANCH   4  25
HETATM   25  C   UNL     1     -13.316   2.402 -33.116  1.00  0.00     0.060 A 
HETATM   26  C   UNL     1     -13.953   1.469 -33.945  1.00  0.00     0.031 A 
HETATM   27  C   UNL     1     -15.319   1.211 -33.792  1.00  0.00     0.002 A 
HETATM   28  C   UNL     1     -16.055   1.882 -32.818  1.00  0.00     0.000 A 
HETATM   29  C   UNL     1     -15.432   2.822 -32.000  1.00  0.00     0.002 A 
HETATM   30  C   UNL     1     -14.070   3.090 -32.152  1.00  0.00     0.031 A 
ENDBRANCH   4  25
TORSDOF 2
ENDMDL
