MODEL 1
REMARK VINA RESULT:      -9.6      0.000      0.000
REMARK  3 active torsions:
REMARK  status: ('A' for Active; 'I' for Inactive)
REMARK    1  A    between atoms: C_2  and  C_3 
REMARK    2  A    between atoms: C_9  and  N_10 
REMARK    3  A    between atoms: C_12  and  C_13 
ROOT
HETATM    1  C   UNL     1      -9.419   1.454 -34.099  1.00  0.00    -0.006 A 
HETATM    2  C   UNL     1      -8.769   2.723 -33.938  1.00  0.00     0.063 A 
HETATM    3  C   UNL     1      -7.371   2.729 -33.899  1.00  0.00     0.165 A 
HETATM    4  N   UNL     1      -6.657   3.837 -33.780  1.00  0.00    -0.222 NA
HETATM    5  C   UNL     1      -7.314   4.989 -33.689  1.00  0.00     0.237 A 
HETATM    6  N   UNL     1      -8.636   5.132 -33.688  1.00  0.00    -0.229 NA
HETATM    7  C   UNL     1      -9.346   4.004 -33.801  1.00  0.00     0.117 A 
HETATM    8  N   UNL     1      -6.654   1.611 -33.973  1.00  0.00    -0.228 NA
HETATM    9  C   UNL     1      -7.254   0.407 -34.089  1.00  0.00     0.070 A 
HETATM   10  C   UNL     1      -8.630   0.299 -34.170  1.00  0.00     0.046 A 
ENDROOT
BRANCH   9  11
HETATM   11  C   UNL     1      -6.348  -0.759 -34.117  1.00  0.00    -0.004 A 
HETATM   12  C   UNL     1      -6.785  -2.027 -34.550  1.00  0.00     0.053 A 
HETATM   13  C   UNL     1      -5.893  -3.082 -34.535  1.00  0.00     0.106 A 
HETATM   14  C   UNL     1      -4.596  -2.932 -34.111  1.00  0.00     0.105 A 
HETATM   15  O   UNL     1      -6.173  -4.358 -34.910  1.00  0.00    -0.323 OA
HETATM   16  O   UNL     1      -3.893  -4.094 -34.170  1.00  0.00    -0.323 OA
HETATM   17  C   UNL     1      -4.116  -1.719 -33.677  1.00  0.00     0.040 A 
HETATM   18  C   UNL     1      -4.904  -4.998 -34.659  1.00  0.00     0.352 A 
HETATM   19  C   UNL     1      -5.002  -0.633 -33.678  1.00  0.00     0.017 A 
ENDBRANCH   9  11
BRANCH   1  20
HETATM   20  C   UNL     1     -10.877   1.280 -34.206  1.00  0.00    -0.025 A 
HETATM   21  C   UNL     1     -11.611   1.935 -35.208  1.00  0.00     0.014 A 
HETATM   22  C   UNL     1     -12.992   1.751 -35.321  1.00  0.00     0.024 A 
HETATM   23  C   UNL     1     -13.650   0.899 -34.439  1.00  0.00     0.034 A 
HETATM   24  C   UNL     1     -12.941   0.230 -33.445  1.00  0.00     0.024 A 
HETATM   25 CL   UNL     1     -15.350   0.670 -34.578  1.00  0.00    -0.084 Cl
HETATM   26  C   UNL     1     -11.561   0.419 -33.331  1.00  0.00     0.014 A 
ENDBRANCH   1  20
BRANCH   7  27
HETATM   27  N   UNL     1     -10.722   4.230 -33.801  1.00  0.00    -0.286 NA
HETATM   28  H   UNL     1     -10.936   4.839 -33.015  1.00  0.00     0.125 HD
HETATM   29  H   UNL     1     -11.258   3.371 -33.769  1.00  0.00     0.125 HD
ENDBRANCH   7  27
TORSDOF 3
ENDMDL
MODEL 2
REMARK VINA RESULT:      -9.6      4.544      6.852
REMARK  3 active torsions:
REMARK  status: ('A' for Active; 'I' for Inactive)
REMARK    1  A    between atoms: C_2  and  C_3 
REMARK    2  A    between atoms: C_9  and  N_10 
REMARK    3  A    between atoms: C_12  and  C_13 
ROOT
HETATM    1  C   UNL     1      -3.995   3.065 -32.774  1.00  0.00    -0.006 A 
HETATM    2  C   UNL     1      -5.349   3.401 -33.109  1.00  0.00     0.063 A 
HETATM    3  C   UNL     1      -6.238   2.344 -33.327  1.00  0.00     0.165 A 
HETATM    4  N   UNL     1      -7.517   2.525 -33.616  1.00  0.00    -0.222 NA
HETATM    5  C   UNL     1      -7.960   3.774 -33.708  1.00  0.00     0.237 A 
HETATM    6  N   UNL     1      -7.225   4.872 -33.551  1.00  0.00    -0.229 NA
HETATM    7  C   UNL     1      -5.933   4.676 -33.266  1.00  0.00     0.117 A 
HETATM    8  N   UNL     1      -5.858   1.071 -33.262  1.00  0.00    -0.228 NA
HETATM    9  C   UNL     1      -4.579   0.741 -32.982  1.00  0.00     0.070 A 
HETATM   10  C   UNL     1      -3.632   1.713 -32.719  1.00  0.00     0.046 A 
ENDROOT
BRANCH   9  11
HETATM   11  C   UNL     1      -4.276  -0.704 -32.984  1.00  0.00    -0.004 A 
HETATM   12  C   UNL     1      -4.846  -1.580 -33.929  1.00  0.00     0.053 A 
HETATM   13  C   UNL     1      -4.537  -2.925 -33.864  1.00  0.00     0.106 A 
HETATM   14  C   UNL     1      -3.692  -3.433 -32.909  1.00  0.00     0.105 A 
HETATM   15  O   UNL     1      -5.017  -3.887 -34.697  1.00  0.00    -0.323 OA
HETATM   16  O   UNL     1      -3.530  -4.778 -33.020  1.00  0.00    -0.323 OA
HETATM   17  C   UNL     1      -3.110  -2.625 -31.961  1.00  0.00     0.040 A 
HETATM   18  C   UNL     1      -4.387  -5.062 -34.144  1.00  0.00     0.352 A 
HETATM   19  C   UNL     1      -3.410  -1.257 -32.002  1.00  0.00     0.017 A 
ENDBRANCH   9  11
BRANCH   1  20
HETATM   20  C   UNL     1      -2.949   4.055 -32.470  1.00  0.00    -0.025 A 
HETATM   21  C   UNL     1      -2.766   4.534 -31.162  1.00  0.00     0.014 A 
HETATM   22  C   UNL     1      -1.758   5.459 -30.871  1.00  0.00     0.024 A 
HETATM   23  C   UNL     1      -0.915   5.903 -31.885  1.00  0.00     0.034 A 
HETATM   24  C   UNL     1      -1.070   5.432 -33.187  1.00  0.00     0.024 A 
HETATM   25 CL   UNL     1       0.327   7.039 -31.529  1.00  0.00    -0.084 Cl
HETATM   26  C   UNL     1      -2.081   4.513 -33.477  1.00  0.00     0.014 A 
ENDBRANCH   1  20
BRANCH   7  27
HETATM   27  N   UNL     1      -5.229   5.869 -33.108  1.00  0.00    -0.286 NA
HETATM   28  H   UNL     1      -4.244   5.669 -33.263  1.00  0.00     0.125 HD
HETATM   29  H   UNL     1      -5.388   6.298 -32.203  1.00  0.00     0.125 HD
ENDBRANCH   7  27
TORSDOF 3
ENDMDL
MODEL 3
REMARK VINA RESULT:      -9.5      3.186      5.307
REMARK  3 active torsions:
REMARK  status: ('A' for Active; 'I' for Inactive)
REMARK    1  A    between atoms: C_2  and  C_3 
REMARK    2  A    between atoms: C_9  and  N_10 
REMARK    3  A    between atoms: C_12  and  C_13 
ROOT
HETATM    1  C   UNL     1      -6.694   2.289 -33.722  1.00  0.00    -0.006 A 
HETATM    2  C   UNL     1      -8.111   2.406 -33.912  1.00  0.00     0.063 A 
HETATM    3  C   UNL     1      -8.832   1.225 -34.118  1.00  0.00     0.165 A 
HETATM    4  N   UNL     1     -10.145   1.201 -34.280  1.00  0.00    -0.222 NA
HETATM    5  C   UNL     1     -10.794   2.361 -34.250  1.00  0.00     0.237 A 
HETATM    6  N   UNL     1     -10.238   3.558 -34.088  1.00  0.00    -0.229 NA
HETATM    7  C   UNL     1      -8.910   3.570 -33.933  1.00  0.00     0.117 A 
HETATM    8  N   UNL     1      -8.243   0.034 -34.172  1.00  0.00    -0.228 NA
HETATM    9  C   UNL     1      -6.906  -0.087 -34.029  1.00  0.00     0.070 A 
HETATM   10  C   UNL     1      -6.110   1.017 -33.788  1.00  0.00     0.046 A 
ENDROOT
BRANCH   9  11
HETATM   11  C   UNL     1      -6.371  -1.458 -34.153  1.00  0.00    -0.004 A 
HETATM   12  C   UNL     1      -5.096  -1.803 -33.662  1.00  0.00     0.053 A 
HETATM   13  C   UNL     1      -4.646  -3.099 -33.826  1.00  0.00     0.106 A 
HETATM   14  C   UNL     1      -5.402  -4.059 -34.450  1.00  0.00     0.105 A 
HETATM   15  O   UNL     1      -3.438  -3.574 -33.417  1.00  0.00    -0.323 OA
HETATM   16  O   UNL     1      -4.770  -5.261 -34.511  1.00  0.00    -0.323 OA
HETATM   17  C   UNL     1      -6.652  -3.778 -34.949  1.00  0.00     0.040 A 
HETATM   18  C   UNL     1      -3.518  -4.942 -33.871  1.00  0.00     0.352 A 
HETATM   19  C   UNL     1      -7.131  -2.470 -34.800  1.00  0.00     0.017 A 
ENDBRANCH   9  11
BRANCH   1  20
HETATM   20  C   UNL     1      -5.799   3.425 -33.448  1.00  0.00    -0.025 A 
HETATM   21  C   UNL     1      -5.437   3.759 -32.133  1.00  0.00     0.014 A 
HETATM   22  C   UNL     1      -4.572   4.826 -31.876  1.00  0.00     0.024 A 
HETATM   23  C   UNL     1      -4.048   5.562 -32.935  1.00  0.00     0.034 A 
HETATM   24  C   UNL     1      -4.384   5.241 -34.248  1.00  0.00     0.024 A 
HETATM   25 CL   UNL     1      -2.981   6.874 -32.621  1.00  0.00    -0.084 Cl
HETATM   26  C   UNL     1      -5.254   4.178 -34.502  1.00  0.00     0.014 A 
ENDBRANCH   1  20
BRANCH   7  27
HETATM   27  N   UNL     1      -8.398   4.855 -33.759  1.00  0.00    -0.286 NA
HETATM   28  H   UNL     1      -8.212   4.983 -32.768  1.00  0.00     0.125 HD
HETATM   29  H   UNL     1      -9.015   5.572 -34.123  1.00  0.00     0.125 HD
ENDBRANCH   7  27
TORSDOF 3
ENDMDL
MODEL 4
REMARK VINA RESULT:      -9.4      3.865      7.110
REMARK  3 active torsions:
REMARK  status: ('A' for Active; 'I' for Inactive)
REMARK    1  A    between atoms: C_2  and  C_3 
REMARK    2  A    between atoms: C_9  and  N_10 
REMARK    3  A    between atoms: C_12  and  C_13 
ROOT
HETATM    1  C   UNL     1      -6.505   1.648 -33.225  1.00  0.00    -0.006 A 
HETATM    2  C   UNL     1      -6.072   3.012 -33.328  1.00  0.00     0.063 A 
HETATM    3  C   UNL     1      -7.042   3.974 -33.623  1.00  0.00     0.165 A 
HETATM    4  N   UNL     1      -6.771   5.266 -33.720  1.00  0.00    -0.222 NA
HETATM    5  C   UNL     1      -5.513   5.650 -33.532  1.00  0.00     0.237 A 
HETATM    6  N   UNL     1      -4.486   4.846 -33.270  1.00  0.00    -0.229 NA
HETATM    7  C   UNL     1      -4.771   3.542 -33.183  1.00  0.00     0.117 A 
HETATM    8  N   UNL     1      -8.316   3.656 -33.834  1.00  0.00    -0.228 NA
HETATM    9  C   UNL     1      -8.731   2.374 -33.774  1.00  0.00     0.070 A 
HETATM   10  C   UNL     1      -7.855   1.353 -33.456  1.00  0.00     0.046 A 
ENDROOT
BRANCH   9  11
HETATM   11  C   UNL     1     -10.161   2.149 -34.071  1.00  0.00    -0.004 A 
HETATM   12  C   UNL     1     -10.867   1.055 -33.531  1.00  0.00     0.053 A 
HETATM   13  C   UNL     1     -12.198   0.890 -33.864  1.00  0.00     0.106 A 
HETATM   14  C   UNL     1     -12.852   1.758 -34.702  1.00  0.00     0.105 A 
HETATM   15  O   UNL     1     -13.001  -0.118 -33.431  1.00  0.00    -0.323 OA
HETATM   16  O   UNL     1     -14.150   1.410 -34.902  1.00  0.00    -0.323 OA
HETATM   17  C   UNL     1     -12.212   2.840 -35.259  1.00  0.00     0.040 A 
HETATM   18  C   UNL     1     -14.233   0.208 -34.108  1.00  0.00     0.352 A 
HETATM   19  C   UNL     1     -10.860   3.028 -34.942  1.00  0.00     0.017 A 
ENDBRANCH   9  11
BRANCH   1  20
HETATM   20  C   UNL     1      -5.622   0.524 -32.875  1.00  0.00    -0.025 A 
HETATM   21  C   UNL     1      -5.182   0.334 -31.555  1.00  0.00     0.014 A 
HETATM   22  C   UNL     1      -4.359  -0.747 -31.222  1.00  0.00     0.024 A 
HETATM   23  C   UNL     1      -3.980  -1.655 -32.205  1.00  0.00     0.034 A 
HETATM   24  C   UNL     1      -4.414  -1.493 -33.519  1.00  0.00     0.024 A 
HETATM   25 CL   UNL     1      -2.970  -2.987 -31.797  1.00  0.00    -0.084 Cl
HETATM   26  C   UNL     1      -5.231  -0.409 -33.851  1.00  0.00     0.014 A 
ENDBRANCH   1  20
BRANCH   7  27
HETATM   27  N   UNL     1      -3.651   2.763 -32.898  1.00  0.00    -0.286 NA
HETATM   28  H   UNL     1      -3.980   1.861 -32.561  1.00  0.00     0.125 HD
HETATM   29  H   UNL     1      -3.025   3.207 -32.237  1.00  0.00     0.125 HD
ENDBRANCH   7  27
TORSDOF 3
ENDMDL
MODEL 5
REMARK VINA RESULT:      -9.4      4.508      6.286
REMARK  3 active torsions:
REMARK  status: ('A' for Active; 'I' for Inactive)
REMARK    1  A    between atoms: C_2  and  C_3 
REMARK    2  A    between atoms: C_9  and  N_10 
REMARK    3  A    between atoms: C_12  and  C_13 
ROOT
HETATM    1  C   UNL     1      -5.202   2.860 -32.522  1.00  0.00    -0.006 A 
HETATM    2  C   UNL     1      -6.421   3.115 -31.812  1.00  0.00     0.063 A 
HETATM    3  C   UNL     1      -7.299   2.041 -31.633  1.00  0.00     0.165 A 
HETATM    4  N   UNL     1      -8.442   2.146 -30.974  1.00  0.00    -0.222 NA
HETATM    5  C   UNL     1      -8.760   3.334 -30.470  1.00  0.00     0.237 A 
HETATM    6  N   UNL     1      -8.036   4.444 -30.582  1.00  0.00    -0.229 NA
HETATM    7  C   UNL     1      -6.887   4.328 -31.257  1.00  0.00     0.117 A 
HETATM    8  N   UNL     1      -7.048   0.831 -32.122  1.00  0.00    -0.228 NA
HETATM    9  C   UNL     1      -5.921   0.584 -32.823  1.00  0.00     0.070 A 
HETATM   10  C   UNL     1      -4.975   1.572 -33.024  1.00  0.00     0.046 A 
ENDROOT
BRANCH   9  11
HETATM   11  C   UNL     1      -5.782  -0.789 -33.349  1.00  0.00    -0.004 A 
HETATM   12  C   UNL     1      -4.662  -1.589 -33.046  1.00  0.00     0.053 A 
HETATM   13  C   UNL     1      -4.582  -2.858 -33.586  1.00  0.00     0.106 A 
HETATM   14  C   UNL     1      -5.560  -3.363 -34.406  1.00  0.00     0.105 A 
HETATM   15  O   UNL     1      -3.562  -3.736 -33.393  1.00  0.00    -0.323 OA
HETATM   16  O   UNL     1      -5.282  -4.624 -34.831  1.00  0.00    -0.323 OA
HETATM   17  C   UNL     1      -6.673  -2.627 -34.736  1.00  0.00     0.040 A 
HETATM   18  C   UNL     1      -4.004  -4.847 -34.201  1.00  0.00     0.352 A 
HETATM   19  C   UNL     1      -6.776  -1.334 -34.206  1.00  0.00     0.017 A 
ENDBRANCH   9  11
BRANCH   1  20
HETATM   20  C   UNL     1      -4.153   3.866 -32.754  1.00  0.00    -0.025 A 
HETATM   21  C   UNL     1      -3.036   3.954 -31.906  1.00  0.00     0.014 A 
HETATM   22  C   UNL     1      -2.031   4.897 -32.140  1.00  0.00     0.024 A 
HETATM   23  C   UNL     1      -2.127   5.753 -33.233  1.00  0.00     0.034 A 
HETATM   24  C   UNL     1      -3.220   5.675 -34.094  1.00  0.00     0.024 A 
HETATM   25 CL   UNL     1      -0.890   6.912 -33.525  1.00  0.00    -0.084 Cl
HETATM   26  C   UNL     1      -4.226   4.736 -33.855  1.00  0.00     0.014 A 
ENDBRANCH   1  20
BRANCH   7  27
HETATM   27  N   UNL     1      -6.178   5.526 -31.327  1.00  0.00    -0.286 NA
HETATM   28  H   UNL     1      -5.865   5.644 -32.287  1.00  0.00     0.125 HD
HETATM   29  H   UNL     1      -5.406   5.561 -30.672  1.00  0.00     0.125 HD
ENDBRANCH   7  27
TORSDOF 3
ENDMDL
MODEL 6
REMARK VINA RESULT:      -9.3      4.599      7.064
REMARK  3 active torsions:
REMARK  status: ('A' for Active; 'I' for Inactive)
REMARK    1  A    between atoms: C_2  and  C_3 
REMARK    2  A    between atoms: C_9  and  N_10 
REMARK    3  A    between atoms: C_12  and  C_13 
ROOT
HETATM    1  C   UNL     1      -7.047   2.462 -33.985  1.00  0.00    -0.006 A 
HETATM    2  C   UNL     1      -8.270   3.209 -33.941  1.00  0.00     0.063 A 
HETATM    3  C   UNL     1      -8.170   4.603 -33.882  1.00  0.00     0.165 A 
HETATM    4  N   UNL     1      -9.226   5.402 -33.862  1.00  0.00    -0.222 NA
HETATM    5  C   UNL     1     -10.429   4.838 -33.893  1.00  0.00     0.237 A 
HETATM    6  N   UNL     1     -10.674   3.531 -33.925  1.00  0.00    -0.229 NA
HETATM    7  C   UNL     1      -9.600   2.735 -33.937  1.00  0.00     0.117 A 
HETATM    8  N   UNL     1      -6.998   5.229 -33.836  1.00  0.00    -0.228 NA
HETATM    9  C   UNL     1      -5.840   4.537 -33.842  1.00  0.00     0.070 A 
HETATM   10  C   UNL     1      -5.832   3.157 -33.933  1.00  0.00     0.046 A 
ENDROOT
BRANCH   9  11
HETATM   11  C   UNL     1      -4.609   5.347 -33.744  1.00  0.00    -0.004 A 
HETATM   12  C   UNL     1      -4.387   6.229 -32.667  1.00  0.00     0.053 A 
HETATM   13  C   UNL     1      -3.223   6.974 -32.643  1.00  0.00     0.106 A 
HETATM   14  C   UNL     1      -2.279   6.881 -33.635  1.00  0.00     0.105 A 
HETATM   15  O   UNL     1      -2.878   7.870 -31.680  1.00  0.00    -0.323 OA
HETATM   16  O   UNL     1      -1.217   7.702 -33.421  1.00  0.00    -0.323 OA
HETATM   17  C   UNL     1      -2.444   6.039 -34.709  1.00  0.00     0.040 A 
HETATM   18  C   UNL     1      -1.613   8.341 -32.189  1.00  0.00     0.352 A 
HETATM   19  C   UNL     1      -3.618   5.275 -34.760  1.00  0.00     0.017 A 
ENDBRANCH   9  11
BRANCH   1  20
HETATM   20  C   UNL     1      -6.978   0.995 -34.096  1.00  0.00    -0.025 A 
HETATM   21  C   UNL     1      -6.767   0.195 -32.961  1.00  0.00     0.014 A 
HETATM   22  C   UNL     1      -6.721  -1.199 -33.066  1.00  0.00     0.024 A 
HETATM   23  C   UNL     1      -6.901  -1.805 -34.305  1.00  0.00     0.034 A 
HETATM   24  C   UNL     1      -7.123  -1.032 -35.442  1.00  0.00     0.024 A 
HETATM   25 CL   UNL     1      -6.848  -3.520 -34.436  1.00  0.00    -0.084 Cl
HETATM   26  C   UNL     1      -7.162   0.361 -35.336  1.00  0.00     0.014 A 
ENDBRANCH   1  20
BRANCH   7  27
HETATM   27  N   UNL     1      -9.932   1.381 -33.979  1.00  0.00    -0.286 NA
HETATM   28  H   UNL     1      -9.075   0.849 -33.856  1.00  0.00     0.125 HD
HETATM   29  H   UNL     1     -10.416   1.126 -34.833  1.00  0.00     0.125 HD
ENDBRANCH   7  27
TORSDOF 3
ENDMDL
MODEL 7
REMARK VINA RESULT:      -9.2      5.027      7.183
REMARK  3 active torsions:
REMARK  status: ('A' for Active; 'I' for Inactive)
REMARK    1  A    between atoms: C_2  and  C_3 
REMARK    2  A    between atoms: C_9  and  N_10 
REMARK    3  A    between atoms: C_12  and  C_13 
ROOT
HETATM    1  C   UNL     1      -6.065   1.723 -32.608  1.00  0.00    -0.006 A 
HETATM    2  C   UNL     1      -7.188   2.276 -31.906  1.00  0.00     0.063 A 
HETATM    3  C   UNL     1      -7.047   3.565 -31.383  1.00  0.00     0.165 A 
HETATM    4  N   UNL     1      -8.019   4.191 -30.738  1.00  0.00    -0.222 NA
HETATM    5  C   UNL     1      -9.173   3.550 -30.583  1.00  0.00     0.237 A 
HETATM    6  N   UNL     1      -9.439   2.317 -31.006  1.00  0.00    -0.229 NA
HETATM    7  C   UNL     1      -8.447   1.692 -31.649  1.00  0.00     0.117 A 
HETATM    8  N   UNL     1      -5.917   4.256 -31.492  1.00  0.00    -0.228 NA
HETATM    9  C   UNL     1      -4.841   3.735 -32.119  1.00  0.00     0.070 A 
HETATM   10  C   UNL     1      -4.891   2.481 -32.700  1.00  0.00     0.046 A 
ENDROOT
BRANCH   9  11
HETATM   11  C   UNL     1      -3.634   4.586 -32.133  1.00  0.00    -0.004 A 
HETATM   12  C   UNL     1      -2.458   4.216 -31.449  1.00  0.00     0.053 A 
HETATM   13  C   UNL     1      -1.369   5.065 -31.486  1.00  0.00     0.106 A 
HETATM   14  C   UNL     1      -1.398   6.256 -32.168  1.00  0.00     0.105 A 
HETATM   15  O   UNL     1      -0.177   4.849 -30.868  1.00  0.00    -0.323 OA
HETATM   16  O   UNL     1      -0.227   6.940 -32.070  1.00  0.00    -0.323 OA
HETATM   17  C   UNL     1      -2.518   6.668 -32.851  1.00  0.00     0.040 A 
HETATM   18  C   UNL     1       0.536   6.051 -31.228  1.00  0.00     0.352 A 
HETATM   19  C   UNL     1      -3.638   5.826 -32.826  1.00  0.00     0.017 A 
ENDBRANCH   9  11
BRANCH   1  20
HETATM   20  C   UNL     1      -6.065   0.402 -33.258  1.00  0.00    -0.025 A 
HETATM   21  C   UNL     1      -6.721   0.200 -34.483  1.00  0.00     0.014 A 
HETATM   22  C   UNL     1      -6.703  -1.051 -35.108  1.00  0.00     0.024 A 
HETATM   23  C   UNL     1      -6.014  -2.107 -34.520  1.00  0.00     0.034 A 
HETATM   24  C   UNL     1      -5.346  -1.926 -33.312  1.00  0.00     0.024 A 
HETATM   25 CL   UNL     1      -5.988  -3.646 -35.289  1.00  0.00    -0.084 Cl
HETATM   26  C   UNL     1      -5.371  -0.677 -32.685  1.00  0.00     0.014 A 
ENDBRANCH   1  20
BRANCH   7  27
HETATM   27  N   UNL     1      -8.800   0.411 -32.069  1.00  0.00    -0.286 NA
HETATM   28  H   UNL     1      -8.831   0.416 -33.086  1.00  0.00     0.125 HD
HETATM   29  H   UNL     1      -9.675   0.096 -31.667  1.00  0.00     0.125 HD
ENDBRANCH   7  27
TORSDOF 3
ENDMDL
MODEL 8
REMARK VINA RESULT:      -9.0      4.916      7.415
REMARK  3 active torsions:
REMARK  status: ('A' for Active; 'I' for Inactive)
REMARK    1  A    between atoms: C_2  and  C_3 
REMARK    2  A    between atoms: C_9  and  N_10 
REMARK    3  A    between atoms: C_12  and  C_13 
ROOT
HETATM    1  C   UNL     1      -5.753   1.782 -32.786  1.00  0.00    -0.006 A 
HETATM    2  C   UNL     1      -4.834   0.723 -32.484  1.00  0.00     0.063 A 
HETATM    3  C   UNL     1      -3.508   1.079 -32.218  1.00  0.00     0.165 A 
HETATM    4  N   UNL     1      -2.573   0.196 -31.902  1.00  0.00    -0.222 NA
HETATM    5  C   UNL     1      -2.925  -1.084 -31.847  1.00  0.00     0.237 A 
HETATM    6  N   UNL     1      -4.139  -1.568 -32.099  1.00  0.00    -0.229 NA
HETATM    7  C   UNL     1      -5.072  -0.667 -32.423  1.00  0.00     0.117 A 
HETATM    8  N   UNL     1      -3.087   2.339 -32.268  1.00  0.00    -0.228 NA
HETATM    9  C   UNL     1      -3.933   3.342 -32.584  1.00  0.00     0.070 A 
HETATM   10  C   UNL     1      -5.271   3.097 -32.832  1.00  0.00     0.046 A 
ENDROOT
BRANCH   9  11
HETATM   11  C   UNL     1      -3.333   4.690 -32.649  1.00  0.00    -0.004 A 
HETATM   12  C   UNL     1      -3.399   5.584 -31.561  1.00  0.00     0.053 A 
HETATM   13  C   UNL     1      -2.834   6.838 -31.692  1.00  0.00     0.106 A 
HETATM   14  C   UNL     1      -2.210   7.238 -32.847  1.00  0.00     0.105 A 
HETATM   15  O   UNL     1      -2.829   7.806 -30.737  1.00  0.00    -0.323 OA
HETATM   16  O   UNL     1      -1.731   8.508 -32.766  1.00  0.00    -0.323 OA
HETATM   17  C   UNL     1      -2.118   6.409 -33.940  1.00  0.00     0.040 A 
HETATM   18  C   UNL     1      -2.144   8.869 -31.432  1.00  0.00     0.352 A 
HETATM   19  C   UNL     1      -2.687   5.133 -33.835  1.00  0.00     0.017 A 
ENDBRANCH   9  11
BRANCH   1  20
HETATM   20  C   UNL     1      -7.189   1.583 -33.043  1.00  0.00    -0.025 A 
HETATM   21  C   UNL     1      -7.660   1.312 -34.338  1.00  0.00     0.014 A 
HETATM   22  C   UNL     1      -9.022   1.103 -34.576  1.00  0.00     0.024 A 
HETATM   23  C   UNL     1      -9.923   1.150 -33.517  1.00  0.00     0.034 A 
HETATM   24  C   UNL     1      -9.477   1.405 -32.223  1.00  0.00     0.024 A 
HETATM   25 CL   UNL     1     -11.599   0.891 -33.808  1.00  0.00    -0.084 Cl
HETATM   26  C   UNL     1      -8.116   1.619 -31.988  1.00  0.00     0.014 A 
ENDBRANCH   1  20
BRANCH   7  27
HETATM   27  N   UNL     1      -6.318  -1.244 -32.665  1.00  0.00    -0.286 NA
HETATM   28  H   UNL     1      -6.845  -1.217 -31.796  1.00  0.00     0.125 HD
HETATM   29  H   UNL     1      -6.247  -2.186 -33.033  1.00  0.00     0.125 HD
ENDBRANCH   7  27
TORSDOF 3
ENDMDL
MODEL 9
REMARK VINA RESULT:      -8.8      4.317      6.574
REMARK  3 active torsions:
REMARK  status: ('A' for Active; 'I' for Inactive)
REMARK    1  A    between atoms: C_2  and  C_3 
REMARK    2  A    between atoms: C_9  and  N_10 
REMARK    3  A    between atoms: C_12  and  C_13 
ROOT
HETATM    1  C   UNL     1      -6.702   0.816 -33.098  1.00  0.00    -0.006 A 
HETATM    2  C   UNL     1      -5.838  -0.300 -33.355  1.00  0.00     0.063 A 
HETATM    3  C   UNL     1      -4.480  -0.145 -33.060  1.00  0.00     0.165 A 
HETATM    4  N   UNL     1      -3.590  -1.109 -33.229  1.00  0.00    -0.222 NA
HETATM    5  C   UNL     1      -4.021  -2.272 -33.709  1.00  0.00     0.237 A 
HETATM    6  N   UNL     1      -5.274  -2.553 -34.055  1.00  0.00    -0.229 NA
HETATM    7  C   UNL     1      -6.163  -1.568 -33.887  1.00  0.00     0.117 A 
HETATM    8  N   UNL     1      -3.982   0.995 -32.589  1.00  0.00    -0.228 NA
HETATM    9  C   UNL     1      -4.777   2.065 -32.375  1.00  0.00     0.070 A 
HETATM   10  C   UNL     1      -6.139   2.000 -32.604  1.00  0.00     0.046 A 
ENDROOT
BRANCH   9  11
HETATM   11  C   UNL     1      -4.095   3.283 -31.893  1.00  0.00    -0.004 A 
HETATM   12  C   UNL     1      -2.699   3.443 -32.003  1.00  0.00     0.053 A 
HETATM   13  C   UNL     1      -2.119   4.598 -31.514  1.00  0.00     0.106 A 
HETATM   14  C   UNL     1      -2.860   5.593 -30.927  1.00  0.00     0.105 A 
HETATM   15  O   UNL     1      -0.790   4.886 -31.539  1.00  0.00    -0.323 OA
HETATM   16  O   UNL     1      -2.094   6.635 -30.511  1.00  0.00    -0.323 OA
HETATM   17  C   UNL     1      -4.224   5.489 -30.792  1.00  0.00     0.040 A 
HETATM   18  C   UNL     1      -0.780   6.172 -30.885  1.00  0.00     0.352 A 
HETATM   19  C   UNL     1      -4.837   4.325 -31.276  1.00  0.00     0.017 A 
ENDBRANCH   9  11
BRANCH   1  20
HETATM   20  C   UNL     1      -8.158   0.801 -33.308  1.00  0.00    -0.025 A 
HETATM   21  C   UNL     1      -9.006   0.087 -32.445  1.00  0.00     0.014 A 
HETATM   22  C   UNL     1     -10.391   0.091 -32.635  1.00  0.00     0.024 A 
HETATM   23  C   UNL     1     -10.943   0.821 -33.683  1.00  0.00     0.034 A 
HETATM   24  C   UNL     1     -10.123   1.546 -34.544  1.00  0.00     0.024 A 
HETATM   25 CL   UNL     1     -12.647   0.829 -33.917  1.00  0.00    -0.084 Cl
HETATM   26  C   UNL     1      -8.738   1.536 -34.356  1.00  0.00     0.014 A 
ENDBRANCH   1  20
BRANCH   7  27
HETATM   27  N   UNL     1      -7.454  -1.936 -34.261  1.00  0.00    -0.286 NA
HETATM   28  H   UNL     1      -8.079  -1.689 -33.498  1.00  0.00     0.125 HD
HETATM   29  H   UNL     1      -7.524  -2.917 -34.504  1.00  0.00     0.125 HD
ENDBRANCH   7  27
TORSDOF 3
ENDMDL
MODEL 10
REMARK VINA RESULT:      -8.6      3.228      4.905
REMARK  3 active torsions:
REMARK  status: ('A' for Active; 'I' for Inactive)
REMARK    1  A    between atoms: C_2  and  C_3 
REMARK    2  A    between atoms: C_9  and  N_10 
REMARK    3  A    between atoms: C_12  and  C_13 
ROOT
HETATM    1  C   UNL     1      -7.999   2.448 -32.125  1.00  0.00    -0.006 A 
HETATM    2  C   UNL     1      -9.349   2.390 -32.606  1.00  0.00     0.063 A 
HETATM    3  C   UNL     1      -9.730   1.247 -33.317  1.00  0.00     0.165 A 
HETATM    4  N   UNL     1     -10.953   1.065 -33.789  1.00  0.00    -0.222 NA
HETATM    5  C   UNL     1     -11.847   2.025 -33.575  1.00  0.00     0.237 A 
HETATM    6  N   UNL     1     -11.621   3.171 -32.940  1.00  0.00    -0.229 NA
HETATM    7  C   UNL     1     -10.379   3.346 -32.474  1.00  0.00     0.117 A 
HETATM    8  N   UNL     1      -8.881   0.257 -33.575  1.00  0.00    -0.228 NA
HETATM    9  C   UNL     1      -7.599   0.314 -33.159  1.00  0.00     0.070 A 
HETATM   10  C   UNL     1      -7.134   1.386 -32.420  1.00  0.00     0.046 A 
ENDROOT
BRANCH   9  11
HETATM   11  C   UNL     1      -6.748  -0.830 -33.548  1.00  0.00    -0.004 A 
HETATM   12  C   UNL     1      -7.287  -1.981 -34.157  1.00  0.00     0.053 A 
HETATM   13  C   UNL     1      -6.440  -3.024 -34.479  1.00  0.00     0.106 A 
HETATM   14  C   UNL     1      -5.092  -2.972 -34.224  1.00  0.00     0.105 A 
HETATM   15  O   UNL     1      -6.815  -4.197 -35.057  1.00  0.00    -0.323 OA
HETATM   16  O   UNL     1      -4.446  -4.104 -34.613  1.00  0.00    -0.323 OA
HETATM   17  C   UNL     1      -4.513  -1.876 -33.631  1.00  0.00     0.040 A 
HETATM   18  C   UNL     1      -5.547  -4.883 -35.122  1.00  0.00     0.352 A 
HETATM   19  C   UNL     1      -5.351  -0.805 -33.290  1.00  0.00     0.017 A 
ENDBRANCH   9  11
BRANCH   1  20
HETATM   20  C   UNL     1      -7.454   3.555 -31.322  1.00  0.00    -0.025 A 
HETATM   21  C   UNL     1      -7.580   3.564 -29.924  1.00  0.00     0.014 A 
HETATM   22  C   UNL     1      -7.044   4.607 -29.162  1.00  0.00     0.024 A 
HETATM   23  C   UNL     1      -6.363   5.644 -29.792  1.00  0.00     0.034 A 
HETATM   24  C   UNL     1      -6.215   5.650 -31.177  1.00  0.00     0.024 A 
HETATM   25 CL   UNL     1      -5.700   6.926 -28.857  1.00  0.00    -0.084 Cl
HETATM   26  C   UNL     1      -6.757   4.610 -31.937  1.00  0.00     0.014 A 
ENDBRANCH   1  20
BRANCH   7  27
HETATM   27  N   UNL     1     -10.217   4.563 -31.813  1.00  0.00    -0.286 NA
HETATM   28  H   UNL     1      -9.239   4.829 -31.890  1.00  0.00     0.125 HD
HETATM   29  H   UNL     1     -10.523   4.525 -30.847  1.00  0.00     0.125 HD
ENDBRANCH   7  27
TORSDOF 3
ENDMDL
