MODEL 1
REMARK VINA RESULT:      -8.9      0.000      0.000
REMARK  7 active torsions:
REMARK  status: ('A' for Active; 'I' for Inactive)
REMARK    1  A    between atoms: C_4  and  C_5 
REMARK    2  A    between atoms: C_9  and  C_10 
REMARK    3  A    between atoms: C_10  and  C_11 
REMARK    4  A    between atoms: C_11  and  C_12 
REMARK    5  A    between atoms: C_12  and  O_13 
REMARK    6  A    between atoms: C_18  and  C_19 
REMARK       I    between atoms: C_19  and  N_20 
REMARK    7  A    between atoms: N_20  and  C_21 
ROOT
HETATM    1  C   UNL     1      -7.219   3.473 -33.844  1.00  0.00     0.202 A 
HETATM    2  N   UNL     1      -6.007   4.301 -33.890  1.00  0.00    -0.083 N 
HETATM    3  C   UNL     1      -5.905   5.535 -33.318  1.00  0.00     0.726 A 
HETATM    4  N   UNL     1      -4.742   6.060 -33.604  1.00  0.00    -0.046 NA
HETATM    5  C   UNL     1      -4.170   5.114 -34.417  1.00  0.00     0.166 A 
HETATM    6  N   UNL     1      -4.913   4.016 -34.635  1.00  0.00    -0.140 NA
HETATM    7  N   UNL     1      -6.944   6.021 -32.623  1.00  0.00    -0.192 N 
HETATM    8  C   UNL     1      -8.166   5.370 -32.500  1.00  0.00     0.037 A 
HETATM    9  C   UNL     1      -9.224   6.150 -31.752  1.00  0.00     0.070 C 
HETATM   10  C   UNL     1      -8.355   4.141 -33.060  1.00  0.00     0.062 A 
HETATM   11  H   UNL     1      -6.861   6.949 -32.215  1.00  0.00     0.184 HD
ENDROOT
BRANCH  10  12
HETATM   12  C   UNL     1      -9.668   3.418 -32.878  1.00  0.00     0.256 C 
HETATM   13  N   UNL     1     -10.182   2.787 -33.995  1.00  0.00    -0.323 N 
HETATM   14  H   UNL     1      -9.543   2.562 -34.742  1.00  0.00     0.169 HD
HETATM   15  O   UNL     1     -10.164   3.331 -31.757  1.00  0.00    -0.267 OA
BRANCH  13  16
HETATM   16  C   UNL     1     -11.333   1.960 -33.972  1.00  0.00     0.041 A 
HETATM   17  C   UNL     1     -11.357   0.633 -33.510  1.00  0.00    -0.035 A 
HETATM   18  C   UNL     1     -10.185  -0.057 -32.868  1.00  0.00     0.050 C 
HETATM   19  C   UNL     1     -12.557  -0.097 -33.612  1.00  0.00     0.009 A 
HETATM   20  C   UNL     1     -13.720   0.490 -34.110  1.00  0.00     0.001 A 
HETATM   21  C   UNL     1     -13.707   1.823 -34.503  1.00  0.00     0.002 A 
HETATM   22  C   UNL     1     -12.523   2.557 -34.423  1.00  0.00     0.030 A 
ENDBRANCH  13  16
ENDBRANCH  10  12
BRANCH   1  23
HETATM   23  C   UNL     1      -6.864   2.052 -33.402  1.00  0.00    -0.028 A 
HETATM   24  C   UNL     1      -6.927   0.950 -34.273  1.00  0.00     0.016 A 
HETATM   25  C   UNL     1      -6.512  -0.323 -33.856  1.00  0.00    -0.061 A 
HETATM   26  C   UNL     1      -6.490  -1.471 -34.823  1.00  0.00     0.048 C 
HETATM   27  C   UNL     1      -6.048  -0.499 -32.548  1.00  0.00     0.007 A 
HETATM   28  C   UNL     1      -6.019   0.573 -31.661  1.00  0.00     0.001 A 
HETATM   29  C   UNL     1      -6.422   1.838 -32.083  1.00  0.00     0.010 A 
ENDBRANCH   1  23
BRANCH   5  30
HETATM   30  C   UNL     1      -2.805   5.271 -34.977  1.00  0.00     0.085 C 
BRANCH  30  31
HETATM   31  C   UNL     1      -1.720   5.317 -33.901  1.00  0.00     0.034 C 
BRANCH  31  32
HETATM   32  C   UNL     1      -1.064   6.683 -33.726  1.00  0.00     0.164 C 
BRANCH  32  33
HETATM   33  O   UNL     1      -1.842   7.707 -34.329  1.00  0.00    -0.401 OA
HETATM   34  H   UNL     1      -1.521   7.795 -35.248  1.00  0.00     0.209 HD
ENDBRANCH  32  33
ENDBRANCH  31  32
ENDBRANCH  30  31
ENDBRANCH   5  30
TORSDOF 7
ENDMDL
MODEL 2
REMARK VINA RESULT:      -8.8      1.089      1.791
REMARK  7 active torsions:
REMARK  status: ('A' for Active; 'I' for Inactive)
REMARK    1  A    between atoms: C_4  and  C_5 
REMARK    2  A    between atoms: C_9  and  C_10 
REMARK    3  A    between atoms: C_10  and  C_11 
REMARK    4  A    between atoms: C_11  and  C_12 
REMARK    5  A    between atoms: C_12  and  O_13 
REMARK    6  A    between atoms: C_18  and  C_19 
REMARK       I    between atoms: C_19  and  N_20 
REMARK    7  A    between atoms: N_20  and  C_21 
ROOT
HETATM    1  C   UNL     1      -7.484   3.268 -33.860  1.00  0.00     0.202 A 
HETATM    2  N   UNL     1      -6.276   4.102 -33.837  1.00  0.00    -0.083 N 
HETATM    3  C   UNL     1      -6.059   5.105 -32.937  1.00  0.00     0.726 A 
HETATM    4  N   UNL     1      -4.944   5.723 -33.224  1.00  0.00    -0.046 NA
HETATM    5  C   UNL     1      -4.526   5.087 -34.366  1.00  0.00     0.166 A 
HETATM    6  N   UNL     1      -5.317   4.089 -34.792  1.00  0.00    -0.140 NA
HETATM    7  N   UNL     1      -6.967   5.327 -31.975  1.00  0.00    -0.192 N 
HETATM    8  C   UNL     1      -8.170   4.636 -31.870  1.00  0.00     0.037 A 
HETATM    9  C   UNL     1      -9.081   5.122 -30.765  1.00  0.00     0.070 C 
HETATM   10  C   UNL     1      -8.470   3.632 -32.743  1.00  0.00     0.062 A 
HETATM   11  H   UNL     1      -6.802   6.087 -31.320  1.00  0.00     0.184 HD
ENDROOT
BRANCH  10  12
HETATM   12  C   UNL     1      -9.754   2.853 -32.591  1.00  0.00     0.256 C 
HETATM   13  N   UNL     1     -10.814   3.256 -33.382  1.00  0.00    -0.323 N 
HETATM   14  H   UNL     1     -10.604   3.789 -34.212  1.00  0.00     0.169 HD
HETATM   15  O   UNL     1      -9.781   1.859 -31.870  1.00  0.00    -0.267 OA
BRANCH  13  16
HETATM   16  C   UNL     1     -12.047   2.559 -33.460  1.00  0.00     0.041 A 
HETATM   17  C   UNL     1     -13.172   2.831 -32.663  1.00  0.00    -0.035 A 
HETATM   18  C   UNL     1     -13.261   3.977 -31.693  1.00  0.00     0.050 C 
HETATM   19  C   UNL     1     -14.309   2.011 -32.797  1.00  0.00     0.009 A 
HETATM   20  C   UNL     1     -14.350   0.980 -33.737  1.00  0.00     0.001 A 
HETATM   21  C   UNL     1     -13.259   0.760 -34.568  1.00  0.00     0.002 A 
HETATM   22  C   UNL     1     -12.118   1.553 -34.438  1.00  0.00     0.030 A 
ENDBRANCH  13  16
ENDBRANCH  10  12
BRANCH   1  23
HETATM   23  C   UNL     1      -7.096   1.790 -33.935  1.00  0.00    -0.028 A 
HETATM   24  C   UNL     1      -6.262   1.176 -32.983  1.00  0.00     0.016 A 
HETATM   25  C   UNL     1      -5.998  -0.199 -33.037  1.00  0.00    -0.061 A 
HETATM   26  C   UNL     1      -5.187  -0.861 -31.960  1.00  0.00     0.048 C 
HETATM   27  C   UNL     1      -6.556  -0.966 -34.064  1.00  0.00     0.007 A 
HETATM   28  C   UNL     1      -7.350  -0.367 -35.038  1.00  0.00     0.001 A 
HETATM   29  C   UNL     1      -7.619   0.998 -34.974  1.00  0.00     0.010 A 
ENDBRANCH   1  23
BRANCH   5  30
HETATM   30  C   UNL     1      -3.261   5.444 -35.055  1.00  0.00     0.085 C 
BRANCH  30  31
HETATM   31  C   UNL     1      -2.021   5.182 -34.199  1.00  0.00     0.034 C 
BRANCH  31  32
HETATM   32  C   UNL     1      -1.196   6.427 -33.888  1.00  0.00     0.164 C 
BRANCH  32  33
HETATM   33  O   UNL     1      -1.822   7.597 -34.395  1.00  0.00    -0.401 OA
HETATM   34  H   UNL     1      -2.761   7.548 -34.129  1.00  0.00     0.209 HD
ENDBRANCH  32  33
ENDBRANCH  31  32
ENDBRANCH  30  31
ENDBRANCH   5  30
TORSDOF 7
ENDMDL
MODEL 3
REMARK VINA RESULT:      -8.7      1.928      7.688
REMARK  7 active torsions:
REMARK  status: ('A' for Active; 'I' for Inactive)
REMARK    1  A    between atoms: C_4  and  C_5 
REMARK    2  A    between atoms: C_9  and  C_10 
REMARK    3  A    between atoms: C_10  and  C_11 
REMARK    4  A    between atoms: C_11  and  C_12 
REMARK    5  A    between atoms: C_12  and  O_13 
REMARK    6  A    between atoms: C_18  and  C_19 
REMARK       I    between atoms: C_19  and  N_20 
REMARK    7  A    between atoms: N_20  and  C_21 
ROOT
HETATM    1  C   UNL     1      -8.704   1.986 -32.877  1.00  0.00     0.202 A 
HETATM    2  N   UNL     1     -10.070   1.747 -33.361  1.00  0.00    -0.083 N 
HETATM    3  C   UNL     1     -10.851   2.703 -33.942  1.00  0.00     0.726 A 
HETATM    4  N   UNL     1     -12.040   2.216 -34.183  1.00  0.00    -0.046 NA
HETATM    5  C   UNL     1     -11.959   0.944 -33.675  1.00  0.00     0.166 A 
HETATM    6  N   UNL     1     -10.771   0.609 -33.146  1.00  0.00    -0.140 NA
HETATM    7  N   UNL     1     -10.345   3.929 -34.138  1.00  0.00    -0.192 N 
HETATM    8  C   UNL     1      -9.077   4.320 -33.722  1.00  0.00     0.037 A 
HETATM    9  C   UNL     1      -8.755   5.778 -33.963  1.00  0.00     0.070 C 
HETATM   10  C   UNL     1      -8.242   3.428 -33.116  1.00  0.00     0.062 A 
HETATM   11  H   UNL     1     -10.942   4.638 -34.557  1.00  0.00     0.184 HD
ENDROOT
BRANCH  10  12
HETATM   12  C   UNL     1      -6.848   3.846 -32.714  1.00  0.00     0.256 C 
HETATM   13  N   UNL     1      -5.871   3.744 -33.687  1.00  0.00    -0.323 N 
HETATM   14  H   UNL     1      -6.169   3.722 -34.650  1.00  0.00     0.169 HD
HETATM   15  O   UNL     1      -6.657   4.342 -31.606  1.00  0.00    -0.267 OA
BRANCH  13  16
HETATM   16  C   UNL     1      -4.543   4.211 -33.521  1.00  0.00     0.041 A 
HETATM   17  C   UNL     1      -3.543   3.541 -32.796  1.00  0.00    -0.035 A 
HETATM   18  C   UNL     1      -3.713   2.175 -32.190  1.00  0.00     0.050 C 
HETATM   19  C   UNL     1      -2.285   4.158 -32.652  1.00  0.00     0.009 A 
HETATM   20  C   UNL     1      -2.007   5.384 -33.257  1.00  0.00     0.001 A 
HETATM   21  C   UNL     1      -2.979   6.008 -34.027  1.00  0.00     0.002 A 
HETATM   22  C   UNL     1      -4.236   5.420 -34.169  1.00  0.00     0.030 A 
ENDBRANCH  13  16
ENDBRANCH  10  12
BRANCH   1  23
HETATM   23  C   UNL     1      -7.765   0.899 -33.406  1.00  0.00    -0.028 A 
HETATM   24  C   UNL     1      -6.743   0.334 -32.624  1.00  0.00     0.016 A 
HETATM   25  C   UNL     1      -5.958  -0.718 -33.115  1.00  0.00    -0.061 A 
HETATM   26  C   UNL     1      -4.936  -1.379 -32.236  1.00  0.00     0.048 C 
HETATM   27  C   UNL     1      -6.185  -1.198 -34.409  1.00  0.00     0.007 A 
HETATM   28  C   UNL     1      -7.166  -0.622 -35.212  1.00  0.00     0.001 A 
HETATM   29  C   UNL     1      -7.950   0.417 -34.716  1.00  0.00     0.010 A 
ENDBRANCH   1  23
BRANCH   5  30
HETATM   30  C   UNL     1     -13.092  -0.013 -33.749  1.00  0.00     0.085 C 
BRANCH  30  31
HETATM   31  C   UNL     1     -14.385   0.632 -34.248  1.00  0.00     0.034 C 
BRANCH  31  32
HETATM   32  C   UNL     1     -15.175   1.374 -33.174  1.00  0.00     0.164 C 
BRANCH  32  33
HETATM   33  O   UNL     1     -16.481   1.697 -33.629  1.00  0.00    -0.401 OA
HETATM   34  H   UNL     1     -16.497   1.505 -34.587  1.00  0.00     0.209 HD
ENDBRANCH  32  33
ENDBRANCH  31  32
ENDBRANCH  30  31
ENDBRANCH   5  30
TORSDOF 7
ENDMDL
MODEL 4
REMARK VINA RESULT:      -8.5      1.518      1.629
REMARK  7 active torsions:
REMARK  status: ('A' for Active; 'I' for Inactive)
REMARK    1  A    between atoms: C_4  and  C_5 
REMARK    2  A    between atoms: C_9  and  C_10 
REMARK    3  A    between atoms: C_10  and  C_11 
REMARK    4  A    between atoms: C_11  and  C_12 
REMARK    5  A    between atoms: C_12  and  O_13 
REMARK    6  A    between atoms: C_18  and  C_19 
REMARK       I    between atoms: C_19  and  N_20 
REMARK    7  A    between atoms: N_20  and  C_21 
ROOT
HETATM    1  C   UNL     1      -6.500   3.282 -32.379  1.00  0.00     0.202 A 
HETATM    2  N   UNL     1      -5.194   3.882 -32.081  1.00  0.00    -0.083 N 
HETATM    3  C   UNL     1      -4.989   4.822 -31.114  1.00  0.00     0.726 A 
HETATM    4  N   UNL     1      -3.747   5.229 -31.148  1.00  0.00    -0.046 NA
HETATM    5  C   UNL     1      -3.226   4.534 -32.211  1.00  0.00     0.166 A 
HETATM    6  N   UNL     1      -4.079   3.700 -32.828  1.00  0.00    -0.140 NA
HETATM    7  N   UNL     1      -6.019   5.200 -30.342  1.00  0.00    -0.192 N 
HETATM    8  C   UNL     1      -7.321   4.739 -30.507  1.00  0.00     0.037 A 
HETATM    9  C   UNL     1      -8.336   5.375 -29.585  1.00  0.00     0.070 C 
HETATM   10  C   UNL     1      -7.611   3.813 -31.465  1.00  0.00     0.062 A 
HETATM   11  H   UNL     1      -5.857   5.912 -29.635  1.00  0.00     0.184 HD
ENDROOT
BRANCH  10  12
HETATM   12  C   UNL     1      -9.017   3.280 -31.604  1.00  0.00     0.256 C 
HETATM   13  N   UNL     1      -9.553   3.285 -32.879  1.00  0.00    -0.323 N 
HETATM   14  H   UNL     1      -8.912   3.321 -33.656  1.00  0.00     0.169 HD
HETATM   15  O   UNL     1      -9.578   2.782 -30.631  1.00  0.00    -0.267 OA
BRANCH  13  16
HETATM   16  C   UNL     1     -10.804   2.706 -33.208  1.00  0.00     0.041 A 
HETATM   17  C   UNL     1     -11.032   1.329 -33.366  1.00  0.00    -0.035 A 
HETATM   18  C   UNL     1     -10.003   0.267 -33.095  1.00  0.00     0.050 C 
HETATM   19  C   UNL     1     -12.312   0.898 -33.766  1.00  0.00     0.009 A 
HETATM   20  C   UNL     1     -13.355   1.805 -33.953  1.00  0.00     0.001 A 
HETATM   21  C   UNL     1     -13.140   3.159 -33.730  1.00  0.00     0.002 A 
HETATM   22  C   UNL     1     -11.875   3.606 -33.348  1.00  0.00     0.030 A 
ENDBRANCH  13  16
ENDBRANCH  10  12
BRANCH   1  23
HETATM   23  C   UNL     1      -6.373   1.758 -32.440  1.00  0.00    -0.028 A 
HETATM   24  C   UNL     1      -6.570   1.028 -33.625  1.00  0.00     0.016 A 
HETATM   25  C   UNL     1      -6.361  -0.357 -33.661  1.00  0.00    -0.061 A 
HETATM   26  C   UNL     1      -6.478  -1.111 -34.954  1.00  0.00     0.048 C 
HETATM   27  C   UNL     1      -5.971  -1.023 -32.495  1.00  0.00     0.007 A 
HETATM   28  C   UNL     1      -5.813  -0.321 -31.303  1.00  0.00     0.001 A 
HETATM   29  C   UNL     1      -6.011   1.057 -31.275  1.00  0.00     0.010 A 
ENDBRANCH   1  23
BRANCH   5  30
HETATM   30  C   UNL     1      -1.805   4.659 -32.619  1.00  0.00     0.085 C 
BRANCH  30  31
HETATM   31  C   UNL     1      -1.635   5.277 -34.007  1.00  0.00     0.034 C 
BRANCH  31  32
HETATM   32  C   UNL     1      -2.379   6.594 -34.206  1.00  0.00     0.164 C 
BRANCH  32  33
HETATM   33  O   UNL     1      -1.520   7.705 -33.995  1.00  0.00    -0.401 OA
HETATM   34  H   UNL     1      -1.184   7.627 -33.080  1.00  0.00     0.209 HD
ENDBRANCH  32  33
ENDBRANCH  31  32
ENDBRANCH  30  31
ENDBRANCH   5  30
TORSDOF 7
ENDMDL
MODEL 5
REMARK VINA RESULT:      -8.3      2.863      5.974
REMARK  7 active torsions:
REMARK  status: ('A' for Active; 'I' for Inactive)
REMARK    1  A    between atoms: C_4  and  C_5 
REMARK    2  A    between atoms: C_9  and  C_10 
REMARK    3  A    between atoms: C_10  and  C_11 
REMARK    4  A    between atoms: C_11  and  C_12 
REMARK    5  A    between atoms: C_12  and  O_13 
REMARK    6  A    between atoms: C_18  and  C_19 
REMARK       I    between atoms: C_19  and  N_20 
REMARK    7  A    between atoms: N_20  and  C_21 
ROOT
HETATM    1  C   UNL     1      -7.527   2.932 -33.100  1.00  0.00     0.202 A 
HETATM    2  N   UNL     1      -8.357   3.851 -32.310  1.00  0.00    -0.083 N 
HETATM    3  C   UNL     1      -9.594   3.538 -31.827  1.00  0.00     0.726 A 
HETATM    4  N   UNL     1     -10.120   4.583 -31.245  1.00  0.00    -0.046 NA
HETATM    5  C   UNL     1      -9.171   5.554 -31.444  1.00  0.00     0.166 A 
HETATM    6  N   UNL     1      -8.071   5.159 -32.106  1.00  0.00    -0.140 NA
HETATM    7  N   UNL     1     -10.082   2.305 -32.031  1.00  0.00    -0.192 N 
HETATM    8  C   UNL     1      -9.429   1.326 -32.772  1.00  0.00     0.037 A 
HETATM    9  C   UNL     1     -10.211   0.044 -32.951  1.00  0.00     0.070 C 
HETATM   10  C   UNL     1      -8.196   1.568 -33.305  1.00  0.00     0.062 A 
HETATM   11  H   UNL     1     -11.011   2.088 -31.680  1.00  0.00     0.184 HD
ENDROOT
BRANCH  10  12
HETATM   12  C   UNL     1      -7.472   0.483 -34.065  1.00  0.00     0.256 C 
HETATM   13  N   UNL     1      -6.914  -0.530 -33.307  1.00  0.00    -0.323 N 
HETATM   14  H   UNL     1      -7.277  -0.674 -32.378  1.00  0.00     0.169 HD
HETATM   15  O   UNL     1      -7.493   0.483 -35.294  1.00  0.00    -0.267 OA
BRANCH  13  16
HETATM   16  C   UNL     1      -6.312  -1.687 -33.862  1.00  0.00     0.041 A 
HETATM   17  C   UNL     1      -4.927  -1.888 -33.988  1.00  0.00    -0.035 A 
HETATM   18  C   UNL     1      -3.886  -0.948 -33.447  1.00  0.00     0.050 C 
HETATM   19  C   UNL     1      -4.469  -3.057 -34.626  1.00  0.00     0.009 A 
HETATM   20  C   UNL     1      -5.361  -4.030 -35.079  1.00  0.00     0.001 A 
HETATM   21  C   UNL     1      -6.726  -3.856 -34.890  1.00  0.00     0.002 A 
HETATM   22  C   UNL     1      -7.198  -2.697 -34.274  1.00  0.00     0.030 A 
ENDBRANCH  13  16
ENDBRANCH  10  12
BRANCH   1  23
HETATM   23  C   UNL     1      -6.109   2.887 -32.528  1.00  0.00    -0.028 A 
HETATM   24  C   UNL     1      -5.007   3.462 -33.186  1.00  0.00     0.016 A 
HETATM   25  C   UNL     1      -3.738   3.476 -32.591  1.00  0.00    -0.061 A 
HETATM   26  C   UNL     1      -2.593   4.179 -33.259  1.00  0.00     0.048 C 
HETATM   27  C   UNL     1      -3.564   2.891 -31.333  1.00  0.00     0.007 A 
HETATM   28  C   UNL     1      -4.635   2.281 -30.685  1.00  0.00     0.001 A 
HETATM   29  C   UNL     1      -5.896   2.279 -31.276  1.00  0.00     0.010 A 
ENDBRANCH   1  23
BRANCH   5  30
HETATM   30  C   UNL     1      -9.327   6.935 -30.922  1.00  0.00     0.085 C 
BRANCH  30  31
HETATM   31  C   UNL     1      -9.261   7.007 -29.396  1.00  0.00     0.034 C 
BRANCH  31  32
HETATM   32  C   UNL     1      -8.052   6.306 -28.784  1.00  0.00     0.164 C 
BRANCH  32  33
HETATM   33  O   UNL     1      -7.552   7.027 -27.668  1.00  0.00    -0.401 OA
HETATM   34  H   UNL     1      -7.664   7.975 -27.876  1.00  0.00     0.209 HD
ENDBRANCH  32  33
ENDBRANCH  31  32
ENDBRANCH  30  31
ENDBRANCH   5  30
TORSDOF 7
ENDMDL
MODEL 6
REMARK VINA RESULT:      -7.9      2.594      5.879
REMARK  7 active torsions:
REMARK  status: ('A' for Active; 'I' for Inactive)
REMARK    1  A    between atoms: C_4  and  C_5 
REMARK    2  A    between atoms: C_9  and  C_10 
REMARK    3  A    between atoms: C_10  and  C_11 
REMARK    4  A    between atoms: C_11  and  C_12 
REMARK    5  A    between atoms: C_12  and  O_13 
REMARK    6  A    between atoms: C_18  and  C_19 
REMARK       I    between atoms: C_19  and  N_20 
REMARK    7  A    between atoms: N_20  and  C_21 
ROOT
HETATM    1  C   UNL     1      -7.175   3.273 -33.553  1.00  0.00     0.202 A 
HETATM    2  N   UNL     1      -8.005   4.297 -32.907  1.00  0.00    -0.083 N 
HETATM    3  C   UNL     1      -9.293   4.093 -32.505  1.00  0.00     0.726 A 
HETATM    4  N   UNL     1      -9.797   5.210 -32.051  1.00  0.00    -0.046 NA
HETATM    5  C   UNL     1      -8.777   6.108 -32.245  1.00  0.00     0.166 A 
HETATM    6  N   UNL     1      -7.655   5.599 -32.781  1.00  0.00    -0.140 NA
HETATM    7  N   UNL     1      -9.838   2.877 -32.654  1.00  0.00    -0.192 N 
HETATM    8  C   UNL     1      -9.191   1.806 -33.261  1.00  0.00     0.037 A 
HETATM    9  C   UNL     1     -10.035   0.559 -33.406  1.00  0.00     0.070 C 
HETATM   10  C   UNL     1      -7.909   1.935 -33.707  1.00  0.00     0.062 A 
HETATM   11  H   UNL     1     -10.804   2.741 -32.365  1.00  0.00     0.184 HD
ENDROOT
BRANCH  10  12
HETATM   12  C   UNL     1      -7.196   0.754 -34.319  1.00  0.00     0.256 C 
HETATM   13  N   UNL     1      -6.800  -0.244 -33.447  1.00  0.00    -0.323 N 
HETATM   14  H   UNL     1      -7.268  -0.300 -32.557  1.00  0.00     0.169 HD
HETATM   15  O   UNL     1      -7.088   0.674 -35.541  1.00  0.00    -0.267 OA
BRANCH  13  16
HETATM   16  C   UNL     1      -6.235  -1.475 -33.865  1.00  0.00     0.041 A 
HETATM   17  C   UNL     1      -4.861  -1.769 -33.861  1.00  0.00    -0.035 A 
HETATM   18  C   UNL     1      -3.805  -0.855 -33.304  1.00  0.00     0.050 C 
HETATM   19  C   UNL     1      -4.434  -3.010 -34.372  1.00  0.00     0.009 A 
HETATM   20  C   UNL     1      -5.351  -3.959 -34.826  1.00  0.00     0.001 A 
HETATM   21  C   UNL     1      -6.711  -3.688 -34.765  1.00  0.00     0.002 A 
HETATM   22  C   UNL     1      -7.152  -2.458 -34.276  1.00  0.00     0.030 A 
ENDBRANCH  13  16
ENDBRANCH  10  12
BRANCH   1  23
HETATM   23  C   UNL     1      -5.810   3.196 -32.864  1.00  0.00    -0.028 A 
HETATM   24  C   UNL     1      -4.642   3.731 -33.434  1.00  0.00     0.016 A 
HETATM   25  C   UNL     1      -3.427   3.717 -32.735  1.00  0.00    -0.061 A 
HETATM   26  C   UNL     1      -2.210   4.380 -33.313  1.00  0.00     0.048 C 
HETATM   27  C   UNL     1      -3.375   3.145 -31.460  1.00  0.00     0.007 A 
HETATM   28  C   UNL     1      -4.514   2.574 -30.898  1.00  0.00     0.001 A 
HETATM   29  C   UNL     1      -5.721   2.599 -31.592  1.00  0.00     0.010 A 
ENDBRANCH   1  23
BRANCH   5  30
HETATM   30  C   UNL     1      -8.888   7.533 -31.845  1.00  0.00     0.085 C 
BRANCH  30  31
HETATM   31  C   UNL     1     -10.218   8.166 -32.256  1.00  0.00     0.034 C 
BRANCH  31  32
HETATM   32  C   UNL     1     -10.351   8.438 -33.751  1.00  0.00     0.164 C 
BRANCH  32  33
HETATM   33  O   UNL     1      -9.882   7.337 -34.516  1.00  0.00    -0.401 OA
HETATM   34  H   UNL     1     -10.525   6.612 -34.384  1.00  0.00     0.209 HD
ENDBRANCH  32  33
ENDBRANCH  31  32
ENDBRANCH  30  31
ENDBRANCH   5  30
TORSDOF 7
ENDMDL
MODEL 7
REMARK VINA RESULT:      -7.8      3.019      6.326
REMARK  7 active torsions:
REMARK  status: ('A' for Active; 'I' for Inactive)
REMARK    1  A    between atoms: C_4  and  C_5 
REMARK    2  A    between atoms: C_9  and  C_10 
REMARK    3  A    between atoms: C_10  and  C_11 
REMARK    4  A    between atoms: C_11  and  C_12 
REMARK    5  A    between atoms: C_12  and  O_13 
REMARK    6  A    between atoms: C_18  and  C_19 
REMARK       I    between atoms: C_19  and  N_20 
REMARK    7  A    between atoms: N_20  and  C_21 
ROOT
HETATM    1  C   UNL     1      -7.868   2.463 -33.729  1.00  0.00     0.202 A 
HETATM    2  N   UNL     1      -8.829   3.566 -33.859  1.00  0.00    -0.083 N 
HETATM    3  C   UNL     1     -10.178   3.422 -33.720  1.00  0.00     0.726 A 
HETATM    4  N   UNL     1     -10.773   4.557 -33.980  1.00  0.00    -0.046 NA
HETATM    5  C   UNL     1      -9.730   5.376 -34.334  1.00  0.00     0.166 A 
HETATM    6  N   UNL     1      -8.513   4.811 -34.287  1.00  0.00    -0.140 NA
HETATM    7  N   UNL     1     -10.677   2.220 -33.396  1.00  0.00    -0.192 N 
HETATM    8  C   UNL     1      -9.904   1.073 -33.254  1.00  0.00     0.037 A 
HETATM    9  C   UNL     1     -10.692  -0.188 -32.982  1.00  0.00     0.070 C 
HETATM   10  C   UNL     1      -8.549   1.130 -33.397  1.00  0.00     0.062 A 
HETATM   11  H   UNL     1     -11.686   2.122 -33.311  1.00  0.00     0.184 HD
ENDROOT
BRANCH  10  12
HETATM   12  C   UNL     1      -7.712  -0.110 -33.191  1.00  0.00     0.256 C 
HETATM   13  N   UNL     1      -7.268  -0.748 -34.334  1.00  0.00    -0.323 N 
HETATM   14  H   UNL     1      -7.233  -0.211 -35.187  1.00  0.00     0.169 HD
HETATM   15  O   UNL     1      -7.380  -0.438 -32.054  1.00  0.00    -0.267 OA
BRANCH  13  16
HETATM   16  C   UNL     1      -6.370  -1.845 -34.325  1.00  0.00     0.041 A 
HETATM   17  C   UNL     1      -5.012  -1.766 -33.973  1.00  0.00    -0.035 A 
HETATM   18  C   UNL     1      -4.348  -0.523 -33.447  1.00  0.00     0.050 C 
HETATM   19  C   UNL     1      -4.218  -2.925 -34.077  1.00  0.00     0.009 A 
HETATM   20  C   UNL     1      -4.769  -4.145 -34.469  1.00  0.00     0.001 A 
HETATM   21  C   UNL     1      -6.126  -4.231 -34.751  1.00  0.00     0.002 A 
HETATM   22  C   UNL     1      -6.925  -3.090 -34.667  1.00  0.00     0.030 A 
ENDBRANCH  13  16
ENDBRANCH  10  12
BRANCH   1  23
HETATM   23  C   UNL     1      -6.730   2.870 -32.791  1.00  0.00    -0.028 A 
HETATM   24  C   UNL     1      -5.408   3.049 -33.236  1.00  0.00     0.016 A 
HETATM   25  C   UNL     1      -4.410   3.505 -32.364  1.00  0.00    -0.061 A 
HETATM   26  C   UNL     1      -3.026   3.787 -32.874  1.00  0.00     0.048 C 
HETATM   27  C   UNL     1      -4.731   3.765 -31.028  1.00  0.00     0.007 A 
HETATM   28  C   UNL     1      -6.026   3.553 -30.561  1.00  0.00     0.001 A 
HETATM   29  C   UNL     1      -7.017   3.110 -31.434  1.00  0.00     0.010 A 
ENDBRANCH   1  23
BRANCH   5  30
HETATM   30  C   UNL     1      -9.929   6.802 -34.695  1.00  0.00     0.085 C 
BRANCH  30  31
HETATM   31  C   UNL     1     -11.346   7.102 -35.182  1.00  0.00     0.034 C 
BRANCH  31  32
HETATM   32  C   UNL     1     -12.221   7.831 -34.167  1.00  0.00     0.164 C 
BRANCH  32  33
HETATM   33  O   UNL     1     -12.643   6.955 -33.132  1.00  0.00    -0.401 OA
HETATM   34  H   UNL     1     -12.368   6.055 -33.398  1.00  0.00     0.209 HD
ENDBRANCH  32  33
ENDBRANCH  31  32
ENDBRANCH  30  31
ENDBRANCH   5  30
TORSDOF 7
ENDMDL
MODEL 8
REMARK VINA RESULT:      -7.8     16.800     19.583
REMARK  7 active torsions:
REMARK  status: ('A' for Active; 'I' for Inactive)
REMARK    1  A    between atoms: C_4  and  C_5 
REMARK    2  A    between atoms: C_9  and  C_10 
REMARK    3  A    between atoms: C_10  and  C_11 
REMARK    4  A    between atoms: C_11  and  C_12 
REMARK    5  A    between atoms: C_12  and  O_13 
REMARK    6  A    between atoms: C_18  and  C_19 
REMARK       I    between atoms: C_19  and  N_20 
REMARK    7  A    between atoms: N_20  and  C_21 
ROOT
HETATM    1  C   UNL     1      -4.959 -13.008 -38.272  1.00  0.00     0.202 A 
HETATM    2  N   UNL     1      -6.131 -12.913 -39.152  1.00  0.00    -0.083 N 
HETATM    3  C   UNL     1      -6.109 -13.201 -40.485  1.00  0.00     0.726 A 
HETATM    4  N   UNL     1      -7.274 -12.935 -41.014  1.00  0.00    -0.046 NA
HETATM    5  C   UNL     1      -7.983 -12.426 -39.955  1.00  0.00     0.166 A 
HETATM    6  N   UNL     1      -7.321 -12.379 -38.788  1.00  0.00    -0.140 NA
HETATM    7  N   UNL     1      -4.971 -13.647 -41.038  1.00  0.00    -0.192 N 
HETATM    8  C   UNL     1      -3.772 -13.776 -40.346  1.00  0.00     0.037 A 
HETATM    9  C   UNL     1      -2.597 -14.205 -41.196  1.00  0.00     0.070 C 
HETATM   10  C   UNL     1      -3.707 -13.489 -39.014  1.00  0.00     0.062 A 
HETATM   11  H   UNL     1      -4.963 -13.842 -42.036  1.00  0.00     0.184 HD
ENDROOT
BRANCH  10  12
HETATM   12  C   UNL     1      -2.414 -13.681 -38.259  1.00  0.00     0.256 C 
HETATM   13  N   UNL     1      -1.970 -14.983 -38.123  1.00  0.00    -0.323 N 
HETATM   14  H   UNL     1      -2.318 -15.668 -38.775  1.00  0.00     0.169 HD
HETATM   15  O   UNL     1      -1.770 -12.700 -37.896  1.00  0.00    -0.267 OA
BRANCH  13  16
HETATM   16  C   UNL     1      -0.717 -15.332 -37.558  1.00  0.00     0.041 A 
HETATM   17  C   UNL     1       0.510 -15.285 -38.241  1.00  0.00    -0.035 A 
HETATM   18  C   UNL     1       0.679 -14.748 -39.635  1.00  0.00     0.050 C 
HETATM   19  C   UNL     1       1.670 -15.730 -37.577  1.00  0.00     0.009 A 
HETATM   20  C   UNL     1       1.624 -16.160 -36.251  1.00  0.00     0.001 A 
HETATM   21  C   UNL     1       0.419 -16.141 -35.561  1.00  0.00     0.002 A 
HETATM   22  C   UNL     1      -0.743 -15.718 -36.207  1.00  0.00     0.030 A 
ENDBRANCH  13  16
ENDBRANCH  10  12
BRANCH   1  23
HETATM   23  C   UNL     1      -5.317 -13.796 -37.010  1.00  0.00    -0.028 A 
HETATM   24  C   UNL     1      -5.210 -13.249 -35.719  1.00  0.00     0.016 A 
HETATM   25  C   UNL     1      -5.627 -13.972 -34.593  1.00  0.00    -0.061 A 
HETATM   26  C   UNL     1      -5.600 -13.341 -33.231  1.00  0.00     0.048 C 
HETATM   27  C   UNL     1      -6.139 -15.263 -34.757  1.00  0.00     0.007 A 
HETATM   28  C   UNL     1      -6.213 -15.835 -36.024  1.00  0.00     0.001 A 
HETATM   29  C   UNL     1      -5.807 -15.109 -37.141  1.00  0.00     0.010 A 
ENDBRANCH   1  23
BRANCH   5  30
HETATM   30  C   UNL     1      -9.400 -12.002 -40.080  1.00  0.00     0.085 C 
BRANCH  30  31
HETATM   31  C   UNL     1     -10.384 -13.046 -39.553  1.00  0.00     0.034 C 
BRANCH  31  32
HETATM   32  C   UNL     1     -10.718 -14.157 -40.545  1.00  0.00     0.164 C 
BRANCH  32  33
HETATM   33  O   UNL     1     -12.026 -13.996 -41.073  1.00  0.00    -0.401 OA
HETATM   34  H   UNL     1     -12.307 -13.087 -40.851  1.00  0.00     0.209 HD
ENDBRANCH  32  33
ENDBRANCH  31  32
ENDBRANCH  30  31
ENDBRANCH   5  30
TORSDOF 7
ENDMDL
MODEL 9
REMARK VINA RESULT:      -7.8      3.214      6.528
REMARK  7 active torsions:
REMARK  status: ('A' for Active; 'I' for Inactive)
REMARK    1  A    between atoms: C_4  and  C_5 
REMARK    2  A    between atoms: C_9  and  C_10 
REMARK    3  A    between atoms: C_10  and  C_11 
REMARK    4  A    between atoms: C_11  and  C_12 
REMARK    5  A    between atoms: C_12  and  O_13 
REMARK    6  A    between atoms: C_18  and  C_19 
REMARK       I    between atoms: C_19  and  N_20 
REMARK    7  A    between atoms: N_20  and  C_21 
ROOT
HETATM    1  C   UNL     1      -7.123   1.242 -33.665  1.00  0.00     0.202 A 
HETATM    2  N   UNL     1      -6.447  -0.051 -33.830  1.00  0.00    -0.083 N 
HETATM    3  C   UNL     1      -5.386  -0.459 -33.075  1.00  0.00     0.726 A 
HETATM    4  N   UNL     1      -4.945  -1.608 -33.516  1.00  0.00    -0.046 NA
HETATM    5  C   UNL     1      -5.751  -1.850 -34.600  1.00  0.00     0.166 A 
HETATM    6  N   UNL     1      -6.684  -0.916 -34.845  1.00  0.00    -0.140 NA
HETATM    7  N   UNL     1      -4.948   0.331 -32.084  1.00  0.00    -0.192 N 
HETATM    8  C   UNL     1      -5.469   1.591 -31.809  1.00  0.00     0.037 A 
HETATM    9  C   UNL     1      -4.756   2.342 -30.707  1.00  0.00     0.070 C 
HETATM   10  C   UNL     1      -6.518   2.079 -32.532  1.00  0.00     0.062 A 
HETATM   11  H   UNL     1      -4.147   0.024 -31.538  1.00  0.00     0.184 HD
ENDROOT
BRANCH  10  12
HETATM   12  C   UNL     1      -7.111   3.426 -32.194  1.00  0.00     0.256 C 
HETATM   13  N   UNL     1      -8.038   3.449 -31.169  1.00  0.00    -0.323 N 
HETATM   14  H   UNL     1      -8.027   2.686 -30.510  1.00  0.00     0.169 HD
HETATM   15  O   UNL     1      -6.687   4.435 -32.753  1.00  0.00    -0.267 OA
BRANCH  13  16
HETATM   16  C   UNL     1      -8.595   4.640 -30.639  1.00  0.00     0.041 A 
HETATM   17  C   UNL     1      -8.052   5.371 -29.568  1.00  0.00    -0.035 A 
HETATM   18  C   UNL     1      -6.739   5.051 -28.909  1.00  0.00     0.050 C 
HETATM   19  C   UNL     1      -8.751   6.499 -29.097  1.00  0.00     0.009 A 
HETATM   20  C   UNL     1      -9.932   6.925 -29.707  1.00  0.00     0.001 A 
HETATM   21  C   UNL     1     -10.426   6.237 -30.807  1.00  0.00     0.002 A 
HETATM   22  C   UNL     1      -9.755   5.108 -31.278  1.00  0.00     0.030 A 
ENDBRANCH  13  16
ENDBRANCH  10  12
BRANCH   1  23
HETATM   23  C   UNL     1      -8.637   1.033 -33.590  1.00  0.00    -0.028 A 
HETATM   24  C   UNL     1      -9.547   1.815 -34.323  1.00  0.00     0.016 A 
HETATM   25  C   UNL     1     -10.921   1.539 -34.295  1.00  0.00    -0.061 A 
HETATM   26  C   UNL     1     -11.871   2.316 -35.158  1.00  0.00     0.048 C 
HETATM   27  C   UNL     1     -11.392   0.482 -33.510  1.00  0.00     0.007 A 
HETATM   28  C   UNL     1     -10.509  -0.276 -32.745  1.00  0.00     0.001 A 
HETATM   29  C   UNL     1      -9.144  -0.004 -32.785  1.00  0.00     0.010 A 
ENDBRANCH   1  23
BRANCH   5  30
HETATM   30  C   UNL     1      -5.631  -3.084 -35.417  1.00  0.00     0.085 C 
BRANCH  30  31
HETATM   31  C   UNL     1      -5.875  -4.359 -34.611  1.00  0.00     0.034 C 
BRANCH  31  32
HETATM   32  C   UNL     1      -4.615  -5.164 -34.307  1.00  0.00     0.164 C 
BRANCH  32  33
HETATM   33  O   UNL     1      -3.748  -4.451 -33.438  1.00  0.00    -0.401 OA
HETATM   34  H   UNL     1      -3.589  -5.029 -32.666  1.00  0.00     0.209 HD
ENDBRANCH  32  33
ENDBRANCH  31  32
ENDBRANCH  30  31
ENDBRANCH   5  30
TORSDOF 7
ENDMDL
MODEL 10
REMARK VINA RESULT:      -7.7      4.418      8.440
REMARK  7 active torsions:
REMARK  status: ('A' for Active; 'I' for Inactive)
REMARK    1  A    between atoms: C_4  and  C_5 
REMARK    2  A    between atoms: C_9  and  C_10 
REMARK    3  A    between atoms: C_10  and  C_11 
REMARK    4  A    between atoms: C_11  and  C_12 
REMARK    5  A    between atoms: C_12  and  O_13 
REMARK    6  A    between atoms: C_18  and  C_19 
REMARK       I    between atoms: C_19  and  N_20 
REMARK    7  A    between atoms: N_20  and  C_21 
ROOT
HETATM    1  C   UNL     1      -4.510   3.820 -30.952  1.00  0.00     0.202 A 
HETATM    2  N   UNL     1      -5.193   2.525 -31.064  1.00  0.00    -0.083 N 
HETATM    3  C   UNL     1      -6.341   2.209 -30.398  1.00  0.00     0.726 A 
HETATM    4  N   UNL     1      -6.656   0.961 -30.627  1.00  0.00    -0.046 NA
HETATM    5  C   UNL     1      -5.622   0.524 -31.416  1.00  0.00     0.166 A 
HETATM    6  N   UNL     1      -4.688   1.445 -31.705  1.00  0.00    -0.140 NA
HETATM    7  N   UNL     1      -6.926   3.138 -29.627  1.00  0.00    -0.192 N 
HETATM    8  C   UNL     1      -6.397   4.404 -29.403  1.00  0.00     0.037 A 
HETATM    9  C   UNL     1      -7.178   5.249 -28.422  1.00  0.00     0.070 C 
HETATM   10  C   UNL     1      -5.242   4.790 -30.018  1.00  0.00     0.062 A 
HETATM   11  H   UNL     1      -7.772   2.885 -29.123  1.00  0.00     0.184 HD
ENDROOT
BRANCH  10  12
HETATM   12  C   UNL     1      -4.703   6.185 -29.811  1.00  0.00     0.256 C 
HETATM   13  N   UNL     1      -3.814   6.350 -28.764  1.00  0.00    -0.323 N 
HETATM   14  H   UNL     1      -3.335   5.532 -28.423  1.00  0.00     0.169 HD
HETATM   15  O   UNL     1      -4.982   7.072 -30.614  1.00  0.00    -0.267 OA
BRANCH  13  16
HETATM   16  C   UNL     1      -3.116   7.558 -28.508  1.00  0.00     0.041 A 
HETATM   17  C   UNL     1      -3.626   8.635 -27.763  1.00  0.00    -0.035 A 
HETATM   18  C   UNL     1      -4.943   8.610 -27.038  1.00  0.00     0.050 C 
HETATM   19  C   UNL     1      -2.850   9.804 -27.648  1.00  0.00     0.009 A 
HETATM   20  C   UNL     1      -1.577   9.885 -28.212  1.00  0.00     0.001 A 
HETATM   21  C   UNL     1      -1.052   8.792 -28.889  1.00  0.00     0.002 A 
HETATM   22  C   UNL     1      -1.812   7.631 -29.026  1.00  0.00     0.030 A 
ENDBRANCH  13  16
ENDBRANCH  10  12
BRANCH   1  23
HETATM   23  C   UNL     1      -4.194   4.366 -32.347  1.00  0.00    -0.028 A 
HETATM   24  C   UNL     1      -2.893   4.719 -32.746  1.00  0.00     0.016 A 
HETATM   25  C   UNL     1      -2.629   5.133 -34.058  1.00  0.00    -0.061 A 
HETATM   26  C   UNL     1      -1.221   5.412 -34.499  1.00  0.00     0.048 C 
HETATM   27  C   UNL     1      -3.680   5.216 -34.977  1.00  0.00     0.007 A 
HETATM   28  C   UNL     1      -4.981   4.910 -34.587  1.00  0.00     0.001 A 
HETATM   29  C   UNL     1      -5.237   4.488 -33.284  1.00  0.00     0.010 A 
ENDBRANCH   1  23
BRANCH   5  30
HETATM   30  C   UNL     1      -5.564  -0.858 -31.954  1.00  0.00     0.085 C 
BRANCH  30  31
HETATM   31  C   UNL     1      -4.294  -1.133 -32.759  1.00  0.00     0.034 C 
BRANCH  31  32
HETATM   32  C   UNL     1      -3.163  -1.765 -31.953  1.00  0.00     0.164 C 
BRANCH  32  33
HETATM   33  O   UNL     1      -2.414  -0.778 -31.259  1.00  0.00    -0.401 OA
HETATM   34  H   UNL     1      -2.882  -0.615 -30.417  1.00  0.00     0.209 HD
ENDBRANCH  32  33
ENDBRANCH  31  32
ENDBRANCH  30  31
ENDBRANCH   5  30
TORSDOF 7
ENDMDL
