MODEL 1
REMARK VINA RESULT:      -9.7      0.000      0.000
REMARK  5 active torsions:
REMARK  status: ('A' for Active; 'I' for Inactive)
REMARK    1  A    between atoms: C_2  and  N_3 
REMARK    2  A    between atoms: N_7  and  C_8 
REMARK    3  A    between atoms: N_14  and  C_15 
REMARK    4  A    between atoms: C_19  and  C_20 
REMARK       I    between atoms: C_20  and  N_21 
REMARK    5  A    between atoms: N_21  and  C_22 
ROOT
HETATM    1  C   UNL     1      -4.208   6.699 -29.152  1.00  0.00     0.071 A 
HETATM    2  C   UNL     1      -5.215   5.903 -28.568  1.00  0.00     0.143 A 
HETATM    3  F   UNL     1      -5.604   6.111 -27.300  1.00  0.00    -0.204 F 
HETATM    4  C   UNL     1      -5.811   4.838 -29.237  1.00  0.00     0.062 A 
HETATM    5  C   UNL     1      -5.406   4.528 -30.533  1.00  0.00     0.045 A 
HETATM    6  C   UNL     1      -4.427   5.293 -31.185  1.00  0.00     0.051 A 
HETATM    7  N   UNL     1      -4.036   4.942 -32.507  1.00  0.00    -0.350 N 
HETATM    8  C   UNL     1      -4.469   3.736 -33.035  1.00  0.00     0.113 C 
HETATM    9  C   UNL     1      -5.390   2.920 -32.500  1.00  0.00     0.099 C 
HETATM   10  C   UNL     1      -6.001   3.356 -31.220  1.00  0.00     0.201 C 
HETATM   11  O   UNL     1      -6.947   2.754 -30.720  1.00  0.00    -0.286 OA
HETATM   12  C   UNL     1      -3.863   6.377 -30.484  1.00  0.00     0.063 A 
ENDROOT
BRANCH   9  13
HETATM   13  C   UNL     1      -5.706   1.630 -33.190  1.00  0.00     0.275 C 
HETATM   14  N   UNL     1      -5.110   0.537 -32.602  1.00  0.00    -0.153 N 
HETATM   15  H   UNL     1      -4.577   0.671 -31.747  1.00  0.00     0.187 HD
HETATM   16  O   UNL     1      -6.436   1.637 -34.176  1.00  0.00    -0.267 OA
BRANCH  14  17
HETATM   17  C   UNL     1      -5.133  -0.712 -33.169  1.00  0.00     0.708 A 
HETATM   18  N   UNL     1      -4.188  -1.620 -33.202  1.00  0.00    -0.062 NA
HETATM   19  C   UNL     1      -4.734  -2.710 -33.832  1.00  0.00     0.103 A 
HETATM   20  C   UNL     1      -6.045  -2.456 -34.215  1.00  0.00     0.078 A 
HETATM   21  C   UNL     1      -4.171  -3.964 -34.111  1.00  0.00     0.034 A 
HETATM   22  N   UNL     1      -6.272  -1.175 -33.780  1.00  0.00    -0.187 N 
HETATM   23  C   UNL     1      -6.846  -3.382 -34.884  1.00  0.00     0.032 A 
HETATM   24  H   UNL     1      -7.131  -0.660 -33.891  1.00  0.00     0.184 HD
HETATM   25  C   UNL     1      -6.267  -4.628 -35.155  1.00  0.00     0.002 A 
HETATM   26  C   UNL     1      -4.954  -4.918 -34.774  1.00  0.00     0.002 A 
ENDBRANCH  14  17
ENDBRANCH   9  13
BRANCH   7  27
HETATM   27  C   UNL     1      -2.967   5.662 -33.227  1.00  0.00     0.090 A 
HETATM   28  C   UNL     1      -1.532   5.193 -33.201  1.00  0.00     0.028 A 
HETATM   29  C   UNL     1      -2.325   5.092 -34.467  1.00  0.00     0.028 A 
ENDBRANCH   7  27
BRANCH   1  30
HETATM   30  N   UNL     1      -3.581   7.781 -28.514  1.00  0.00    -0.375 N 
HETATM   31  C   UNL     1      -2.967   8.822 -29.367  1.00  0.00     0.150 C 
HETATM   32  C   UNL     1      -1.484   8.495 -29.649  1.00  0.00     0.254 C 
HETATM   33  N   UNL     1      -0.707   8.310 -28.339  1.00  0.00    -0.068 N 
HETATM   34  H   UNL     1      -0.767   9.195 -27.818  1.00  0.00     0.280 HD
HETATM   35  C   UNL     1      -1.383   7.242 -27.459  1.00  0.00     0.254 C 
HETATM   36  C   UNL     1      -2.873   7.589 -27.231  1.00  0.00     0.150 C 
BRANCH  33  37
HETATM   37  C   UNL     1       0.753   7.987 -28.553  1.00  0.00     0.230 C 
HETATM   38  C   UNL     1       1.617   8.684 -27.519  1.00  0.00     0.034 C 
ENDBRANCH  33  37
ENDBRANCH   1  30
TORSDOF 5
ENDMDL
MODEL 2
REMARK VINA RESULT:      -9.2      1.103      1.551
REMARK  5 active torsions:
REMARK  status: ('A' for Active; 'I' for Inactive)
REMARK    1  A    between atoms: C_2  and  N_3 
REMARK    2  A    between atoms: N_7  and  C_8 
REMARK    3  A    between atoms: N_14  and  C_15 
REMARK    4  A    between atoms: C_19  and  C_20 
REMARK       I    between atoms: C_20  and  N_21 
REMARK    5  A    between atoms: N_21  and  C_22 
ROOT
HETATM    1  C   UNL     1      -4.283   7.101 -29.449  1.00  0.00     0.071 A 
HETATM    2  C   UNL     1      -5.321   6.368 -28.837  1.00  0.00     0.143 A 
HETATM    3  F   UNL     1      -6.001   6.879 -27.799  1.00  0.00    -0.204 F 
HETATM    4  C   UNL     1      -5.654   5.074 -29.225  1.00  0.00     0.062 A 
HETATM    5  C   UNL     1      -4.942   4.460 -30.254  1.00  0.00     0.045 A 
HETATM    6  C   UNL     1      -3.915   5.140 -30.924  1.00  0.00     0.051 A 
HETATM    7  N   UNL     1      -3.207   4.479 -31.967  1.00  0.00    -0.350 N 
HETATM    8  C   UNL     1      -3.401   3.118 -32.149  1.00  0.00     0.113 C 
HETATM    9  C   UNL     1      -4.342   2.365 -31.559  1.00  0.00     0.099 C 
HETATM   10  C   UNL     1      -5.261   3.060 -30.624  1.00  0.00     0.201 C 
HETATM   11  O   UNL     1      -6.238   2.494 -30.140  1.00  0.00    -0.286 OA
HETATM   12  C   UNL     1      -3.621   6.458 -30.518  1.00  0.00     0.063 A 
ENDROOT
BRANCH   9  13
HETATM   13  C   UNL     1      -4.379   0.896 -31.842  1.00  0.00     0.275 C 
HETATM   14  N   UNL     1      -4.854   0.593 -33.098  1.00  0.00    -0.153 N 
HETATM   15  H   UNL     1      -5.075   1.355 -33.734  1.00  0.00     0.187 HD
HETATM   16  O   UNL     1      -4.001   0.107 -30.981  1.00  0.00    -0.267 OA
BRANCH  14  17
HETATM   17  C   UNL     1      -5.125  -0.691 -33.497  1.00  0.00     0.708 A 
HETATM   18  N   UNL     1      -6.238  -1.186 -33.983  1.00  0.00    -0.062 NA
HETATM   19  C   UNL     1      -5.969  -2.499 -34.278  1.00  0.00     0.103 A 
HETATM   20  C   UNL     1      -4.660  -2.824 -33.944  1.00  0.00     0.078 A 
HETATM   21  C   UNL     1      -6.795  -3.482 -34.842  1.00  0.00     0.034 A 
HETATM   22  N   UNL     1      -4.146  -1.653 -33.448  1.00  0.00    -0.187 N 
HETATM   23  C   UNL     1      -4.111  -4.094 -34.127  1.00  0.00     0.032 A 
HETATM   24  H   UNL     1      -3.208  -1.521 -33.106  1.00  0.00     0.184 HD
HETATM   25  C   UNL     1      -4.950  -5.062 -34.689  1.00  0.00     0.002 A 
HETATM   26  C   UNL     1      -6.269  -4.764 -35.045  1.00  0.00     0.002 A 
ENDBRANCH  14  17
ENDBRANCH   9  13
BRANCH   7  27
HETATM   27  C   UNL     1      -2.073   5.110 -32.669  1.00  0.00     0.090 A 
HETATM   28  C   UNL     1      -1.844   4.917 -34.149  1.00  0.00     0.028 A 
HETATM   29  C   UNL     1      -2.274   6.254 -33.632  1.00  0.00     0.028 A 
ENDBRANCH   7  27
BRANCH   1  30
HETATM   30  N   UNL     1      -3.915   8.408 -29.090  1.00  0.00    -0.375 N 
HETATM   31  C   UNL     1      -2.963   9.122 -29.968  1.00  0.00     0.150 C 
HETATM   32  C   UNL     1      -1.508   8.887 -29.506  1.00  0.00     0.254 C 
HETATM   33  N   UNL     1      -1.331   9.292 -28.037  1.00  0.00    -0.068 N 
HETATM   34  H   UNL     1      -1.553  10.294 -27.964  1.00  0.00     0.280 HD
HETATM   35  C   UNL     1      -2.352   8.556 -27.149  1.00  0.00     0.254 C 
HETATM   36  C   UNL     1      -3.789   8.788 -27.667  1.00  0.00     0.150 C 
BRANCH  33  37
HETATM   37  C   UNL     1       0.076   9.084 -27.528  1.00  0.00     0.230 C 
HETATM   38  C   UNL     1       0.793   8.021 -28.339  1.00  0.00     0.034 C 
ENDBRANCH  33  37
ENDBRANCH   1  30
TORSDOF 5
ENDMDL
MODEL 3
REMARK VINA RESULT:      -9.0      4.292      5.770
REMARK  5 active torsions:
REMARK  status: ('A' for Active; 'I' for Inactive)
REMARK    1  A    between atoms: C_2  and  N_3 
REMARK    2  A    between atoms: N_7  and  C_8 
REMARK    3  A    between atoms: N_14  and  C_15 
REMARK    4  A    between atoms: C_19  and  C_20 
REMARK       I    between atoms: C_20  and  N_21 
REMARK    5  A    between atoms: N_21  and  C_22 
ROOT
HETATM    1  C   UNL     1      -2.725   5.237 -31.876  1.00  0.00     0.071 A 
HETATM    2  C   UNL     1      -2.954   4.263 -32.870  1.00  0.00     0.143 A 
HETATM    3  F   UNL     1      -2.070   4.074 -33.862  1.00  0.00    -0.204 F 
HETATM    4  C   UNL     1      -4.117   3.499 -32.916  1.00  0.00     0.062 A 
HETATM    5  C   UNL     1      -5.105   3.692 -31.954  1.00  0.00     0.045 A 
HETATM    6  C   UNL     1      -4.932   4.625 -30.921  1.00  0.00     0.051 A 
HETATM    7  N   UNL     1      -5.966   4.798 -29.958  1.00  0.00    -0.350 N 
HETATM    8  C   UNL     1      -7.197   4.202 -30.185  1.00  0.00     0.113 C 
HETATM    9  C   UNL     1      -7.481   3.305 -31.142  1.00  0.00     0.099 C 
HETATM   10  C   UNL     1      -6.366   2.917 -32.040  1.00  0.00     0.201 C 
HETATM   11  O   UNL     1      -6.484   2.006 -32.857  1.00  0.00    -0.286 OA
HETATM   12  C   UNL     1      -3.733   5.365 -30.894  1.00  0.00     0.063 A 
ENDROOT
BRANCH   9  13
HETATM   13  C   UNL     1      -8.883   2.797 -31.268  1.00  0.00     0.275 C 
HETATM   14  N   UNL     1      -9.234   2.478 -32.560  1.00  0.00    -0.153 N 
HETATM   15  H   UNL     1      -8.530   2.549 -33.290  1.00  0.00     0.187 HD
HETATM   16  O   UNL     1      -9.582   2.702 -30.264  1.00  0.00    -0.267 OA
BRANCH  14  17
HETATM   17  C   UNL     1     -10.518   2.155 -32.919  1.00  0.00     0.708 A 
HETATM   18  N   UNL     1     -10.937   1.189 -33.701  1.00  0.00    -0.062 NA
HETATM   19  C   UNL     1     -12.308   1.258 -33.684  1.00  0.00     0.103 A 
HETATM   20  C   UNL     1     -12.741   2.309 -32.885  1.00  0.00     0.078 A 
HETATM   21  C   UNL     1     -13.257   0.450 -34.324  1.00  0.00     0.034 A 
HETATM   22  N   UNL     1     -11.579   2.863 -32.411  1.00  0.00    -0.187 N 
HETATM   23  C   UNL     1     -14.086   2.623 -32.688  1.00  0.00     0.032 A 
HETATM   24  H   UNL     1     -11.515   3.657 -31.794  1.00  0.00     0.184 HD
HETATM   25  C   UNL     1     -15.020   1.807 -33.336  1.00  0.00     0.002 A 
HETATM   26  C   UNL     1     -14.616   0.735 -34.139  1.00  0.00     0.002 A 
ENDBRANCH  14  17
ENDBRANCH   9  13
BRANCH   7  27
HETATM   27  C   UNL     1      -5.879   5.807 -28.885  1.00  0.00     0.090 A 
HETATM   28  C   UNL     1      -6.320   7.235 -29.096  1.00  0.00     0.028 A 
HETATM   29  C   UNL     1      -7.112   6.339 -28.196  1.00  0.00     0.028 A 
ENDBRANCH   7  27
BRANCH   1  30
HETATM   30  N   UNL     1      -1.569   6.029 -31.793  1.00  0.00    -0.375 N 
HETATM   31  C   UNL     1      -0.272   5.339 -31.610  1.00  0.00     0.150 C 
HETATM   32  C   UNL     1       0.063   5.189 -30.110  1.00  0.00     0.254 C 
HETATM   33  N   UNL     1       0.048   6.554 -29.409  1.00  0.00    -0.068 N 
HETATM   34  H   UNL     1       0.763   7.140 -29.860  1.00  0.00     0.280 HD
HETATM   35  C   UNL     1      -1.301   7.262 -29.638  1.00  0.00     0.254 C 
HETATM   36  C   UNL     1      -1.614   7.358 -31.149  1.00  0.00     0.150 C 
BRANCH  33  37
HETATM   37  C   UNL     1       0.370   6.470 -27.936  1.00  0.00     0.230 C 
HETATM   38  C   UNL     1       1.173   7.677 -27.489  1.00  0.00     0.034 C 
ENDBRANCH  33  37
ENDBRANCH   1  30
TORSDOF 5
ENDMDL
MODEL 4
REMARK VINA RESULT:      -9.0      2.166      3.433
REMARK  5 active torsions:
REMARK  status: ('A' for Active; 'I' for Inactive)
REMARK    1  A    between atoms: C_2  and  N_3 
REMARK    2  A    between atoms: N_7  and  C_8 
REMARK    3  A    between atoms: N_14  and  C_15 
REMARK    4  A    between atoms: C_19  and  C_20 
REMARK       I    between atoms: C_20  and  N_21 
REMARK    5  A    between atoms: N_21  and  C_22 
ROOT
HETATM    1  C   UNL     1      -2.913   8.867 -28.144  1.00  0.00     0.071 A 
HETATM    2  C   UNL     1      -4.235   8.757 -28.622  1.00  0.00     0.143 A 
HETATM    3  F   UNL     1      -5.225   9.476 -28.071  1.00  0.00    -0.204 F 
HETATM    4  C   UNL     1      -4.595   7.869 -29.631  1.00  0.00     0.062 A 
HETATM    5  C   UNL     1      -3.626   7.046 -30.201  1.00  0.00     0.045 A 
HETATM    6  C   UNL     1      -2.287   7.121 -29.792  1.00  0.00     0.051 A 
HETATM    7  N   UNL     1      -1.326   6.260 -30.394  1.00  0.00    -0.350 N 
HETATM    8  C   UNL     1      -1.769   5.228 -31.207  1.00  0.00     0.113 C 
HETATM    9  C   UNL     1      -3.021   5.051 -31.654  1.00  0.00     0.099 C 
HETATM   10  C   UNL     1      -4.025   6.060 -31.234  1.00  0.00     0.201 C 
HETATM   11  O   UNL     1      -5.163   6.068 -31.697  1.00  0.00    -0.286 OA
HETATM   12  C   UNL     1      -1.956   8.048 -28.783  1.00  0.00     0.063 A 
ENDROOT
BRANCH   9  13
HETATM   13  C   UNL     1      -3.330   3.851 -32.492  1.00  0.00     0.275 C 
HETATM   14  N   UNL     1      -4.482   3.200 -32.110  1.00  0.00    -0.153 N 
HETATM   15  H   UNL     1      -5.044   3.599 -31.363  1.00  0.00     0.187 HD
HETATM   16  O   UNL     1      -2.578   3.549 -33.413  1.00  0.00    -0.267 OA
BRANCH  14  17
HETATM   17  C   UNL     1      -4.855   1.989 -32.635  1.00  0.00     0.708 A 
HETATM   18  N   UNL     1      -5.933   1.683 -33.317  1.00  0.00    -0.062 NA
HETATM   19  C   UNL     1      -5.799   0.362 -33.662  1.00  0.00     0.103 A 
HETATM   20  C   UNL     1      -4.614  -0.163 -33.160  1.00  0.00     0.078 A 
HETATM   21  C   UNL     1      -6.649  -0.463 -34.412  1.00  0.00     0.034 A 
HETATM   22  N   UNL     1      -4.034   0.896 -32.511  1.00  0.00    -0.187 N 
HETATM   23  C   UNL     1      -4.217  -1.487 -33.349  1.00  0.00     0.032 A 
HETATM   24  H   UNL     1      -3.152   0.876 -32.023  1.00  0.00     0.184 HD
HETATM   25  C   UNL     1      -5.079  -2.297 -34.099  1.00  0.00     0.002 A 
HETATM   26  C   UNL     1      -6.273  -1.796 -34.625  1.00  0.00     0.002 A 
ENDBRANCH  14  17
ENDBRANCH   9  13
BRANCH   7  27
HETATM   27  C   UNL     1       0.087   6.239 -29.966  1.00  0.00     0.090 A 
HETATM   28  C   UNL     1       0.520   5.586 -28.676  1.00  0.00     0.028 A 
HETATM   29  C   UNL     1       0.901   4.969 -29.985  1.00  0.00     0.028 A 
ENDBRANCH   7  27
BRANCH   1  30
HETATM   30  N   UNL     1      -2.506   9.748 -27.129  1.00  0.00    -0.375 N 
HETATM   31  C   UNL     1      -1.407  10.691 -27.434  1.00  0.00     0.150 C 
HETATM   32  C   UNL     1      -0.039  10.077 -27.060  1.00  0.00     0.254 C 
HETATM   33  N   UNL     1      -0.019   9.646 -25.588  1.00  0.00    -0.068 N 
HETATM   34  H   UNL     1      -0.182  10.487 -25.018  1.00  0.00     0.280 HD
HETATM   35  C   UNL     1      -1.189   8.689 -25.291  1.00  0.00     0.254 C 
HETATM   36  C   UNL     1      -2.533   9.326 -25.714  1.00  0.00     0.150 C 
BRANCH  33  37
HETATM   37  C   UNL     1       1.296   9.037 -25.164  1.00  0.00     0.230 C 
HETATM   38  C   UNL     1       1.865   8.159 -26.263  1.00  0.00     0.034 C 
ENDBRANCH  33  37
ENDBRANCH   1  30
TORSDOF 5
ENDMDL
MODEL 5
REMARK VINA RESULT:      -8.9      2.747     10.252
REMARK  5 active torsions:
REMARK  status: ('A' for Active; 'I' for Inactive)
REMARK    1  A    between atoms: C_2  and  N_3 
REMARK    2  A    between atoms: N_7  and  C_8 
REMARK    3  A    between atoms: N_14  and  C_15 
REMARK    4  A    between atoms: C_19  and  C_20 
REMARK       I    between atoms: C_20  and  N_21 
REMARK    5  A    between atoms: N_21  and  C_22 
ROOT
HETATM    1  C   UNL     1      -6.026   2.304 -32.958  1.00  0.00     0.071 A 
HETATM    2  C   UNL     1      -4.764   1.720 -32.729  1.00  0.00     0.143 A 
HETATM    3  F   UNL     1      -4.595   0.392 -32.830  1.00  0.00    -0.204 F 
HETATM    4  C   UNL     1      -3.656   2.462 -32.331  1.00  0.00     0.062 A 
HETATM    5  C   UNL     1      -3.781   3.837 -32.143  1.00  0.00     0.045 A 
HETATM    6  C   UNL     1      -5.000   4.488 -32.379  1.00  0.00     0.051 A 
HETATM    7  N   UNL     1      -5.090   5.893 -32.172  1.00  0.00    -0.350 N 
HETATM    8  C   UNL     1      -4.042   6.545 -31.541  1.00  0.00     0.113 C 
HETATM    9  C   UNL     1      -2.838   6.024 -31.259  1.00  0.00     0.099 C 
HETATM   10  C   UNL     1      -2.613   4.614 -31.664  1.00  0.00     0.201 C 
HETATM   11  O   UNL     1      -1.506   4.088 -31.576  1.00  0.00    -0.286 OA
HETATM   12  C   UNL     1      -6.094   3.707 -32.802  1.00  0.00     0.063 A 
ENDROOT
BRANCH   9  13
HETATM   13  C   UNL     1      -1.835   6.864 -30.532  1.00  0.00     0.275 C 
HETATM   14  N   UNL     1      -1.457   6.334 -29.319  1.00  0.00    -0.153 N 
HETATM   15  H   UNL     1      -1.820   5.425 -29.047  1.00  0.00     0.187 HD
HETATM   16  O   UNL     1      -1.441   7.908 -31.041  1.00  0.00    -0.267 OA
BRANCH  14  17
HETATM   17  C   UNL     1      -0.679   7.022 -28.422  1.00  0.00     0.708 A 
HETATM   18  N   UNL     1       0.355   6.601 -27.735  1.00  0.00    -0.062 NA
HETATM   19  C   UNL     1       0.812   7.690 -27.035  1.00  0.00     0.103 A 
HETATM   20  C   UNL     1       0.022   8.806 -27.285  1.00  0.00     0.078 A 
HETATM   21  C   UNL     1       1.904   7.807 -26.165  1.00  0.00     0.034 A 
HETATM   22  N   UNL     1      -0.920   8.351 -28.172  1.00  0.00    -0.187 N 
HETATM   23  C   UNL     1       0.246  10.054 -26.703  1.00  0.00     0.032 A 
HETATM   24  H   UNL     1      -1.664   8.899 -28.572  1.00  0.00     0.184 HD
HETATM   25  C   UNL     1       1.340  10.152 -25.836  1.00  0.00     0.002 A 
HETATM   26  C   UNL     1       2.160   9.051 -25.571  1.00  0.00     0.002 A 
ENDBRANCH  14  17
ENDBRANCH   9  13
BRANCH   7  27
HETATM   27  C   UNL     1      -6.357   6.632 -32.336  1.00  0.00     0.090 A 
HETATM   28  C   UNL     1      -7.348   6.778 -31.206  1.00  0.00     0.028 A 
HETATM   29  C   UNL     1      -6.583   7.973 -31.683  1.00  0.00     0.028 A 
ENDBRANCH   7  27
BRANCH   1  30
HETATM   30  N   UNL     1      -7.169   1.594 -33.360  1.00  0.00    -0.375 N 
HETATM   31  C   UNL     1      -7.742   0.616 -32.409  1.00  0.00     0.150 C 
HETATM   32  C   UNL     1      -7.136  -0.787 -32.634  1.00  0.00     0.254 C 
HETATM   33  N   UNL     1      -7.328  -1.237 -34.088  1.00  0.00    -0.068 N 
HETATM   34  H   UNL     1      -8.340  -1.270 -34.270  1.00  0.00     0.280 HD
HETATM   35  C   UNL     1      -6.748  -0.189 -35.057  1.00  0.00     0.254 C 
HETATM   36  C   UNL     1      -7.353   1.206 -34.774  1.00  0.00     0.150 C 
BRANCH  33  37
HETATM   37  C   UNL     1      -6.754  -2.606 -34.369  1.00  0.00     0.230 C 
HETATM   38  C   UNL     1      -5.260  -2.524 -34.619  1.00  0.00     0.034 C 
ENDBRANCH  33  37
ENDBRANCH   1  30
TORSDOF 5
ENDMDL
MODEL 6
REMARK VINA RESULT:      -8.8      4.249      5.606
REMARK  5 active torsions:
REMARK  status: ('A' for Active; 'I' for Inactive)
REMARK    1  A    between atoms: C_2  and  N_3 
REMARK    2  A    between atoms: N_7  and  C_8 
REMARK    3  A    between atoms: N_14  and  C_15 
REMARK    4  A    between atoms: C_19  and  C_20 
REMARK       I    between atoms: C_20  and  N_21 
REMARK    5  A    between atoms: N_21  and  C_22 
ROOT
HETATM    1  C   UNL     1      -2.474   5.534 -32.451  1.00  0.00     0.071 A 
HETATM    2  C   UNL     1      -3.534   6.446 -32.637  1.00  0.00     0.143 A 
HETATM    3  F   UNL     1      -3.316   7.770 -32.587  1.00  0.00    -0.204 F 
HETATM    4  C   UNL     1      -4.851   6.037 -32.818  1.00  0.00     0.062 A 
HETATM    5  C   UNL     1      -5.155   4.678 -32.815  1.00  0.00     0.045 A 
HETATM    6  C   UNL     1      -4.148   3.714 -32.662  1.00  0.00     0.051 A 
HETATM    7  N   UNL     1      -4.498   2.335 -32.658  1.00  0.00    -0.350 N 
HETATM    8  C   UNL     1      -5.838   1.985 -32.591  1.00  0.00     0.113 C 
HETATM    9  C   UNL     1      -6.883   2.817 -32.716  1.00  0.00     0.099 C 
HETATM   10  C   UNL     1      -6.568   4.248 -32.950  1.00  0.00     0.201 C 
HETATM   11  O   UNL     1      -7.447   5.066 -33.214  1.00  0.00    -0.286 OA
HETATM   12  C   UNL     1      -2.822   4.166 -32.503  1.00  0.00     0.063 A 
ENDROOT
BRANCH   9  13
HETATM   13  C   UNL     1      -8.268   2.269 -32.572  1.00  0.00     0.275 C 
HETATM   14  N   UNL     1      -9.057   2.482 -33.680  1.00  0.00    -0.153 N 
HETATM   15  H   UNL     1      -8.642   2.918 -34.500  1.00  0.00     0.187 HD
HETATM   16  O   UNL     1      -8.586   1.699 -31.534  1.00  0.00    -0.267 OA
BRANCH  14  17
HETATM   17  C   UNL     1     -10.401   2.211 -33.694  1.00  0.00     0.708 A 
HETATM   18  N   UNL     1     -11.048   1.284 -34.358  1.00  0.00    -0.062 NA
HETATM   19  C   UNL     1     -12.362   1.395 -33.978  1.00  0.00     0.103 A 
HETATM   20  C   UNL     1     -12.529   2.434 -33.070  1.00  0.00     0.078 A 
HETATM   21  C   UNL     1     -13.478   0.638 -34.362  1.00  0.00     0.034 A 
HETATM   22  N   UNL     1     -11.263   2.936 -32.908  1.00  0.00    -0.187 N 
HETATM   23  C   UNL     1     -13.761   2.784 -32.518  1.00  0.00     0.032 A 
HETATM   24  H   UNL     1     -11.008   3.708 -32.313  1.00  0.00     0.184 HD
HETATM   25  C   UNL     1     -14.864   2.018 -32.914  1.00  0.00     0.002 A 
HETATM   26  C   UNL     1     -14.728   0.960 -33.818  1.00  0.00     0.002 A 
ENDBRANCH  14  17
ENDBRANCH   9  13
BRANCH   7  27
HETATM   27  C   UNL     1      -3.499   1.272 -32.436  1.00  0.00     0.090 A 
HETATM   28  C   UNL     1      -3.349   0.585 -31.099  1.00  0.00     0.028 A 
HETATM   29  C   UNL     1      -3.903  -0.172 -32.265  1.00  0.00     0.028 A 
ENDBRANCH   7  27
BRANCH   1  30
HETATM   30  N   UNL     1      -1.132   5.903 -32.265  1.00  0.00    -0.375 N 
HETATM   31  C   UNL     1      -0.246   4.949 -31.563  1.00  0.00     0.150 C 
HETATM   32  C   UNL     1      -0.239   5.225 -30.043  1.00  0.00     0.254 C 
HETATM   33  N   UNL     1       0.158   6.679 -29.755  1.00  0.00    -0.068 N 
HETATM   34  H   UNL     1       1.105   6.820 -30.131  1.00  0.00     0.280 HD
HETATM   35  C   UNL     1      -0.761   7.649 -30.519  1.00  0.00     0.254 C 
HETATM   36  C   UNL     1      -0.768   7.316 -32.029  1.00  0.00     0.150 C 
BRANCH  33  37
HETATM   37  C   UNL     1       0.183   7.007 -28.281  1.00  0.00     0.230 C 
HETATM   38  C   UNL     1       1.155   8.137 -27.996  1.00  0.00     0.034 C 
ENDBRANCH  33  37
ENDBRANCH   1  30
TORSDOF 5
ENDMDL
MODEL 7
REMARK VINA RESULT:      -8.7      5.544      7.595
REMARK  5 active torsions:
REMARK  status: ('A' for Active; 'I' for Inactive)
REMARK    1  A    between atoms: C_2  and  N_3 
REMARK    2  A    between atoms: N_7  and  C_8 
REMARK    3  A    between atoms: N_14  and  C_15 
REMARK    4  A    between atoms: C_19  and  C_20 
REMARK       I    between atoms: C_20  and  N_21 
REMARK    5  A    between atoms: N_21  and  C_22 
ROOT
HETATM    1  C   UNL     1      -4.306   4.098 -33.238  1.00  0.00     0.071 A 
HETATM    2  C   UNL     1      -5.019   5.314 -33.207  1.00  0.00     0.143 A 
HETATM    3  F   UNL     1      -4.404   6.463 -32.885  1.00  0.00    -0.204 F 
HETATM    4  C   UNL     1      -6.389   5.385 -33.443  1.00  0.00     0.062 A 
HETATM    5  C   UNL     1      -7.100   4.219 -33.719  1.00  0.00     0.045 A 
HETATM    6  C   UNL     1      -6.450   2.979 -33.791  1.00  0.00     0.051 A 
HETATM    7  N   UNL     1      -7.211   1.809 -34.069  1.00  0.00    -0.350 N 
HETATM    8  C   UNL     1      -8.595   1.891 -34.049  1.00  0.00     0.113 C 
HETATM    9  C   UNL     1      -9.323   3.015 -33.977  1.00  0.00     0.099 C 
HETATM   10  C   UNL     1      -8.569   4.292 -33.912  1.00  0.00     0.201 C 
HETATM   11  O   UNL     1      -9.136   5.379 -33.981  1.00  0.00    -0.286 OA
HETATM   12  C   UNL     1      -5.059   2.949 -33.567  1.00  0.00     0.063 A 
ENDROOT
BRANCH   9  13
HETATM   13  C   UNL     1     -10.815   2.913 -33.923  1.00  0.00     0.275 C 
HETATM   14  N   UNL     1     -11.393   3.816 -33.060  1.00  0.00    -0.153 N 
HETATM   15  H   UNL     1     -10.799   4.496 -32.593  1.00  0.00     0.187 HD
HETATM   16  O   UNL     1     -11.387   2.077 -34.616  1.00  0.00    -0.267 OA
BRANCH  14  17
HETATM   17  C   UNL     1     -12.726   3.781 -32.737  1.00  0.00     0.708 A 
HETATM   18  N   UNL     1     -13.535   4.776 -32.465  1.00  0.00    -0.062 NA
HETATM   19  C   UNL     1     -14.772   4.214 -32.270  1.00  0.00     0.103 A 
HETATM   20  C   UNL     1     -14.715   2.832 -32.406  1.00  0.00     0.078 A 
HETATM   21  C   UNL     1     -16.001   4.822 -31.977  1.00  0.00     0.034 A 
HETATM   22  N   UNL     1     -13.400   2.585 -32.703  1.00  0.00    -0.187 N 
HETATM   23  C   UNL     1     -15.822   1.997 -32.253  1.00  0.00     0.032 A 
HETATM   24  H   UNL     1     -12.995   1.677 -32.868  1.00  0.00     0.184 HD
HETATM   25  C   UNL     1     -17.041   2.622 -31.959  1.00  0.00     0.002 A 
HETATM   26  C   UNL     1     -17.133   4.010 -31.826  1.00  0.00     0.002 A 
ENDBRANCH  14  17
ENDBRANCH   9  13
BRANCH   7  27
HETATM   27  C   UNL     1      -6.604   0.464 -34.094  1.00  0.00     0.090 A 
HETATM   28  C   UNL     1      -6.332  -0.312 -32.828  1.00  0.00     0.028 A 
HETATM   29  C   UNL     1      -7.403  -0.772 -33.767  1.00  0.00     0.028 A 
ENDBRANCH   7  27
BRANCH   1  30
HETATM   30  N   UNL     1      -2.926   3.982 -33.006  1.00  0.00    -0.375 N 
HETATM   31  C   UNL     1      -2.465   3.930 -31.601  1.00  0.00     0.150 C 
HETATM   32  C   UNL     1      -2.148   5.348 -31.075  1.00  0.00     0.254 C 
HETATM   33  N   UNL     1      -1.123   6.047 -31.978  1.00  0.00    -0.068 N 
HETATM   34  H   UNL     1      -0.265   5.480 -31.967  1.00  0.00     0.280 HD
HETATM   35  C   UNL     1      -1.614   6.062 -33.438  1.00  0.00     0.254 C 
HETATM   36  C   UNL     1      -1.955   4.630 -33.911  1.00  0.00     0.150 C 
BRANCH  33  37
HETATM   37  C   UNL     1      -0.773   7.440 -31.513  1.00  0.00     0.230 C 
HETATM   38  C   UNL     1      -1.909   8.406 -31.793  1.00  0.00     0.034 C 
ENDBRANCH  33  37
ENDBRANCH   1  30
TORSDOF 5
ENDMDL
MODEL 8
REMARK VINA RESULT:      -8.6      3.246     10.182
REMARK  5 active torsions:
REMARK  status: ('A' for Active; 'I' for Inactive)
REMARK    1  A    between atoms: C_2  and  N_3 
REMARK    2  A    between atoms: N_7  and  C_8 
REMARK    3  A    between atoms: N_14  and  C_15 
REMARK    4  A    between atoms: C_19  and  C_20 
REMARK       I    between atoms: C_20  and  N_21 
REMARK    5  A    between atoms: N_21  and  C_22 
ROOT
HETATM    1  C   UNL     1      -6.027   1.188 -33.058  1.00  0.00     0.071 A 
HETATM    2  C   UNL     1      -4.721   0.825 -32.672  1.00  0.00     0.143 A 
HETATM    3  F   UNL     1      -4.377  -0.467 -32.549  1.00  0.00    -0.204 F 
HETATM    4  C   UNL     1      -3.748   1.764 -32.343  1.00  0.00     0.062 A 
HETATM    5  C   UNL     1      -4.060   3.121 -32.387  1.00  0.00     0.045 A 
HETATM    6  C   UNL     1      -5.332   3.555 -32.787  1.00  0.00     0.051 A 
HETATM    7  N   UNL     1      -5.615   4.949 -32.815  1.00  0.00    -0.350 N 
HETATM    8  C   UNL     1      -4.706   5.828 -32.244  1.00  0.00     0.113 C 
HETATM    9  C   UNL     1      -3.470   5.526 -31.820  1.00  0.00     0.099 C 
HETATM   10  C   UNL     1      -3.038   4.115 -31.979  1.00  0.00     0.201 C 
HETATM   11  O   UNL     1      -1.883   3.765 -31.750  1.00  0.00    -0.286 OA
HETATM   12  C   UNL     1      -6.284   2.576 -33.134  1.00  0.00     0.063 A 
ENDROOT
BRANCH   9  13
HETATM   13  C   UNL     1      -2.638   6.597 -31.187  1.00  0.00     0.275 C 
HETATM   14  N   UNL     1      -1.853   6.139 -30.152  1.00  0.00    -0.153 N 
HETATM   15  H   UNL     1      -1.849   5.144 -29.945  1.00  0.00     0.187 HD
HETATM   16  O   UNL     1      -2.707   7.745 -31.614  1.00  0.00    -0.267 OA
BRANCH  14  17
HETATM   17  C   UNL     1      -1.145   6.981 -29.333  1.00  0.00     0.708 A 
HETATM   18  N   UNL     1       0.099   6.884 -28.929  1.00  0.00    -0.062 NA
HETATM   19  C   UNL     1       0.341   8.008 -28.180  1.00  0.00     0.103 A 
HETATM   20  C   UNL     1      -0.794   8.807 -28.106  1.00  0.00     0.078 A 
HETATM   21  C   UNL     1       1.512   8.423 -27.531  1.00  0.00     0.034 A 
HETATM   22  N   UNL     1      -1.725   8.127 -28.849  1.00  0.00    -0.187 N 
HETATM   23  C   UNL     1      -0.844  10.011 -27.401  1.00  0.00     0.032 A 
HETATM   24  H   UNL     1      -2.675   8.420 -29.012  1.00  0.00     0.184 HD
HETATM   25  C   UNL     1       0.335  10.408 -26.759  1.00  0.00     0.002 A 
HETATM   26  C   UNL     1       1.495   9.632 -26.823  1.00  0.00     0.002 A 
ENDBRANCH  14  17
ENDBRANCH   9  13
BRANCH   7  27
HETATM   27  C   UNL     1      -6.950   5.473 -33.161  1.00  0.00     0.090 A 
HETATM   28  C   UNL     1      -8.118   5.376 -32.209  1.00  0.00     0.028 A 
HETATM   29  C   UNL     1      -7.511   6.711 -32.505  1.00  0.00     0.028 A 
ENDBRANCH   7  27
BRANCH   1  30
HETATM   30  N   UNL     1      -7.038   0.275 -33.398  1.00  0.00    -0.375 N 
HETATM   31  C   UNL     1      -7.693   0.430 -34.716  1.00  0.00     0.150 C 
HETATM   32  C   UNL     1      -8.939   1.337 -34.605  1.00  0.00     0.254 C 
HETATM   33  N   UNL     1      -9.915   0.796 -33.552  1.00  0.00    -0.068 N 
HETATM   34  H   UNL     1     -10.204  -0.144 -33.854  1.00  0.00     0.280 HD
HETATM   35  C   UNL     1      -9.202   0.617 -32.199  1.00  0.00     0.254 C 
HETATM   36  C   UNL     1      -7.942  -0.264 -32.361  1.00  0.00     0.150 C 
BRANCH  33  37
HETATM   37  C   UNL     1     -11.156   1.643 -33.400  1.00  0.00     0.230 C 
HETATM   38  C   UNL     1     -12.219   1.229 -34.401  1.00  0.00     0.034 C 
ENDBRANCH  33  37
ENDBRANCH   1  30
TORSDOF 5
ENDMDL
MODEL 9
REMARK VINA RESULT:      -8.6      1.892      3.055
REMARK  5 active torsions:
REMARK  status: ('A' for Active; 'I' for Inactive)
REMARK    1  A    between atoms: C_2  and  N_3 
REMARK    2  A    between atoms: N_7  and  C_8 
REMARK    3  A    between atoms: N_14  and  C_15 
REMARK    4  A    between atoms: C_19  and  C_20 
REMARK       I    between atoms: C_20  and  N_21 
REMARK    5  A    between atoms: N_21  and  C_22 
ROOT
HETATM    1  C   UNL     1      -4.282   7.219 -29.362  1.00  0.00     0.071 A 
HETATM    2  C   UNL     1      -5.396   6.457 -28.952  1.00  0.00     0.143 A 
HETATM    3  F   UNL     1      -6.225   6.913 -28.001  1.00  0.00    -0.204 F 
HETATM    4  C   UNL     1      -5.662   5.187 -29.456  1.00  0.00     0.062 A 
HETATM    5  C   UNL     1      -4.802   4.628 -30.399  1.00  0.00     0.045 A 
HETATM    6  C   UNL     1      -3.689   5.340 -30.871  1.00  0.00     0.051 A 
HETATM    7  N   UNL     1      -2.831   4.734 -31.831  1.00  0.00    -0.350 N 
HETATM    8  C   UNL     1      -2.991   3.386 -32.114  1.00  0.00     0.113 C 
HETATM    9  C   UNL     1      -4.006   2.605 -31.714  1.00  0.00     0.099 C 
HETATM   10  C   UNL     1      -5.056   3.252 -30.889  1.00  0.00     0.201 C 
HETATM   11  O   UNL     1      -6.092   2.663 -30.588  1.00  0.00    -0.286 OA
HETATM   12  C   UNL     1      -3.465   6.632 -30.354  1.00  0.00     0.063 A 
ENDROOT
BRANCH   9  13
HETATM   13  C   UNL     1      -3.993   1.154 -32.079  1.00  0.00     0.275 C 
HETATM   14  N   UNL     1      -4.872   0.838 -33.091  1.00  0.00    -0.153 N 
HETATM   15  H   UNL     1      -5.393   1.588 -33.538  1.00  0.00     0.187 HD
HETATM   16  O   UNL     1      -3.241   0.389 -31.484  1.00  0.00    -0.267 OA
BRANCH  14  17
HETATM   17  C   UNL     1      -5.138  -0.455 -33.462  1.00  0.00     0.708 A 
HETATM   18  N   UNL     1      -6.263  -0.974 -33.894  1.00  0.00    -0.062 NA
HETATM   19  C   UNL     1      -5.985  -2.286 -34.185  1.00  0.00     0.103 A 
HETATM   20  C   UNL     1      -4.657  -2.585 -33.904  1.00  0.00     0.078 A 
HETATM   21  C   UNL     1      -6.818  -3.289 -34.701  1.00  0.00     0.034 A 
HETATM   22  N   UNL     1      -4.143  -1.400 -33.444  1.00  0.00    -0.187 N 
HETATM   23  C   UNL     1      -4.096  -3.849 -34.094  1.00  0.00     0.032 A 
HETATM   24  H   UNL     1      -3.193  -1.249 -33.144  1.00  0.00     0.184 HD
HETATM   25  C   UNL     1      -4.942  -4.838 -34.609  1.00  0.00     0.002 A 
HETATM   26  C   UNL     1      -6.279  -4.566 -34.912  1.00  0.00     0.002 A 
ENDBRANCH  14  17
ENDBRANCH   9  13
BRANCH   7  27
HETATM   27  C   UNL     1      -1.608   5.398 -32.321  1.00  0.00     0.090 A 
HETATM   28  C   UNL     1      -1.282   5.484 -33.793  1.00  0.00     0.028 A 
HETATM   29  C   UNL     1      -1.659   6.722 -33.041  1.00  0.00     0.028 A 
ENDBRANCH   7  27
BRANCH   1  30
HETATM   30  N   UNL     1      -3.977   8.502 -28.880  1.00  0.00    -0.375 N 
HETATM   31  C   UNL     1      -3.361   8.606 -27.539  1.00  0.00     0.150 C 
HETATM   32  C   UNL     1      -4.445   8.762 -26.449  1.00  0.00     0.254 C 
HETATM   33  N   UNL     1      -5.350   9.964 -26.749  1.00  0.00    -0.068 N 
HETATM   34  H   UNL     1      -4.755  10.804 -26.759  1.00  0.00     0.280 HD
HETATM   35  C   UNL     1      -5.955   9.844 -28.160  1.00  0.00     0.254 C 
HETATM   36  C   UNL     1      -4.841   9.653 -29.214  1.00  0.00     0.150 C 
BRANCH  33  37
HETATM   37  C   UNL     1      -6.431  10.167 -25.713  1.00  0.00     0.230 C 
HETATM   38  C   UNL     1      -7.808  10.071 -26.344  1.00  0.00     0.034 C 
ENDBRANCH  33  37
ENDBRANCH   1  30
TORSDOF 5
ENDMDL
MODEL 10
REMARK VINA RESULT:      -8.5      6.901      9.177
REMARK  5 active torsions:
REMARK  status: ('A' for Active; 'I' for Inactive)
REMARK    1  A    between atoms: C_2  and  N_3 
REMARK    2  A    between atoms: N_7  and  C_8 
REMARK    3  A    between atoms: N_14  and  C_15 
REMARK    4  A    between atoms: C_19  and  C_20 
REMARK       I    between atoms: C_20  and  N_21 
REMARK    5  A    between atoms: N_21  and  C_22 
ROOT
HETATM    1  C   UNL     1     -12.529   5.771 -35.277  1.00  0.00     0.071 A 
HETATM    2  C   UNL     1     -11.176   6.162 -35.355  1.00  0.00     0.143 A 
HETATM    3  F   UNL     1     -10.828   7.310 -35.957  1.00  0.00    -0.204 F 
HETATM    4  C   UNL     1     -10.138   5.368 -34.876  1.00  0.00     0.062 A 
HETATM    5  C   UNL     1     -10.426   4.134 -34.298  1.00  0.00     0.045 A 
HETATM    6  C   UNL     1     -11.751   3.694 -34.165  1.00  0.00     0.051 A 
HETATM    7  N   UNL     1     -12.006   2.425 -33.573  1.00  0.00    -0.350 N 
HETATM    8  C   UNL     1     -10.941   1.568 -33.342  1.00  0.00     0.113 C 
HETATM    9  C   UNL     1      -9.639   1.874 -33.444  1.00  0.00     0.099 C 
HETATM   10  C   UNL     1      -9.314   3.266 -33.843  1.00  0.00     0.201 C 
HETATM   11  O   UNL     1      -8.159   3.686 -33.832  1.00  0.00    -0.286 OA
HETATM   12  C   UNL     1     -12.777   4.534 -34.641  1.00  0.00     0.063 A 
ENDROOT
BRANCH   9  13
HETATM   13  C   UNL     1      -8.620   0.807 -33.198  1.00  0.00     0.275 C 
HETATM   14  N   UNL     1      -7.917   0.452 -34.327  1.00  0.00    -0.153 N 
HETATM   15  H   UNL     1      -8.089   0.960 -35.191  1.00  0.00     0.187 HD
HETATM   16  O   UNL     1      -8.488   0.349 -32.067  1.00  0.00    -0.267 OA
BRANCH  14  17
HETATM   17  C   UNL     1      -7.058  -0.617 -34.358  1.00  0.00     0.708 A 
HETATM   18  N   UNL     1      -5.789  -0.665 -34.032  1.00  0.00    -0.062 NA
HETATM   19  C   UNL     1      -5.409  -1.975 -34.181  1.00  0.00     0.103 A 
HETATM   20  C   UNL     1      -6.472  -2.750 -34.631  1.00  0.00     0.078 A 
HETATM   21  C   UNL     1      -4.170  -2.586 -33.945  1.00  0.00     0.034 A 
HETATM   22  N   UNL     1      -7.509  -1.858 -34.735  1.00  0.00    -0.187 N 
HETATM   23  C   UNL     1      -6.375  -4.119 -34.879  1.00  0.00     0.032 A 
HETATM   24  H   UNL     1      -8.444  -2.077 -35.037  1.00  0.00     0.184 HD
HETATM   25  C   UNL     1      -5.130  -4.712 -34.639  1.00  0.00     0.002 A 
HETATM   26  C   UNL     1      -4.044  -3.962 -34.178  1.00  0.00     0.002 A 
ENDBRANCH  14  17
ENDBRANCH   9  13
BRANCH   7  27
HETATM   27  C   UNL     1     -13.369   1.870 -33.461  1.00  0.00     0.090 A 
HETATM   28  C   UNL     1     -14.076   1.244 -34.640  1.00  0.00     0.028 A 
HETATM   29  C   UNL     1     -13.626   0.384 -33.500  1.00  0.00     0.028 A 
ENDBRANCH   7  27
BRANCH   1  30
HETATM   30  N   UNL     1     -13.606   6.540 -35.746  1.00  0.00    -0.375 N 
HETATM   31  C   UNL     1     -13.787   6.650 -37.211  1.00  0.00     0.150 C 
HETATM   32  C   UNL     1     -13.034   7.879 -37.765  1.00  0.00     0.254 C 
HETATM   33  N   UNL     1     -13.476   9.160 -37.045  1.00  0.00    -0.068 N 
HETATM   34  H   UNL     1     -14.485   9.275 -37.212  1.00  0.00     0.280 HD
HETATM   35  C   UNL     1     -13.303   9.008 -35.522  1.00  0.00     0.254 C 
HETATM   36  C   UNL     1     -14.041   7.748 -35.015  1.00  0.00     0.150 C 
BRANCH  33  37
HETATM   37  C   UNL     1     -12.772  10.398 -37.547  1.00  0.00     0.230 C 
HETATM   38  C   UNL     1     -11.509  10.033 -38.304  1.00  0.00     0.034 C 
ENDBRANCH  33  37
ENDBRANCH   1  30
TORSDOF 5
ENDMDL
