MODEL 1
REMARK VINA RESULT:      -9.5      0.000      0.000
REMARK  9 active torsions:
REMARK  status: ('A' for Active; 'I' for Inactive)
REMARK    1  A    between atoms: C_11  and  S_12 
REMARK    2  A    between atoms: S_12  and  C_13 
REMARK    3  A    between atoms: C_13  and  C_14 
REMARK       I    between atoms: C_14  and  N_15 
REMARK    4  A    between atoms: N_15  and  N_16 
REMARK    5  A    between atoms: N_16  and  C_17 
REMARK    6  A    between atoms: C_17  and  N_18 
REMARK    7  A    between atoms: N_18  and  C_19 
REMARK    8  A    between atoms: C_22  and  O_23 
REMARK    9  A    between atoms: O_23  and  C_24 
ROOT
HETATM    1  C   UNL     1      -4.547   5.392 -33.889  1.00  0.00     0.245 C 
HETATM    2  N   UNL     1      -5.249   4.220 -34.143  1.00  0.00    -0.267 N 
HETATM    3  O   UNL     1      -4.761   6.092 -32.903  1.00  0.00    -0.271 OA
HETATM    4  H   UNL     1      -5.252   3.756 -35.047  1.00  0.00     0.190 HD
ENDROOT
BRANCH   2   5
HETATM    5  N   UNL     1      -6.144   3.752 -33.176  1.00  0.00    -0.274 N 
HETATM    6  H   UNL     1      -7.121   3.940 -33.372  1.00  0.00     0.189 HD
BRANCH   5   7
HETATM    7  C   UNL     1      -5.817   2.735 -32.313  1.00  0.00     0.191 C 
HETATM    8  S   UNL     1      -4.697   2.870 -31.072  1.00  0.00    -0.039 SA
BRANCH   7   9
HETATM    9  N   UNL     1      -6.566   1.590 -32.389  1.00  0.00    -0.332 N 
HETATM   10  H   UNL     1      -7.406   1.624 -31.819  1.00  0.00     0.168 HD
BRANCH   9  11
HETATM   11  C   UNL     1      -6.337   0.386 -33.085  1.00  0.00     0.034 A 
HETATM   12  C   UNL     1      -5.287  -0.488 -32.801  1.00  0.00     0.032 A 
HETATM   13  C   UNL     1      -5.104  -1.646 -33.564  1.00  0.00     0.039 A 
HETATM   14  C   UNL     1      -5.981  -1.966 -34.602  1.00  0.00     0.078 A 
HETATM   15  C   UNL     1      -7.070  -1.130 -34.844  1.00  0.00     0.039 A 
HETATM   16  C   UNL     1      -7.252   0.032 -34.081  1.00  0.00     0.032 A 
BRANCH  14  17
HETATM   17  O   UNL     1      -5.667  -3.110 -35.277  1.00  0.00    -0.255 OA
BRANCH  17  18
HETATM   18  C   UNL     1      -6.351  -4.298 -34.918  1.00  0.00     0.530 C 
HETATM   19  F   UNL     1      -5.520  -5.172 -34.312  1.00  0.00    -0.144 F 
HETATM   20  F   UNL     1      -7.399  -4.035 -34.108  1.00  0.00    -0.144 F 
HETATM   21  F   UNL     1      -6.828  -4.880 -36.041  1.00  0.00    -0.144 F 
ENDBRANCH  17  18
ENDBRANCH  14  17
ENDBRANCH   9  11
ENDBRANCH   7   9
ENDBRANCH   5   7
ENDBRANCH   2   5
BRANCH   1  22
HETATM   22  C   UNL     1      -3.463   5.646 -34.928  1.00  0.00     0.187 C 
BRANCH  22  23
HETATM   23  S   UNL     1      -1.889   4.801 -34.598  1.00  0.00    -0.079 SA
BRANCH  23  24
HETATM   24  C   UNL     1      -1.415   5.594 -33.073  1.00  0.00     0.211 A 
HETATM   25  N   UNL     1      -1.309   6.955 -33.060  1.00  0.00    -0.122 NA
HETATM   26  N   UNL     1      -0.834   7.595 -31.986  1.00  0.00    -0.143 NA
HETATM   27  C   UNL     1      -0.484   6.814 -30.932  1.00  0.00     0.137 A 
HETATM   28  C   UNL     1       0.098   7.114 -29.672  1.00  0.00     0.025 A 
HETATM   29  C   UNL     1      -0.674   5.446 -30.996  1.00  0.00     0.162 A 
HETATM   30  C   UNL     1       0.541   8.295 -29.043  1.00  0.00     0.016 A 
HETATM   31  C   UNL     1       0.227   5.899 -28.986  1.00  0.00     0.046 A 
HETATM   32  C   UNL     1       1.095   8.221 -27.760  1.00  0.00     0.001 A 
HETATM   33  C   UNL     1       1.205   6.998 -27.100  1.00  0.00     0.002 A 
HETATM   34  C   UNL     1       0.772   5.813 -27.700  1.00  0.00     0.030 A 
HETATM   35  N   UNL     1      -0.260   4.909 -29.812  1.00  0.00    -0.338 N 
HETATM   36  H   UNL     1      -0.287   3.923 -29.601  1.00  0.00     0.167 HD
HETATM   37  N   UNL     1      -1.160   4.761 -32.042  1.00  0.00    -0.201 NA
ENDBRANCH  23  24
ENDBRANCH  22  23
ENDBRANCH   1  22
TORSDOF 9
ENDMDL
MODEL 2
REMARK VINA RESULT:      -9.3      3.119      4.839
REMARK  9 active torsions:
REMARK  status: ('A' for Active; 'I' for Inactive)
REMARK    1  A    between atoms: C_11  and  S_12 
REMARK    2  A    between atoms: S_12  and  C_13 
REMARK    3  A    between atoms: C_13  and  C_14 
REMARK       I    between atoms: C_14  and  N_15 
REMARK    4  A    between atoms: N_15  and  N_16 
REMARK    5  A    between atoms: N_16  and  C_17 
REMARK    6  A    between atoms: C_17  and  N_18 
REMARK    7  A    between atoms: N_18  and  C_19 
REMARK    8  A    between atoms: C_22  and  O_23 
REMARK    9  A    between atoms: O_23  and  C_24 
ROOT
HETATM    1  C   UNL     1      -8.026   3.897 -29.776  1.00  0.00     0.245 C 
HETATM    2  N   UNL     1      -7.829   2.561 -30.106  1.00  0.00    -0.267 N 
HETATM    3  O   UNL     1      -7.300   4.500 -28.991  1.00  0.00    -0.271 OA
HETATM    4  H   UNL     1      -8.532   1.989 -30.562  1.00  0.00     0.190 HD
ENDROOT
BRANCH   2   5
HETATM    5  N   UNL     1      -6.686   1.914 -29.624  1.00  0.00    -0.274 N 
HETATM    6  H   UNL     1      -6.835   1.341 -28.801  1.00  0.00     0.189 HD
BRANCH   5   7
HETATM    7  C   UNL     1      -5.597   1.670 -30.424  1.00  0.00     0.191 C 
HETATM    8  S   UNL     1      -4.545   2.852 -30.979  1.00  0.00    -0.039 SA
BRANCH   7   9
HETATM    9  N   UNL     1      -5.277   0.357 -30.654  1.00  0.00    -0.332 N 
HETATM   10  H   UNL     1      -4.823  -0.088 -29.862  1.00  0.00     0.168 HD
BRANCH   9  11
HETATM   11  C   UNL     1      -5.437  -0.440 -31.805  1.00  0.00     0.034 A 
HETATM   12  C   UNL     1      -6.612  -0.494 -32.555  1.00  0.00     0.032 A 
HETATM   13  C   UNL     1      -6.705  -1.340 -33.666  1.00  0.00     0.039 A 
HETATM   14  C   UNL     1      -5.619  -2.124 -34.061  1.00  0.00     0.078 A 
HETATM   15  C   UNL     1      -4.423  -2.021 -33.354  1.00  0.00     0.039 A 
HETATM   16  C   UNL     1      -4.331  -1.175 -32.240  1.00  0.00     0.032 A 
BRANCH  14  17
HETATM   17  O   UNL     1      -5.860  -2.919 -35.144  1.00  0.00    -0.255 OA
BRANCH  17  18
HETATM   18  C   UNL     1      -6.320  -4.238 -34.906  1.00  0.00     0.530 C 
HETATM   19  F   UNL     1      -5.371  -4.980 -34.296  1.00  0.00    -0.144 F 
HETATM   20  F   UNL     1      -7.443  -4.238 -34.157  1.00  0.00    -0.144 F 
HETATM   21  F   UNL     1      -6.608  -4.818 -36.093  1.00  0.00    -0.144 F 
ENDBRANCH  17  18
ENDBRANCH  14  17
ENDBRANCH   9  11
ENDBRANCH   7   9
ENDBRANCH   5   7
ENDBRANCH   2   5
BRANCH   1  22
HETATM   22  C   UNL     1      -9.185   4.511 -30.550  1.00  0.00     0.187 C 
BRANCH  22  23
HETATM   23  S   UNL     1      -8.959   6.259 -30.987  1.00  0.00    -0.079 SA
BRANCH  23  24
HETATM   24  C   UNL     1      -7.484   6.152 -31.982  1.00  0.00     0.211 A 
HETATM   25  N   UNL     1      -7.544   5.450 -33.151  1.00  0.00    -0.122 NA
HETATM   26  N   UNL     1      -6.442   5.226 -33.874  1.00  0.00    -0.143 NA
HETATM   27  C   UNL     1      -5.289   5.746 -33.382  1.00  0.00     0.137 A 
HETATM   28  C   UNL     1      -3.941   5.672 -33.822  1.00  0.00     0.025 A 
HETATM   29  C   UNL     1      -5.314   6.497 -32.221  1.00  0.00     0.162 A 
HETATM   30  C   UNL     1      -3.287   5.041 -34.900  1.00  0.00     0.016 A 
HETATM   31  C   UNL     1      -3.176   6.412 -32.912  1.00  0.00     0.046 A 
HETATM   32  C   UNL     1      -1.899   5.170 -35.028  1.00  0.00     0.001 A 
HETATM   33  C   UNL     1      -1.165   5.918 -34.109  1.00  0.00     0.002 A 
HETATM   34  C   UNL     1      -1.789   6.555 -33.034  1.00  0.00     0.030 A 
HETATM   35  N   UNL     1      -4.040   6.908 -31.960  1.00  0.00    -0.338 N 
HETATM   36  H   UNL     1      -3.781   7.470 -31.162  1.00  0.00     0.167 HD
HETATM   37  N   UNL     1      -6.394   6.762 -31.470  1.00  0.00    -0.201 NA
ENDBRANCH  23  24
ENDBRANCH  22  23
ENDBRANCH   1  22
TORSDOF 9
ENDMDL
MODEL 3
REMARK VINA RESULT:      -9.2      5.632     10.878
REMARK  9 active torsions:
REMARK  status: ('A' for Active; 'I' for Inactive)
REMARK    1  A    between atoms: C_11  and  S_12 
REMARK    2  A    between atoms: S_12  and  C_13 
REMARK    3  A    between atoms: C_13  and  C_14 
REMARK       I    between atoms: C_14  and  N_15 
REMARK    4  A    between atoms: N_15  and  N_16 
REMARK    5  A    between atoms: N_16  and  C_17 
REMARK    6  A    between atoms: C_17  and  N_18 
REMARK    7  A    between atoms: N_18  and  C_19 
REMARK    8  A    between atoms: C_22  and  O_23 
REMARK    9  A    between atoms: O_23  and  C_24 
ROOT
HETATM    1  C   UNL     1      -4.420   4.767 -34.336  1.00  0.00     0.245 C 
HETATM    2  N   UNL     1      -3.497   4.350 -33.385  1.00  0.00    -0.267 N 
HETATM    3  O   UNL     1      -4.092   5.337 -35.373  1.00  0.00    -0.271 OA
HETATM    4  H   UNL     1      -3.750   4.090 -32.437  1.00  0.00     0.190 HD
ENDROOT
BRANCH   2   5
HETATM    5  N   UNL     1      -2.134   4.470 -33.677  1.00  0.00    -0.274 N 
HETATM    6  H   UNL     1      -1.848   4.051 -34.555  1.00  0.00     0.189 HD
BRANCH   5   7
HETATM    7  C   UNL     1      -1.352   5.447 -33.113  1.00  0.00     0.191 C 
HETATM    8  S   UNL     1      -1.353   7.054 -33.592  1.00  0.00    -0.039 SA
BRANCH   7   9
HETATM    9  N   UNL     1      -0.640   5.104 -31.993  1.00  0.00    -0.332 N 
HETATM   10  H   UNL     1      -0.221   4.181 -32.053  1.00  0.00     0.168 HD
BRANCH   9  11
HETATM   11  C   UNL     1      -0.438   5.799 -30.784  1.00  0.00     0.034 A 
HETATM   12  C   UNL     1      -1.044   7.018 -30.478  1.00  0.00     0.032 A 
HETATM   13  C   UNL     1      -0.763   7.665 -29.269  1.00  0.00     0.039 A 
HETATM   14  C   UNL     1       0.103   7.093 -28.336  1.00  0.00     0.078 A 
HETATM   15  C   UNL     1       0.656   5.843 -28.609  1.00  0.00     0.039 A 
HETATM   16  C   UNL     1       0.376   5.196 -29.821  1.00  0.00     0.032 A 
BRANCH  14  17
HETATM   17  O   UNL     1       0.304   7.845 -27.215  1.00  0.00    -0.255 OA
BRANCH  17  18
HETATM   18  C   UNL     1       1.454   8.673 -27.172  1.00  0.00     0.530 C 
HETATM   19  F   UNL     1       2.080   8.694 -28.367  1.00  0.00    -0.144 F 
HETATM   20  F   UNL     1       1.137   9.933 -26.805  1.00  0.00    -0.144 F 
HETATM   21  F   UNL     1       2.313   8.174 -26.256  1.00  0.00    -0.144 F 
ENDBRANCH  17  18
ENDBRANCH  14  17
ENDBRANCH   9  11
ENDBRANCH   7   9
ENDBRANCH   5   7
ENDBRANCH   2   5
BRANCH   1  22
HETATM   22  C   UNL     1      -5.842   4.370 -33.964  1.00  0.00     0.187 C 
BRANCH  22  23
HETATM   23  S   UNL     1      -5.977   3.373 -32.452  1.00  0.00    -0.079 SA
BRANCH  23  24
HETATM   24  C   UNL     1      -6.015   1.734 -33.153  1.00  0.00     0.211 A 
HETATM   25  N   UNL     1      -7.171   1.313 -33.745  1.00  0.00    -0.122 NA
HETATM   26  N   UNL     1      -7.302   0.053 -34.172  1.00  0.00    -0.143 NA
HETATM   27  C   UNL     1      -6.226  -0.755 -33.991  1.00  0.00     0.137 A 
HETATM   28  C   UNL     1      -6.010  -2.133 -34.254  1.00  0.00     0.025 A 
HETATM   29  C   UNL     1      -5.067  -0.242 -33.437  1.00  0.00     0.162 A 
HETATM   30  C   UNL     1      -6.802  -3.177 -34.774  1.00  0.00     0.016 A 
HETATM   31  C   UNL     1      -4.695  -2.419 -33.864  1.00  0.00     0.046 A 
HETATM   32  C   UNL     1      -6.256  -4.461 -34.885  1.00  0.00     0.001 A 
HETATM   33  C   UNL     1      -4.942  -4.712 -34.494  1.00  0.00     0.002 A 
HETATM   34  C   UNL     1      -4.135  -3.695 -33.977  1.00  0.00     0.030 A 
HETATM   35  N   UNL     1      -4.148  -1.248 -33.384  1.00  0.00    -0.338 N 
HETATM   36  H   UNL     1      -3.215  -1.139 -33.014  1.00  0.00     0.167 HD
HETATM   37  N   UNL     1      -4.882   1.015 -33.008  1.00  0.00    -0.201 NA
ENDBRANCH  23  24
ENDBRANCH  22  23
ENDBRANCH   1  22
TORSDOF 9
ENDMDL
MODEL 4
REMARK VINA RESULT:      -9.2      4.375      9.268
REMARK  9 active torsions:
REMARK  status: ('A' for Active; 'I' for Inactive)
REMARK    1  A    between atoms: C_11  and  S_12 
REMARK    2  A    between atoms: S_12  and  C_13 
REMARK    3  A    between atoms: C_13  and  C_14 
REMARK       I    between atoms: C_14  and  N_15 
REMARK    4  A    between atoms: N_15  and  N_16 
REMARK    5  A    between atoms: N_16  and  C_17 
REMARK    6  A    between atoms: C_17  and  N_18 
REMARK    7  A    between atoms: N_18  and  C_19 
REMARK    8  A    between atoms: C_22  and  O_23 
REMARK    9  A    between atoms: O_23  and  C_24 
ROOT
HETATM    1  C   UNL     1      -6.416   4.455 -29.865  1.00  0.00     0.245 C 
HETATM    2  N   UNL     1      -5.346   4.294 -28.994  1.00  0.00    -0.267 N 
HETATM    3  O   UNL     1      -7.301   5.287 -29.681  1.00  0.00    -0.271 OA
HETATM    4  H   UNL     1      -4.740   3.479 -28.999  1.00  0.00     0.190 HD
ENDROOT
BRANCH   2   5
HETATM    5  N   UNL     1      -5.201   5.197 -27.936  1.00  0.00    -0.274 N 
HETATM    6  H   UNL     1      -5.122   4.771 -27.019  1.00  0.00     0.189 HD
BRANCH   5   7
HETATM    7  C   UNL     1      -4.727   6.472 -28.127  1.00  0.00     0.191 C 
HETATM    8  S   UNL     1      -5.473   7.855 -27.544  1.00  0.00    -0.039 SA
BRANCH   7   9
HETATM    9  N   UNL     1      -3.490   6.595 -28.704  1.00  0.00    -0.332 N 
HETATM   10  H   UNL     1      -2.747   6.740 -28.028  1.00  0.00     0.168 HD
BRANCH   9  11
HETATM   11  C   UNL     1      -3.104   6.594 -30.059  1.00  0.00     0.034 A 
HETATM   12  C   UNL     1      -3.988   6.805 -31.119  1.00  0.00     0.032 A 
HETATM   13  C   UNL     1      -3.534   6.750 -32.441  1.00  0.00     0.039 A 
HETATM   14  C   UNL     1      -2.187   6.514 -32.726  1.00  0.00     0.078 A 
HETATM   15  C   UNL     1      -1.291   6.370 -31.669  1.00  0.00     0.039 A 
HETATM   16  C   UNL     1      -1.747   6.423 -30.344  1.00  0.00     0.032 A 
BRANCH  14  17
HETATM   17  O   UNL     1      -1.891   6.462 -34.058  1.00  0.00    -0.255 OA
BRANCH  17  18
HETATM   18  C   UNL     1      -2.007   5.211 -34.712  1.00  0.00     0.530 C 
HETATM   19  F   UNL     1      -0.964   5.001 -35.544  1.00  0.00    -0.144 F 
HETATM   20  F   UNL     1      -2.086   4.198 -33.823  1.00  0.00    -0.144 F 
HETATM   21  F   UNL     1      -3.140   5.210 -35.450  1.00  0.00    -0.144 F 
ENDBRANCH  17  18
ENDBRANCH  14  17
ENDBRANCH   9  11
ENDBRANCH   7   9
ENDBRANCH   5   7
ENDBRANCH   2   5
BRANCH   1  22
HETATM   22  C   UNL     1      -6.310   3.540 -31.077  1.00  0.00     0.187 C 
BRANCH  22  23
HETATM   23  S   UNL     1      -4.634   2.926 -31.415  1.00  0.00    -0.079 SA
BRANCH  23  24
HETATM   24  C   UNL     1      -5.014   1.465 -32.364  1.00  0.00     0.211 A 
HETATM   25  N   UNL     1      -6.248   1.375 -32.943  1.00  0.00    -0.122 NA
HETATM   26  N   UNL     1      -6.637   0.253 -33.556  1.00  0.00    -0.143 NA
HETATM   27  C   UNL     1      -5.735  -0.762 -33.574  1.00  0.00     0.137 A 
HETATM   28  C   UNL     1      -5.801  -2.092 -34.065  1.00  0.00     0.025 A 
HETATM   29  C   UNL     1      -4.481  -0.578 -33.018  1.00  0.00     0.162 A 
HETATM   30  C   UNL     1      -6.797  -2.865 -34.695  1.00  0.00     0.016 A 
HETATM   31  C   UNL     1      -4.556  -2.682 -33.809  1.00  0.00     0.046 A 
HETATM   32  C   UNL     1      -6.517  -4.191 -35.043  1.00  0.00     0.001 A 
HETATM   33  C   UNL     1      -5.267  -4.748 -34.780  1.00  0.00     0.002 A 
HETATM   34  C   UNL     1      -4.261  -4.003 -34.159  1.00  0.00     0.030 A 
HETATM   35  N   UNL     1      -3.776  -1.733 -33.183  1.00  0.00    -0.338 N 
HETATM   36  H   UNL     1      -2.829  -1.866 -32.860  1.00  0.00     0.167 HD
HETATM   37  N   UNL     1      -4.040   0.532 -32.406  1.00  0.00    -0.201 NA
ENDBRANCH  23  24
ENDBRANCH  22  23
ENDBRANCH   1  22
TORSDOF 9
ENDMDL
MODEL 5
REMARK VINA RESULT:      -9.0      5.812     10.900
REMARK  9 active torsions:
REMARK  status: ('A' for Active; 'I' for Inactive)
REMARK    1  A    between atoms: C_11  and  S_12 
REMARK    2  A    between atoms: S_12  and  C_13 
REMARK    3  A    between atoms: C_13  and  C_14 
REMARK       I    between atoms: C_14  and  N_15 
REMARK    4  A    between atoms: N_15  and  N_16 
REMARK    5  A    between atoms: N_16  and  C_17 
REMARK    6  A    between atoms: C_17  and  N_18 
REMARK    7  A    between atoms: N_18  and  C_19 
REMARK    8  A    between atoms: C_22  and  O_23 
REMARK    9  A    between atoms: O_23  and  C_24 
ROOT
HETATM    1  C   UNL     1      -4.791   4.723 -30.881  1.00  0.00     0.245 C 
HETATM    2  N   UNL     1      -3.947   3.773 -31.445  1.00  0.00    -0.267 N 
HETATM    3  O   UNL     1      -4.382   5.631 -30.164  1.00  0.00    -0.271 OA
HETATM    4  H   UNL     1      -4.277   2.899 -31.843  1.00  0.00     0.190 HD
ENDROOT
BRANCH   2   5
HETATM    5  N   UNL     1      -2.565   3.932 -31.295  1.00  0.00    -0.274 N 
HETATM    6  H   UNL     1      -2.124   3.260 -30.678  1.00  0.00     0.189 HD
BRANCH   5   7
HETATM    7  C   UNL     1      -1.803   4.588 -32.230  1.00  0.00     0.191 C 
HETATM    8  S   UNL     1      -2.238   4.786 -33.837  1.00  0.00    -0.039 SA
BRANCH   7   9
HETATM    9  N   UNL     1      -0.689   5.245 -31.774  1.00  0.00    -0.332 N 
HETATM   10  H   UNL     1       0.110   5.154 -32.393  1.00  0.00     0.168 HD
BRANCH   9  11
HETATM   11  C   UNL     1      -0.474   5.973 -30.587  1.00  0.00     0.034 A 
HETATM   12  C   UNL     1      -1.032   7.227 -30.332  1.00  0.00     0.032 A 
HETATM   13  C   UNL     1      -0.739   7.904 -29.143  1.00  0.00     0.039 A 
HETATM   14  C   UNL     1       0.091   7.330 -28.178  1.00  0.00     0.078 A 
HETATM   15  C   UNL     1       0.595   6.050 -28.400  1.00  0.00     0.039 A 
HETATM   16  C   UNL     1       0.303   5.373 -29.592  1.00  0.00     0.032 A 
BRANCH  14  17
HETATM   17  O   UNL     1       0.310   8.113 -27.082  1.00  0.00    -0.255 OA
BRANCH  17  18
HETATM   18  C   UNL     1       1.572   8.745 -26.962  1.00  0.00     0.530 C 
HETATM   19  F   UNL     1       2.155   8.896 -28.171  1.00  0.00    -0.144 F 
HETATM   20  F   UNL     1       1.463   9.949 -26.360  1.00  0.00    -0.144 F 
HETATM   21  F   UNL     1       2.376   7.968 -26.202  1.00  0.00    -0.144 F 
ENDBRANCH  17  18
ENDBRANCH  14  17
ENDBRANCH   9  11
ENDBRANCH   7   9
ENDBRANCH   5   7
ENDBRANCH   2   5
BRANCH   1  22
HETATM   22  C   UNL     1      -6.238   4.531 -31.317  1.00  0.00     0.187 C 
BRANCH  22  23
HETATM   23  S   UNL     1      -7.145   3.263 -30.387  1.00  0.00    -0.079 SA
BRANCH  23  24
HETATM   24  C   UNL     1      -7.024   1.890 -31.517  1.00  0.00     0.211 A 
HETATM   25  N   UNL     1      -8.180   1.363 -32.018  1.00  0.00    -0.122 NA
HETATM   26  N   UNL     1      -8.160   0.255 -32.766  1.00  0.00    -0.143 NA
HETATM   27  C   UNL     1      -6.938  -0.289 -32.997  1.00  0.00     0.137 A 
HETATM   28  C   UNL     1      -6.527  -1.465 -33.677  1.00  0.00     0.025 A 
HETATM   29  C   UNL     1      -5.804   0.334 -32.506  1.00  0.00     0.162 A 
HETATM   30  C   UNL     1      -7.201  -2.506 -34.348  1.00  0.00     0.016 A 
HETATM   31  C   UNL     1      -5.129  -1.513 -33.597  1.00  0.00     0.046 A 
HETATM   32  C   UNL     1      -6.460  -3.552 -34.909  1.00  0.00     0.001 A 
HETATM   33  C   UNL     1      -5.069  -3.568 -34.818  1.00  0.00     0.002 A 
HETATM   34  C   UNL     1      -4.376  -2.548 -34.161  1.00  0.00     0.030 A 
HETATM   35  N   UNL     1      -4.722  -0.402 -32.889  1.00  0.00    -0.338 N 
HETATM   36  H   UNL     1      -3.769  -0.167 -32.654  1.00  0.00     0.167 HD
HETATM   37  N   UNL     1      -5.771   1.452 -31.765  1.00  0.00    -0.201 NA
ENDBRANCH  23  24
ENDBRANCH  22  23
ENDBRANCH   1  22
TORSDOF 9
ENDMDL
MODEL 6
REMARK VINA RESULT:      -9.0      1.401      1.744
REMARK  9 active torsions:
REMARK  status: ('A' for Active; 'I' for Inactive)
REMARK    1  A    between atoms: C_11  and  S_12 
REMARK    2  A    between atoms: S_12  and  C_13 
REMARK    3  A    between atoms: C_13  and  C_14 
REMARK       I    between atoms: C_14  and  N_15 
REMARK    4  A    between atoms: N_15  and  N_16 
REMARK    5  A    between atoms: N_16  and  C_17 
REMARK    6  A    between atoms: C_17  and  N_18 
REMARK    7  A    between atoms: N_18  and  C_19 
REMARK    8  A    between atoms: C_22  and  O_23 
REMARK    9  A    between atoms: O_23  and  C_24 
ROOT
HETATM    1  C   UNL     1      -4.994   4.855 -33.564  1.00  0.00     0.245 C 
HETATM    2  N   UNL     1      -5.559   4.384 -32.385  1.00  0.00    -0.267 N 
HETATM    3  O   UNL     1      -5.484   4.634 -34.668  1.00  0.00    -0.271 OA
HETATM    4  H   UNL     1      -5.063   4.357 -31.500  1.00  0.00     0.190 HD
ENDROOT
BRANCH   2   5
HETATM    5  N   UNL     1      -6.801   3.744 -32.446  1.00  0.00    -0.274 N 
HETATM    6  H   UNL     1      -7.432   4.103 -33.154  1.00  0.00     0.189 HD
BRANCH   5   7
HETATM    7  C   UNL     1      -6.989   2.472 -31.963  1.00  0.00     0.191 C 
HETATM    8  S   UNL     1      -8.417   1.920 -31.281  1.00  0.00    -0.039 SA
BRANCH   7   9
HETATM    9  N   UNL     1      -5.987   1.565 -32.194  1.00  0.00    -0.332 N 
HETATM   10  H   UNL     1      -5.130   1.782 -31.696  1.00  0.00     0.168 HD
BRANCH   9  11
HETATM   11  C   UNL     1      -5.949   0.431 -33.029  1.00  0.00     0.034 A 
HETATM   12  C   UNL     1      -6.712   0.294 -34.189  1.00  0.00     0.032 A 
HETATM   13  C   UNL     1      -6.647  -0.883 -34.945  1.00  0.00     0.039 A 
HETATM   14  C   UNL     1      -5.800  -1.927 -34.571  1.00  0.00     0.078 A 
HETATM   15  C   UNL     1      -4.986  -1.766 -33.451  1.00  0.00     0.039 A 
HETATM   16  C   UNL     1      -5.054  -0.588 -32.693  1.00  0.00     0.032 A 
BRANCH  14  17
HETATM   17  O   UNL     1      -5.857  -3.022 -35.385  1.00  0.00    -0.255 OA
BRANCH  17  18
HETATM   18  C   UNL     1      -6.483  -4.188 -34.880  1.00  0.00     0.530 C 
HETATM   19  F   UNL     1      -5.615  -4.932 -34.161  1.00  0.00    -0.144 F 
HETATM   20  F   UNL     1      -7.553  -3.880 -34.116  1.00  0.00    -0.144 F 
HETATM   21  F   UNL     1      -6.914  -4.935 -35.921  1.00  0.00    -0.144 F 
ENDBRANCH  17  18
ENDBRANCH  14  17
ENDBRANCH   9  11
ENDBRANCH   7   9
ENDBRANCH   5   7
ENDBRANCH   2   5
BRANCH   1  22
HETATM   22  C   UNL     1      -3.764   5.714 -33.305  1.00  0.00     0.187 C 
BRANCH  22  23
HETATM   23  S   UNL     1      -2.240   4.776 -32.993  1.00  0.00    -0.079 SA
BRANCH  23  24
HETATM   24  C   UNL     1      -1.483   5.802 -31.747  1.00  0.00     0.211 A 
HETATM   25  N   UNL     1      -0.308   6.426 -32.051  1.00  0.00    -0.122 NA
HETATM   26  N   UNL     1       0.371   7.102 -31.119  1.00  0.00    -0.143 NA
HETATM   27  C   UNL     1      -0.184   7.133 -29.880  1.00  0.00     0.137 A 
HETATM   28  C   UNL     1       0.255   7.685 -28.648  1.00  0.00     0.025 A 
HETATM   29  C   UNL     1      -1.408   6.527 -29.660  1.00  0.00     0.162 A 
HETATM   30  C   UNL     1       1.408   8.382 -28.233  1.00  0.00     0.016 A 
HETATM   31  C   UNL     1      -0.741   7.412 -27.703  1.00  0.00     0.046 A 
HETATM   32  C   UNL     1       1.523   8.779 -26.896  1.00  0.00     0.001 A 
HETATM   33  C   UNL     1       0.511   8.497 -25.979  1.00  0.00     0.002 A 
HETATM   34  C   UNL     1      -0.642   7.809 -26.365  1.00  0.00     0.030 A 
HETATM   35  N   UNL     1      -1.740   6.717 -28.351  1.00  0.00    -0.338 N 
HETATM   36  H   UNL     1      -2.588   6.368 -27.928  1.00  0.00     0.167 HD
HETATM   37  N   UNL     1      -2.133   5.851 -30.564  1.00  0.00    -0.201 NA
ENDBRANCH  23  24
ENDBRANCH  22  23
ENDBRANCH   1  22
TORSDOF 9
ENDMDL
MODEL 7
REMARK VINA RESULT:      -8.9      4.468      9.280
REMARK  9 active torsions:
REMARK  status: ('A' for Active; 'I' for Inactive)
REMARK    1  A    between atoms: C_11  and  S_12 
REMARK    2  A    between atoms: S_12  and  C_13 
REMARK    3  A    between atoms: C_13  and  C_14 
REMARK       I    between atoms: C_14  and  N_15 
REMARK    4  A    between atoms: N_15  and  N_16 
REMARK    5  A    between atoms: N_16  and  C_17 
REMARK    6  A    between atoms: C_17  and  N_18 
REMARK    7  A    between atoms: N_18  and  C_19 
REMARK    8  A    between atoms: C_22  and  O_23 
REMARK    9  A    between atoms: O_23  and  C_24 
ROOT
HETATM    1  C   UNL     1      -5.217   6.052 -29.319  1.00  0.00     0.245 C 
HETATM    2  N   UNL     1      -4.060   6.124 -28.552  1.00  0.00    -0.267 N 
HETATM    3  O   UNL     1      -6.031   6.969 -29.377  1.00  0.00    -0.271 OA
HETATM    4  H   UNL     1      -3.499   5.312 -28.310  1.00  0.00     0.190 HD
ENDROOT
BRANCH   2   5
HETATM    5  N   UNL     1      -3.746   7.334 -27.924  1.00  0.00    -0.274 N 
HETATM    6  H   UNL     1      -4.482   7.714 -27.339  1.00  0.00     0.189 HD
BRANCH   5   7
HETATM    7  C   UNL     1      -2.448   7.728 -27.711  1.00  0.00     0.191 C 
HETATM    8  S   UNL     1      -1.523   7.262 -26.393  1.00  0.00    -0.039 SA
BRANCH   7   9
HETATM    9  N   UNL     1      -1.837   8.425 -28.720  1.00  0.00    -0.332 N 
HETATM   10  H   UNL     1      -1.547   9.358 -28.442  1.00  0.00     0.168 HD
BRANCH   9  11
HETATM   11  C   UNL     1      -1.592   8.074 -30.062  1.00  0.00     0.034 A 
HETATM   12  C   UNL     1      -2.361   8.523 -31.136  1.00  0.00     0.032 A 
HETATM   13  C   UNL     1      -2.077   8.098 -32.438  1.00  0.00     0.039 A 
HETATM   14  C   UNL     1      -1.004   7.242 -32.693  1.00  0.00     0.078 A 
HETATM   15  C   UNL     1      -0.192   6.846 -31.631  1.00  0.00     0.039 A 
HETATM   16  C   UNL     1      -0.479   7.270 -30.326  1.00  0.00     0.032 A 
BRANCH  14  17
HETATM   17  O   UNL     1      -0.860   6.889 -34.004  1.00  0.00    -0.255 OA
BRANCH  17  18
HETATM   18  C   UNL     1      -1.476   5.689 -34.437  1.00  0.00     0.530 C 
HETATM   19  F   UNL     1      -1.434   4.746 -33.472  1.00  0.00    -0.144 F 
HETATM   20  F   UNL     1      -2.758   5.902 -34.805  1.00  0.00    -0.144 F 
HETATM   21  F   UNL     1      -0.805   5.221 -35.513  1.00  0.00    -0.144 F 
ENDBRANCH  17  18
ENDBRANCH  14  17
ENDBRANCH   9  11
ENDBRANCH   7   9
ENDBRANCH   5   7
ENDBRANCH   2   5
BRANCH   1  22
HETATM   22  C   UNL     1      -5.300   4.752 -30.107  1.00  0.00     0.187 C 
BRANCH  22  23
HETATM   23  S   UNL     1      -4.125   4.629 -31.486  1.00  0.00    -0.079 SA
BRANCH  23  24
HETATM   24  C   UNL     1      -4.324   2.912 -31.924  1.00  0.00     0.211 A 
HETATM   25  N   UNL     1      -3.291   2.057 -31.665  1.00  0.00    -0.122 NA
HETATM   26  N   UNL     1      -3.330   0.789 -32.085  1.00  0.00    -0.143 NA
HETATM   27  C   UNL     1      -4.448   0.417 -32.761  1.00  0.00     0.137 A 
HETATM   28  C   UNL     1      -4.822  -0.795 -33.398  1.00  0.00     0.025 A 
HETATM   29  C   UNL     1      -5.479   1.322 -32.935  1.00  0.00     0.162 A 
HETATM   30  C   UNL     1      -4.198  -2.045 -33.588  1.00  0.00     0.016 A 
HETATM   31  C   UNL     1      -6.101  -0.595 -33.931  1.00  0.00     0.046 A 
HETATM   32  C   UNL     1      -4.871  -3.045 -34.300  1.00  0.00     0.001 A 
HETATM   33  C   UNL     1      -6.147  -2.817 -34.814  1.00  0.00     0.002 A 
HETATM   34  C   UNL     1      -6.788  -1.588 -34.638  1.00  0.00     0.030 A 
HETATM   35  N   UNL     1      -6.475   0.695 -33.623  1.00  0.00    -0.338 N 
HETATM   36  H   UNL     1      -7.343   1.138 -33.887  1.00  0.00     0.167 HD
HETATM   37  N   UNL     1      -5.494   2.598 -32.519  1.00  0.00    -0.201 NA
ENDBRANCH  23  24
ENDBRANCH  22  23
ENDBRANCH   1  22
TORSDOF 9
ENDMDL
MODEL 8
REMARK VINA RESULT:      -8.9      2.456      3.350
REMARK  9 active torsions:
REMARK  status: ('A' for Active; 'I' for Inactive)
REMARK    1  A    between atoms: C_11  and  S_12 
REMARK    2  A    between atoms: S_12  and  C_13 
REMARK    3  A    between atoms: C_13  and  C_14 
REMARK       I    between atoms: C_14  and  N_15 
REMARK    4  A    between atoms: N_15  and  N_16 
REMARK    5  A    between atoms: N_16  and  C_17 
REMARK    6  A    between atoms: C_17  and  N_18 
REMARK    7  A    between atoms: N_18  and  C_19 
REMARK    8  A    between atoms: C_22  and  O_23 
REMARK    9  A    between atoms: O_23  and  C_24 
ROOT
HETATM    1  C   UNL     1      -6.327   2.110 -30.224  1.00  0.00     0.245 C 
HETATM    2  N   UNL     1      -7.643   2.137 -30.670  1.00  0.00    -0.267 N 
HETATM    3  O   UNL     1      -5.733   1.065 -29.975  1.00  0.00    -0.271 OA
HETATM    4  H   UNL     1      -8.218   2.975 -30.663  1.00  0.00     0.190 HD
ENDROOT
BRANCH   2   5
HETATM    5  N   UNL     1      -8.275   0.925 -30.969  1.00  0.00    -0.274 N 
HETATM    6  H   UNL     1      -8.810   0.524 -30.206  1.00  0.00     0.189 HD
BRANCH   5   7
HETATM    7  C   UNL     1      -8.561   0.552 -32.259  1.00  0.00     0.191 C 
HETATM    8  S   UNL     1     -10.108   0.277 -32.843  1.00  0.00    -0.039 SA
BRANCH   7   9
HETATM    9  N   UNL     1      -7.520   0.552 -33.151  1.00  0.00    -0.332 N 
HETATM   10  H   UNL     1      -7.448   1.415 -33.680  1.00  0.00     0.168 HD
BRANCH   9  11
HETATM   11  C   UNL     1      -6.584  -0.452 -33.470  1.00  0.00     0.034 A 
HETATM   12  C   UNL     1      -5.245  -0.419 -33.076  1.00  0.00     0.032 A 
HETATM   13  C   UNL     1      -4.368  -1.437 -33.466  1.00  0.00     0.039 A 
HETATM   14  C   UNL     1      -4.817  -2.517 -34.229  1.00  0.00     0.078 A 
HETATM   15  C   UNL     1      -6.168  -2.586 -34.566  1.00  0.00     0.039 A 
HETATM   16  C   UNL     1      -7.046  -1.565 -34.178  1.00  0.00     0.032 A 
BRANCH  14  17
HETATM   17  O   UNL     1      -3.848  -3.420 -34.558  1.00  0.00    -0.255 OA
BRANCH  17  18
HETATM   18  C   UNL     1      -3.695  -4.557 -33.726  1.00  0.00     0.530 C 
HETATM   19  F   UNL     1      -4.820  -5.303 -33.714  1.00  0.00    -0.144 F 
HETATM   20  F   UNL     1      -2.653  -5.318 -34.123  1.00  0.00    -0.144 F 
HETATM   21  F   UNL     1      -3.452  -4.141 -32.463  1.00  0.00    -0.144 F 
ENDBRANCH  17  18
ENDBRANCH  14  17
ENDBRANCH   9  11
ENDBRANCH   7   9
ENDBRANCH   5   7
ENDBRANCH   2   5
BRANCH   1  22
HETATM   22  C   UNL     1      -5.718   3.504 -30.157  1.00  0.00     0.187 C 
BRANCH  22  23
HETATM   23  S   UNL     1      -5.052   4.114 -31.732  1.00  0.00    -0.079 SA
BRANCH  23  24
HETATM   24  C   UNL     1      -3.691   5.103 -31.142  1.00  0.00     0.211 A 
HETATM   25  N   UNL     1      -2.426   4.748 -31.515  1.00  0.00    -0.122 NA
HETATM   26  N   UNL     1      -1.360   5.371 -31.002  1.00  0.00    -0.143 NA
HETATM   27  C   UNL     1      -1.618   6.365 -30.114  1.00  0.00     0.137 A 
HETATM   28  C   UNL     1      -0.771   7.195 -29.334  1.00  0.00     0.025 A 
HETATM   29  C   UNL     1      -2.927   6.709 -29.828  1.00  0.00     0.162 A 
HETATM   30  C   UNL     1       0.625   7.303 -29.166  1.00  0.00     0.016 A 
HETATM   31  C   UNL     1      -1.604   8.049 -28.599  1.00  0.00     0.046 A 
HETATM   32  C   UNL     1       1.135   8.253 -28.275  1.00  0.00     0.001 A 
HETATM   33  C   UNL     1       0.281   9.093 -27.561  1.00  0.00     0.002 A 
HETATM   34  C   UNL     1      -1.106   9.008 -27.711  1.00  0.00     0.030 A 
HETATM   35  N   UNL     1      -2.905   7.735 -28.930  1.00  0.00    -0.338 N 
HETATM   36  H   UNL     1      -3.733   8.170 -28.551  1.00  0.00     0.167 HD
HETATM   37  N   UNL     1      -4.028   6.126 -30.327  1.00  0.00    -0.201 NA
ENDBRANCH  23  24
ENDBRANCH  22  23
ENDBRANCH   1  22
TORSDOF 9
ENDMDL
MODEL 9
REMARK VINA RESULT:      -8.8      3.273      6.156
REMARK  9 active torsions:
REMARK  status: ('A' for Active; 'I' for Inactive)
REMARK    1  A    between atoms: C_11  and  S_12 
REMARK    2  A    between atoms: S_12  and  C_13 
REMARK    3  A    between atoms: C_13  and  C_14 
REMARK       I    between atoms: C_14  and  N_15 
REMARK    4  A    between atoms: N_15  and  N_16 
REMARK    5  A    between atoms: N_16  and  C_17 
REMARK    6  A    between atoms: C_17  and  N_18 
REMARK    7  A    between atoms: N_18  and  C_19 
REMARK    8  A    between atoms: C_22  and  O_23 
REMARK    9  A    between atoms: O_23  and  C_24 
ROOT
HETATM    1  C   UNL     1      -2.758   4.105 -32.178  1.00  0.00     0.245 C 
HETATM    2  N   UNL     1      -3.177   2.782 -32.109  1.00  0.00    -0.267 N 
HETATM    3  O   UNL     1      -2.791   4.862 -31.211  1.00  0.00    -0.271 OA
HETATM    4  H   UNL     1      -3.371   2.215 -32.928  1.00  0.00     0.190 HD
ENDROOT
BRANCH   2   5
HETATM    5  N   UNL     1      -3.530   2.255 -30.862  1.00  0.00    -0.274 N 
HETATM    6  H   UNL     1      -3.112   2.725 -30.067  1.00  0.00     0.189 HD
BRANCH   5   7
HETATM    7  C   UNL     1      -4.675   1.518 -30.682  1.00  0.00     0.191 C 
HETATM    8  S   UNL     1      -6.193   2.179 -30.421  1.00  0.00    -0.039 SA
BRANCH   7   9
HETATM    9  N   UNL     1      -4.580   0.165 -30.876  1.00  0.00    -0.332 N 
HETATM   10  H   UNL     1      -4.202  -0.328 -30.073  1.00  0.00     0.168 HD
BRANCH   9  11
HETATM   11  C   UNL     1      -4.879  -0.624 -32.004  1.00  0.00     0.034 A 
HETATM   12  C   UNL     1      -5.980  -0.408 -32.834  1.00  0.00     0.032 A 
HETATM   13  C   UNL     1      -6.231  -1.260 -33.915  1.00  0.00     0.039 A 
HETATM   14  C   UNL     1      -5.373  -2.323 -34.202  1.00  0.00     0.078 A 
HETATM   15  C   UNL     1      -4.236  -2.501 -33.416  1.00  0.00     0.039 A 
HETATM   16  C   UNL     1      -3.986  -1.648 -32.331  1.00  0.00     0.032 A 
BRANCH  14  17
HETATM   17  O   UNL     1      -5.753  -3.086 -35.268  1.00  0.00    -0.255 OA
BRANCH  17  18
HETATM   18  C   UNL     1      -6.362  -4.338 -35.002  1.00  0.00     0.530 C 
HETATM   19  F   UNL     1      -6.936  -4.844 -36.113  1.00  0.00    -0.144 F 
HETATM   20  F   UNL     1      -5.468  -5.223 -34.512  1.00  0.00    -0.144 F 
HETATM   21  F   UNL     1      -7.328  -4.161 -34.073  1.00  0.00    -0.144 F 
ENDBRANCH  17  18
ENDBRANCH  14  17
ENDBRANCH   9  11
ENDBRANCH   7   9
ENDBRANCH   5   7
ENDBRANCH   2   5
BRANCH   1  22
HETATM   22  C   UNL     1      -2.203   4.458 -33.551  1.00  0.00     0.187 C 
BRANCH  22  23
HETATM   23  S   UNL     1      -3.109   5.773 -34.416  1.00  0.00    -0.079 SA
BRANCH  23  24
HETATM   24  C   UNL     1      -4.788   5.263 -34.103  1.00  0.00     0.211 A 
HETATM   25  N   UNL     1      -5.601   6.113 -33.408  1.00  0.00    -0.122 NA
HETATM   26  N   UNL     1      -6.826   5.734 -33.032  1.00  0.00    -0.143 NA
HETATM   27  C   UNL     1      -7.201   4.480 -33.391  1.00  0.00     0.137 A 
HETATM   28  C   UNL     1      -8.371   3.720 -33.131  1.00  0.00     0.025 A 
HETATM   29  C   UNL     1      -6.347   3.697 -34.146  1.00  0.00     0.162 A 
HETATM   30  C   UNL     1      -9.561   3.951 -32.410  1.00  0.00     0.016 A 
HETATM   31  C   UNL     1      -8.200   2.482 -33.764  1.00  0.00     0.046 A 
HETATM   32  C   UNL     1     -10.530   2.943 -32.347  1.00  0.00     0.001 A 
HETATM   33  C   UNL     1     -10.333   1.724 -32.993  1.00  0.00     0.002 A 
HETATM   34  C   UNL     1      -9.165   1.470 -33.716  1.00  0.00     0.030 A 
HETATM   35  N   UNL     1      -6.967   2.505 -34.379  1.00  0.00    -0.338 N 
HETATM   36  H   UNL     1      -6.554   1.748 -34.905  1.00  0.00     0.167 HD
HETATM   37  N   UNL     1      -5.117   4.036 -34.560  1.00  0.00    -0.201 NA
ENDBRANCH  23  24
ENDBRANCH  22  23
ENDBRANCH   1  22
TORSDOF 9
ENDMDL
MODEL 10
REMARK VINA RESULT:      -8.8      2.723      3.649
REMARK  9 active torsions:
REMARK  status: ('A' for Active; 'I' for Inactive)
REMARK    1  A    between atoms: C_11  and  S_12 
REMARK    2  A    between atoms: S_12  and  C_13 
REMARK    3  A    between atoms: C_13  and  C_14 
REMARK       I    between atoms: C_14  and  N_15 
REMARK    4  A    between atoms: N_15  and  N_16 
REMARK    5  A    between atoms: N_16  and  C_17 
REMARK    6  A    between atoms: C_17  and  N_18 
REMARK    7  A    between atoms: N_18  and  C_19 
REMARK    8  A    between atoms: C_22  and  O_23 
REMARK    9  A    between atoms: O_23  and  C_24 
ROOT
HETATM    1  C   UNL     1      -7.799   3.414 -29.995  1.00  0.00     0.245 C 
HETATM    2  N   UNL     1      -9.107   2.996 -30.210  1.00  0.00    -0.267 N 
HETATM    3  O   UNL     1      -6.827   2.722 -30.283  1.00  0.00    -0.271 OA
HETATM    4  H   UNL     1      -9.913   3.440 -29.779  1.00  0.00     0.190 HD
ENDROOT
BRANCH   2   5
HETATM    5  N   UNL     1      -9.323   1.797 -30.897  1.00  0.00    -0.274 N 
HETATM    6  H   UNL     1      -9.812   1.084 -30.367  1.00  0.00     0.189 HD
BRANCH   5   7
HETATM    7  C   UNL     1      -9.327   1.735 -32.268  1.00  0.00     0.191 C 
HETATM    8  S   UNL     1     -10.678   2.005 -33.224  1.00  0.00    -0.039 SA
BRANCH   7   9
HETATM    9  N   UNL     1      -8.113   1.588 -32.888  1.00  0.00    -0.332 N 
HETATM   10  H   UNL     1      -7.639   2.471 -33.051  1.00  0.00     0.168 HD
BRANCH   9  11
HETATM   11  C   UNL     1      -7.456   0.435 -33.358  1.00  0.00     0.034 A 
HETATM   12  C   UNL     1      -6.609  -0.352 -32.575  1.00  0.00     0.032 A 
HETATM   13  C   UNL     1      -5.962  -1.463 -33.128  1.00  0.00     0.039 A 
HETATM   14  C   UNL     1      -6.172  -1.823 -34.461  1.00  0.00     0.078 A 
HETATM   15  C   UNL     1      -7.069  -1.080 -35.226  1.00  0.00     0.039 A 
HETATM   16  C   UNL     1      -7.715   0.035 -34.672  1.00  0.00     0.032 A 
BRANCH  14  17
HETATM   17  O   UNL     1      -5.457  -2.911 -34.872  1.00  0.00    -0.255 OA
BRANCH  17  18
HETATM   18  C   UNL     1      -6.100  -4.174 -34.841  1.00  0.00     0.530 C 
HETATM   19  F   UNL     1      -5.379  -5.067 -34.130  1.00  0.00    -0.144 F 
HETATM   20  F   UNL     1      -7.342  -4.079 -34.320  1.00  0.00    -0.144 F 
HETATM   21  F   UNL     1      -6.210  -4.635 -36.107  1.00  0.00    -0.144 F 
ENDBRANCH  17  18
ENDBRANCH  14  17
ENDBRANCH   9  11
ENDBRANCH   7   9
ENDBRANCH   5   7
ENDBRANCH   2   5
BRANCH   1  22
HETATM   22  C   UNL     1      -7.736   4.830 -29.437  1.00  0.00     0.187 C 
BRANCH  22  23
HETATM   23  S   UNL     1      -7.785   6.140 -30.694  1.00  0.00    -0.079 SA
BRANCH  23  24
HETATM   24  C   UNL     1      -6.043   6.468 -30.881  1.00  0.00     0.211 A 
HETATM   25  N   UNL     1      -5.535   6.553 -32.146  1.00  0.00    -0.122 NA
HETATM   26  N   UNL     1      -4.219   6.669 -32.350  1.00  0.00    -0.143 NA
HETATM   27  C   UNL     1      -3.443   6.707 -31.236  1.00  0.00     0.137 A 
HETATM   28  C   UNL     1      -2.037   6.764 -31.052  1.00  0.00     0.025 A 
HETATM   29  C   UNL     1      -4.033   6.675 -29.985  1.00  0.00     0.162 A 
HETATM   30  C   UNL     1      -0.926   6.787 -31.920  1.00  0.00     0.016 A 
HETATM   31  C   UNL     1      -1.809   6.786 -29.670  1.00  0.00     0.046 A 
HETATM   32  C   UNL     1       0.364   6.830 -31.379  1.00  0.00     0.001 A 
HETATM   33  C   UNL     1       0.558   6.858 -29.999  1.00  0.00     0.002 A 
HETATM   34  C   UNL     1      -0.525   6.838 -29.117  1.00  0.00     0.030 A 
HETATM   35  N   UNL     1      -3.041   6.742 -29.052  1.00  0.00    -0.338 N 
HETATM   36  H   UNL     1      -3.203   6.731 -28.056  1.00  0.00     0.167 HD
HETATM   37  N   UNL     1      -5.346   6.575 -29.730  1.00  0.00    -0.201 NA
ENDBRANCH  23  24
ENDBRANCH  22  23
ENDBRANCH   1  22
TORSDOF 9
ENDMDL
