MODEL 1
REMARK VINA RESULT:      -8.8      0.000      0.000
REMARK  5 active torsions:
REMARK  status: ('A' for Active; 'I' for Inactive)
REMARK    1  A    between atoms: N_3  and  C_4 
REMARK    2  A    between atoms: C_7  and  C_8 
REMARK       I    between atoms: C_8  and  N_9 
REMARK    3  A    between atoms: N_9  and  C_10 
REMARK    4  A    between atoms: C_11  and  N_12 
REMARK    5  A    between atoms: C_15  and  O_16 
ROOT
HETATM    1  C   UNL     1      -4.836   0.793 -32.198  1.00  0.00     0.256 C 
HETATM    2  N   UNL     1      -4.972   0.283 -33.464  1.00  0.00    -0.321 N 
HETATM    3  O   UNL     1      -5.066   0.253 -31.125  1.00  0.00    -0.267 OA
HETATM    4  H   UNL     1      -4.719   0.863 -34.261  1.00  0.00     0.169 HD
ENDROOT
BRANCH   2   5
HETATM    5  C   UNL     1      -5.393  -1.003 -33.858  1.00  0.00     0.056 A 
HETATM    6  C   UNL     1      -6.797  -1.183 -33.976  1.00  0.00     0.037 A 
HETATM    7  C   UNL     1      -7.278  -2.430 -34.400  1.00  0.00     0.026 A 
HETATM    8  C   UNL     1      -6.393  -3.471 -34.696  1.00  0.00     0.002 A 
HETATM    9  C   UNL     1      -5.020  -3.282 -34.567  1.00  0.00     0.002 A 
HETATM   10  C   UNL     1      -4.517  -2.049 -34.147  1.00  0.00     0.031 A 
BRANCH   6  11
HETATM   11  N   UNL     1      -7.651  -0.098 -33.622  1.00  0.00    -0.281 NA
HETATM   12  C   UNL     1      -8.396  -0.413 -32.386  1.00  0.00     0.098 C 
HETATM   13  C   UNL     1      -9.039   0.874 -31.866  1.00  0.00     0.046 C 
HETATM   14  C   UNL     1      -9.921   1.528 -32.928  1.00  0.00     0.120 C 
HETATM   15  C   UNL     1      -9.185   1.690 -34.257  1.00  0.00     0.046 C 
HETATM   16  C   UNL     1      -8.539   0.378 -34.699  1.00  0.00     0.098 C 
BRANCH  14  17
HETATM   17  O   UNL     1     -11.093   0.739 -33.137  1.00  0.00    -0.395 OA
HETATM   18  H   UNL     1     -11.798   1.108 -32.577  1.00  0.00     0.210 HD
ENDBRANCH  14  17
ENDBRANCH   6  11
ENDBRANCH   2   5
BRANCH   1  19
HETATM   19  C   UNL     1      -4.331   2.178 -32.199  1.00  0.00     0.032 A 
HETATM   20  C   UNL     1      -3.162   2.473 -31.499  1.00  0.00     0.019 A 
HETATM   21  C   UNL     1      -2.652   3.772 -31.532  1.00  0.00     0.031 A 
HETATM   22  C   UNL     1      -3.311   4.774 -32.263  1.00  0.00     0.039 A 
HETATM   23  C   UNL     1      -4.494   4.466 -32.953  1.00  0.00     0.031 A 
HETATM   24  C   UNL     1      -5.004   3.164 -32.923  1.00  0.00     0.019 A 
BRANCH  22  25
HETATM   25  N   UNL     1      -2.774   6.098 -32.295  1.00  0.00    -0.320 N 
HETATM   26  C   UNL     1      -1.843   6.582 -33.218  1.00  0.00     0.013 A 
HETATM   27  C   UNL     1      -1.363   5.839 -34.420  1.00  0.00     0.068 C 
HETATM   28  C   UNL     1      -1.524   7.881 -32.873  1.00  0.00     0.027 A 
HETATM   29  C   UNL     1      -2.302   8.232 -31.760  1.00  0.00     0.027 A 
HETATM   30  C   UNL     1      -3.074   7.139 -31.415  1.00  0.00     0.013 A 
HETATM   31  C   UNL     1      -3.988   7.038 -30.241  1.00  0.00     0.068 C 
ENDBRANCH  22  25
ENDBRANCH   1  19
TORSDOF 5
ENDMDL
MODEL 2
REMARK VINA RESULT:      -8.5      2.421      8.508
REMARK  5 active torsions:
REMARK  status: ('A' for Active; 'I' for Inactive)
REMARK    1  A    between atoms: N_3  and  C_4 
REMARK    2  A    between atoms: C_7  and  C_8 
REMARK       I    between atoms: C_8  and  N_9 
REMARK    3  A    between atoms: N_9  and  C_10 
REMARK    4  A    between atoms: C_11  and  N_12 
REMARK    5  A    between atoms: C_15  and  O_16 
ROOT
HETATM    1  C   UNL     1      -5.957   3.162 -30.195  1.00  0.00     0.256 C 
HETATM    2  N   UNL     1      -4.925   4.062 -30.278  1.00  0.00    -0.321 N 
HETATM    3  O   UNL     1      -7.013   3.259 -29.588  1.00  0.00    -0.267 OA
HETATM    4  H   UNL     1      -4.113   3.834 -30.846  1.00  0.00     0.169 HD
ENDROOT
BRANCH   2   5
HETATM    5  C   UNL     1      -4.825   5.344 -29.700  1.00  0.00     0.056 A 
HETATM    6  C   UNL     1      -4.004   6.271 -30.397  1.00  0.00     0.037 A 
HETATM    7  C   UNL     1      -3.893   7.574 -29.893  1.00  0.00     0.026 A 
HETATM    8  C   UNL     1      -4.573   7.950 -28.730  1.00  0.00     0.002 A 
HETATM    9  C   UNL     1      -5.368   7.027 -28.055  1.00  0.00     0.002 A 
HETATM   10  C   UNL     1      -5.494   5.723 -28.536  1.00  0.00     0.031 A 
BRANCH   6  11
HETATM   11  N   UNL     1      -3.304   5.820 -31.553  1.00  0.00    -0.281 NA
HETATM   12  C   UNL     1      -1.853   6.057 -31.400  1.00  0.00     0.098 C 
HETATM   13  C   UNL     1      -1.117   5.278 -32.491  1.00  0.00     0.046 C 
HETATM   14  C   UNL     1      -1.625   5.650 -33.884  1.00  0.00     0.120 C 
HETATM   15  C   UNL     1      -3.148   5.563 -33.974  1.00  0.00     0.046 C 
HETATM   16  C   UNL     1      -3.817   6.333 -32.836  1.00  0.00     0.098 C 
BRANCH  14  17
HETATM   17  O   UNL     1      -1.212   6.976 -34.212  1.00  0.00    -0.395 OA
HETATM   18  H   UNL     1      -2.015   7.510 -34.339  1.00  0.00     0.210 HD
ENDBRANCH  14  17
ENDBRANCH   6  11
ENDBRANCH   2   5
BRANCH   1  19
HETATM   19  C   UNL     1      -5.699   1.937 -30.976  1.00  0.00     0.032 A 
HETATM   20  C   UNL     1      -6.372   0.764 -30.637  1.00  0.00     0.019 A 
HETATM   21  C   UNL     1      -6.168  -0.388 -31.399  1.00  0.00     0.031 A 
HETATM   22  C   UNL     1      -5.291  -0.367 -32.496  1.00  0.00     0.039 A 
HETATM   23  C   UNL     1      -4.611   0.818 -32.817  1.00  0.00     0.031 A 
HETATM   24  C   UNL     1      -4.817   1.973 -32.057  1.00  0.00     0.019 A 
BRANCH  22  25
HETATM   25  N   UNL     1      -5.098  -1.550 -33.272  1.00  0.00    -0.320 N 
HETATM   26  C   UNL     1      -4.084  -2.495 -33.088  1.00  0.00     0.013 A 
HETATM   27  C   UNL     1      -3.118  -2.502 -31.950  1.00  0.00     0.068 C 
HETATM   28  C   UNL     1      -4.195  -3.451 -34.077  1.00  0.00     0.027 A 
HETATM   29  C   UNL     1      -5.320  -3.136 -34.854  1.00  0.00     0.027 A 
HETATM   30  C   UNL     1      -5.875  -1.975 -34.351  1.00  0.00     0.013 A 
HETATM   31  C   UNL     1      -7.036  -1.232 -34.921  1.00  0.00     0.068 C 
ENDBRANCH  22  25
ENDBRANCH   1  19
TORSDOF 5
ENDMDL
MODEL 3
REMARK VINA RESULT:      -8.2      2.559      8.587
REMARK  5 active torsions:
REMARK  status: ('A' for Active; 'I' for Inactive)
REMARK    1  A    between atoms: N_3  and  C_4 
REMARK    2  A    between atoms: C_7  and  C_8 
REMARK       I    between atoms: C_8  and  N_9 
REMARK    3  A    between atoms: N_9  and  C_10 
REMARK    4  A    between atoms: C_11  and  N_12 
REMARK    5  A    between atoms: C_15  and  O_16 
ROOT
HETATM    1  C   UNL     1      -6.193   3.836 -30.190  1.00  0.00     0.256 C 
HETATM    2  N   UNL     1      -5.027   4.488 -29.880  1.00  0.00    -0.321 N 
HETATM    3  O   UNL     1      -7.341   4.139 -29.901  1.00  0.00    -0.267 OA
HETATM    4  H   UNL     1      -4.144   4.110 -30.214  1.00  0.00     0.169 HD
ENDROOT
BRANCH   2   5
HETATM    5  C   UNL     1      -4.851   5.691 -29.165  1.00  0.00     0.056 A 
HETATM    6  C   UNL     1      -4.003   6.653 -29.776  1.00  0.00     0.037 A 
HETATM    7  C   UNL     1      -3.817   7.884 -29.132  1.00  0.00     0.026 A 
HETATM    8  C   UNL     1      -4.451   8.156 -27.917  1.00  0.00     0.002 A 
HETATM    9  C   UNL     1      -5.275   7.200 -27.327  1.00  0.00     0.002 A 
HETATM   10  C   UNL     1      -5.474   5.966 -27.948  1.00  0.00     0.031 A 
BRANCH   6  11
HETATM   11  N   UNL     1      -3.351   6.304 -30.995  1.00  0.00    -0.281 NA
HETATM   12  C   UNL     1      -1.942   6.745 -30.969  1.00  0.00     0.098 C 
HETATM   13  C   UNL     1      -1.202   6.077 -32.129  1.00  0.00     0.046 C 
HETATM   14  C   UNL     1      -1.880   6.370 -33.467  1.00  0.00     0.120 C 
HETATM   15  C   UNL     1      -3.377   6.067 -33.423  1.00  0.00     0.046 C 
HETATM   16  C   UNL     1      -4.045   6.736 -32.222  1.00  0.00     0.098 C 
BRANCH  14  17
HETATM   17  O   UNL     1      -1.691   7.741 -33.816  1.00  0.00    -0.395 OA
HETATM   18  H   UNL     1      -1.203   7.764 -34.658  1.00  0.00     0.210 HD
ENDBRANCH  14  17
ENDBRANCH   6  11
ENDBRANCH   2   5
BRANCH   1  19
HETATM   19  C   UNL     1      -5.962   2.619 -30.989  1.00  0.00     0.032 A 
HETATM   20  C   UNL     1      -6.693   1.467 -30.697  1.00  0.00     0.019 A 
HETATM   21  C   UNL     1      -6.513   0.325 -31.479  1.00  0.00     0.031 A 
HETATM   22  C   UNL     1      -5.604   0.333 -32.549  1.00  0.00     0.039 A 
HETATM   23  C   UNL     1      -4.866   1.495 -32.823  1.00  0.00     0.031 A 
HETATM   24  C   UNL     1      -5.047   2.641 -32.044  1.00  0.00     0.019 A 
BRANCH  22  25
HETATM   25  N   UNL     1      -5.436  -0.841 -33.345  1.00  0.00    -0.320 N 
HETATM   26  C   UNL     1      -6.252  -1.234 -34.409  1.00  0.00     0.013 A 
HETATM   27  C   UNL     1      -7.354  -0.413 -34.989  1.00  0.00     0.068 C 
HETATM   28  C   UNL     1      -5.804  -2.454 -34.874  1.00  0.00     0.027 A 
HETATM   29  C   UNL     1      -4.664  -2.803 -34.134  1.00  0.00     0.027 A 
HETATM   30  C   UNL     1      -4.437  -1.806 -33.204  1.00  0.00     0.013 A 
HETATM   31  C   UNL     1      -3.379  -1.804 -32.152  1.00  0.00     0.068 C 
ENDBRANCH  22  25
ENDBRANCH   1  19
TORSDOF 5
ENDMDL
MODEL 4
REMARK VINA RESULT:      -7.8      3.742      7.688
REMARK  5 active torsions:
REMARK  status: ('A' for Active; 'I' for Inactive)
REMARK    1  A    between atoms: N_3  and  C_4 
REMARK    2  A    between atoms: C_7  and  C_8 
REMARK       I    between atoms: C_8  and  N_9 
REMARK    3  A    between atoms: N_9  and  C_10 
REMARK    4  A    between atoms: C_11  and  N_12 
REMARK    5  A    between atoms: C_15  and  O_16 
ROOT
HETATM    1  C   UNL     1      -9.907   0.625 -33.222  1.00  0.00     0.256 C 
HETATM    2  N   UNL     1      -8.688   0.943 -33.764  1.00  0.00    -0.321 N 
HETATM    3  O   UNL     1     -10.271  -0.427 -32.717  1.00  0.00    -0.267 OA
HETATM    4  H   UNL     1      -8.539   1.880 -34.132  1.00  0.00     0.169 HD
ENDROOT
BRANCH   2   5
HETATM    5  C   UNL     1      -7.530   0.144 -33.862  1.00  0.00     0.056 A 
HETATM    6  C   UNL     1      -6.449   0.520 -33.019  1.00  0.00     0.037 A 
HETATM    7  C   UNL     1      -5.283  -0.256 -33.043  1.00  0.00     0.026 A 
HETATM    8  C   UNL     1      -5.186  -1.373 -33.878  1.00  0.00     0.002 A 
HETATM    9  C   UNL     1      -6.252  -1.724 -34.704  1.00  0.00     0.002 A 
HETATM   10  C   UNL     1      -7.423  -0.966 -34.699  1.00  0.00     0.031 A 
BRANCH   6  11
HETATM   11  N   UNL     1      -6.590   1.692 -32.219  1.00  0.00    -0.281 NA
HETATM   12  C   UNL     1      -5.348   2.490 -32.254  1.00  0.00     0.098 C 
HETATM   13  C   UNL     1      -5.643   3.872 -31.667  1.00  0.00     0.046 C 
HETATM   14  C   UNL     1      -6.230   3.768 -30.260  1.00  0.00     0.120 C 
HETATM   15  C   UNL     1      -7.413   2.802 -30.208  1.00  0.00     0.046 C 
HETATM   16  C   UNL     1      -7.060   1.456 -30.841  1.00  0.00     0.098 C 
BRANCH  14  17
HETATM   17  O   UNL     1      -5.225   3.326 -29.347  1.00  0.00    -0.395 OA
HETATM   18  H   UNL     1      -5.221   2.354 -29.364  1.00  0.00     0.210 HD
ENDBRANCH  14  17
ENDBRANCH   6  11
ENDBRANCH   2   5
BRANCH   1  19
HETATM   19  C   UNL     1     -10.858   1.750 -33.275  1.00  0.00     0.032 A 
HETATM   20  C   UNL     1     -10.503   2.967 -32.695  1.00  0.00     0.019 A 
HETATM   21  C   UNL     1     -11.378   4.050 -32.782  1.00  0.00     0.031 A 
HETATM   22  C   UNL     1     -12.609   3.916 -33.446  1.00  0.00     0.039 A 
HETATM   23  C   UNL     1     -12.959   2.682 -34.014  1.00  0.00     0.031 A 
HETATM   24  C   UNL     1     -12.082   1.597 -33.931  1.00  0.00     0.019 A 
BRANCH  22  25
HETATM   25  N   UNL     1     -13.492   5.035 -33.533  1.00  0.00    -0.320 N 
HETATM   26  C   UNL     1     -14.511   5.348 -32.629  1.00  0.00     0.013 A 
HETATM   27  C   UNL     1     -14.751   4.646 -31.335  1.00  0.00     0.068 C 
HETATM   28  C   UNL     1     -15.182   6.460 -33.098  1.00  0.00     0.027 A 
HETATM   29  C   UNL     1     -14.546   6.881 -34.275  1.00  0.00     0.027 A 
HETATM   30  C   UNL     1     -13.504   6.010 -34.533  1.00  0.00     0.013 A 
HETATM   31  C   UNL     1     -12.611   6.030 -35.727  1.00  0.00     0.068 C 
ENDBRANCH  22  25
ENDBRANCH   1  19
TORSDOF 5
ENDMDL
MODEL 5
REMARK VINA RESULT:      -7.7      2.025      4.131
REMARK  5 active torsions:
REMARK  status: ('A' for Active; 'I' for Inactive)
REMARK    1  A    between atoms: N_3  and  C_4 
REMARK    2  A    between atoms: C_7  and  C_8 
REMARK       I    between atoms: C_8  and  N_9 
REMARK    3  A    between atoms: N_9  and  C_10 
REMARK    4  A    between atoms: C_11  and  N_12 
REMARK    5  A    between atoms: C_15  and  O_16 
ROOT
HETATM    1  C   UNL     1      -7.800   3.618 -31.515  1.00  0.00     0.256 C 
HETATM    2  N   UNL     1      -8.474   3.521 -32.706  1.00  0.00    -0.321 N 
HETATM    3  O   UNL     1      -8.136   3.221 -30.409  1.00  0.00    -0.267 OA
HETATM    4  H   UNL     1      -8.043   3.891 -33.550  1.00  0.00     0.169 HD
ENDROOT
BRANCH   2   5
HETATM    5  C   UNL     1      -9.721   2.919 -32.968  1.00  0.00     0.056 A 
HETATM    6  C   UNL     1      -9.675   1.560 -33.382  1.00  0.00     0.037 A 
HETATM    7  C   UNL     1     -10.885   0.894 -33.622  1.00  0.00     0.026 A 
HETATM    8  C   UNL     1     -12.107   1.554 -33.459  1.00  0.00     0.002 A 
HETATM    9  C   UNL     1     -12.135   2.888 -33.059  1.00  0.00     0.002 A 
HETATM   10  C   UNL     1     -10.943   3.573 -32.815  1.00  0.00     0.031 A 
BRANCH   6  11
HETATM   11  N   UNL     1      -8.400   0.953 -33.570  1.00  0.00    -0.281 NA
HETATM   12  C   UNL     1      -8.315   0.342 -34.912  1.00  0.00     0.098 C 
HETATM   13  C   UNL     1      -6.852  -0.004 -35.196  1.00  0.00     0.046 C 
HETATM   14  C   UNL     1      -6.268  -0.904 -34.108  1.00  0.00     0.120 C 
HETATM   15  C   UNL     1      -6.517  -0.339 -32.710  1.00  0.00     0.046 C 
HETATM   16  C   UNL     1      -7.990   0.016 -32.508  1.00  0.00     0.098 C 
BRANCH  14  17
HETATM   17  O   UNL     1      -6.846  -2.206 -34.196  1.00  0.00    -0.395 OA
HETATM   18  H   UNL     1      -7.338  -2.253 -35.034  1.00  0.00     0.210 HD
ENDBRANCH  14  17
ENDBRANCH   6  11
ENDBRANCH   2   5
BRANCH   1  19
HETATM   19  C   UNL     1      -6.496   4.292 -31.658  1.00  0.00     0.032 A 
HETATM   20  C   UNL     1      -5.329   3.565 -31.429  1.00  0.00     0.019 A 
HETATM   21  C   UNL     1      -4.090   4.184 -31.607  1.00  0.00     0.031 A 
HETATM   22  C   UNL     1      -4.019   5.527 -32.013  1.00  0.00     0.039 A 
HETATM   23  C   UNL     1      -5.202   6.249 -32.227  1.00  0.00     0.031 A 
HETATM   24  C   UNL     1      -6.444   5.631 -32.052  1.00  0.00     0.019 A 
BRANCH  22  25
HETATM   25  N   UNL     1      -2.745   6.144 -32.199  1.00  0.00    -0.320 N 
HETATM   26  C   UNL     1      -1.987   6.124 -33.373  1.00  0.00     0.013 A 
HETATM   27  C   UNL     1      -2.452   5.577 -34.681  1.00  0.00     0.068 C 
HETATM   28  C   UNL     1      -0.792   6.771 -33.131  1.00  0.00     0.027 A 
HETATM   29  C   UNL     1      -0.822   7.249 -31.812  1.00  0.00     0.027 A 
HETATM   30  C   UNL     1      -2.025   6.871 -31.248  1.00  0.00     0.013 A 
HETATM   31  C   UNL     1      -2.447   7.095 -29.835  1.00  0.00     0.068 C 
ENDBRANCH  22  25
ENDBRANCH   1  19
TORSDOF 5
ENDMDL
MODEL 6
REMARK VINA RESULT:      -7.5      2.816      8.561
REMARK  5 active torsions:
REMARK  status: ('A' for Active; 'I' for Inactive)
REMARK    1  A    between atoms: N_3  and  C_4 
REMARK    2  A    between atoms: C_7  and  C_8 
REMARK       I    between atoms: C_8  and  N_9 
REMARK    3  A    between atoms: N_9  and  C_10 
REMARK    4  A    between atoms: C_11  and  N_12 
REMARK    5  A    between atoms: C_15  and  O_16 
ROOT
HETATM    1  C   UNL     1      -3.157   4.812 -32.824  1.00  0.00     0.256 C 
HETATM    2  N   UNL     1      -2.647   4.919 -31.554  1.00  0.00    -0.321 N 
HETATM    3  O   UNL     1      -2.783   5.361 -33.849  1.00  0.00    -0.267 OA
HETATM    4  H   UNL     1      -3.068   4.376 -30.804  1.00  0.00     0.169 HD
ENDROOT
BRANCH   2   5
HETATM    5  C   UNL     1      -1.545   5.676 -31.107  1.00  0.00     0.056 A 
HETATM    6  C   UNL     1      -1.857   6.790 -30.281  1.00  0.00     0.037 A 
HETATM    7  C   UNL     1      -0.803   7.561 -29.774  1.00  0.00     0.026 A 
HETATM    8  C   UNL     1       0.524   7.242 -30.076  1.00  0.00     0.002 A 
HETATM    9  C   UNL     1       0.813   6.151 -30.893  1.00  0.00     0.002 A 
HETATM   10  C   UNL     1      -0.220   5.369 -31.411  1.00  0.00     0.031 A 
BRANCH   6  11
HETATM   11  N   UNL     1      -3.229   7.091 -30.040  1.00  0.00    -0.281 NA
HETATM   12  C   UNL     1      -3.655   8.243 -30.861  1.00  0.00     0.098 C 
HETATM   13  C   UNL     1      -5.181   8.328 -30.825  1.00  0.00     0.046 C 
HETATM   14  C   UNL     1      -5.704   8.409 -29.392  1.00  0.00     0.120 C 
HETATM   15  C   UNL     1      -5.118   7.306 -28.510  1.00  0.00     0.046 C 
HETATM   16  C   UNL     1      -3.595   7.256 -28.621  1.00  0.00     0.098 C 
BRANCH  14  17
HETATM   17  O   UNL     1      -5.378   9.679 -28.828  1.00  0.00    -0.395 OA
HETATM   18  H   UNL     1      -6.158   9.992 -28.339  1.00  0.00     0.210 HD
ENDBRANCH  14  17
ENDBRANCH   6  11
ENDBRANCH   2   5
BRANCH   1  19
HETATM   19  C   UNL     1      -4.302   3.885 -32.894  1.00  0.00     0.032 A 
HETATM   20  C   UNL     1      -4.333   2.780 -32.045  1.00  0.00     0.019 A 
HETATM   21  C   UNL     1      -5.435   1.924 -32.073  1.00  0.00     0.031 A 
HETATM   22  C   UNL     1      -6.503   2.171 -32.951  1.00  0.00     0.039 A 
HETATM   23  C   UNL     1      -6.452   3.280 -33.809  1.00  0.00     0.031 A 
HETATM   24  C   UNL     1      -5.351   4.140 -33.780  1.00  0.00     0.019 A 
BRANCH  22  25
HETATM   25  N   UNL     1      -7.628   1.291 -32.964  1.00  0.00    -0.320 N 
HETATM   26  C   UNL     1      -8.727   1.352 -32.103  1.00  0.00     0.013 A 
HETATM   27  C   UNL     1      -8.981   2.443 -31.118  1.00  0.00     0.068 C 
HETATM   28  C   UNL     1      -9.563   0.291 -32.388  1.00  0.00     0.027 A 
HETATM   29  C   UNL     1      -9.013  -0.410 -33.473  1.00  0.00     0.027 A 
HETATM   30  C   UNL     1      -7.831   0.213 -33.828  1.00  0.00     0.013 A 
HETATM   31  C   UNL     1      -6.874  -0.242 -34.877  1.00  0.00     0.068 C 
ENDBRANCH  22  25
ENDBRANCH   1  19
TORSDOF 5
ENDMDL
MODEL 7
REMARK VINA RESULT:      -7.5      2.951      4.270
REMARK  5 active torsions:
REMARK  status: ('A' for Active; 'I' for Inactive)
REMARK    1  A    between atoms: N_3  and  C_4 
REMARK    2  A    between atoms: C_7  and  C_8 
REMARK       I    between atoms: C_8  and  N_9 
REMARK    3  A    between atoms: N_9  and  C_10 
REMARK    4  A    between atoms: C_11  and  N_12 
REMARK    5  A    between atoms: C_15  and  O_16 
ROOT
HETATM    1  C   UNL     1      -2.792   3.863 -32.364  1.00  0.00     0.256 C 
HETATM    2  N   UNL     1      -3.621   2.944 -31.774  1.00  0.00    -0.321 N 
HETATM    3  O   UNL     1      -2.297   3.844 -33.481  1.00  0.00    -0.267 OA
HETATM    4  H   UNL     1      -3.964   3.119 -30.832  1.00  0.00     0.169 HD
ENDROOT
BRANCH   2   5
HETATM    5  C   UNL     1      -4.135   1.746 -32.311  1.00  0.00     0.056 A 
HETATM    6  C   UNL     1      -5.421   1.841 -32.908  1.00  0.00     0.037 A 
HETATM    7  C   UNL     1      -5.972   0.693 -33.494  1.00  0.00     0.026 A 
HETATM    8  C   UNL     1      -5.271  -0.517 -33.487  1.00  0.00     0.002 A 
HETATM    9  C   UNL     1      -4.015  -0.596 -32.891  1.00  0.00     0.002 A 
HETATM   10  C   UNL     1      -3.446   0.534 -32.301  1.00  0.00     0.031 A 
BRANCH   6  11
HETATM   11  N   UNL     1      -6.105   3.090 -32.849  1.00  0.00    -0.281 NA
HETATM   12  C   UNL     1      -7.548   2.876 -32.614  1.00  0.00     0.098 C 
HETATM   13  C   UNL     1      -8.182   4.215 -32.234  1.00  0.00     0.046 C 
HETATM   14  C   UNL     1      -7.917   5.280 -33.297  1.00  0.00     0.120 C 
HETATM   15  C   UNL     1      -6.433   5.370 -33.654  1.00  0.00     0.046 C 
HETATM   16  C   UNL     1      -5.858   3.994 -33.987  1.00  0.00     0.098 C 
BRANCH  14  17
HETATM   17  O   UNL     1      -8.664   4.984 -34.477  1.00  0.00    -0.395 OA
HETATM   18  H   UNL     1      -8.597   5.755 -35.067  1.00  0.00     0.210 HD
ENDBRANCH  14  17
ENDBRANCH   6  11
ENDBRANCH   2   5
BRANCH   1  19
HETATM   19  C   UNL     1      -2.507   5.011 -31.484  1.00  0.00     0.032 A 
HETATM   20  C   UNL     1      -3.557   5.610 -30.788  1.00  0.00     0.019 A 
HETATM   21  C   UNL     1      -3.288   6.667 -29.918  1.00  0.00     0.031 A 
HETATM   22  C   UNL     1      -1.972   7.127 -29.745  1.00  0.00     0.039 A 
HETATM   23  C   UNL     1      -0.927   6.524 -30.460  1.00  0.00     0.031 A 
HETATM   24  C   UNL     1      -1.194   5.462 -31.330  1.00  0.00     0.019 A 
BRANCH  22  25
HETATM   25  N   UNL     1      -1.711   8.205 -28.845  1.00  0.00    -0.320 N 
HETATM   26  C   UNL     1      -1.260   8.083 -27.528  1.00  0.00     0.013 A 
HETATM   27  C   UNL     1      -0.830   6.806 -26.886  1.00  0.00     0.068 C 
HETATM   28  C   UNL     1      -1.197   9.344 -26.970  1.00  0.00     0.027 A 
HETATM   29  C   UNL     1      -1.558  10.270 -27.961  1.00  0.00     0.027 A 
HETATM   30  C   UNL     1      -1.863   9.567 -29.111  1.00  0.00     0.013 A 
HETATM   31  C   UNL     1      -2.376  10.143 -30.388  1.00  0.00     0.068 C 
ENDBRANCH  22  25
ENDBRANCH   1  19
TORSDOF 5
ENDMDL
MODEL 8
REMARK VINA RESULT:      -7.3      2.895      9.087
REMARK  5 active torsions:
REMARK  status: ('A' for Active; 'I' for Inactive)
REMARK    1  A    between atoms: N_3  and  C_4 
REMARK    2  A    between atoms: C_7  and  C_8 
REMARK       I    between atoms: C_8  and  N_9 
REMARK    3  A    between atoms: N_9  and  C_10 
REMARK    4  A    between atoms: C_11  and  N_12 
REMARK    5  A    between atoms: C_15  and  O_16 
ROOT
HETATM    1  C   UNL     1      -5.278   5.606 -30.871  1.00  0.00     0.256 C 
HETATM    2  N   UNL     1      -4.745   5.634 -29.607  1.00  0.00    -0.321 N 
HETATM    3  O   UNL     1      -5.620   6.540 -31.581  1.00  0.00    -0.267 OA
HETATM    4  H   UNL     1      -4.495   4.757 -29.156  1.00  0.00     0.169 HD
ENDROOT
BRANCH   2   5
HETATM    5  C   UNL     1      -4.434   6.751 -28.806  1.00  0.00     0.056 A 
HETATM    6  C   UNL     1      -3.120   7.271 -28.957  1.00  0.00     0.037 A 
HETATM    7  C   UNL     1      -2.761   8.404 -28.215  1.00  0.00     0.026 A 
HETATM    8  C   UNL     1      -3.675   9.006 -27.345  1.00  0.00     0.002 A 
HETATM    9  C   UNL     1      -4.957   8.481 -27.203  1.00  0.00     0.002 A 
HETATM   10  C   UNL     1      -5.338   7.352 -27.931  1.00  0.00     0.031 A 
BRANCH   6  11
HETATM   11  N   UNL     1      -2.219   6.591 -29.827  1.00  0.00    -0.281 NA
HETATM   12  C   UNL     1      -0.924   6.365 -29.152  1.00  0.00     0.098 C 
HETATM   13  C   UNL     1      -0.114   5.364 -29.978  1.00  0.00     0.046 C 
HETATM   14  C   UNL     1       0.056   5.838 -31.421  1.00  0.00     0.120 C 
HETATM   15  C   UNL     1      -1.280   6.232 -32.050  1.00  0.00     0.046 C 
HETATM   16  C   UNL     1      -2.050   7.204 -31.158  1.00  0.00     0.098 C 
BRANCH  14  17
HETATM   17  O   UNL     1       0.940   6.958 -31.462  1.00  0.00    -0.395 OA
HETATM   18  H   UNL     1       1.652   6.746 -32.089  1.00  0.00     0.210 HD
ENDBRANCH  14  17
ENDBRANCH   6  11
ENDBRANCH   2   5
BRANCH   1  19
HETATM   19  C   UNL     1      -5.422   4.233 -31.391  1.00  0.00     0.032 A 
HETATM   20  C   UNL     1      -5.505   4.036 -32.769  1.00  0.00     0.019 A 
HETATM   21  C   UNL     1      -5.595   2.736 -33.271  1.00  0.00     0.031 A 
HETATM   22  C   UNL     1      -5.604   1.637 -32.397  1.00  0.00     0.039 A 
HETATM   23  C   UNL     1      -5.532   1.851 -31.013  1.00  0.00     0.031 A 
HETATM   24  C   UNL     1      -5.438   3.152 -30.508  1.00  0.00     0.019 A 
BRANCH  22  25
HETATM   25  N   UNL     1      -5.689   0.313 -32.925  1.00  0.00    -0.320 N 
HETATM   26  C   UNL     1      -4.608  -0.516 -33.238  1.00  0.00     0.013 A 
HETATM   27  C   UNL     1      -3.180  -0.211 -32.932  1.00  0.00     0.068 C 
HETATM   28  C   UNL     1      -5.099  -1.684 -33.787  1.00  0.00     0.027 A 
HETATM   29  C   UNL     1      -6.500  -1.611 -33.767  1.00  0.00     0.027 A 
HETATM   30  C   UNL     1      -6.857  -0.389 -33.229  1.00  0.00     0.013 A 
HETATM   31  C   UNL     1      -8.243   0.146 -33.095  1.00  0.00     0.068 C 
ENDBRANCH  22  25
ENDBRANCH   1  19
TORSDOF 5
ENDMDL
MODEL 9
REMARK VINA RESULT:      -7.2      2.491      8.568
REMARK  5 active torsions:
REMARK  status: ('A' for Active; 'I' for Inactive)
REMARK    1  A    between atoms: N_3  and  C_4 
REMARK    2  A    between atoms: C_7  and  C_8 
REMARK       I    between atoms: C_8  and  N_9 
REMARK    3  A    between atoms: N_9  and  C_10 
REMARK    4  A    between atoms: C_11  and  N_12 
REMARK    5  A    between atoms: C_15  and  O_16 
ROOT
HETATM    1  C   UNL     1      -6.477   3.900 -30.660  1.00  0.00     0.256 C 
HETATM    2  N   UNL     1      -5.897   4.968 -31.296  1.00  0.00    -0.321 N 
HETATM    3  O   UNL     1      -7.155   3.889 -29.643  1.00  0.00    -0.267 OA
HETATM    4  H   UNL     1      -5.372   4.809 -32.153  1.00  0.00     0.169 HD
ENDROOT
BRANCH   2   5
HETATM    5  C   UNL     1      -5.950   6.335 -30.953  1.00  0.00     0.056 A 
HETATM    6  C   UNL     1      -4.792   7.095 -31.271  1.00  0.00     0.037 A 
HETATM    7  C   UNL     1      -4.797   8.468 -30.989  1.00  0.00     0.026 A 
HETATM    8  C   UNL     1      -5.915   9.073 -30.406  1.00  0.00     0.002 A 
HETATM    9  C   UNL     1      -7.039   8.312 -30.094  1.00  0.00     0.002 A 
HETATM   10  C   UNL     1      -7.058   6.943 -30.364  1.00  0.00     0.031 A 
BRANCH   6  11
HETATM   11  N   UNL     1      -3.668   6.417 -31.827  1.00  0.00    -0.281 NA
HETATM   12  C   UNL     1      -2.878   5.772 -30.759  1.00  0.00     0.098 C 
HETATM   13  C   UNL     1      -1.890   4.800 -31.406  1.00  0.00     0.046 C 
HETATM   14  C   UNL     1      -1.010   5.503 -32.439  1.00  0.00     0.120 C 
HETATM   15  C   UNL     1      -1.839   6.308 -33.438  1.00  0.00     0.046 C 
HETATM   16  C   UNL     1      -2.827   7.231 -32.725  1.00  0.00     0.098 C 
BRANCH  14  17
HETATM   17  O   UNL     1      -0.093   6.377 -31.780  1.00  0.00    -0.395 OA
HETATM   18  H   UNL     1       0.148   5.965 -30.933  1.00  0.00     0.210 HD
ENDBRANCH  14  17
ENDBRANCH   6  11
ENDBRANCH   2   5
BRANCH   1  19
HETATM   19  C   UNL     1      -6.219   2.624 -31.352  1.00  0.00     0.032 A 
HETATM   20  C   UNL     1      -5.394   2.618 -32.476  1.00  0.00     0.019 A 
HETATM   21  C   UNL     1      -5.108   1.408 -33.110  1.00  0.00     0.031 A 
HETATM   22  C   UNL     1      -5.648   0.206 -32.622  1.00  0.00     0.039 A 
HETATM   23  C   UNL     1      -6.486   0.229 -31.497  1.00  0.00     0.031 A 
HETATM   24  C   UNL     1      -6.771   1.440 -30.859  1.00  0.00     0.019 A 
BRANCH  22  25
HETATM   25  N   UNL     1      -5.340  -1.026 -33.276  1.00  0.00    -0.320 N 
HETATM   26  C   UNL     1      -6.085  -1.618 -34.300  1.00  0.00     0.013 A 
HETATM   27  C   UNL     1      -7.249  -0.986 -34.987  1.00  0.00     0.068 C 
HETATM   28  C   UNL     1      -5.503  -2.830 -34.616  1.00  0.00     0.027 A 
HETATM   29  C   UNL     1      -4.354  -2.974 -33.824  1.00  0.00     0.027 A 
HETATM   30  C   UNL     1      -4.253  -1.861 -33.010  1.00  0.00     0.013 A 
HETATM   31  C   UNL     1      -3.230  -1.631 -31.950  1.00  0.00     0.068 C 
ENDBRANCH  22  25
ENDBRANCH   1  19
TORSDOF 5
ENDMDL
MODEL 10
REMARK VINA RESULT:      -7.2      3.660      7.416
REMARK  5 active torsions:
REMARK  status: ('A' for Active; 'I' for Inactive)
REMARK    1  A    between atoms: N_3  and  C_4 
REMARK    2  A    between atoms: C_7  and  C_8 
REMARK       I    between atoms: C_8  and  N_9 
REMARK    3  A    between atoms: N_9  and  C_10 
REMARK    4  A    between atoms: C_11  and  N_12 
REMARK    5  A    between atoms: C_15  and  O_16 
ROOT
HETATM    1  C   UNL     1      -7.687   3.268 -30.975  1.00  0.00     0.256 C 
HETATM    2  N   UNL     1      -8.139   4.144 -31.930  1.00  0.00    -0.321 N 
HETATM    3  O   UNL     1      -7.774   3.348 -29.759  1.00  0.00    -0.267 OA
HETATM    4  H   UNL     1      -8.001   3.920 -32.913  1.00  0.00     0.169 HD
ENDROOT
BRANCH   2   5
HETATM    5  C   UNL     1      -8.841   5.354 -31.756  1.00  0.00     0.056 A 
HETATM    6  C   UNL     1     -10.101   5.435 -32.407  1.00  0.00     0.037 A 
HETATM    7  C   UNL     1     -10.864   6.599 -32.242  1.00  0.00     0.026 A 
HETATM    8  C   UNL     1     -10.394   7.655 -31.456  1.00  0.00     0.002 A 
HETATM    9  C   UNL     1      -9.153   7.563 -30.830  1.00  0.00     0.002 A 
HETATM   10  C   UNL     1      -8.374   6.415 -30.980  1.00  0.00     0.031 A 
BRANCH   6  11
HETATM   11  N   UNL     1     -10.510   4.344 -33.227  1.00  0.00    -0.281 NA
HETATM   12  C   UNL     1     -11.083   4.841 -34.496  1.00  0.00     0.098 C 
HETATM   13  C   UNL     1     -11.204   3.666 -35.467  1.00  0.00     0.046 C 
HETATM   14  C   UNL     1     -12.023   2.525 -34.866  1.00  0.00     0.120 C 
HETATM   15  C   UNL     1     -11.521   2.137 -33.475  1.00  0.00     0.046 C 
HETATM   16  C   UNL     1     -11.391   3.361 -32.570  1.00  0.00     0.098 C 
BRANCH  14  17
HETATM   17  O   UNL     1     -13.395   2.908 -34.777  1.00  0.00    -0.395 OA
HETATM   18  H   UNL     1     -13.925   2.195 -35.173  1.00  0.00     0.210 HD
ENDBRANCH  14  17
ENDBRANCH   6  11
ENDBRANCH   2   5
BRANCH   1  19
HETATM   19  C   UNL     1      -7.026   2.088 -31.562  1.00  0.00     0.032 A 
HETATM   20  C   UNL     1      -7.202   0.843 -30.958  1.00  0.00     0.019 A 
HETATM   21  C   UNL     1      -6.617  -0.286 -31.533  1.00  0.00     0.031 A 
HETATM   22  C   UNL     1      -5.857  -0.171 -32.709  1.00  0.00     0.039 A 
HETATM   23  C   UNL     1      -5.679   1.089 -33.299  1.00  0.00     0.031 A 
HETATM   24  C   UNL     1      -6.267   2.221 -32.726  1.00  0.00     0.019 A 
BRANCH  22  25
HETATM   25  N   UNL     1      -5.271  -1.337 -33.291  1.00  0.00    -0.320 N 
HETATM   26  C   UNL     1      -5.808  -2.088 -34.340  1.00  0.00     0.013 A 
HETATM   27  C   UNL     1      -7.016  -1.711 -35.131  1.00  0.00     0.068 C 
HETATM   28  C   UNL     1      -4.983  -3.171 -34.567  1.00  0.00     0.027 A 
HETATM   29  C   UNL     1      -3.892  -3.070 -33.691  1.00  0.00     0.027 A 
HETATM   30  C   UNL     1      -4.068  -1.938 -32.918  1.00  0.00     0.013 A 
HETATM   31  C   UNL     1      -3.191  -1.488 -31.799  1.00  0.00     0.068 C 
ENDBRANCH  22  25
ENDBRANCH   1  19
TORSDOF 5
ENDMDL
