MODEL 1
REMARK VINA RESULT:      -8.9      0.000      0.000
REMARK  10 active torsions:
REMARK  status: ('A' for Active; 'I' for Inactive)
REMARK       I    between atoms: N_2  and  C_3 
REMARK    1  A    between atoms: N_2  and  C_22 
REMARK    2  A    between atoms: C_3  and  C_4 
REMARK    3  A    between atoms: C_4  and  O_5 
REMARK    4  A    between atoms: O_5  and  C_6 
REMARK    5  A    between atoms: C_6  and  C_7 
REMARK    6  A    between atoms: C_8  and  N_9 
REMARK    7  A    between atoms: N_9  and  C_10 
REMARK    8  A    between atoms: C_10  and  C_11 
REMARK    9  A    between atoms: C_22  and  C_23 
REMARK       I    between atoms: C_23  and  N_24 
REMARK   10  A    between atoms: N_24  and  C_25 
ROOT
HETATM    1  C   UNL     1      -5.311   4.405 -31.487  1.00  0.00     0.281 C 
ENDROOT
BRANCH   1   2
HETATM    2  C   UNL     1      -6.290   3.234 -31.352  1.00  0.00     0.244 C 
HETATM    3  N   UNL     1      -6.714   2.593 -32.511  1.00  0.00    -0.346 N 
HETATM    4  C   UNL     1      -6.079   2.757 -33.811  1.00  0.00     0.153 C 
HETATM    5  O   UNL     1      -6.664   2.830 -30.244  1.00  0.00    -0.271 OA
BRANCH   3   6
HETATM    6  C   UNL     1      -7.617   1.444 -32.368  1.00  0.00     0.228 C 
BRANCH   6   7
HETATM    7  C   UNL     1      -6.856   0.111 -32.360  1.00  0.00     0.240 C 
HETATM    8  N   UNL     1      -6.861  -0.508 -33.599  1.00  0.00    -0.326 N 
HETATM    9  H   UNL     1      -7.396  -0.030 -34.326  1.00  0.00     0.169 HD
HETATM   10  O   UNL     1      -6.343  -0.313 -31.329  1.00  0.00    -0.271 OA
BRANCH   8  11
HETATM   11  C   UNL     1      -6.279  -1.739 -33.955  1.00  0.00     0.035 A 
HETATM   12  C   UNL     1      -4.906  -1.994 -33.916  1.00  0.00     0.032 A 
HETATM   13  C   UNL     1      -4.409  -3.247 -34.288  1.00  0.00     0.044 A 
HETATM   14  C   UNL     1      -5.287  -4.243 -34.697  1.00  0.00     0.116 A 
HETATM   15  F   UNL     1      -4.810  -5.443 -35.052  1.00  0.00    -0.206 F 
HETATM   16  C   UNL     1      -6.655  -4.008 -34.745  1.00  0.00     0.044 A 
HETATM   17  C   UNL     1      -7.150  -2.755 -34.378  1.00  0.00     0.032 A 
ENDBRANCH   8  11
ENDBRANCH   6   7
ENDBRANCH   3   6
ENDBRANCH   1   2
BRANCH   1  18
HETATM   18  O   UNL     1      -4.084   4.069 -30.832  1.00  0.00    -0.308 OA
BRANCH  18  19
HETATM   19  C   UNL     1      -3.176   3.413 -31.593  1.00  0.00     0.295 C 
HETATM   20  O   UNL     1      -2.968   2.210 -31.602  1.00  0.00    -0.259 OA
BRANCH  19  21
HETATM   21  C   UNL     1      -2.446   4.390 -32.440  1.00  0.00     0.060 A 
HETATM   22  C   UNL     1      -1.481   5.253 -31.874  1.00  0.00     0.025 A 
HETATM   23  C   UNL     1      -0.851   6.158 -32.748  1.00  0.00     0.024 A 
HETATM   24  C   UNL     1      -1.105   6.151 -34.125  1.00  0.00     0.002 A 
HETATM   25  C   UNL     1      -2.020   5.257 -34.667  1.00  0.00     0.001 A 
HETATM   26  C   UNL     1      -2.694   4.380 -33.826  1.00  0.00     0.019 A 
BRANCH  22  27
HETATM   27  N   UNL     1      -1.286   5.302 -30.482  1.00  0.00    -0.286 NA
HETATM   28  H   UNL     1      -1.905   4.635 -30.012  1.00  0.00     0.128 HD
BRANCH  27  29
HETATM   29  C   UNL     1       0.069   5.265 -29.931  1.00  0.00     0.157 C 
BRANCH  29  30
HETATM   30  C   UNL     1       0.364   6.305 -28.902  1.00  0.00     0.065 A 
HETATM   31  O   UNL     1       0.118   5.948 -27.605  1.00  0.00    -0.326 OA
HETATM   32  C   UNL     1       0.450   7.009 -26.827  1.00  0.00     0.142 A 
HETATM   33  C   UNL     1       0.900   8.051 -27.603  1.00  0.00     0.027 A 
HETATM   34  C   UNL     1       0.844   7.599 -28.943  1.00  0.00     0.036 A 
ENDBRANCH  29  30
ENDBRANCH  27  29
ENDBRANCH  22  27
ENDBRANCH  19  21
ENDBRANCH  18  19
ENDBRANCH   1  18
TORSDOF 10
ENDMDL
MODEL 2
REMARK VINA RESULT:      -8.7      3.282      4.421
REMARK  10 active torsions:
REMARK  status: ('A' for Active; 'I' for Inactive)
REMARK       I    between atoms: N_2  and  C_3 
REMARK    1  A    between atoms: N_2  and  C_22 
REMARK    2  A    between atoms: C_3  and  C_4 
REMARK    3  A    between atoms: C_4  and  O_5 
REMARK    4  A    between atoms: O_5  and  C_6 
REMARK    5  A    between atoms: C_6  and  C_7 
REMARK    6  A    between atoms: C_8  and  N_9 
REMARK    7  A    between atoms: N_9  and  C_10 
REMARK    8  A    between atoms: C_10  and  C_11 
REMARK    9  A    between atoms: C_22  and  C_23 
REMARK       I    between atoms: C_23  and  N_24 
REMARK   10  A    between atoms: N_24  and  C_25 
ROOT
HETATM    1  C   UNL     1      -8.587   2.836 -30.992  1.00  0.00     0.281 C 
ENDROOT
BRANCH   1   2
HETATM    2  C   UNL     1      -8.954   1.728 -31.984  1.00  0.00     0.244 C 
HETATM    3  N   UNL     1      -8.895   2.014 -33.344  1.00  0.00    -0.346 N 
HETATM    4  C   UNL     1      -8.232   3.185 -33.901  1.00  0.00     0.153 C 
HETATM    5  O   UNL     1      -9.253   0.591 -31.599  1.00  0.00    -0.271 OA
BRANCH   3   6
HETATM    6  C   UNL     1      -9.206   0.932 -34.286  1.00  0.00     0.228 C 
BRANCH   6   7
HETATM    7  C   UNL     1      -7.946   0.179 -34.735  1.00  0.00     0.240 C 
HETATM    8  N   UNL     1      -7.735  -0.982 -34.009  1.00  0.00    -0.326 N 
HETATM    9  H   UNL     1      -8.405  -1.155 -33.257  1.00  0.00     0.169 HD
HETATM   10  O   UNL     1      -7.235   0.623 -35.632  1.00  0.00    -0.271 OA
BRANCH   8  11
HETATM   11  C   UNL     1      -6.682  -1.905 -34.136  1.00  0.00     0.035 A 
HETATM   12  C   UNL     1      -6.813  -3.163 -34.731  1.00  0.00     0.032 A 
HETATM   13  C   UNL     1      -5.714  -4.023 -34.817  1.00  0.00     0.044 A 
HETATM   14  C   UNL     1      -4.485  -3.622 -34.308  1.00  0.00     0.116 A 
HETATM   15  F   UNL     1      -3.433  -4.447 -34.393  1.00  0.00    -0.206 F 
HETATM   16  C   UNL     1      -4.334  -2.378 -33.711  1.00  0.00     0.044 A 
HETATM   17  C   UNL     1      -5.434  -1.521 -33.621  1.00  0.00     0.032 A 
ENDBRANCH   8  11
ENDBRANCH   6   7
ENDBRANCH   3   6
ENDBRANCH   1   2
BRANCH   1  18
HETATM   18  O   UNL     1      -7.571   2.354 -30.106  1.00  0.00    -0.308 OA
BRANCH  18  19
HETATM   19  C   UNL     1      -6.423   3.073 -30.088  1.00  0.00     0.295 C 
HETATM   20  O   UNL     1      -6.275   4.195 -29.631  1.00  0.00    -0.259 OA
BRANCH  19  21
HETATM   21  C   UNL     1      -5.338   2.281 -30.720  1.00  0.00     0.060 A 
HETATM   22  C   UNL     1      -4.514   2.856 -31.715  1.00  0.00     0.025 A 
HETATM   23  C   UNL     1      -3.522   2.028 -32.270  1.00  0.00     0.024 A 
HETATM   24  C   UNL     1      -3.304   0.724 -31.807  1.00  0.00     0.002 A 
HETATM   25  C   UNL     1      -4.092   0.199 -30.790  1.00  0.00     0.001 A 
HETATM   26  C   UNL     1      -5.112   0.973 -30.249  1.00  0.00     0.019 A 
BRANCH  22  27
HETATM   27  N   UNL     1      -4.787   4.138 -32.224  1.00  0.00    -0.286 NA
HETATM   28  H   UNL     1      -4.394   4.857 -31.609  1.00  0.00     0.128 HD
BRANCH  27  29
HETATM   29  C   UNL     1      -4.535   4.434 -33.635  1.00  0.00     0.157 C 
BRANCH  29  30
HETATM   30  C   UNL     1      -3.270   5.177 -33.910  1.00  0.00     0.065 A 
HETATM   31  O   UNL     1      -3.315   6.528 -33.703  1.00  0.00    -0.326 OA
HETATM   32  C   UNL     1      -2.085   7.019 -33.996  1.00  0.00     0.142 A 
HETATM   33  C   UNL     1      -1.246   6.007 -34.398  1.00  0.00     0.027 A 
HETATM   34  C   UNL     1      -2.010   4.816 -34.345  1.00  0.00     0.036 A 
ENDBRANCH  29  30
ENDBRANCH  27  29
ENDBRANCH  22  27
ENDBRANCH  19  21
ENDBRANCH  18  19
ENDBRANCH   1  18
TORSDOF 10
ENDMDL
MODEL 3
REMARK VINA RESULT:      -8.3      1.741      2.255
REMARK  10 active torsions:
REMARK  status: ('A' for Active; 'I' for Inactive)
REMARK       I    between atoms: N_2  and  C_3 
REMARK    1  A    between atoms: N_2  and  C_22 
REMARK    2  A    between atoms: C_3  and  C_4 
REMARK    3  A    between atoms: C_4  and  O_5 
REMARK    4  A    between atoms: O_5  and  C_6 
REMARK    5  A    between atoms: C_6  and  C_7 
REMARK    6  A    between atoms: C_8  and  N_9 
REMARK    7  A    between atoms: N_9  and  C_10 
REMARK    8  A    between atoms: C_10  and  C_11 
REMARK    9  A    between atoms: C_22  and  C_23 
REMARK       I    between atoms: C_23  and  N_24 
REMARK   10  A    between atoms: N_24  and  C_25 
ROOT
HETATM    1  C   UNL     1      -5.920   3.136 -31.004  1.00  0.00     0.281 C 
ENDROOT
BRANCH   1   2
HETATM    2  C   UNL     1      -6.123   2.352 -32.305  1.00  0.00     0.244 C 
HETATM    3  N   UNL     1      -7.418   2.203 -32.789  1.00  0.00    -0.346 N 
HETATM    4  C   UNL     1      -8.558   2.978 -32.319  1.00  0.00     0.153 C 
HETATM    5  O   UNL     1      -5.164   1.900 -32.941  1.00  0.00    -0.271 OA
BRANCH   3   6
HETATM    6  C   UNL     1      -7.596   1.489 -34.060  1.00  0.00     0.228 C 
BRANCH   6   7
HETATM    7  C   UNL     1      -7.524  -0.033 -33.881  1.00  0.00     0.240 C 
HETATM    8  N   UNL     1      -6.372  -0.577 -34.423  1.00  0.00    -0.326 N 
HETATM    9  H   UNL     1      -5.757   0.086 -34.900  1.00  0.00     0.169 HD
HETATM   10  O   UNL     1      -8.435  -0.644 -33.328  1.00  0.00    -0.271 OA
BRANCH   8  11
HETATM   11  C   UNL     1      -5.982  -1.928 -34.456  1.00  0.00     0.035 A 
HETATM   12  C   UNL     1      -6.814  -2.971 -34.873  1.00  0.00     0.032 A 
HETATM   13  C   UNL     1      -6.348  -4.289 -34.874  1.00  0.00     0.044 A 
HETATM   14  C   UNL     1      -5.050  -4.562 -34.459  1.00  0.00     0.116 A 
HETATM   15  F   UNL     1      -4.605  -5.825 -34.462  1.00  0.00    -0.206 F 
HETATM   16  C   UNL     1      -4.209  -3.540 -34.039  1.00  0.00     0.044 A 
HETATM   17  C   UNL     1      -4.677  -2.224 -34.033  1.00  0.00     0.032 A 
ENDBRANCH   8  11
ENDBRANCH   6   7
ENDBRANCH   3   6
ENDBRANCH   1   2
BRANCH   1  18
HETATM   18  O   UNL     1      -4.566   3.593 -30.937  1.00  0.00    -0.308 OA
BRANCH  18  19
HETATM   19  C   UNL     1      -4.376   4.901 -31.234  1.00  0.00     0.295 C 
HETATM   20  O   UNL     1      -4.832   5.858 -30.628  1.00  0.00    -0.259 OA
BRANCH  19  21
HETATM   21  C   UNL     1      -3.509   5.012 -32.434  1.00  0.00     0.060 A 
HETATM   22  C   UNL     1      -2.123   4.746 -32.348  1.00  0.00     0.025 A 
HETATM   23  C   UNL     1      -1.376   4.892 -33.530  1.00  0.00     0.024 A 
HETATM   24  C   UNL     1      -1.984   5.206 -34.753  1.00  0.00     0.002 A 
HETATM   25  C   UNL     1      -3.356   5.411 -34.824  1.00  0.00     0.001 A 
HETATM   26  C   UNL     1      -4.119   5.320 -33.665  1.00  0.00     0.019 A 
BRANCH  22  27
HETATM   27  N   UNL     1      -1.513   4.503 -31.104  1.00  0.00    -0.286 NA
HETATM   28  H   UNL     1      -1.007   3.613 -31.123  1.00  0.00     0.128 HD
BRANCH  27  29
HETATM   29  C   UNL     1      -0.731   5.557 -30.455  1.00  0.00     0.157 C 
BRANCH  29  30
HETATM   30  C   UNL     1      -1.390   6.895 -30.404  1.00  0.00     0.065 A 
HETATM   31  O   UNL     1      -2.032   7.200 -29.236  1.00  0.00    -0.326 OA
HETATM   32  C   UNL     1      -2.555   8.443 -29.379  1.00  0.00     0.142 A 
HETATM   33  C   UNL     1      -2.268   8.946 -30.626  1.00  0.00     0.027 A 
HETATM   34  C   UNL     1      -1.516   7.946 -31.291  1.00  0.00     0.036 A 
ENDBRANCH  29  30
ENDBRANCH  27  29
ENDBRANCH  22  27
ENDBRANCH  19  21
ENDBRANCH  18  19
ENDBRANCH   1  18
TORSDOF 10
ENDMDL
MODEL 4
REMARK VINA RESULT:      -8.3      3.679     10.311
REMARK  10 active torsions:
REMARK  status: ('A' for Active; 'I' for Inactive)
REMARK       I    between atoms: N_2  and  C_3 
REMARK    1  A    between atoms: N_2  and  C_22 
REMARK    2  A    between atoms: C_3  and  C_4 
REMARK    3  A    between atoms: C_4  and  O_5 
REMARK    4  A    between atoms: O_5  and  C_6 
REMARK    5  A    between atoms: C_6  and  C_7 
REMARK    6  A    between atoms: C_8  and  N_9 
REMARK    7  A    between atoms: N_9  and  C_10 
REMARK    8  A    between atoms: C_10  and  C_11 
REMARK    9  A    between atoms: C_22  and  C_23 
REMARK       I    between atoms: C_23  and  N_24 
REMARK   10  A    between atoms: N_24  and  C_25 
ROOT
HETATM    1  C   UNL     1      -4.637   3.545 -32.273  1.00  0.00     0.281 C 
ENDROOT
BRANCH   1   2
HETATM    2  C   UNL     1      -3.145   3.890 -32.235  1.00  0.00     0.244 C 
HETATM    3  N   UNL     1      -2.669   4.861 -33.109  1.00  0.00    -0.346 N 
HETATM    4  C   UNL     1      -3.524   5.780 -33.847  1.00  0.00     0.153 C 
HETATM    5  O   UNL     1      -2.381   3.357 -31.420  1.00  0.00    -0.271 OA
BRANCH   3   6
HETATM    6  C   UNL     1      -1.247   5.216 -33.032  1.00  0.00     0.228 C 
BRANCH   6   7
HETATM    7  C   UNL     1      -1.003   6.434 -32.131  1.00  0.00     0.240 C 
HETATM    8  N   UNL     1      -0.905   6.093 -30.793  1.00  0.00    -0.326 N 
HETATM    9  H   UNL     1      -1.050   5.103 -30.581  1.00  0.00     0.169 HD
HETATM   10  O   UNL     1      -0.936   7.564 -32.608  1.00  0.00    -0.271 OA
BRANCH   8  11
HETATM   11  C   UNL     1      -0.700   6.946 -29.693  1.00  0.00     0.035 A 
HETATM   12  C   UNL     1      -1.730   7.457 -28.898  1.00  0.00     0.032 A 
HETATM   13  C   UNL     1      -1.439   8.301 -27.822  1.00  0.00     0.044 A 
HETATM   14  C   UNL     1      -0.119   8.630 -27.541  1.00  0.00     0.116 A 
HETATM   15  F   UNL     1       0.157   9.436 -26.508  1.00  0.00    -0.206 F 
HETATM   16  C   UNL     1       0.918   8.133 -28.319  1.00  0.00     0.044 A 
HETATM   17  C   UNL     1       0.627   7.295 -29.398  1.00  0.00     0.032 A 
ENDBRANCH   8  11
ENDBRANCH   6   7
ENDBRANCH   3   6
ENDBRANCH   1   2
BRANCH   1  18
HETATM   18  O   UNL     1      -4.796   2.199 -32.732  1.00  0.00    -0.308 OA
BRANCH  18  19
HETATM   19  C   UNL     1      -5.269   1.321 -31.816  1.00  0.00     0.295 C 
HETATM   20  O   UNL     1      -4.683   0.923 -30.820  1.00  0.00    -0.259 OA
BRANCH  19  21
HETATM   21  C   UNL     1      -6.638   0.896 -32.201  1.00  0.00     0.060 A 
HETATM   22  C   UNL     1      -6.841   0.035 -33.304  1.00  0.00     0.025 A 
HETATM   23  C   UNL     1      -8.172  -0.302 -33.607  1.00  0.00     0.024 A 
HETATM   24  C   UNL     1      -9.242   0.126 -32.810  1.00  0.00     0.002 A 
HETATM   25  C   UNL     1      -9.013   0.929 -31.700  1.00  0.00     0.001 A 
HETATM   26  C   UNL     1      -7.714   1.319 -31.397  1.00  0.00     0.019 A 
BRANCH  22  27
HETATM   27  N   UNL     1      -5.769  -0.330 -34.139  1.00  0.00    -0.286 NA
HETATM   28  H   UNL     1      -5.215   0.495 -34.388  1.00  0.00     0.128 HD
BRANCH  27  29
HETATM   29  C   UNL     1      -4.919  -1.468 -33.785  1.00  0.00     0.157 C 
BRANCH  29  30
HETATM   30  C   UNL     1      -5.396  -2.793 -34.278  1.00  0.00     0.065 A 
HETATM   31  O   UNL     1      -4.519  -3.832 -34.137  1.00  0.00    -0.326 OA
HETATM   32  C   UNL     1      -5.128  -4.940 -34.630  1.00  0.00     0.142 A 
HETATM   33  C   UNL     1      -6.384  -4.631 -35.096  1.00  0.00     0.027 A 
HETATM   34  C   UNL     1      -6.559  -3.244 -34.871  1.00  0.00     0.036 A 
ENDBRANCH  29  30
ENDBRANCH  27  29
ENDBRANCH  22  27
ENDBRANCH  19  21
ENDBRANCH  18  19
ENDBRANCH   1  18
TORSDOF 10
ENDMDL
MODEL 5
REMARK VINA RESULT:      -8.2      2.030      3.577
REMARK  10 active torsions:
REMARK  status: ('A' for Active; 'I' for Inactive)
REMARK       I    between atoms: N_2  and  C_3 
REMARK    1  A    between atoms: N_2  and  C_22 
REMARK    2  A    between atoms: C_3  and  C_4 
REMARK    3  A    between atoms: C_4  and  O_5 
REMARK    4  A    between atoms: O_5  and  C_6 
REMARK    5  A    between atoms: C_6  and  C_7 
REMARK    6  A    between atoms: C_8  and  N_9 
REMARK    7  A    between atoms: N_9  and  C_10 
REMARK    8  A    between atoms: C_10  and  C_11 
REMARK    9  A    between atoms: C_22  and  C_23 
REMARK       I    between atoms: C_23  and  N_24 
REMARK   10  A    between atoms: N_24  and  C_25 
ROOT
HETATM    1  C   UNL     1      -7.666   4.271 -32.584  1.00  0.00     0.281 C 
ENDROOT
BRANCH   1   2
HETATM    2  C   UNL     1      -7.473   3.089 -33.540  1.00  0.00     0.244 C 
HETATM    3  N   UNL     1      -8.473   2.126 -33.608  1.00  0.00    -0.346 N 
HETATM    4  C   UNL     1      -9.813   2.303 -33.065  1.00  0.00     0.153 C 
HETATM    5  O   UNL     1      -6.478   3.008 -34.271  1.00  0.00    -0.271 OA
BRANCH   3   6
HETATM    6  C   UNL     1      -8.298   1.022 -34.561  1.00  0.00     0.228 C 
BRANCH   6   7
HETATM    7  C   UNL     1      -7.586  -0.180 -33.925  1.00  0.00     0.240 C 
HETATM    8  N   UNL     1      -6.905  -0.946 -34.857  1.00  0.00    -0.326 N 
HETATM    9  H   UNL     1      -7.001  -0.642 -35.828  1.00  0.00     0.169 HD
HETATM   10  O   UNL     1      -7.671  -0.394 -32.719  1.00  0.00    -0.271 OA
BRANCH   8  11
HETATM   11  C   UNL     1      -6.159  -2.119 -34.637  1.00  0.00     0.035 A 
HETATM   12  C   UNL     1      -4.854  -2.132 -34.139  1.00  0.00     0.032 A 
HETATM   13  C   UNL     1      -4.182  -3.343 -33.950  1.00  0.00     0.044 A 
HETATM   14  C   UNL     1      -4.817  -4.539 -34.259  1.00  0.00     0.116 A 
HETATM   15  F   UNL     1      -4.173  -5.699 -34.077  1.00  0.00    -0.206 F 
HETATM   16  C   UNL     1      -6.113  -4.547 -34.758  1.00  0.00     0.044 A 
HETATM   17  C   UNL     1      -6.783  -3.336 -34.951  1.00  0.00     0.032 A 
ENDBRANCH   8  11
ENDBRANCH   6   7
ENDBRANCH   3   6
ENDBRANCH   1   2
BRANCH   1  18
HETATM   18  O   UNL     1      -7.448   3.828 -31.240  1.00  0.00    -0.308 OA
BRANCH  18  19
HETATM   19  C   UNL     1      -6.188   3.989 -30.769  1.00  0.00     0.295 C 
HETATM   20  O   UNL     1      -5.706   5.017 -30.319  1.00  0.00    -0.259 OA
BRANCH  19  21
HETATM   21  C   UNL     1      -5.453   2.704 -30.880  1.00  0.00     0.060 A 
HETATM   22  C   UNL     1      -4.291   2.607 -31.678  1.00  0.00     0.025 A 
HETATM   23  C   UNL     1      -3.669   1.347 -31.738  1.00  0.00     0.024 A 
HETATM   24  C   UNL     1      -4.127   0.261 -30.981  1.00  0.00     0.002 A 
HETATM   25  C   UNL     1      -5.240   0.395 -30.162  1.00  0.00     0.001 A 
HETATM   26  C   UNL     1      -5.908   1.614 -30.114  1.00  0.00     0.019 A 
BRANCH  22  27
HETATM   27  N   UNL     1      -3.882   3.681 -32.489  1.00  0.00    -0.286 NA
HETATM   28  H   UNL     1      -4.417   4.524 -32.260  1.00  0.00     0.128 HD
BRANCH  27  29
HETATM   29  C   UNL     1      -2.457   3.971 -32.656  1.00  0.00     0.157 C 
BRANCH  29  30
HETATM   30  C   UNL     1      -1.871   4.879 -31.626  1.00  0.00     0.065 A 
HETATM   31  O   UNL     1      -0.655   4.506 -31.125  1.00  0.00    -0.326 OA
HETATM   32  C   UNL     1      -0.288   5.448 -30.220  1.00  0.00     0.142 A 
HETATM   33  C   UNL     1      -1.253   6.422 -30.122  1.00  0.00     0.027 A 
HETATM   34  C   UNL     1      -2.277   6.056 -31.029  1.00  0.00     0.036 A 
ENDBRANCH  29  30
ENDBRANCH  27  29
ENDBRANCH  22  27
ENDBRANCH  19  21
ENDBRANCH  18  19
ENDBRANCH   1  18
TORSDOF 10
ENDMDL
MODEL 6
REMARK VINA RESULT:      -8.2      2.537      4.272
REMARK  10 active torsions:
REMARK  status: ('A' for Active; 'I' for Inactive)
REMARK       I    between atoms: N_2  and  C_3 
REMARK    1  A    between atoms: N_2  and  C_22 
REMARK    2  A    between atoms: C_3  and  C_4 
REMARK    3  A    between atoms: C_4  and  O_5 
REMARK    4  A    between atoms: O_5  and  C_6 
REMARK    5  A    between atoms: C_6  and  C_7 
REMARK    6  A    between atoms: C_8  and  N_9 
REMARK    7  A    between atoms: N_9  and  C_10 
REMARK    8  A    between atoms: C_10  and  C_11 
REMARK    9  A    between atoms: C_22  and  C_23 
REMARK       I    between atoms: C_23  and  N_24 
REMARK   10  A    between atoms: N_24  and  C_25 
ROOT
HETATM    1  C   UNL     1      -2.773   5.065 -33.639  1.00  0.00     0.281 C 
ENDROOT
BRANCH   1   2
HETATM    2  C   UNL     1      -3.060   4.075 -32.506  1.00  0.00     0.244 C 
HETATM    3  N   UNL     1      -4.364   3.620 -32.343  1.00  0.00    -0.346 N 
HETATM    4  C   UNL     1      -5.414   3.783 -33.339  1.00  0.00     0.153 C 
HETATM    5  O   UNL     1      -2.156   3.647 -31.779  1.00  0.00    -0.271 OA
BRANCH   3   6
HETATM    6  C   UNL     1      -4.620   2.637 -31.283  1.00  0.00     0.228 C 
BRANCH   6   7
HETATM    7  C   UNL     1      -5.380   1.410 -31.805  1.00  0.00     0.240 C 
HETATM    8  N   UNL     1      -4.675   0.726 -32.781  1.00  0.00    -0.326 N 
HETATM    9  H   UNL     1      -3.783   1.144 -33.052  1.00  0.00     0.169 HD
HETATM   10  O   UNL     1      -6.497   1.135 -31.377  1.00  0.00    -0.271 OA
BRANCH   8  11
HETATM   11  C   UNL     1      -5.067  -0.426 -33.487  1.00  0.00     0.035 A 
HETATM   12  C   UNL     1      -6.255  -0.529 -34.216  1.00  0.00     0.032 A 
HETATM   13  C   UNL     1      -6.570  -1.713 -34.889  1.00  0.00     0.044 A 
HETATM   14  C   UNL     1      -5.696  -2.791 -34.835  1.00  0.00     0.116 A 
HETATM   15  F   UNL     1      -5.998  -3.924 -35.482  1.00  0.00    -0.206 F 
HETATM   16  C   UNL     1      -4.511  -2.709 -34.114  1.00  0.00     0.044 A 
HETATM   17  C   UNL     1      -4.199  -1.528 -33.437  1.00  0.00     0.032 A 
ENDBRANCH   8  11
ENDBRANCH   6   7
ENDBRANCH   3   6
ENDBRANCH   1   2
BRANCH   1  18
HETATM   18  O   UNL     1      -1.454   5.597 -33.475  1.00  0.00    -0.308 OA
BRANCH  18  19
HETATM   19  C   UNL     1      -1.385   6.934 -33.267  1.00  0.00     0.295 C 
HETATM   20  O   UNL     1      -1.602   7.810 -34.091  1.00  0.00    -0.259 OA
BRANCH  19  21
HETATM   21  C   UNL     1      -0.997   7.194 -31.858  1.00  0.00     0.060 A 
HETATM   22  C   UNL     1      -1.710   8.131 -31.077  1.00  0.00     0.025 A 
HETATM   23  C   UNL     1      -1.262   8.326 -29.758  1.00  0.00     0.024 A 
HETATM   24  C   UNL     1      -0.214   7.572 -29.215  1.00  0.00     0.002 A 
HETATM   25  C   UNL     1       0.438   6.618 -29.987  1.00  0.00     0.001 A 
HETATM   26  C   UNL     1       0.051   6.431 -31.309  1.00  0.00     0.019 A 
BRANCH  22  27
HETATM   27  N   UNL     1      -2.712   8.934 -31.651  1.00  0.00    -0.286 NA
HETATM   28  H   UNL     1      -2.932   8.607 -32.597  1.00  0.00     0.128 HD
BRANCH  27  29
HETATM   29  C   UNL     1      -3.922   9.250 -30.891  1.00  0.00     0.157 C 
BRANCH  29  30
HETATM   30  C   UNL     1      -4.864   8.109 -30.697  1.00  0.00     0.065 A 
HETATM   31  O   UNL     1      -5.511   8.068 -29.493  1.00  0.00    -0.326 OA
HETATM   32  C   UNL     1      -6.318   6.978 -29.508  1.00  0.00     0.142 A 
HETATM   33  C   UNL     1      -6.197   6.307 -30.702  1.00  0.00     0.027 A 
HETATM   34  C   UNL     1      -5.257   7.035 -31.471  1.00  0.00     0.036 A 
ENDBRANCH  29  30
ENDBRANCH  27  29
ENDBRANCH  22  27
ENDBRANCH  19  21
ENDBRANCH  18  19
ENDBRANCH   1  18
TORSDOF 10
ENDMDL
MODEL 7
REMARK VINA RESULT:      -8.1      3.876     10.063
REMARK  10 active torsions:
REMARK  status: ('A' for Active; 'I' for Inactive)
REMARK       I    between atoms: N_2  and  C_3 
REMARK    1  A    between atoms: N_2  and  C_22 
REMARK    2  A    between atoms: C_3  and  C_4 
REMARK    3  A    between atoms: C_4  and  O_5 
REMARK    4  A    between atoms: O_5  and  C_6 
REMARK    5  A    between atoms: C_6  and  C_7 
REMARK    6  A    between atoms: C_8  and  N_9 
REMARK    7  A    between atoms: N_9  and  C_10 
REMARK    8  A    between atoms: C_10  and  C_11 
REMARK    9  A    between atoms: C_22  and  C_23 
REMARK       I    between atoms: C_23  and  N_24 
REMARK   10  A    between atoms: N_24  and  C_25 
ROOT
HETATM    1  C   UNL     1      -4.946   2.806 -32.195  1.00  0.00     0.281 C 
ENDROOT
BRANCH   1   2
HETATM    2  C   UNL     1      -3.521   3.335 -32.387  1.00  0.00     0.244 C 
HETATM    3  N   UNL     1      -3.297   4.278 -33.386  1.00  0.00    -0.346 N 
HETATM    4  C   UNL     1      -4.355   5.014 -34.063  1.00  0.00     0.153 C 
HETATM    5  O   UNL     1      -2.595   2.977 -31.650  1.00  0.00    -0.271 OA
BRANCH   3   6
HETATM    6  C   UNL     1      -1.937   4.812 -33.531  1.00  0.00     0.228 C 
BRANCH   6   7
HETATM    7  C   UNL     1      -1.721   6.076 -32.688  1.00  0.00     0.240 C 
HETATM    8  N   UNL     1      -1.349   5.787 -31.385  1.00  0.00    -0.326 N 
HETATM    9  H   UNL     1      -1.314   4.793 -31.150  1.00  0.00     0.169 HD
HETATM   10  O   UNL     1      -1.897   7.191 -33.171  1.00  0.00    -0.271 OA
BRANCH   8  11
HETATM   11  C   UNL     1      -1.084   6.689 -30.338  1.00  0.00     0.035 A 
HETATM   12  C   UNL     1      -2.074   7.371 -29.626  1.00  0.00     0.032 A 
HETATM   13  C   UNL     1      -1.725   8.253 -28.598  1.00  0.00     0.044 A 
HETATM   14  C   UNL     1      -0.386   8.449 -28.285  1.00  0.00     0.116 A 
HETATM   15  F   UNL     1      -0.053   9.292 -27.299  1.00  0.00    -0.206 F 
HETATM   16  C   UNL     1       0.612   7.782 -28.982  1.00  0.00     0.044 A 
HETATM   17  C   UNL     1       0.264   6.906 -30.012  1.00  0.00     0.032 A 
ENDBRANCH   8  11
ENDBRANCH   6   7
ENDBRANCH   3   6
ENDBRANCH   1   2
BRANCH   1  18
HETATM   18  O   UNL     1      -5.109   1.609 -32.963  1.00  0.00    -0.308 OA
BRANCH  18  19
HETATM   19  C   UNL     1      -5.031   0.451 -32.264  1.00  0.00     0.295 C 
HETATM   20  O   UNL     1      -4.741   0.332 -31.084  1.00  0.00    -0.259 OA
BRANCH  19  21
HETATM   21  C   UNL     1      -5.356  -0.687 -33.160  1.00  0.00     0.060 A 
HETATM   22  C   UNL     1      -6.643  -0.809 -33.730  1.00  0.00     0.025 A 
HETATM   23  C   UNL     1      -6.868  -1.927 -34.553  1.00  0.00     0.024 A 
HETATM   24  C   UNL     1      -5.845  -2.835 -34.860  1.00  0.00     0.002 A 
HETATM   25  C   UNL     1      -4.573  -2.665 -34.330  1.00  0.00     0.001 A 
HETATM   26  C   UNL     1      -4.327  -1.596 -33.476  1.00  0.00     0.019 A 
BRANCH  22  27
HETATM   27  N   UNL     1      -7.681   0.065 -33.358  1.00  0.00    -0.286 NA
HETATM   28  H   UNL     1      -7.436   0.564 -32.498  1.00  0.00     0.128 HD
BRANCH  27  29
HETATM   29  C   UNL     1      -8.278   0.958 -34.353  1.00  0.00     0.157 C 
BRANCH  29  30
HETATM   30  C   UNL     1      -9.704   1.322 -34.104  1.00  0.00     0.065 A 
HETATM   31  O   UNL     1     -10.097   2.545 -34.569  1.00  0.00    -0.326 OA
HETATM   32  C   UNL     1     -11.409   2.690 -34.258  1.00  0.00     0.142 A 
HETATM   33  C   UNL     1     -11.870   1.579 -33.591  1.00  0.00     0.027 A 
HETATM   34  C   UNL     1     -10.769   0.695 -33.489  1.00  0.00     0.036 A 
ENDBRANCH  29  30
ENDBRANCH  27  29
ENDBRANCH  22  27
ENDBRANCH  19  21
ENDBRANCH  18  19
ENDBRANCH   1  18
TORSDOF 10
ENDMDL
MODEL 8
REMARK VINA RESULT:      -8.1      1.858      2.343
REMARK  10 active torsions:
REMARK  status: ('A' for Active; 'I' for Inactive)
REMARK       I    between atoms: N_2  and  C_3 
REMARK    1  A    between atoms: N_2  and  C_22 
REMARK    2  A    between atoms: C_3  and  C_4 
REMARK    3  A    between atoms: C_4  and  O_5 
REMARK    4  A    between atoms: O_5  and  C_6 
REMARK    5  A    between atoms: C_6  and  C_7 
REMARK    6  A    between atoms: C_8  and  N_9 
REMARK    7  A    between atoms: N_9  and  C_10 
REMARK    8  A    between atoms: C_10  and  C_11 
REMARK    9  A    between atoms: C_22  and  C_23 
REMARK       I    between atoms: C_23  and  N_24 
REMARK   10  A    between atoms: N_24  and  C_25 
ROOT
HETATM    1  C   UNL     1      -6.935   5.690 -31.874  1.00  0.00     0.281 C 
ENDROOT
BRANCH   1   2
HETATM    2  C   UNL     1      -7.517   4.794 -32.973  1.00  0.00     0.244 C 
HETATM    3  N   UNL     1      -8.535   3.910 -32.633  1.00  0.00    -0.346 N 
HETATM    4  C   UNL     1      -9.289   3.976 -31.389  1.00  0.00     0.153 C 
HETATM    5  O   UNL     1      -7.131   4.879 -34.145  1.00  0.00    -0.271 OA
BRANCH   3   6
HETATM    6  C   UNL     1      -9.115   3.089 -33.703  1.00  0.00     0.228 C 
BRANCH   6   7
HETATM    7  C   UNL     1      -8.667   1.624 -33.613  1.00  0.00     0.240 C 
HETATM    8  N   UNL     1      -7.359   1.443 -34.029  1.00  0.00    -0.326 N 
HETATM    9  H   UNL     1      -6.890   2.282 -34.376  1.00  0.00     0.169 HD
HETATM   10  O   UNL     1      -9.442   0.753 -33.227  1.00  0.00    -0.271 OA
BRANCH   8  11
HETATM   11  C   UNL     1      -6.627   0.243 -34.094  1.00  0.00     0.035 A 
HETATM   12  C   UNL     1      -7.020  -0.871 -34.841  1.00  0.00     0.032 A 
HETATM   13  C   UNL     1      -6.234  -2.027 -34.851  1.00  0.00     0.044 A 
HETATM   14  C   UNL     1      -5.056  -2.067 -34.117  1.00  0.00     0.116 A 
HETATM   15  F   UNL     1      -4.304  -3.174 -34.129  1.00  0.00    -0.206 F 
HETATM   16  C   UNL     1      -4.650  -0.971 -33.367  1.00  0.00     0.044 A 
HETATM   17  C   UNL     1      -5.438   0.182 -33.352  1.00  0.00     0.032 A 
ENDBRANCH   8  11
ENDBRANCH   6   7
ENDBRANCH   3   6
ENDBRANCH   1   2
BRANCH   1  18
HETATM   18  O   UNL     1      -5.616   6.098 -32.250  1.00  0.00    -0.308 OA
BRANCH  18  19
HETATM   19  C   UNL     1      -4.606   5.358 -31.732  1.00  0.00     0.295 C 
HETATM   20  O   UNL     1      -4.611   4.767 -30.663  1.00  0.00    -0.259 OA
BRANCH  19  21
HETATM   21  C   UNL     1      -3.457   5.367 -32.672  1.00  0.00     0.060 A 
HETATM   22  C   UNL     1      -2.130   5.325 -32.187  1.00  0.00     0.025 A 
HETATM   23  C   UNL     1      -1.104   5.354 -33.149  1.00  0.00     0.024 A 
HETATM   24  C   UNL     1      -1.379   5.343 -34.522  1.00  0.00     0.002 A 
HETATM   25  C   UNL     1      -2.692   5.331 -34.976  1.00  0.00     0.001 A 
HETATM   26  C   UNL     1      -3.732   5.348 -34.053  1.00  0.00     0.019 A 
BRANCH  22  27
HETATM   27  N   UNL     1      -1.864   5.410 -30.809  1.00  0.00    -0.286 NA
HETATM   28  H   UNL     1      -2.588   4.920 -30.275  1.00  0.00     0.128 HD
BRANCH  27  29
HETATM   29  C   UNL     1      -0.523   5.113 -30.303  1.00  0.00     0.157 C 
BRANCH  29  30
HETATM   30  C   UNL     1       0.072   6.166 -29.428  1.00  0.00     0.065 A 
HETATM   31  O   UNL     1       0.308   5.802 -28.132  1.00  0.00    -0.326 OA
HETATM   32  C   UNL     1       0.850   6.876 -27.506  1.00  0.00     0.142 A 
HETATM   33  C   UNL     1       0.961   7.935 -28.377  1.00  0.00     0.027 A 
HETATM   34  C   UNL     1       0.458   7.478 -29.619  1.00  0.00     0.036 A 
ENDBRANCH  29  30
ENDBRANCH  27  29
ENDBRANCH  22  27
ENDBRANCH  19  21
ENDBRANCH  18  19
ENDBRANCH   1  18
TORSDOF 10
ENDMDL
MODEL 9
REMARK VINA RESULT:      -8.0      1.915      4.303
REMARK  10 active torsions:
REMARK  status: ('A' for Active; 'I' for Inactive)
REMARK       I    between atoms: N_2  and  C_3 
REMARK    1  A    between atoms: N_2  and  C_22 
REMARK    2  A    between atoms: C_3  and  C_4 
REMARK    3  A    between atoms: C_4  and  O_5 
REMARK    4  A    between atoms: O_5  and  C_6 
REMARK    5  A    between atoms: C_6  and  C_7 
REMARK    6  A    between atoms: C_8  and  N_9 
REMARK    7  A    between atoms: N_9  and  C_10 
REMARK    8  A    between atoms: C_10  and  C_11 
REMARK    9  A    between atoms: C_22  and  C_23 
REMARK       I    between atoms: C_23  and  N_24 
REMARK   10  A    between atoms: N_24  and  C_25 
ROOT
HETATM    1  C   UNL     1      -4.455   5.964 -31.032  1.00  0.00     0.281 C 
ENDROOT
BRANCH   1   2
HETATM    2  C   UNL     1      -4.684   4.463 -30.825  1.00  0.00     0.244 C 
HETATM    3  N   UNL     1      -5.986   4.016 -30.628  1.00  0.00    -0.346 N 
HETATM    4  C   UNL     1      -7.171   4.818 -30.894  1.00  0.00     0.153 C 
HETATM    5  O   UNL     1      -3.748   3.655 -30.876  1.00  0.00    -0.271 OA
BRANCH   3   6
HETATM    6  C   UNL     1      -6.198   2.571 -30.475  1.00  0.00     0.228 C 
BRANCH   6   7
HETATM    7  C   UNL     1      -6.199   1.842 -31.826  1.00  0.00     0.240 C 
HETATM    8  N   UNL     1      -6.007   0.477 -31.693  1.00  0.00    -0.326 N 
HETATM    9  H   UNL     1      -5.848   0.149 -30.738  1.00  0.00     0.169 HD
HETATM   10  O   UNL     1      -6.339   2.465 -32.875  1.00  0.00    -0.271 OA
BRANCH   8  11
HETATM   11  C   UNL     1      -5.938  -0.493 -32.710  1.00  0.00     0.035 A 
HETATM   12  C   UNL     1      -7.033  -0.899 -33.477  1.00  0.00     0.032 A 
HETATM   13  C   UNL     1      -6.879  -1.871 -34.469  1.00  0.00     0.044 A 
HETATM   14  C   UNL     1      -5.629  -2.434 -34.694  1.00  0.00     0.116 A 
HETATM   15  F   UNL     1      -5.482  -3.364 -35.646  1.00  0.00    -0.206 F 
HETATM   16  C   UNL     1      -4.529  -2.045 -33.941  1.00  0.00     0.044 A 
HETATM   17  C   UNL     1      -4.684  -1.078 -32.946  1.00  0.00     0.032 A 
ENDBRANCH   8  11
ENDBRANCH   6   7
ENDBRANCH   3   6
ENDBRANCH   1   2
BRANCH   1  18
HETATM   18  O   UNL     1      -3.606   6.458 -29.991  1.00  0.00    -0.308 OA
BRANCH  18  19
HETATM   19  C   UNL     1      -2.868   7.548 -30.307  1.00  0.00     0.295 C 
HETATM   20  O   UNL     1      -3.171   8.427 -31.099  1.00  0.00    -0.259 OA
BRANCH  19  21
HETATM   21  C   UNL     1      -1.600   7.525 -29.534  1.00  0.00     0.060 A 
HETATM   22  C   UNL     1      -0.713   6.430 -29.639  1.00  0.00     0.025 A 
HETATM   23  C   UNL     1       0.455   6.485 -28.859  1.00  0.00     0.024 A 
HETATM   24  C   UNL     1       0.769   7.604 -28.077  1.00  0.00     0.002 A 
HETATM   25  C   UNL     1      -0.094   8.692 -28.030  1.00  0.00     0.001 A 
HETATM   26  C   UNL     1      -1.280   8.653 -28.754  1.00  0.00     0.019 A 
BRANCH  22  27
HETATM   27  N   UNL     1      -1.071   5.281 -30.369  1.00  0.00    -0.286 NA
HETATM   28  H   UNL     1      -2.090   5.191 -30.415  1.00  0.00     0.128 HD
BRANCH  27  29
HETATM   29  C   UNL     1      -0.443   5.012 -31.663  1.00  0.00     0.157 C 
BRANCH  29  30
HETATM   30  C   UNL     1      -1.287   5.325 -32.854  1.00  0.00     0.065 A 
HETATM   31  O   UNL     1      -1.369   6.647 -33.195  1.00  0.00    -0.326 OA
HETATM   32  C   UNL     1      -2.163   6.728 -34.292  1.00  0.00     0.142 A 
HETATM   33  C   UNL     1      -2.603   5.479 -34.661  1.00  0.00     0.027 A 
HETATM   34  C   UNL     1      -2.039   4.571 -33.733  1.00  0.00     0.036 A 
ENDBRANCH  29  30
ENDBRANCH  27  29
ENDBRANCH  22  27
ENDBRANCH  19  21
ENDBRANCH  18  19
ENDBRANCH   1  18
TORSDOF 10
ENDMDL
MODEL 10
REMARK VINA RESULT:      -8.0      4.605      8.612
REMARK  10 active torsions:
REMARK  status: ('A' for Active; 'I' for Inactive)
REMARK       I    between atoms: N_2  and  C_3 
REMARK    1  A    between atoms: N_2  and  C_22 
REMARK    2  A    between atoms: C_3  and  C_4 
REMARK    3  A    between atoms: C_4  and  O_5 
REMARK    4  A    between atoms: O_5  and  C_6 
REMARK    5  A    between atoms: C_6  and  C_7 
REMARK    6  A    between atoms: C_8  and  N_9 
REMARK    7  A    between atoms: N_9  and  C_10 
REMARK    8  A    between atoms: C_10  and  C_11 
REMARK    9  A    between atoms: C_22  and  C_23 
REMARK       I    between atoms: C_23  and  N_24 
REMARK   10  A    between atoms: N_24  and  C_25 
ROOT
HETATM    1  C   UNL     1      -8.651   3.355 -32.026  1.00  0.00     0.281 C 
ENDROOT
BRANCH   1   2
HETATM    2  C   UNL     1      -7.367   2.633 -31.608  1.00  0.00     0.244 C 
HETATM    3  N   UNL     1      -6.353   2.491 -32.550  1.00  0.00    -0.346 N 
HETATM    4  C   UNL     1      -6.299   3.227 -33.805  1.00  0.00     0.153 C 
HETATM    5  O   UNL     1      -7.204   2.223 -30.451  1.00  0.00    -0.271 OA
BRANCH   3   6
HETATM    6  C   UNL     1      -5.109   1.837 -32.125  1.00  0.00     0.228 C 
BRANCH   6   7
HETATM    7  C   UNL     1      -5.200   0.308 -32.219  1.00  0.00     0.240 C 
HETATM    8  N   UNL     1      -5.402  -0.133 -33.516  1.00  0.00    -0.326 N 
HETATM    9  H   UNL     1      -5.507   0.603 -34.217  1.00  0.00     0.169 HD
HETATM   10  O   UNL     1      -5.117  -0.389 -31.211  1.00  0.00    -0.271 OA
BRANCH   8  11
HETATM   11  C   UNL     1      -5.546  -1.457 -33.970  1.00  0.00     0.035 A 
HETATM   12  C   UNL     1      -6.762  -2.015 -34.375  1.00  0.00     0.032 A 
HETATM   13  C   UNL     1      -6.819  -3.341 -34.813  1.00  0.00     0.044 A 
HETATM   14  C   UNL     1      -5.660  -4.106 -34.847  1.00  0.00     0.116 A 
HETATM   15  F   UNL     1      -5.716  -5.376 -35.269  1.00  0.00    -0.206 F 
HETATM   16  C   UNL     1      -4.443  -3.570 -34.447  1.00  0.00     0.044 A 
HETATM   17  C   UNL     1      -4.387  -2.247 -34.005  1.00  0.00     0.032 A 
ENDBRANCH   8  11
ENDBRANCH   6   7
ENDBRANCH   3   6
ENDBRANCH   1   2
BRANCH   1  18
HETATM   18  O   UNL     1      -9.612   2.389 -32.464  1.00  0.00    -0.308 OA
BRANCH  18  19
HETATM   19  C   UNL     1     -10.159   2.618 -33.682  1.00  0.00     0.295 C 
HETATM   20  O   UNL     1      -9.716   3.353 -34.551  1.00  0.00    -0.259 OA
BRANCH  19  21
HETATM   21  C   UNL     1     -11.408   1.828 -33.817  1.00  0.00     0.060 A 
HETATM   22  C   UNL     1     -12.550   2.388 -34.436  1.00  0.00     0.025 A 
HETATM   23  C   UNL     1     -13.694   1.574 -34.506  1.00  0.00     0.024 A 
HETATM   24  C   UNL     1     -13.684   0.246 -34.059  1.00  0.00     0.002 A 
HETATM   25  C   UNL     1     -12.534  -0.299 -33.502  1.00  0.00     0.001 A 
HETATM   26  C   UNL     1     -11.397   0.491 -33.376  1.00  0.00     0.019 A 
BRANCH  22  27
HETATM   27  N   UNL     1     -12.573   3.742 -34.814  1.00  0.00    -0.286 NA
HETATM   28  H   UNL     1     -12.830   3.832 -35.802  1.00  0.00     0.128 HD
BRANCH  27  29
HETATM   29  C   UNL     1     -13.270   4.723 -33.981  1.00  0.00     0.157 C 
BRANCH  29  30
HETATM   30  C   UNL     1     -13.089   4.547 -32.510  1.00  0.00     0.065 A 
HETATM   31  O   UNL     1     -11.919   5.028 -31.991  1.00  0.00    -0.326 OA
HETATM   32  C   UNL     1     -11.942   4.785 -30.657  1.00  0.00     0.142 A 
HETATM   33  C   UNL     1     -13.108   4.147 -30.305  1.00  0.00     0.027 A 
HETATM   34  C   UNL     1     -13.850   3.992 -31.501  1.00  0.00     0.036 A 
ENDBRANCH  29  30
ENDBRANCH  27  29
ENDBRANCH  22  27
ENDBRANCH  19  21
ENDBRANCH  18  19
ENDBRANCH   1  18
TORSDOF 10
ENDMDL
