MODEL 1
REMARK VINA RESULT:      -9.4      0.000      0.000
REMARK  11 active torsions:
REMARK  status: ('A' for Active; 'I' for Inactive)
REMARK    1  A    between atoms: N_13  and  C_14 
REMARK    2  A    between atoms: C_14  and  C_15 
REMARK    3  A    between atoms: N_20  and  C_21 
REMARK    4  A    between atoms: C_21  and  C_22 
REMARK    5  A    between atoms: C_22  and  O_23 
REMARK    6  A    between atoms: C_22  and  C_24 
REMARK    7  A    between atoms: C_24  and  N_25 
REMARK    8  A    between atoms: N_25  and  C_27 
REMARK    9  A    between atoms: N_25  and  C_34 
REMARK   10  A    between atoms: C_27  and  C_28 
REMARK   11  A    between atoms: C_34  and  C_35 
ROOT
HETATM    1  C   UNL     1      -6.704   6.940 -32.409  1.00  0.00     0.163 C 
HETATM    2  N   UNL     1      -6.786   5.599 -31.852  1.00  0.00    -0.285 N 
HETATM    3  C   UNL     1      -7.997   5.113 -31.355  1.00  0.00     0.332 A 
HETATM    4  O   UNL     1      -9.023   5.796 -31.362  1.00  0.00    -0.246 OA
HETATM    5  N   UNL     1      -7.996   3.796 -30.848  1.00  0.00    -0.269 N 
HETATM    6  C   UNL     1      -9.242   3.265 -30.327  1.00  0.00     0.164 C 
HETATM    7  C   UNL     1      -6.889   2.947 -30.803  1.00  0.00     0.282 A 
HETATM    8  O   UNL     1      -6.915   1.793 -30.382  1.00  0.00    -0.265 OA
HETATM    9  C   UNL     1      -5.705   3.533 -31.324  1.00  0.00     0.166 A 
HETATM   10  C   UNL     1      -5.670   4.800 -31.816  1.00  0.00     0.186 A 
HETATM   11  N   UNL     1      -4.432   5.131 -32.264  1.00  0.00    -0.044 NA
HETATM   12  C   UNL     1      -3.682   4.074 -32.037  1.00  0.00     0.705 A 
HETATM   13  N   UNL     1      -2.372   3.939 -32.307  1.00  0.00    -0.218 N 
HETATM   14  N   UNL     1      -4.434   3.046 -31.498  1.00  0.00    -0.170 N 
HETATM   15  H   UNL     1      -1.786   3.256 -31.835  1.00  0.00     0.178 HD
ENDROOT
BRANCH  14  16
HETATM   16  C   UNL     1      -3.998   1.678 -31.254  1.00  0.00     0.181 C 
BRANCH  16  17
HETATM   17  C   UNL     1      -4.157   0.784 -32.493  1.00  0.00     0.163 C 
BRANCH  17  18
HETATM   18  O   UNL     1      -3.012  -0.069 -32.645  1.00  0.00    -0.392 OA
HETATM   19  H   UNL     1      -2.341   0.138 -31.965  1.00  0.00     0.210 HD
ENDBRANCH  17  18
BRANCH  17  20
HETATM   20  C   UNL     1      -5.365  -0.180 -32.421  1.00  0.00     0.268 C 
BRANCH  20  21
HETATM   21  N   UNL     1      -6.427  -0.055 -33.493  1.00  0.00    -0.061 N 
HETATM   22  H   UNL     1      -6.501   0.936 -33.742  1.00  0.00     0.280 HD
BRANCH  21  23
HETATM   23  C   UNL     1      -6.140  -0.794 -34.790  1.00  0.00     0.273 C 
BRANCH  23  24
HETATM   24  C   UNL     1      -5.784  -2.251 -34.668  1.00  0.00    -0.033 A 
HETATM   25  C   UNL     1      -6.741  -3.247 -34.923  1.00  0.00     0.009 A 
HETATM   26  C   UNL     1      -6.413  -4.597 -34.793  1.00  0.00     0.001 A 
HETATM   27  C   UNL     1      -5.127  -4.971 -34.417  1.00  0.00     0.000 A 
HETATM   28  C   UNL     1      -4.162  -3.997 -34.182  1.00  0.00     0.001 A 
HETATM   29  C   UNL     1      -4.485  -2.645 -34.312  1.00  0.00     0.009 A 
ENDBRANCH  23  24
ENDBRANCH  21  23
BRANCH  21  30
HETATM   30  C   UNL     1      -7.804  -0.415 -32.953  1.00  0.00     0.273 C 
BRANCH  30  31
HETATM   31  C   UNL     1      -8.888   0.551 -33.356  1.00  0.00    -0.033 A 
HETATM   32  C   UNL     1      -8.573   1.795 -33.926  1.00  0.00     0.009 A 
HETATM   33  C   UNL     1      -9.590   2.687 -34.269  1.00  0.00     0.001 A 
HETATM   34  C   UNL     1     -10.924   2.350 -34.052  1.00  0.00     0.000 A 
HETATM   35  C   UNL     1     -11.248   1.116 -33.495  1.00  0.00     0.001 A 
HETATM   36  C   UNL     1     -10.237   0.219 -33.150  1.00  0.00     0.009 A 
ENDBRANCH  30  31
ENDBRANCH  21  30
ENDBRANCH  20  21
ENDBRANCH  17  20
ENDBRANCH  16  17
ENDBRANCH  14  16
BRANCH  13  37
HETATM   37  C   UNL     1      -1.599   5.148 -32.590  1.00  0.00     0.203 C 
BRANCH  37  38
HETATM   38  C   UNL     1      -0.684   5.541 -31.472  1.00  0.00     0.070 A 
HETATM   39  O   UNL     1      -0.449   4.604 -30.500  1.00  0.00    -0.325 OA
HETATM   40  C   UNL     1       0.382   5.177 -29.592  1.00  0.00     0.142 A 
HETATM   41  C   UNL     1       0.680   6.469 -29.958  1.00  0.00     0.027 A 
HETATM   42  C   UNL     1      -0.008   6.705 -31.172  1.00  0.00     0.036 A 
ENDBRANCH  37  38
ENDBRANCH  13  37
TORSDOF 11
ENDMDL
MODEL 2
REMARK VINA RESULT:      -9.2      3.084      6.370
REMARK  11 active torsions:
REMARK  status: ('A' for Active; 'I' for Inactive)
REMARK    1  A    between atoms: N_13  and  C_14 
REMARK    2  A    between atoms: C_14  and  C_15 
REMARK    3  A    between atoms: N_20  and  C_21 
REMARK    4  A    between atoms: C_21  and  C_22 
REMARK    5  A    between atoms: C_22  and  O_23 
REMARK    6  A    between atoms: C_22  and  C_24 
REMARK    7  A    between atoms: C_24  and  N_25 
REMARK    8  A    between atoms: N_25  and  C_27 
REMARK    9  A    between atoms: N_25  and  C_34 
REMARK   10  A    between atoms: C_27  and  C_28 
REMARK   11  A    between atoms: C_34  and  C_35 
ROOT
HETATM    1  C   UNL     1     -13.092   6.143 -32.112  1.00  0.00     0.163 C 
HETATM    2  N   UNL     1     -13.113   4.730 -32.457  1.00  0.00    -0.285 N 
HETATM    3  C   UNL     1     -14.307   4.008 -32.409  1.00  0.00     0.332 A 
HETATM    4  O   UNL     1     -15.370   4.532 -32.067  1.00  0.00    -0.246 OA
HETATM    5  N   UNL     1     -14.245   2.647 -32.776  1.00  0.00    -0.269 N 
HETATM    6  C   UNL     1     -15.473   1.873 -32.736  1.00  0.00     0.164 C 
HETATM    7  C   UNL     1     -13.095   1.969 -33.180  1.00  0.00     0.282 A 
HETATM    8  O   UNL     1     -13.067   0.789 -33.522  1.00  0.00    -0.265 OA
HETATM    9  C   UNL     1     -11.932   2.784 -33.191  1.00  0.00     0.166 A 
HETATM   10  C   UNL     1     -11.955   4.097 -32.839  1.00  0.00     0.186 A 
HETATM   11  N   UNL     1     -10.727   4.666 -32.938  1.00  0.00    -0.044 NA
HETATM   12  C   UNL     1      -9.925   3.703 -33.338  1.00  0.00     0.705 A 
HETATM   13  N   UNL     1      -8.603   3.793 -33.564  1.00  0.00    -0.218 N 
HETATM   14  N   UNL     1     -10.632   2.533 -33.549  1.00  0.00    -0.170 N 
HETATM   15  H   UNL     1      -7.992   2.981 -33.554  1.00  0.00     0.178 HD
ENDROOT
BRANCH  14  16
HETATM   16  C   UNL     1     -10.126   1.299 -34.135  1.00  0.00     0.181 C 
BRANCH  16  17
HETATM   17  C   UNL     1      -9.615   0.314 -33.073  1.00  0.00     0.163 C 
BRANCH  17  18
HETATM   18  O   UNL     1     -10.690  -0.511 -32.599  1.00  0.00    -0.392 OA
HETATM   19  H   UNL     1     -11.164  -0.919 -33.351  1.00  0.00     0.210 HD
ENDBRANCH  17  18
BRANCH  17  20
HETATM   20  C   UNL     1      -8.551  -0.678 -33.597  1.00  0.00     0.268 C 
BRANCH  20  21
HETATM   21  N   UNL     1      -7.118  -0.193 -33.674  1.00  0.00    -0.061 N 
HETATM   22  H   UNL     1      -7.142   0.818 -33.834  1.00  0.00     0.280 HD
BRANCH  21  23
HETATM   23  C   UNL     1      -6.286  -0.402 -32.419  1.00  0.00     0.273 C 
BRANCH  23  24
HETATM   24  C   UNL     1      -5.484   0.778 -31.941  1.00  0.00    -0.033 A 
HETATM   25  C   UNL     1      -6.056   1.739 -31.092  1.00  0.00     0.009 A 
HETATM   26  C   UNL     1      -5.315   2.841 -30.663  1.00  0.00     0.001 A 
HETATM   27  C   UNL     1      -3.993   2.994 -31.069  1.00  0.00     0.000 A 
HETATM   28  C   UNL     1      -3.405   2.040 -31.893  1.00  0.00     0.001 A 
HETATM   29  C   UNL     1      -4.142   0.935 -32.323  1.00  0.00     0.009 A 
ENDBRANCH  23  24
ENDBRANCH  21  23
BRANCH  21  30
HETATM   30  C   UNL     1      -6.409  -0.755 -34.899  1.00  0.00     0.273 C 
BRANCH  30  31
HETATM   31  C   UNL     1      -5.920  -2.169 -34.724  1.00  0.00    -0.033 A 
HETATM   32  C   UNL     1      -6.767  -3.263 -34.966  1.00  0.00     0.009 A 
HETATM   33  C   UNL     1      -6.303  -4.565 -34.774  1.00  0.00     0.001 A 
HETATM   34  C   UNL     1      -4.998  -4.790 -34.343  1.00  0.00     0.000 A 
HETATM   35  C   UNL     1      -4.147  -3.714 -34.108  1.00  0.00     0.001 A 
HETATM   36  C   UNL     1      -4.603  -2.410 -34.298  1.00  0.00     0.009 A 
ENDBRANCH  30  31
ENDBRANCH  21  30
ENDBRANCH  20  21
ENDBRANCH  17  20
ENDBRANCH  16  17
ENDBRANCH  14  16
BRANCH  13  37
HETATM   37  C   UNL     1      -7.892   4.958 -33.037  1.00  0.00     0.203 C 
BRANCH  37  38
HETATM   38  C   UNL     1      -6.449   4.999 -33.432  1.00  0.00     0.070 A 
HETATM   39  O   UNL     1      -5.689   6.016 -32.915  1.00  0.00    -0.325 OA
HETATM   40  C   UNL     1      -4.436   5.867 -33.417  1.00  0.00     0.142 A 
HETATM   41  C   UNL     1      -4.378   4.778 -34.254  1.00  0.00     0.027 A 
HETATM   42  C   UNL     1      -5.677   4.216 -34.265  1.00  0.00     0.036 A 
ENDBRANCH  37  38
ENDBRANCH  13  37
TORSDOF 11
ENDMDL
MODEL 3
REMARK VINA RESULT:      -9.1      1.327      3.982
REMARK  11 active torsions:
REMARK  status: ('A' for Active; 'I' for Inactive)
REMARK    1  A    between atoms: N_13  and  C_14 
REMARK    2  A    between atoms: C_14  and  C_15 
REMARK    3  A    between atoms: N_20  and  C_21 
REMARK    4  A    between atoms: C_21  and  C_22 
REMARK    5  A    between atoms: C_22  and  O_23 
REMARK    6  A    between atoms: C_22  and  C_24 
REMARK    7  A    between atoms: C_24  and  N_25 
REMARK    8  A    between atoms: N_25  and  C_27 
REMARK    9  A    between atoms: N_25  and  C_34 
REMARK   10  A    between atoms: C_27  and  C_28 
REMARK   11  A    between atoms: C_34  and  C_35 
ROOT
HETATM    1  C   UNL     1      -7.940   7.795 -32.000  1.00  0.00     0.163 C 
HETATM    2  N   UNL     1      -8.047   6.412 -31.566  1.00  0.00    -0.285 N 
HETATM    3  C   UNL     1      -9.288   5.772 -31.542  1.00  0.00     0.332 A 
HETATM    4  O   UNL     1     -10.324   6.353 -31.874  1.00  0.00    -0.246 OA
HETATM    5  N   UNL     1      -9.304   4.425 -31.124  1.00  0.00    -0.269 N 
HETATM    6  C   UNL     1     -10.581   3.736 -31.091  1.00  0.00     0.164 C 
HETATM    7  C   UNL     1      -8.187   3.685 -30.736  1.00  0.00     0.282 A 
HETATM    8  O   UNL     1      -8.218   2.503 -30.400  1.00  0.00    -0.265 OA
HETATM    9  C   UNL     1      -6.974   4.422 -30.787  1.00  0.00     0.166 A 
HETATM   10  C   UNL     1      -6.923   5.722 -31.180  1.00  0.00     0.186 A 
HETATM   11  N   UNL     1      -5.655   6.206 -31.156  1.00  0.00    -0.044 NA
HETATM   12  C   UNL     1      -4.908   5.210 -30.730  1.00  0.00     0.705 A 
HETATM   13  N   UNL     1      -3.578   5.224 -30.534  1.00  0.00    -0.218 N 
HETATM   14  N   UNL     1      -5.671   4.075 -30.530  1.00  0.00    -0.170 N 
HETATM   15  H   UNL     1      -3.111   4.565 -29.919  1.00  0.00     0.178 HD
ENDROOT
BRANCH  14  16
HETATM   16  C   UNL     1      -5.186   2.739 -30.211  1.00  0.00     0.181 C 
BRANCH  16  17
HETATM   17  C   UNL     1      -4.650   2.000 -31.446  1.00  0.00     0.163 C 
BRANCH  17  18
HETATM   18  O   UNL     1      -3.214   1.992 -31.440  1.00  0.00    -0.392 OA
HETATM   19  H   UNL     1      -2.866   2.611 -32.112  1.00  0.00     0.210 HD
ENDBRANCH  17  18
BRANCH  17  20
HETATM   20  C   UNL     1      -5.058   0.510 -31.513  1.00  0.00     0.268 C 
BRANCH  20  21
HETATM   21  N   UNL     1      -5.690   0.013 -32.796  1.00  0.00    -0.061 N 
HETATM   22  H   UNL     1      -6.375  -0.706 -32.545  1.00  0.00     0.280 HD
BRANCH  21  23
HETATM   23  C   UNL     1      -6.449   1.055 -33.600  1.00  0.00     0.273 C 
BRANCH  23  24
HETATM   24  C   UNL     1      -7.951   0.976 -33.556  1.00  0.00    -0.033 A 
HETATM   25  C   UNL     1      -8.739   1.903 -34.258  1.00  0.00     0.009 A 
HETATM   26  C   UNL     1     -10.132   1.837 -34.201  1.00  0.00     0.001 A 
HETATM   27  C   UNL     1     -10.755   0.843 -33.453  1.00  0.00     0.000 A 
HETATM   28  C   UNL     1      -9.988  -0.095 -32.771  1.00  0.00     0.001 A 
HETATM   29  C   UNL     1      -8.595  -0.034 -32.825  1.00  0.00     0.009 A 
ENDBRANCH  23  24
ENDBRANCH  21  23
BRANCH  21  30
HETATM   30  C   UNL     1      -4.676  -0.717 -33.666  1.00  0.00     0.273 C 
BRANCH  30  31
HETATM   31  C   UNL     1      -5.093  -2.113 -34.047  1.00  0.00    -0.033 A 
HETATM   32  C   UNL     1      -4.203  -3.192 -33.928  1.00  0.00     0.009 A 
HETATM   33  C   UNL     1      -4.599  -4.475 -34.309  1.00  0.00     0.001 A 
HETATM   34  C   UNL     1      -5.881  -4.695 -34.808  1.00  0.00     0.000 A 
HETATM   35  C   UNL     1      -6.775  -3.634 -34.923  1.00  0.00     0.001 A 
HETATM   36  C   UNL     1      -6.386  -2.350 -34.543  1.00  0.00     0.009 A 
ENDBRANCH  30  31
ENDBRANCH  21  30
ENDBRANCH  20  21
ENDBRANCH  17  20
ENDBRANCH  16  17
ENDBRANCH  14  16
BRANCH  13  37
HETATM   37  C   UNL     1      -2.903   6.521 -30.477  1.00  0.00     0.203 C 
BRANCH  37  38
HETATM   38  C   UNL     1      -1.429   6.432 -30.717  1.00  0.00     0.070 A 
HETATM   39  O   UNL     1      -0.731   5.514 -29.977  1.00  0.00    -0.325 OA
HETATM   40  C   UNL     1       0.573   5.621 -30.342  1.00  0.00     0.142 A 
HETATM   41  C   UNL     1       0.727   6.597 -31.299  1.00  0.00     0.027 A 
HETATM   42  C   UNL     1      -0.565   7.122 -31.542  1.00  0.00     0.036 A 
ENDBRANCH  37  38
ENDBRANCH  13  37
TORSDOF 11
ENDMDL
MODEL 4
REMARK VINA RESULT:      -9.0      2.885      6.394
REMARK  11 active torsions:
REMARK  status: ('A' for Active; 'I' for Inactive)
REMARK    1  A    between atoms: N_13  and  C_14 
REMARK    2  A    between atoms: C_14  and  C_15 
REMARK    3  A    between atoms: N_20  and  C_21 
REMARK    4  A    between atoms: C_21  and  C_22 
REMARK    5  A    between atoms: C_22  and  O_23 
REMARK    6  A    between atoms: C_22  and  C_24 
REMARK    7  A    between atoms: C_24  and  N_25 
REMARK    8  A    between atoms: N_25  and  C_27 
REMARK    9  A    between atoms: N_25  and  C_34 
REMARK   10  A    between atoms: C_27  and  C_28 
REMARK   11  A    between atoms: C_34  and  C_35 
ROOT
HETATM    1  C   UNL     1     -13.567   4.327 -30.473  1.00  0.00     0.163 C 
HETATM    2  N   UNL     1     -13.145   3.559 -31.634  1.00  0.00    -0.285 N 
HETATM    3  C   UNL     1     -14.056   2.745 -32.312  1.00  0.00     0.332 A 
HETATM    4  O   UNL     1     -15.230   2.643 -31.950  1.00  0.00    -0.246 OA
HETATM    5  N   UNL     1     -13.571   2.046 -33.437  1.00  0.00    -0.269 N 
HETATM    6  C   UNL     1     -14.497   1.194 -34.162  1.00  0.00     0.164 C 
HETATM    7  C   UNL     1     -12.265   2.103 -33.925  1.00  0.00     0.282 A 
HETATM    8  O   UNL     1     -11.869   1.506 -34.924  1.00  0.00    -0.265 OA
HETATM    9  C   UNL     1     -11.414   2.949 -33.166  1.00  0.00     0.166 A 
HETATM   10  C   UNL     1     -11.846   3.634 -32.074  1.00  0.00     0.186 A 
HETATM   11  N   UNL     1     -10.856   4.381 -31.524  1.00  0.00    -0.044 NA
HETATM   12  C   UNL     1      -9.793   4.153 -32.264  1.00  0.00     0.705 A 
HETATM   13  N   UNL     1      -8.563   4.670 -32.093  1.00  0.00    -0.218 N 
HETATM   14  N   UNL     1     -10.098   3.310 -33.316  1.00  0.00    -0.170 N 
HETATM   15  H   UNL     1      -7.730   4.231 -32.473  1.00  0.00     0.178 HD
ENDROOT
BRANCH  14  16
HETATM   16  C   UNL     1      -9.231   2.949 -34.429  1.00  0.00     0.181 C 
BRANCH  16  17
HETATM   17  C   UNL     1      -8.509   1.612 -34.197  1.00  0.00     0.163 C 
BRANCH  17  18
HETATM   18  O   UNL     1      -9.081   0.586 -35.023  1.00  0.00    -0.392 OA
HETATM   19  H   UNL     1      -8.507   0.410 -35.794  1.00  0.00     0.210 HD
ENDBRANCH  17  18
BRANCH  17  20
HETATM   20  C   UNL     1      -7.009   1.636 -34.572  1.00  0.00     0.268 C 
BRANCH  20  21
HETATM   21  N   UNL     1      -6.010   1.297 -33.486  1.00  0.00    -0.061 N 
HETATM   22  H   UNL     1      -5.122   1.068 -33.942  1.00  0.00     0.280 HD
BRANCH  21  23
HETATM   23  C   UNL     1      -5.702   2.416 -32.505  1.00  0.00     0.273 C 
BRANCH  23  24
HETATM   24  C   UNL     1      -4.659   3.414 -32.930  1.00  0.00    -0.033 A 
HETATM   25  C   UNL     1      -5.006   4.523 -33.718  1.00  0.00     0.009 A 
HETATM   26  C   UNL     1      -4.034   5.439 -34.125  1.00  0.00     0.001 A 
HETATM   27  C   UNL     1      -2.708   5.264 -33.743  1.00  0.00     0.000 A 
HETATM   28  C   UNL     1      -2.351   4.183 -32.944  1.00  0.00     0.001 A 
HETATM   29  C   UNL     1      -3.321   3.266 -32.534  1.00  0.00     0.009 A 
ENDBRANCH  23  24
ENDBRANCH  21  23
BRANCH  21  30
HETATM   30  C   UNL     1      -6.400   0.020 -32.753  1.00  0.00     0.273 C 
BRANCH  30  31
HETATM   31  C   UNL     1      -6.044  -1.241 -33.495  1.00  0.00    -0.033 A 
HETATM   32  C   UNL     1      -4.704  -1.619 -33.679  1.00  0.00     0.009 A 
HETATM   33  C   UNL     1      -4.393  -2.778 -34.391  1.00  0.00     0.001 A 
HETATM   34  C   UNL     1      -5.408  -3.570 -34.923  1.00  0.00     0.000 A 
HETATM   35  C   UNL     1      -6.741  -3.209 -34.741  1.00  0.00     0.001 A 
HETATM   36  C   UNL     1      -7.059  -2.052 -34.029  1.00  0.00     0.009 A 
ENDBRANCH  30  31
ENDBRANCH  21  30
ENDBRANCH  20  21
ENDBRANCH  17  20
ENDBRANCH  16  17
ENDBRANCH  14  16
BRANCH  13  37
HETATM   37  C   UNL     1      -8.253   5.300 -30.809  1.00  0.00     0.203 C 
BRANCH  37  38
HETATM   38  C   UNL     1      -6.853   5.822 -30.729  1.00  0.00     0.070 A 
HETATM   39  O   UNL     1      -5.943   5.065 -30.038  1.00  0.00    -0.325 OA
HETATM   40  C   UNL     1      -4.761   5.732 -30.080  1.00  0.00     0.142 A 
HETATM   41  C   UNL     1      -4.895   6.909 -30.779  1.00  0.00     0.027 A 
HETATM   42  C   UNL     1      -6.246   6.968 -31.199  1.00  0.00     0.036 A 
ENDBRANCH  37  38
ENDBRANCH  13  37
TORSDOF 11
ENDMDL
MODEL 5
REMARK VINA RESULT:      -9.0      2.053      6.150
REMARK  11 active torsions:
REMARK  status: ('A' for Active; 'I' for Inactive)
REMARK    1  A    between atoms: N_13  and  C_14 
REMARK    2  A    between atoms: C_14  and  C_15 
REMARK    3  A    between atoms: N_20  and  C_21 
REMARK    4  A    between atoms: C_21  and  C_22 
REMARK    5  A    between atoms: C_22  and  O_23 
REMARK    6  A    between atoms: C_22  and  C_24 
REMARK    7  A    between atoms: C_24  and  N_25 
REMARK    8  A    between atoms: N_25  and  C_27 
REMARK    9  A    between atoms: N_25  and  C_34 
REMARK   10  A    between atoms: C_27  and  C_28 
REMARK   11  A    between atoms: C_34  and  C_35 
ROOT
HETATM    1  C   UNL     1      -3.850   8.962 -30.486  1.00  0.00     0.163 C 
HETATM    2  N   UNL     1      -3.403   7.758 -31.167  1.00  0.00    -0.285 N 
HETATM    3  C   UNL     1      -2.390   7.824 -32.127  1.00  0.00     0.332 A 
HETATM    4  O   UNL     1      -1.854   8.891 -32.433  1.00  0.00    -0.246 OA
HETATM    5  N   UNL     1      -2.002   6.608 -32.730  1.00  0.00    -0.269 N 
HETATM    6  C   UNL     1      -0.951   6.648 -33.730  1.00  0.00     0.164 C 
HETATM    7  C   UNL     1      -2.545   5.355 -32.446  1.00  0.00     0.282 A 
HETATM    8  O   UNL     1      -2.174   4.303 -32.963  1.00  0.00    -0.265 OA
HETATM    9  C   UNL     1      -3.570   5.391 -31.464  1.00  0.00     0.166 A 
HETATM   10  C   UNL     1      -3.972   6.545 -30.867  1.00  0.00     0.186 A 
HETATM   11  N   UNL     1      -4.956   6.324 -29.958  1.00  0.00    -0.044 NA
HETATM   12  C   UNL     1      -5.185   5.030 -29.996  1.00  0.00     0.705 A 
HETATM   13  N   UNL     1      -6.090   4.347 -29.273  1.00  0.00    -0.218 N 
HETATM   14  N   UNL     1      -4.324   4.405 -30.879  1.00  0.00    -0.170 N 
HETATM   15  H   UNL     1      -6.444   3.440 -29.559  1.00  0.00     0.178 HD
ENDROOT
BRANCH  14  16
HETATM   16  C   UNL     1      -4.167   2.971 -31.082  1.00  0.00     0.181 C 
BRANCH  16  17
HETATM   17  C   UNL     1      -5.148   2.418 -32.127  1.00  0.00     0.163 C 
BRANCH  17  18
HETATM   18  O   UNL     1      -5.074   3.187 -33.337  1.00  0.00    -0.392 OA
HETATM   19  H   UNL     1      -4.760   2.629 -34.077  1.00  0.00     0.210 HD
ENDBRANCH  17  18
BRANCH  17  20
HETATM   20  C   UNL     1      -4.851   0.963 -32.560  1.00  0.00     0.268 C 
BRANCH  20  21
HETATM   21  N   UNL     1      -5.995  -0.028 -32.519  1.00  0.00    -0.061 N 
HETATM   22  H   UNL     1      -5.655  -0.874 -32.054  1.00  0.00     0.280 HD
BRANCH  21  23
HETATM   23  C   UNL     1      -7.221   0.417 -31.741  1.00  0.00     0.273 C 
BRANCH  23  24
HETATM   24  C   UNL     1      -8.429   0.802 -32.551  1.00  0.00    -0.033 A 
HETATM   25  C   UNL     1      -8.427   1.970 -33.331  1.00  0.00     0.009 A 
HETATM   26  C   UNL     1      -9.555   2.333 -34.069  1.00  0.00     0.001 A 
HETATM   27  C   UNL     1     -10.693   1.533 -34.045  1.00  0.00     0.000 A 
HETATM   28  C   UNL     1     -10.702   0.361 -33.296  1.00  0.00     0.001 A 
HETATM   29  C   UNL     1      -9.576  -0.007 -32.557  1.00  0.00     0.009 A 
ENDBRANCH  23  24
ENDBRANCH  21  23
BRANCH  21  30
HETATM   30  C   UNL     1      -6.375  -0.491 -33.919  1.00  0.00     0.273 C 
BRANCH  30  31
HETATM   31  C   UNL     1      -6.062  -1.940 -34.187  1.00  0.00    -0.033 A 
HETATM   32  C   UNL     1      -4.753  -2.432 -34.065  1.00  0.00     0.009 A 
HETATM   33  C   UNL     1      -4.477  -3.772 -34.342  1.00  0.00     0.001 A 
HETATM   34  C   UNL     1      -5.499  -4.631 -34.739  1.00  0.00     0.000 A 
HETATM   35  C   UNL     1      -6.802  -4.157 -34.857  1.00  0.00     0.001 A 
HETATM   36  C   UNL     1      -7.084  -2.819 -34.581  1.00  0.00     0.009 A 
ENDBRANCH  30  31
ENDBRANCH  21  30
ENDBRANCH  20  21
ENDBRANCH  17  20
ENDBRANCH  16  17
ENDBRANCH  14  16
BRANCH  13  37
HETATM   37  C   UNL     1      -7.146   5.104 -28.600  1.00  0.00     0.203 C 
BRANCH  37  38
HETATM   38  C   UNL     1      -8.329   5.376 -29.474  1.00  0.00     0.070 A 
HETATM   39  O   UNL     1      -8.739   6.679 -29.583  1.00  0.00    -0.325 OA
HETATM   40  C   UNL     1      -9.824   6.685 -30.400  1.00  0.00     0.142 A 
HETATM   41  C   UNL     1     -10.124   5.409 -30.813  1.00  0.00     0.027 A 
HETATM   42  C   UNL     1      -9.160   4.561 -30.216  1.00  0.00     0.036 A 
ENDBRANCH  37  38
ENDBRANCH  13  37
TORSDOF 11
ENDMDL
MODEL 6
REMARK VINA RESULT:      -9.0      2.416      6.293
REMARK  11 active torsions:
REMARK  status: ('A' for Active; 'I' for Inactive)
REMARK    1  A    between atoms: N_13  and  C_14 
REMARK    2  A    between atoms: C_14  and  C_15 
REMARK    3  A    between atoms: N_20  and  C_21 
REMARK    4  A    between atoms: C_21  and  C_22 
REMARK    5  A    between atoms: C_22  and  O_23 
REMARK    6  A    between atoms: C_22  and  C_24 
REMARK    7  A    between atoms: C_24  and  N_25 
REMARK    8  A    between atoms: N_25  and  C_27 
REMARK    9  A    between atoms: N_25  and  C_34 
REMARK   10  A    between atoms: C_27  and  C_28 
REMARK   11  A    between atoms: C_34  and  C_35 
ROOT
HETATM    1  C   UNL     1      -3.747   5.180 -35.399  1.00  0.00     0.163 C 
HETATM    2  N   UNL     1      -3.757   5.288 -33.949  1.00  0.00    -0.285 N 
HETATM    3  C   UNL     1      -2.558   5.292 -33.232  1.00  0.00     0.332 A 
HETATM    4  O   UNL     1      -1.465   5.196 -33.795  1.00  0.00    -0.246 OA
HETATM    5  N   UNL     1      -2.653   5.416 -31.830  1.00  0.00    -0.269 N 
HETATM    6  C   UNL     1      -1.422   5.425 -31.061  1.00  0.00     0.164 C 
HETATM    7  C   UNL     1      -3.841   5.536 -31.107  1.00  0.00     0.282 A 
HETATM    8  O   UNL     1      -3.901   5.671 -29.886  1.00  0.00    -0.265 OA
HETATM    9  C   UNL     1      -5.004   5.515 -31.921  1.00  0.00     0.166 A 
HETATM   10  C   UNL     1      -4.949   5.392 -33.274  1.00  0.00     0.186 A 
HETATM   11  N   UNL     1      -6.186   5.407 -33.831  1.00  0.00    -0.044 NA
HETATM   12  C   UNL     1      -7.023   5.525 -32.823  1.00  0.00     0.705 A 
HETATM   13  N   UNL     1      -8.365   5.571 -32.888  1.00  0.00    -0.218 N 
HETATM   14  N   UNL     1      -6.338   5.639 -31.627  1.00  0.00    -0.170 N 
HETATM   15  H   UNL     1      -8.958   5.341 -32.096  1.00  0.00     0.178 HD
ENDROOT
BRANCH  14  16
HETATM   16  C   UNL     1      -6.906   5.935 -30.319  1.00  0.00     0.181 C 
BRANCH  16  17
HETATM   17  C   UNL     1      -6.885   4.717 -29.383  1.00  0.00     0.163 C 
BRANCH  17  18
HETATM   18  O   UNL     1      -7.307   5.093 -28.064  1.00  0.00    -0.392 OA
HETATM   19  H   UNL     1      -7.534   6.044 -28.037  1.00  0.00     0.210 HD
ENDBRANCH  17  18
BRANCH  17  20
HETATM   20  C   UNL     1      -7.852   3.586 -29.805  1.00  0.00     0.268 C 
BRANCH  20  21
HETATM   21  N   UNL     1      -7.319   2.519 -30.739  1.00  0.00    -0.061 N 
HETATM   22  H   UNL     1      -6.775   2.990 -31.468  1.00  0.00     0.280 HD
BRANCH  21  23
HETATM   23  C   UNL     1      -6.384   1.501 -30.107  1.00  0.00     0.273 C 
BRANCH  23  24
HETATM   24  C   UNL     1      -5.304   0.942 -30.992  1.00  0.00    -0.033 A 
HETATM   25  C   UNL     1      -4.320   1.780 -31.542  1.00  0.00     0.009 A 
HETATM   26  C   UNL     1      -3.329   1.261 -32.376  1.00  0.00     0.001 A 
HETATM   27  C   UNL     1      -3.301  -0.099 -32.664  1.00  0.00     0.000 A 
HETATM   28  C   UNL     1      -4.254  -0.947 -32.110  1.00  0.00     0.001 A 
HETATM   29  C   UNL     1      -5.247  -0.432 -31.274  1.00  0.00     0.009 A 
ENDBRANCH  23  24
ENDBRANCH  21  23
BRANCH  21  30
HETATM   30  C   UNL     1      -8.448   1.830 -31.493  1.00  0.00     0.273 C 
BRANCH  30  31
HETATM   31  C   UNL     1      -8.013   1.184 -32.783  1.00  0.00    -0.033 A 
HETATM   32  C   UNL     1      -8.362  -0.142 -33.082  1.00  0.00     0.009 A 
HETATM   33  C   UNL     1      -7.929  -0.731 -34.271  1.00  0.00     0.001 A 
HETATM   34  C   UNL     1      -7.149  -0.007 -35.170  1.00  0.00     0.000 A 
HETATM   35  C   UNL     1      -6.803   1.311 -34.887  1.00  0.00     0.001 A 
HETATM   36  C   UNL     1      -7.233   1.906 -33.701  1.00  0.00     0.009 A 
ENDBRANCH  30  31
ENDBRANCH  21  30
ENDBRANCH  20  21
ENDBRANCH  17  20
ENDBRANCH  16  17
ENDBRANCH  14  16
BRANCH  13  37
HETATM   37  C   UNL     1      -9.010   5.148 -34.132  1.00  0.00     0.203 C 
BRANCH  37  38
HETATM   38  C   UNL     1     -10.096   4.140 -33.922  1.00  0.00     0.070 A 
HETATM   39  O   UNL     1     -10.776   4.194 -32.734  1.00  0.00    -0.325 OA
HETATM   40  C   UNL     1     -11.689   3.189 -32.756  1.00  0.00     0.142 A 
HETATM   41  C   UNL     1     -11.603   2.484 -33.933  1.00  0.00     0.027 A 
HETATM   42  C   UNL     1     -10.574   3.097 -34.688  1.00  0.00     0.036 A 
ENDBRANCH  37  38
ENDBRANCH  13  37
TORSDOF 11
ENDMDL
MODEL 7
REMARK VINA RESULT:      -9.0      1.633      2.343
REMARK  11 active torsions:
REMARK  status: ('A' for Active; 'I' for Inactive)
REMARK    1  A    between atoms: N_13  and  C_14 
REMARK    2  A    between atoms: C_14  and  C_15 
REMARK    3  A    between atoms: N_20  and  C_21 
REMARK    4  A    between atoms: C_21  and  C_22 
REMARK    5  A    between atoms: C_22  and  O_23 
REMARK    6  A    between atoms: C_22  and  C_24 
REMARK    7  A    between atoms: C_24  and  N_25 
REMARK    8  A    between atoms: N_25  and  C_27 
REMARK    9  A    between atoms: N_25  and  C_34 
REMARK   10  A    between atoms: C_27  and  C_28 
REMARK   11  A    between atoms: C_34  and  C_35 
ROOT
HETATM    1  C   UNL     1      -5.775   8.820 -30.957  1.00  0.00     0.163 C 
HETATM    2  N   UNL     1      -6.122   7.433 -31.221  1.00  0.00    -0.285 N 
HETATM    3  C   UNL     1      -7.421   6.973 -30.989  1.00  0.00     0.332 A 
HETATM    4  O   UNL     1      -8.303   7.714 -30.549  1.00  0.00    -0.246 OA
HETATM    5  N   UNL     1      -7.681   5.618 -31.287  1.00  0.00    -0.269 N 
HETATM    6  C   UNL     1      -9.023   5.115 -31.057  1.00  0.00     0.164 C 
HETATM    7  C   UNL     1      -6.752   4.708 -31.791  1.00  0.00     0.282 A 
HETATM    8  O   UNL     1      -7.005   3.538 -32.070  1.00  0.00    -0.265 OA
HETATM    9  C   UNL     1      -5.461   5.266 -31.987  1.00  0.00     0.166 A 
HETATM   10  C   UNL     1      -5.174   6.565 -31.706  1.00  0.00     0.186 A 
HETATM   11  N   UNL     1      -3.881   6.866 -31.984  1.00  0.00    -0.044 NA
HETATM   12  C   UNL     1      -3.347   5.748 -32.426  1.00  0.00     0.705 A 
HETATM   13  N   UNL     1      -2.074   5.558 -32.816  1.00  0.00    -0.218 N 
HETATM   14  N   UNL     1      -4.295   4.743 -32.487  1.00  0.00    -0.170 N 
HETATM   15  H   UNL     1      -1.642   4.639 -32.837  1.00  0.00     0.178 HD
ENDROOT
BRANCH  14  16
HETATM   16  C   UNL     1      -4.127   3.416 -33.063  1.00  0.00     0.181 C 
BRANCH  16  17
HETATM   17  C   UNL     1      -3.366   2.464 -32.127  1.00  0.00     0.163 C 
BRANCH  17  18
HETATM   18  O   UNL     1      -2.613   3.212 -31.160  1.00  0.00    -0.392 OA
HETATM   19  H   UNL     1      -2.846   4.161 -31.205  1.00  0.00     0.210 HD
ENDBRANCH  17  18
BRANCH  17  20
HETATM   20  C   UNL     1      -4.283   1.541 -31.291  1.00  0.00     0.268 C 
BRANCH  20  21
HETATM   21  N   UNL     1      -4.629   0.186 -31.872  1.00  0.00    -0.061 N 
HETATM   22  H   UNL     1      -4.689   0.291 -32.889  1.00  0.00     0.280 HD
BRANCH  21  23
HETATM   23  C   UNL     1      -3.612  -0.915 -31.622  1.00  0.00     0.273 C 
BRANCH  23  24
HETATM   24  C   UNL     1      -3.710  -2.133 -32.500  1.00  0.00    -0.033 A 
HETATM   25  C   UNL     1      -3.226  -3.376 -32.060  1.00  0.00     0.009 A 
HETATM   26  C   UNL     1      -3.302  -4.501 -32.884  1.00  0.00     0.001 A 
HETATM   27  C   UNL     1      -3.871  -4.402 -34.149  1.00  0.00     0.000 A 
HETATM   28  C   UNL     1      -4.376  -3.183 -34.591  1.00  0.00     0.001 A 
HETATM   29  C   UNL     1      -4.302  -2.056 -33.770  1.00  0.00     0.009 A 
ENDBRANCH  23  24
ENDBRANCH  21  23
BRANCH  21  30
HETATM   30  C   UNL     1      -6.025  -0.255 -31.453  1.00  0.00     0.273 C 
BRANCH  30  31
HETATM   31  C   UNL     1      -7.101   0.109 -32.443  1.00  0.00    -0.033 A 
HETATM   32  C   UNL     1      -8.431   0.295 -32.031  1.00  0.00     0.009 A 
HETATM   33  C   UNL     1      -9.418   0.608 -32.966  1.00  0.00     0.001 A 
HETATM   34  C   UNL     1      -9.093   0.740 -34.314  1.00  0.00     0.000 A 
HETATM   35  C   UNL     1      -7.777   0.565 -34.733  1.00  0.00     0.001 A 
HETATM   36  C   UNL     1      -6.785   0.254 -33.803  1.00  0.00     0.009 A 
ENDBRANCH  30  31
ENDBRANCH  21  30
ENDBRANCH  20  21
ENDBRANCH  17  20
ENDBRANCH  16  17
ENDBRANCH  14  16
BRANCH  13  37
HETATM   37  C   UNL     1      -1.082   6.567 -32.443  1.00  0.00     0.203 C 
BRANCH  37  38
HETATM   38  C   UNL     1      -0.386   6.264 -31.154  1.00  0.00     0.070 A 
HETATM   39  O   UNL     1      -0.002   4.965 -30.942  1.00  0.00    -0.325 OA
HETATM   40  C   UNL     1       0.585   4.922 -29.718  1.00  0.00     0.142 A 
HETATM   41  C   UNL     1       0.579   6.167 -29.135  1.00  0.00     0.027 A 
HETATM   42  C   UNL     1      -0.047   7.035 -30.061  1.00  0.00     0.036 A 
ENDBRANCH  37  38
ENDBRANCH  13  37
TORSDOF 11
ENDMDL
MODEL 8
REMARK VINA RESULT:      -8.9      2.392      5.315
REMARK  11 active torsions:
REMARK  status: ('A' for Active; 'I' for Inactive)
REMARK    1  A    between atoms: N_13  and  C_14 
REMARK    2  A    between atoms: C_14  and  C_15 
REMARK    3  A    between atoms: N_20  and  C_21 
REMARK    4  A    between atoms: C_21  and  C_22 
REMARK    5  A    between atoms: C_22  and  O_23 
REMARK    6  A    between atoms: C_22  and  C_24 
REMARK    7  A    between atoms: C_24  and  N_25 
REMARK    8  A    between atoms: N_25  and  C_27 
REMARK    9  A    between atoms: N_25  and  C_34 
REMARK   10  A    between atoms: C_27  and  C_28 
REMARK   11  A    between atoms: C_34  and  C_35 
ROOT
HETATM    1  C   UNL     1     -10.463   6.619 -34.912  1.00  0.00     0.163 C 
HETATM    2  N   UNL     1     -10.592   5.826 -33.700  1.00  0.00    -0.285 N 
HETATM    3  C   UNL     1     -11.855   5.507 -33.195  1.00  0.00     0.332 A 
HETATM    4  O   UNL     1     -12.890   5.891 -33.746  1.00  0.00    -0.246 OA
HETATM    5  N   UNL     1     -11.895   4.720 -32.025  1.00  0.00    -0.269 N 
HETATM    6  C   UNL     1     -13.195   4.373 -31.480  1.00  0.00     0.164 C 
HETATM    7  C   UNL     1     -10.781   4.237 -31.337  1.00  0.00     0.282 A 
HETATM    8  O   UNL     1     -10.837   3.529 -30.333  1.00  0.00    -0.265 OA
HETATM    9  C   UNL     1      -9.545   4.618 -31.922  1.00  0.00     0.166 A 
HETATM   10  C   UNL     1      -9.470   5.379 -33.046  1.00  0.00     0.186 A 
HETATM   11  N   UNL     1      -8.184   5.602 -33.418  1.00  0.00    -0.044 NA
HETATM   12  C   UNL     1      -7.447   4.992 -32.515  1.00  0.00     0.705 A 
HETATM   13  N   UNL     1      -6.104   4.948 -32.463  1.00  0.00    -0.218 N 
HETATM   14  N   UNL     1      -8.243   4.334 -31.596  1.00  0.00    -0.170 N 
HETATM   15  H   UNL     1      -5.598   4.753 -31.605  1.00  0.00     0.178 HD
ENDROOT
BRANCH  14  16
HETATM   16  C   UNL     1      -7.799   3.429 -30.544  1.00  0.00     0.181 C 
BRANCH  16  17
HETATM   17  C   UNL     1      -7.344   2.069 -31.096  1.00  0.00     0.163 C 
BRANCH  17  18
HETATM   18  O   UNL     1      -6.883   1.227 -30.029  1.00  0.00    -0.392 OA
HETATM   19  H   UNL     1      -7.627   0.716 -29.652  1.00  0.00     0.210 HD
ENDBRANCH  17  18
BRANCH  17  20
HETATM   20  C   UNL     1      -8.470   1.263 -31.783  1.00  0.00     0.268 C 
BRANCH  20  21
HETATM   21  N   UNL     1      -8.375   1.062 -33.281  1.00  0.00    -0.061 N 
HETATM   22  H   UNL     1      -8.639   0.093 -33.481  1.00  0.00     0.280 HD
BRANCH  21  23
HETATM   23  C   UNL     1      -9.296   1.932 -34.120  1.00  0.00     0.273 C 
BRANCH  23  24
HETATM   24  C   UNL     1     -10.747   1.534 -34.157  1.00  0.00    -0.033 A 
HETATM   25  C   UNL     1     -11.195   0.392 -33.474  1.00  0.00     0.009 A 
HETATM   26  C   UNL     1     -12.538   0.015 -33.523  1.00  0.00     0.001 A 
HETATM   27  C   UNL     1     -13.451   0.777 -34.246  1.00  0.00     0.000 A 
HETATM   28  C   UNL     1     -13.027   1.923 -34.910  1.00  0.00     0.001 A 
HETATM   29  C   UNL     1     -11.684   2.304 -34.862  1.00  0.00     0.009 A 
ENDBRANCH  23  24
ENDBRANCH  21  23
BRANCH  21  30
HETATM   30  C   UNL     1      -6.934   1.170 -33.763  1.00  0.00     0.273 C 
BRANCH  30  31
HETATM   31  C   UNL     1      -6.245  -0.160 -33.922  1.00  0.00    -0.033 A 
HETATM   32  C   UNL     1      -6.779  -1.158 -34.753  1.00  0.00     0.009 A 
HETATM   33  C   UNL     1      -6.140  -2.393 -34.868  1.00  0.00     0.001 A 
HETATM   34  C   UNL     1      -4.965  -2.645 -34.162  1.00  0.00     0.000 A 
HETATM   35  C   UNL     1      -4.422  -1.660 -33.341  1.00  0.00     0.001 A 
HETATM   36  C   UNL     1      -5.056  -0.423 -33.223  1.00  0.00     0.009 A 
ENDBRANCH  30  31
ENDBRANCH  21  30
ENDBRANCH  20  21
ENDBRANCH  17  20
ENDBRANCH  16  17
ENDBRANCH  14  16
BRANCH  13  37
HETATM   37  C   UNL     1      -5.352   5.902 -33.279  1.00  0.00     0.203 C 
BRANCH  37  38
HETATM   38  C   UNL     1      -3.964   5.441 -33.599  1.00  0.00     0.070 A 
HETATM   39  O   UNL     1      -3.454   5.798 -34.820  1.00  0.00    -0.325 OA
HETATM   40  C   UNL     1      -2.209   5.263 -34.899  1.00  0.00     0.142 A 
HETATM   41  C   UNL     1      -1.911   4.562 -33.755  1.00  0.00     0.027 A 
HETATM   42  C   UNL     1      -3.044   4.676 -32.914  1.00  0.00     0.036 A 
ENDBRANCH  37  38
ENDBRANCH  13  37
TORSDOF 11
ENDMDL
MODEL 9
REMARK VINA RESULT:      -8.9      1.886      5.169
REMARK  11 active torsions:
REMARK  status: ('A' for Active; 'I' for Inactive)
REMARK    1  A    between atoms: N_13  and  C_14 
REMARK    2  A    between atoms: C_14  and  C_15 
REMARK    3  A    between atoms: N_20  and  C_21 
REMARK    4  A    between atoms: C_21  and  C_22 
REMARK    5  A    between atoms: C_22  and  O_23 
REMARK    6  A    between atoms: C_22  and  C_24 
REMARK    7  A    between atoms: C_24  and  N_25 
REMARK    8  A    between atoms: N_25  and  C_27 
REMARK    9  A    between atoms: N_25  and  C_34 
REMARK   10  A    between atoms: C_27  and  C_28 
REMARK   11  A    between atoms: C_34  and  C_35 
ROOT
HETATM    1  C   UNL     1      -4.020   8.309 -28.891  1.00  0.00     0.163 C 
HETATM    2  N   UNL     1      -3.165   7.369 -29.599  1.00  0.00    -0.285 N 
HETATM    3  C   UNL     1      -1.800   7.303 -29.313  1.00  0.00     0.332 A 
HETATM    4  O   UNL     1      -1.277   8.034 -28.469  1.00  0.00    -0.246 OA
HETATM    5  N   UNL     1      -1.043   6.354 -30.031  1.00  0.00    -0.269 N 
HETATM    6  C   UNL     1       0.379   6.262 -29.752  1.00  0.00     0.164 C 
HETATM    7  C   UNL     1      -1.545   5.481 -30.997  1.00  0.00     0.282 A 
HETATM    8  O   UNL     1      -0.873   4.642 -31.594  1.00  0.00    -0.265 OA
HETATM    9  C   UNL     1      -2.939   5.629 -31.223  1.00  0.00     0.166 A 
HETATM   10  C   UNL     1      -3.698   6.536 -30.552  1.00  0.00     0.186 A 
HETATM   11  N   UNL     1      -4.999   6.482 -30.932  1.00  0.00    -0.044 NA
HETATM   12  C   UNL     1      -5.057   5.549 -31.857  1.00  0.00     0.705 A 
HETATM   13  N   UNL     1      -6.146   5.150 -32.537  1.00  0.00    -0.218 N 
HETATM   14  N   UNL     1      -3.818   4.963 -32.040  1.00  0.00    -0.170 N 
HETATM   15  H   UNL     1      -6.086   4.678 -33.433  1.00  0.00     0.178 HD
ENDROOT
BRANCH  14  16
HETATM   16  C   UNL     1      -3.513   3.799 -32.861  1.00  0.00     0.181 C 
BRANCH  16  17
HETATM   17  C   UNL     1      -3.627   2.484 -32.075  1.00  0.00     0.163 C 
BRANCH  17  18
HETATM   18  O   UNL     1      -2.665   2.453 -31.010  1.00  0.00    -0.392 OA
HETATM   19  H   UNL     1      -2.681   1.585 -30.560  1.00  0.00     0.210 HD
ENDBRANCH  17  18
BRANCH  17  20
HETATM   20  C   UNL     1      -4.995   2.284 -31.382  1.00  0.00     0.268 C 
BRANCH  20  21
HETATM   21  N   UNL     1      -5.856   1.129 -31.851  1.00  0.00    -0.061 N 
HETATM   22  H   UNL     1      -6.014   1.248 -32.855  1.00  0.00     0.280 HD
BRANCH  21  23
HETATM   23  C   UNL     1      -5.248  -0.253 -31.681  1.00  0.00     0.273 C 
BRANCH  23  24
HETATM   24  C   UNL     1      -5.350  -1.181 -32.861  1.00  0.00    -0.033 A 
HETATM   25  C   UNL     1      -6.539  -1.271 -33.603  1.00  0.00     0.009 A 
HETATM   26  C   UNL     1      -6.637  -2.146 -34.687  1.00  0.00     0.001 A 
HETATM   27  C   UNL     1      -5.548  -2.932 -35.049  1.00  0.00     0.000 A 
HETATM   28  C   UNL     1      -4.356  -2.839 -34.339  1.00  0.00     0.001 A 
HETATM   29  C   UNL     1      -4.254  -1.965 -33.254  1.00  0.00     0.009 A 
ENDBRANCH  23  24
ENDBRANCH  21  23
BRANCH  21  30
HETATM   30  C   UNL     1      -7.248   1.192 -31.237  1.00  0.00     0.273 C 
BRANCH  30  31
HETATM   31  C   UNL     1      -8.360   1.220 -32.253  1.00  0.00    -0.033 A 
HETATM   32  C   UNL     1      -9.479   0.382 -32.125  1.00  0.00     0.009 A 
HETATM   33  C   UNL     1     -10.487   0.404 -33.090  1.00  0.00     0.001 A 
HETATM   34  C   UNL     1     -10.393   1.260 -34.185  1.00  0.00     0.000 A 
HETATM   35  C   UNL     1      -9.292   2.102 -34.318  1.00  0.00     0.001 A 
HETATM   36  C   UNL     1      -8.281   2.085 -33.357  1.00  0.00     0.009 A 
ENDBRANCH  30  31
ENDBRANCH  21  30
ENDBRANCH  20  21
ENDBRANCH  17  20
ENDBRANCH  16  17
ENDBRANCH  14  16
BRANCH  13  37
HETATM   37  C   UNL     1      -7.331   6.008 -32.504  1.00  0.00     0.203 C 
BRANCH  37  38
HETATM   38  C   UNL     1      -8.529   5.340 -31.905  1.00  0.00     0.070 A 
HETATM   39  O   UNL     1      -8.343   4.666 -30.726  1.00  0.00    -0.325 OA
HETATM   40  C   UNL     1      -9.544   4.132 -30.384  1.00  0.00     0.142 A 
HETATM   41  C   UNL     1     -10.496   4.442 -31.325  1.00  0.00     0.027 A 
HETATM   42  C   UNL     1      -9.843   5.222 -32.309  1.00  0.00     0.036 A 
ENDBRANCH  37  38
ENDBRANCH  13  37
TORSDOF 11
ENDMDL
MODEL 10
REMARK VINA RESULT:      -8.8      3.088      5.846
REMARK  11 active torsions:
REMARK  status: ('A' for Active; 'I' for Inactive)
REMARK    1  A    between atoms: N_13  and  C_14 
REMARK    2  A    between atoms: C_14  and  C_15 
REMARK    3  A    between atoms: N_20  and  C_21 
REMARK    4  A    between atoms: C_21  and  C_22 
REMARK    5  A    between atoms: C_22  and  O_23 
REMARK    6  A    between atoms: C_22  and  C_24 
REMARK    7  A    between atoms: C_24  and  N_25 
REMARK    8  A    between atoms: N_25  and  C_27 
REMARK    9  A    between atoms: N_25  and  C_34 
REMARK   10  A    between atoms: C_27  and  C_28 
REMARK   11  A    between atoms: C_34  and  C_35 
ROOT
HETATM    1  C   UNL     1     -13.796   6.021 -31.175  1.00  0.00     0.163 C 
HETATM    2  N   UNL     1     -13.676   4.732 -31.838  1.00  0.00    -0.285 N 
HETATM    3  C   UNL     1     -14.799   3.922 -32.017  1.00  0.00     0.332 A 
HETATM    4  O   UNL     1     -15.915   4.261 -31.615  1.00  0.00    -0.246 OA
HETATM    5  N   UNL     1     -14.602   2.695 -32.684  1.00  0.00    -0.269 N 
HETATM    6  C   UNL     1     -15.753   1.834 -32.884  1.00  0.00     0.164 C 
HETATM    7  C   UNL     1     -13.382   2.229 -33.177  1.00  0.00     0.282 A 
HETATM    8  O   UNL     1     -13.236   1.168 -33.780  1.00  0.00    -0.265 OA
HETATM    9  C   UNL     1     -12.300   3.118 -32.942  1.00  0.00     0.166 A 
HETATM   10  C   UNL     1     -12.454   4.306 -32.299  1.00  0.00     0.186 A 
HETATM   11  N   UNL     1     -11.282   4.982 -32.204  1.00  0.00    -0.044 NA
HETATM   12  C   UNL     1     -10.384   4.209 -32.775  1.00  0.00     0.705 A 
HETATM   13  N   UNL     1      -9.069   4.459 -32.909  1.00  0.00    -0.218 N 
HETATM   14  N   UNL     1     -10.973   3.067 -33.285  1.00  0.00    -0.170 N 
HETATM   15  H   UNL     1      -8.387   3.722 -33.057  1.00  0.00     0.178 HD
ENDROOT
BRANCH  14  16
HETATM   16  C   UNL     1     -10.339   2.051 -34.114  1.00  0.00     0.181 C 
BRANCH  16  17
HETATM   17  C   UNL     1      -9.585   1.003 -33.281  1.00  0.00     0.163 C 
BRANCH  17  18
HETATM   18  O   UNL     1     -10.500   0.026 -32.762  1.00  0.00    -0.392 OA
HETATM   19  H   UNL     1     -11.174  -0.201 -33.434  1.00  0.00     0.210 HD
ENDBRANCH  17  18
BRANCH  17  20
HETATM   20  C   UNL     1      -8.546   0.189 -34.087  1.00  0.00     0.268 C 
BRANCH  20  21
HETATM   21  N   UNL     1      -7.450  -0.511 -33.312  1.00  0.00    -0.061 N 
HETATM   22  H   UNL     1      -7.811  -1.424 -33.020  1.00  0.00     0.280 HD
BRANCH  21  23
HETATM   23  C   UNL     1      -6.174  -0.791 -34.087  1.00  0.00     0.273 C 
BRANCH  23  24
HETATM   24  C   UNL     1      -5.794  -2.237 -34.256  1.00  0.00    -0.033 A 
HETATM   25  C   UNL     1      -4.496  -2.678 -33.952  1.00  0.00     0.009 A 
HETATM   26  C   UNL     1      -4.141  -4.017 -34.126  1.00  0.00     0.001 A 
HETATM   27  C   UNL     1      -5.077  -4.932 -34.596  1.00  0.00     0.000 A 
HETATM   28  C   UNL     1      -6.373  -4.516 -34.881  1.00  0.00     0.001 A 
HETATM   29  C   UNL     1      -6.733  -3.178 -34.708  1.00  0.00     0.009 A 
ENDBRANCH  23  24
ENDBRANCH  21  23
BRANCH  21  30
HETATM   30  C   UNL     1      -7.147   0.212 -32.006  1.00  0.00     0.273 C 
BRANCH  30  31
HETATM   31  C   UNL     1      -5.904   1.060 -32.054  1.00  0.00    -0.033 A 
HETATM   32  C   UNL     1      -5.836   2.201 -32.870  1.00  0.00     0.009 A 
HETATM   33  C   UNL     1      -4.666   2.961 -32.920  1.00  0.00     0.001 A 
HETATM   34  C   UNL     1      -3.558   2.594 -32.160  1.00  0.00     0.000 A 
HETATM   35  C   UNL     1      -3.615   1.470 -31.342  1.00  0.00     0.001 A 
HETATM   36  C   UNL     1      -4.782   0.707 -31.286  1.00  0.00     0.009 A 
ENDBRANCH  30  31
ENDBRANCH  21  30
ENDBRANCH  20  21
ENDBRANCH  17  20
ENDBRANCH  16  17
ENDBRANCH  14  16
BRANCH  13  37
HETATM   37  C   UNL     1      -8.484   5.524 -32.093  1.00  0.00     0.203 C 
BRANCH  37  38
HETATM   38  C   UNL     1      -7.479   5.026 -31.103  1.00  0.00     0.070 A 
HETATM   39  O   UNL     1      -6.276   5.681 -31.052  1.00  0.00    -0.325 OA
HETATM   40  C   UNL     1      -5.525   5.055 -30.109  1.00  0.00     0.142 A 
HETATM   41  C   UNL     1      -6.219   4.005 -29.559  1.00  0.00     0.027 A 
HETATM   42  C   UNL     1      -7.482   3.984 -30.199  1.00  0.00     0.036 A 
ENDBRANCH  37  38
ENDBRANCH  13  37
TORSDOF 11
ENDMDL
