MODEL 1
REMARK VINA RESULT:      -8.8      0.000      0.000
REMARK  13 active torsions:
REMARK  status: ('A' for Active; 'I' for Inactive)
REMARK    1  A    between atoms: C_2  and  O_3 
REMARK    2  A    between atoms: O_3  and  C_4 
REMARK    3  A    between atoms: C_5  and  O_6 
REMARK    4  A    between atoms: C_9  and  C_10 
REMARK    5  A    between atoms: N_11  and  C_12 
REMARK    6  A    between atoms: C_12  and  C_13 
REMARK    7  A    between atoms: C_13  and  N_14 
REMARK    8  A    between atoms: C_23  and  O_24 
REMARK    9  A    between atoms: C_25  and  C_26 
REMARK   10  A    between atoms: C_26  and  C_27 
REMARK   11  A    between atoms: C_31  and  O_32 
REMARK   12  A    between atoms: O_32  and  C_33 
REMARK   13  A    between atoms: C_33  and  C_34 
ROOT
HETATM    1  C   UNL     1      -6.588   4.499 -32.415  1.00  0.00     0.161 A 
HETATM    2  N   UNL     1      -7.777   5.263 -32.770  1.00  0.00    -0.332 N 
HETATM    3  C   UNL     1      -8.428   5.699 -31.626  1.00  0.00     0.278 A 
HETATM    4  O   UNL     1      -9.493   6.287 -31.577  1.00  0.00    -0.265 OA
HETATM    5  C   UNL     1      -7.647   5.255 -30.455  1.00  0.00     0.146 A 
HETATM    6  C   UNL     1      -6.622   4.530 -30.920  1.00  0.00     0.059 A 
ENDROOT
BRANCH   6   7
HETATM    7  C   UNL     1      -5.629   3.842 -30.059  1.00  0.00     0.194 C 
HETATM    8  O   UNL     1      -5.113   4.383 -29.091  1.00  0.00    -0.287 OA
BRANCH   7   9
HETATM    9  C   UNL     1      -5.211   2.471 -30.452  1.00  0.00     0.021 A 
HETATM   10  C   UNL     1      -3.994   2.254 -31.121  1.00  0.00    -0.045 A 
HETATM   11  C   UNL     1      -2.994   3.352 -31.350  1.00  0.00     0.049 C 
HETATM   12  C   UNL     1      -3.695   0.954 -31.558  1.00  0.00     0.044 A 
HETATM   13  C   UNL     1      -4.586  -0.103 -31.355  1.00  0.00     0.069 A 
HETATM   14  C   UNL     1      -5.753   0.106 -30.625  1.00  0.00     0.038 A 
HETATM   15  C   UNL     1      -6.061   1.389 -30.165  1.00  0.00     0.019 A 
BRANCH  13  16
HETATM   16  O   UNL     1      -4.193  -1.302 -31.876  1.00  0.00    -0.347 OA
BRANCH  16  17
HETATM   17  C   UNL     1      -3.989  -1.336 -33.291  1.00  0.00     0.214 C 
BRANCH  17  18
HETATM   18  C   UNL     1      -4.782  -2.463 -33.916  1.00  0.00    -0.034 A 
HETATM   19  C   UNL     1      -4.200  -3.734 -34.033  1.00  0.00     0.009 A 
HETATM   20  C   UNL     1      -4.923  -4.803 -34.569  1.00  0.00     0.001 A 
HETATM   21  C   UNL     1      -6.238  -4.616 -34.989  1.00  0.00     0.000 A 
HETATM   22  C   UNL     1      -6.833  -3.363 -34.869  1.00  0.00     0.001 A 
HETATM   23  C   UNL     1      -6.112  -2.295 -34.332  1.00  0.00     0.009 A 
ENDBRANCH  17  18
ENDBRANCH  16  17
ENDBRANCH  13  16
ENDBRANCH   7   9
ENDBRANCH   6   7
BRANCH   1  24
HETATM   24  C   UNL     1      -5.370   5.148 -33.048  1.00  0.00    -0.028 A 
HETATM   25  C   UNL     1      -4.865   4.696 -34.284  1.00  0.00     0.012 A 
HETATM   26  C   UNL     1      -3.706   5.249 -34.822  1.00  0.00     0.040 A 
HETATM   27  C   UNL     1      -3.055   6.261 -34.133  1.00  0.00     0.099 A 
HETATM   28  C   UNL     1      -3.548   6.760 -32.925  1.00  0.00     0.102 A 
HETATM   29  C   UNL     1      -4.704   6.197 -32.381  1.00  0.00     0.049 A 
BRANCH  27  30
HETATM   30  O   UNL     1      -1.904   6.761 -34.672  1.00  0.00    -0.358 OA
HETATM   31  H   UNL     1      -1.322   5.991 -34.831  1.00  0.00     0.218 HD
ENDBRANCH  27  30
BRANCH  28  32
HETATM   32  O   UNL     1      -2.795   7.753 -32.359  1.00  0.00    -0.349 OA
BRANCH  32  33
HETATM   33  C   UNL     1      -2.881   7.909 -30.942  1.00  0.00     0.171 C 
HETATM   34  C   UNL     1      -2.667   9.378 -30.625  1.00  0.00     0.034 C 
ENDBRANCH  32  33
ENDBRANCH  28  32
ENDBRANCH   1  24
BRANCH   5  35
HETATM   35  O   UNL     1      -8.025   5.494 -29.170  1.00  0.00    -0.355 OA
HETATM   36  H   UNL     1      -7.920   4.661 -28.670  1.00  0.00     0.218 HD
ENDBRANCH   5  35
BRANCH   2  37
HETATM   37  C   UNL     1      -8.548   4.956 -33.970  1.00  0.00     0.155 C 
BRANCH  37  38
HETATM   38  C   UNL     1      -8.452   3.487 -34.415  1.00  0.00     0.255 C 
BRANCH  38  39
HETATM   39  N   UNL     1      -9.344   2.583 -33.579  1.00  0.00    -0.066 N 
HETATM   40  H   UNL     1      -9.669   3.140 -32.775  1.00  0.00     0.280 HD
HETATM   41  C   UNL     1     -10.574   2.076 -34.330  1.00  0.00     0.261 C 
HETATM   42  C   UNL     1     -11.366   1.095 -33.461  1.00  0.00     0.195 C 
HETATM   43  O   UNL     1     -10.538   0.004 -33.052  1.00  0.00    -0.388 OA
HETATM   44  C   UNL     1      -9.447   0.456 -32.242  1.00  0.00     0.195 C 
HETATM   45  C   UNL     1      -8.540   1.403 -33.031  1.00  0.00     0.261 C 
ENDBRANCH  38  39
ENDBRANCH  37  38
ENDBRANCH   2  37
TORSDOF 13
ENDMDL
MODEL 2
REMARK VINA RESULT:      -8.7      2.758      6.944
REMARK  13 active torsions:
REMARK  status: ('A' for Active; 'I' for Inactive)
REMARK    1  A    between atoms: C_2  and  O_3 
REMARK    2  A    between atoms: O_3  and  C_4 
REMARK    3  A    between atoms: C_5  and  O_6 
REMARK    4  A    between atoms: C_9  and  C_10 
REMARK    5  A    between atoms: N_11  and  C_12 
REMARK    6  A    between atoms: C_12  and  C_13 
REMARK    7  A    between atoms: C_13  and  N_14 
REMARK    8  A    between atoms: C_23  and  O_24 
REMARK    9  A    between atoms: C_25  and  C_26 
REMARK   10  A    between atoms: C_26  and  C_27 
REMARK   11  A    between atoms: C_31  and  O_32 
REMARK   12  A    between atoms: O_32  and  C_33 
REMARK   13  A    between atoms: C_33  and  C_34 
ROOT
HETATM    1  C   UNL     1      -3.722   6.601 -31.055  1.00  0.00     0.161 A 
HETATM    2  N   UNL     1      -3.464   7.938 -30.537  1.00  0.00    -0.332 N 
HETATM    3  C   UNL     1      -2.663   8.649 -31.419  1.00  0.00     0.278 A 
HETATM    4  O   UNL     1      -2.199   9.760 -31.242  1.00  0.00    -0.265 OA
HETATM    5  C   UNL     1      -2.394   7.791 -32.589  1.00  0.00     0.146 A 
HETATM    6  C   UNL     1      -2.967   6.606 -32.346  1.00  0.00     0.059 A 
ENDROOT
BRANCH   6   7
HETATM    7  C   UNL     1      -2.876   5.433 -33.251  1.00  0.00     0.194 C 
HETATM    8  O   UNL     1      -2.366   5.499 -34.361  1.00  0.00    -0.287 OA
BRANCH   7   9
HETATM    9  C   UNL     1      -3.496   4.162 -32.794  1.00  0.00     0.021 A 
HETATM   10  C   UNL     1      -4.748   3.755 -33.288  1.00  0.00    -0.045 A 
HETATM   11  C   UNL     1      -5.457   4.492 -34.390  1.00  0.00     0.049 C 
HETATM   12  C   UNL     1      -5.334   2.599 -32.750  1.00  0.00     0.044 A 
HETATM   13  C   UNL     1      -4.706   1.873 -31.735  1.00  0.00     0.069 A 
HETATM   14  C   UNL     1      -3.434   2.240 -31.306  1.00  0.00     0.038 A 
HETATM   15  C   UNL     1      -2.824   3.377 -31.843  1.00  0.00     0.019 A 
BRANCH  13  16
HETATM   16  O   UNL     1      -5.410   0.801 -31.267  1.00  0.00    -0.347 OA
BRANCH  16  17
HETATM   17  C   UNL     1      -4.767  -0.471 -31.380  1.00  0.00     0.214 C 
BRANCH  17  18
HETATM   18  C   UNL     1      -5.190  -1.173 -32.652  1.00  0.00    -0.034 A 
HETATM   19  C   UNL     1      -4.295  -2.046 -33.288  1.00  0.00     0.009 A 
HETATM   20  C   UNL     1      -4.674  -2.739 -34.441  1.00  0.00     0.001 A 
HETATM   21  C   UNL     1      -5.952  -2.572 -34.968  1.00  0.00     0.000 A 
HETATM   22  C   UNL     1      -6.855  -1.718 -34.342  1.00  0.00     0.001 A 
HETATM   23  C   UNL     1      -6.479  -1.026 -33.188  1.00  0.00     0.009 A 
ENDBRANCH  17  18
ENDBRANCH  16  17
ENDBRANCH  13  16
ENDBRANCH   7   9
ENDBRANCH   6   7
BRANCH   1  24
HETATM   24  C   UNL     1      -5.222   6.396 -31.182  1.00  0.00    -0.028 A 
HETATM   25  C   UNL     1      -5.987   7.167 -32.080  1.00  0.00     0.012 A 
HETATM   26  C   UNL     1      -7.370   7.022 -32.139  1.00  0.00     0.040 A 
HETATM   27  C   UNL     1      -7.990   6.101 -31.309  1.00  0.00     0.099 A 
HETATM   28  C   UNL     1      -7.260   5.293 -30.434  1.00  0.00     0.102 A 
HETATM   29  C   UNL     1      -5.874   5.447 -30.369  1.00  0.00     0.049 A 
BRANCH  27  30
HETATM   30  O   UNL     1      -9.352   6.005 -31.368  1.00  0.00    -0.358 OA
HETATM   31  H   UNL     1      -9.671   6.096 -30.448  1.00  0.00     0.218 HD
ENDBRANCH  27  30
BRANCH  28  32
HETATM   32  O   UNL     1      -8.010   4.436 -29.675  1.00  0.00    -0.349 OA
BRANCH  32  33
HETATM   33  C   UNL     1      -7.749   3.040 -29.819  1.00  0.00     0.171 C 
HETATM   34  C   UNL     1      -8.617   2.521 -30.951  1.00  0.00     0.034 C 
ENDBRANCH  32  33
ENDBRANCH  28  32
ENDBRANCH   1  24
BRANCH   5  35
HETATM   35  O   UNL     1      -1.612   8.174 -33.633  1.00  0.00    -0.355 OA
HETATM   36  H   UNL     1      -0.763   8.493 -33.268  1.00  0.00     0.218 HD
ENDBRANCH   5  35
BRANCH   2  37
HETATM   37  C   UNL     1      -3.367   8.194 -29.104  1.00  0.00     0.155 C 
BRANCH  37  38
HETATM   38  C   UNL     1      -2.582   7.122 -28.330  1.00  0.00     0.255 C 
BRANCH  38  39
HETATM   39  N   UNL     1      -1.288   7.674 -27.754  1.00  0.00    -0.066 N 
HETATM   40  H   UNL     1      -1.476   8.648 -27.469  1.00  0.00     0.280 HD
HETATM   41  C   UNL     1      -0.791   6.911 -26.529  1.00  0.00     0.261 C 
HETATM   42  C   UNL     1       0.564   7.459 -26.069  1.00  0.00     0.195 C 
HETATM   43  O   UNL     1       1.520   7.391 -27.129  1.00  0.00    -0.388 OA
HETATM   44  C   UNL     1       1.123   8.204 -28.239  1.00  0.00     0.195 C 
HETATM   45  C   UNL     1      -0.200   7.709 -28.830  1.00  0.00     0.261 C 
ENDBRANCH  38  39
ENDBRANCH  37  38
ENDBRANCH   2  37
TORSDOF 13
ENDMDL
MODEL 3
REMARK VINA RESULT:      -8.6      2.551      5.727
REMARK  13 active torsions:
REMARK  status: ('A' for Active; 'I' for Inactive)
REMARK    1  A    between atoms: C_2  and  O_3 
REMARK    2  A    between atoms: O_3  and  C_4 
REMARK    3  A    between atoms: C_5  and  O_6 
REMARK    4  A    between atoms: C_9  and  C_10 
REMARK    5  A    between atoms: N_11  and  C_12 
REMARK    6  A    between atoms: C_12  and  C_13 
REMARK    7  A    between atoms: C_13  and  N_14 
REMARK    8  A    between atoms: C_23  and  O_24 
REMARK    9  A    between atoms: C_25  and  C_26 
REMARK   10  A    between atoms: C_26  and  C_27 
REMARK   11  A    between atoms: C_31  and  O_32 
REMARK   12  A    between atoms: O_32  and  C_33 
REMARK   13  A    between atoms: C_33  and  C_34 
ROOT
HETATM    1  C   UNL     1      -5.464   6.717 -30.377  1.00  0.00     0.161 A 
HETATM    2  N   UNL     1      -4.813   7.060 -29.120  1.00  0.00    -0.332 N 
HETATM    3  C   UNL     1      -5.431   6.407 -28.064  1.00  0.00     0.278 A 
HETATM    4  O   UNL     1      -5.182   6.545 -26.880  1.00  0.00    -0.265 OA
HETATM    5  C   UNL     1      -6.512   5.566 -28.613  1.00  0.00     0.146 A 
HETATM    6  C   UNL     1      -6.550   5.789 -29.932  1.00  0.00     0.059 A 
ENDROOT
BRANCH   6   7
HETATM    7  C   UNL     1      -7.544   5.183 -30.853  1.00  0.00     0.194 C 
HETATM    8  O   UNL     1      -8.563   5.768 -31.194  1.00  0.00    -0.287 OA
BRANCH   7   9
HETATM    9  C   UNL     1      -7.302   3.789 -31.306  1.00  0.00     0.021 A 
HETATM   10  C   UNL     1      -6.983   3.513 -32.647  1.00  0.00    -0.045 A 
HETATM   11  C   UNL     1      -6.734   4.600 -33.656  1.00  0.00     0.049 C 
HETATM   12  C   UNL     1      -6.864   2.172 -33.043  1.00  0.00     0.044 A 
HETATM   13  C   UNL     1      -7.072   1.128 -32.138  1.00  0.00     0.069 A 
HETATM   14  C   UNL     1      -7.311   1.411 -30.797  1.00  0.00     0.038 A 
HETATM   15  C   UNL     1      -7.415   2.740 -30.378  1.00  0.00     0.019 A 
BRANCH  13  16
HETATM   16  O   UNL     1      -6.975  -0.127 -32.668  1.00  0.00    -0.347 OA
BRANCH  16  17
HETATM   17  C   UNL     1      -6.273  -0.232 -33.910  1.00  0.00     0.214 C 
BRANCH  17  18
HETATM   18  C   UNL     1      -5.989  -1.681 -34.240  1.00  0.00    -0.034 A 
HETATM   19  C   UNL     1      -4.683  -2.177 -34.104  1.00  0.00     0.009 A 
HETATM   20  C   UNL     1      -4.401  -3.520 -34.362  1.00  0.00     0.001 A 
HETATM   21  C   UNL     1      -5.419  -4.386 -34.754  1.00  0.00     0.000 A 
HETATM   22  C   UNL     1      -6.722  -3.911 -34.883  1.00  0.00     0.001 A 
HETATM   23  C   UNL     1      -7.006  -2.570 -34.622  1.00  0.00     0.009 A 
ENDBRANCH  17  18
ENDBRANCH  16  17
ENDBRANCH  13  16
ENDBRANCH   7   9
ENDBRANCH   6   7
BRANCH   1  24
HETATM   24  C   UNL     1      -4.441   6.111 -31.321  1.00  0.00    -0.028 A 
HETATM   25  C   UNL     1      -3.968   6.829 -32.438  1.00  0.00     0.012 A 
HETATM   26  C   UNL     1      -3.084   6.240 -33.338  1.00  0.00     0.040 A 
HETATM   27  C   UNL     1      -2.664   4.937 -33.119  1.00  0.00     0.099 A 
HETATM   28  C   UNL     1      -3.082   4.208 -32.003  1.00  0.00     0.102 A 
HETATM   29  C   UNL     1      -3.977   4.798 -31.108  1.00  0.00     0.049 A 
BRANCH  27  30
HETATM   30  O   UNL     1      -1.821   4.376 -34.037  1.00  0.00    -0.358 OA
HETATM   31  H   UNL     1      -2.151   4.655 -34.914  1.00  0.00     0.218 HD
ENDBRANCH  27  30
BRANCH  28  32
HETATM   32  O   UNL     1      -2.589   2.935 -31.925  1.00  0.00    -0.349 OA
BRANCH  32  33
HETATM   33  C   UNL     1      -3.418   1.951 -31.305  1.00  0.00     0.171 C 
HETATM   34  C   UNL     1      -3.328   0.682 -32.132  1.00  0.00     0.034 C 
ENDBRANCH  32  33
ENDBRANCH  28  32
ENDBRANCH   1  24
BRANCH   5  35
HETATM   35  O   UNL     1      -7.339   4.811 -27.840  1.00  0.00    -0.355 OA
HETATM   36  H   UNL     1      -6.982   3.902 -27.823  1.00  0.00     0.218 HD
ENDBRANCH   5  35
BRANCH   2  37
HETATM   37  C   UNL     1      -4.211   8.372 -28.908  1.00  0.00     0.155 C 
BRANCH  37  38
HETATM   38  C   UNL     1      -2.757   8.479 -29.396  1.00  0.00     0.255 C 
BRANCH  38  39
HETATM   39  N   UNL     1      -1.942   7.252 -29.017  1.00  0.00    -0.066 N 
HETATM   40  H   UNL     1      -2.609   6.478 -28.877  1.00  0.00     0.280 HD
HETATM   41  C   UNL     1      -0.944   6.828 -30.092  1.00  0.00     0.261 C 
HETATM   42  C   UNL     1      -0.093   5.653 -29.598  1.00  0.00     0.195 C 
HETATM   43  O   UNL     1       0.584   5.996 -28.387  1.00  0.00    -0.388 OA
HETATM   44  C   UNL     1      -0.346   6.277 -27.335  1.00  0.00     0.195 C 
HETATM   45  C   UNL     1      -1.218   7.485 -27.689  1.00  0.00     0.261 C 
ENDBRANCH  38  39
ENDBRANCH  37  38
ENDBRANCH   2  37
TORSDOF 13
ENDMDL
MODEL 4
REMARK VINA RESULT:      -8.6      2.916      7.256
REMARK  13 active torsions:
REMARK  status: ('A' for Active; 'I' for Inactive)
REMARK    1  A    between atoms: C_2  and  O_3 
REMARK    2  A    between atoms: O_3  and  C_4 
REMARK    3  A    between atoms: C_5  and  O_6 
REMARK    4  A    between atoms: C_9  and  C_10 
REMARK    5  A    between atoms: N_11  and  C_12 
REMARK    6  A    between atoms: C_12  and  C_13 
REMARK    7  A    between atoms: C_13  and  N_14 
REMARK    8  A    between atoms: C_23  and  O_24 
REMARK    9  A    between atoms: C_25  and  C_26 
REMARK   10  A    between atoms: C_26  and  C_27 
REMARK   11  A    between atoms: C_31  and  O_32 
REMARK   12  A    between atoms: O_32  and  C_33 
REMARK   13  A    between atoms: C_33  and  C_34 
ROOT
HETATM    1  C   UNL     1      -5.663   3.281 -30.812  1.00  0.00     0.161 A 
HETATM    2  N   UNL     1      -5.800   1.872 -31.157  1.00  0.00    -0.332 N 
HETATM    3  C   UNL     1      -7.120   1.469 -31.015  1.00  0.00     0.278 A 
HETATM    4  O   UNL     1      -7.551   0.337 -31.143  1.00  0.00    -0.265 OA
HETATM    5  C   UNL     1      -7.916   2.640 -30.598  1.00  0.00     0.146 A 
HETATM    6  C   UNL     1      -7.062   3.658 -30.441  1.00  0.00     0.059 A 
ENDROOT
BRANCH   6   7
HETATM    7  C   UNL     1      -7.451   5.007 -29.962  1.00  0.00     0.194 C 
HETATM    8  O   UNL     1      -8.532   5.513 -30.231  1.00  0.00    -0.287 OA
BRANCH   7   9
HETATM    9  C   UNL     1      -6.444   5.780 -29.189  1.00  0.00     0.021 A 
HETATM   10  C   UNL     1      -5.759   6.858 -29.776  1.00  0.00    -0.045 A 
HETATM   11  C   UNL     1      -6.095   7.375 -31.147  1.00  0.00     0.049 C 
HETATM   12  C   UNL     1      -4.747   7.489 -29.035  1.00  0.00     0.044 A 
HETATM   13  C   UNL     1      -4.410   7.053 -27.751  1.00  0.00     0.069 A 
HETATM   14  C   UNL     1      -5.144   6.036 -27.149  1.00  0.00     0.038 A 
HETATM   15  C   UNL     1      -6.168   5.407 -27.863  1.00  0.00     0.019 A 
BRANCH  13  16
HETATM   16  O   UNL     1      -3.374   7.722 -27.165  1.00  0.00    -0.347 OA
BRANCH  16  17
HETATM   17  C   UNL     1      -2.302   6.915 -26.672  1.00  0.00     0.214 C 
BRANCH  17  18
HETATM   18  C   UNL     1      -0.967   7.471 -27.117  1.00  0.00    -0.034 A 
HETATM   19  C   UNL     1      -0.111   8.052 -26.168  1.00  0.00     0.009 A 
HETATM   20  C   UNL     1       1.145   8.535 -26.543  1.00  0.00     0.001 A 
HETATM   21  C   UNL     1       1.564   8.439 -27.868  1.00  0.00     0.000 A 
HETATM   22  C   UNL     1       0.730   7.855 -28.818  1.00  0.00     0.001 A 
HETATM   23  C   UNL     1      -0.524   7.369 -28.444  1.00  0.00     0.009 A 
ENDBRANCH  17  18
ENDBRANCH  16  17
ENDBRANCH  13  16
ENDBRANCH   7   9
ENDBRANCH   6   7
BRANCH   1  24
HETATM   24  C   UNL     1      -5.083   4.031 -31.999  1.00  0.00    -0.028 A 
HETATM   25  C   UNL     1      -5.820   4.187 -33.189  1.00  0.00     0.012 A 
HETATM   26  C   UNL     1      -5.254   4.813 -34.297  1.00  0.00     0.040 A 
HETATM   27  C   UNL     1      -3.956   5.293 -34.214  1.00  0.00     0.099 A 
HETATM   28  C   UNL     1      -3.209   5.189 -33.037  1.00  0.00     0.102 A 
HETATM   29  C   UNL     1      -3.775   4.551 -31.931  1.00  0.00     0.049 A 
BRANCH  27  30
HETATM   30  O   UNL     1      -3.418   5.874 -35.327  1.00  0.00    -0.358 OA
HETATM   31  H   UNL     1      -2.563   5.425 -35.481  1.00  0.00     0.218 HD
ENDBRANCH  27  30
BRANCH  28  32
HETATM   32  O   UNL     1      -1.943   5.702 -33.109  1.00  0.00    -0.349 OA
BRANCH  32  33
HETATM   33  C   UNL     1      -1.523   6.551 -32.040  1.00  0.00     0.171 C 
HETATM   34  C   UNL     1      -2.058   7.944 -32.319  1.00  0.00     0.034 C 
ENDBRANCH  32  33
ENDBRANCH  28  32
ENDBRANCH   1  24
BRANCH   5  35
HETATM   35  O   UNL     1      -9.251   2.584 -30.343  1.00  0.00    -0.355 OA
HETATM   36  H   UNL     1      -9.515   3.439 -29.951  1.00  0.00     0.218 HD
ENDBRANCH   5  35
BRANCH   2  37
HETATM   37  C   UNL     1      -4.723   0.920 -30.912  1.00  0.00     0.155 C 
BRANCH  37  38
HETATM   38  C   UNL     1      -4.058   0.385 -32.192  1.00  0.00     0.255 C 
BRANCH  38  39
HETATM   39  N   UNL     1      -4.884  -0.715 -32.840  1.00  0.00    -0.066 N 
HETATM   40  H   UNL     1      -5.533  -1.069 -32.121  1.00  0.00     0.280 HD
HETATM   41  C   UNL     1      -5.712  -0.235 -34.030  1.00  0.00     0.261 C 
HETATM   42  C   UNL     1      -6.434  -1.414 -34.690  1.00  0.00     0.195 C 
HETATM   43  O   UNL     1      -5.496  -2.413 -35.098  1.00  0.00    -0.388 OA
HETATM   44  C   UNL     1      -4.799  -2.959 -33.973  1.00  0.00     0.195 C 
HETATM   45  C   UNL     1      -3.982  -1.877 -33.262  1.00  0.00     0.261 C 
ENDBRANCH  38  39
ENDBRANCH  37  38
ENDBRANCH   2  37
TORSDOF 13
ENDMDL
MODEL 5
REMARK VINA RESULT:      -8.6      2.621      6.431
REMARK  13 active torsions:
REMARK  status: ('A' for Active; 'I' for Inactive)
REMARK    1  A    between atoms: C_2  and  O_3 
REMARK    2  A    between atoms: O_3  and  C_4 
REMARK    3  A    between atoms: C_5  and  O_6 
REMARK    4  A    between atoms: C_9  and  C_10 
REMARK    5  A    between atoms: N_11  and  C_12 
REMARK    6  A    between atoms: C_12  and  C_13 
REMARK    7  A    between atoms: C_13  and  N_14 
REMARK    8  A    between atoms: C_23  and  O_24 
REMARK    9  A    between atoms: C_25  and  C_26 
REMARK   10  A    between atoms: C_26  and  C_27 
REMARK   11  A    between atoms: C_31  and  O_32 
REMARK   12  A    between atoms: O_32  and  C_33 
REMARK   13  A    between atoms: C_33  and  C_34 
ROOT
HETATM    1  C   UNL     1      -4.527   5.122 -30.609  1.00  0.00     0.161 A 
HETATM    2  N   UNL     1      -4.710   6.540 -30.329  1.00  0.00    -0.332 N 
HETATM    3  C   UNL     1      -4.264   7.304 -31.397  1.00  0.00     0.278 A 
HETATM    4  O   UNL     1      -4.200   8.519 -31.443  1.00  0.00    -0.265 OA
HETATM    5  C   UNL     1      -3.796   6.387 -32.454  1.00  0.00     0.146 A 
HETATM    6  C   UNL     1      -3.908   5.143 -31.972  1.00  0.00     0.059 A 
ENDROOT
BRANCH   6   7
HETATM    7  C   UNL     1      -3.479   3.923 -32.699  1.00  0.00     0.194 C 
HETATM    8  O   UNL     1      -2.369   3.815 -33.202  1.00  0.00    -0.287 OA
BRANCH   7   9
HETATM    9  C   UNL     1      -4.479   2.837 -32.871  1.00  0.00     0.021 A 
HETATM   10  C   UNL     1      -4.311   1.598 -32.229  1.00  0.00    -0.045 A 
HETATM   11  C   UNL     1      -3.208   1.345 -31.240  1.00  0.00     0.049 C 
HETATM   12  C   UNL     1      -5.231   0.574 -32.504  1.00  0.00     0.044 A 
HETATM   13  C   UNL     1      -6.282   0.766 -33.405  1.00  0.00     0.069 A 
HETATM   14  C   UNL     1      -6.485   2.019 -33.976  1.00  0.00     0.038 A 
HETATM   15  C   UNL     1      -5.591   3.057 -33.701  1.00  0.00     0.019 A 
BRANCH  13  16
HETATM   16  O   UNL     1      -7.070  -0.328 -33.618  1.00  0.00    -0.347 OA
BRANCH  16  17
HETATM   17  C   UNL     1      -6.890  -1.000 -34.868  1.00  0.00     0.214 C 
BRANCH  17  18
HETATM   18  C   UNL     1      -6.171  -2.316 -34.667  1.00  0.00    -0.034 A 
HETATM   19  C   UNL     1      -6.837  -3.517 -34.958  1.00  0.00     0.009 A 
HETATM   20  C   UNL     1      -6.184  -4.744 -34.821  1.00  0.00     0.001 A 
HETATM   21  C   UNL     1      -4.858  -4.788 -34.398  1.00  0.00     0.000 A 
HETATM   22  C   UNL     1      -4.181  -3.604 -34.116  1.00  0.00     0.001 A 
HETATM   23  C   UNL     1      -4.831  -2.376 -34.255  1.00  0.00     0.009 A 
ENDBRANCH  17  18
ENDBRANCH  16  17
ENDBRANCH  13  16
ENDBRANCH   7   9
ENDBRANCH   6   7
BRANCH   1  24
HETATM   24  C   UNL     1      -5.868   4.417 -30.518  1.00  0.00    -0.028 A 
HETATM   25  C   UNL     1      -5.988   3.162 -29.888  1.00  0.00     0.012 A 
HETATM   26  C   UNL     1      -7.207   2.490 -29.872  1.00  0.00     0.040 A 
HETATM   27  C   UNL     1      -8.311   3.074 -30.476  1.00  0.00     0.099 A 
HETATM   28  C   UNL     1      -8.237   4.333 -31.077  1.00  0.00     0.102 A 
HETATM   29  C   UNL     1      -7.011   5.001 -31.101  1.00  0.00     0.049 A 
BRANCH  27  30
HETATM   30  O   UNL     1      -9.485   2.376 -30.471  1.00  0.00    -0.358 OA
HETATM   31  H   UNL     1     -10.051   2.792 -31.150  1.00  0.00     0.218 HD
ENDBRANCH  27  30
BRANCH  28  32
HETATM   32  O   UNL     1      -9.405   4.776 -31.636  1.00  0.00    -0.349 OA
BRANCH  32  33
HETATM   33  C   UNL     1      -9.355   5.199 -33.000  1.00  0.00     0.171 C 
HETATM   34  C   UNL     1      -9.547   3.971 -33.871  1.00  0.00     0.034 C 
ENDBRANCH  32  33
ENDBRANCH  28  32
ENDBRANCH   1  24
BRANCH   5  35
HETATM   35  O   UNL     1      -3.265   6.812 -33.632  1.00  0.00    -0.355 OA
HETATM   36  H   UNL     1      -4.006   7.062 -34.218  1.00  0.00     0.218 HD
ENDBRANCH   5  35
BRANCH   2  37
HETATM   37  C   UNL     1      -4.612   7.066 -28.971  1.00  0.00     0.155 C 
BRANCH  37  38
HETATM   38  C   UNL     1      -3.292   7.800 -28.681  1.00  0.00     0.255 C 
BRANCH  38  39
HETATM   39  N   UNL     1      -2.178   6.834 -28.307  1.00  0.00    -0.066 N 
HETATM   40  H   UNL     1      -2.568   5.882 -28.379  1.00  0.00     0.280 HD
HETATM   41  C   UNL     1      -0.964   6.918 -29.230  1.00  0.00     0.261 C 
HETATM   42  C   UNL     1       0.152   5.994 -28.733  1.00  0.00     0.195 C 
HETATM   43  O   UNL     1       0.514   6.320 -27.389  1.00  0.00    -0.388 OA
HETATM   44  C   UNL     1      -0.586   6.126 -26.494  1.00  0.00     0.195 C 
HETATM   45  C   UNL     1      -1.750   7.053 -26.855  1.00  0.00     0.261 C 
ENDBRANCH  38  39
ENDBRANCH  37  38
ENDBRANCH   2  37
TORSDOF 13
ENDMDL
MODEL 6
REMARK VINA RESULT:      -8.5      2.398      5.830
REMARK  13 active torsions:
REMARK  status: ('A' for Active; 'I' for Inactive)
REMARK    1  A    between atoms: C_2  and  O_3 
REMARK    2  A    between atoms: O_3  and  C_4 
REMARK    3  A    between atoms: C_5  and  O_6 
REMARK    4  A    between atoms: C_9  and  C_10 
REMARK    5  A    between atoms: N_11  and  C_12 
REMARK    6  A    between atoms: C_12  and  C_13 
REMARK    7  A    between atoms: C_13  and  N_14 
REMARK    8  A    between atoms: C_23  and  O_24 
REMARK    9  A    between atoms: C_25  and  C_26 
REMARK   10  A    between atoms: C_26  and  C_27 
REMARK   11  A    between atoms: C_31  and  O_32 
REMARK   12  A    between atoms: O_32  and  C_33 
REMARK   13  A    between atoms: C_33  and  C_34 
ROOT
HETATM    1  C   UNL     1      -6.070   6.167 -30.660  1.00  0.00     0.161 A 
HETATM    2  N   UNL     1      -5.782   6.662 -29.320  1.00  0.00    -0.332 N 
HETATM    3  C   UNL     1      -6.950   6.748 -28.577  1.00  0.00     0.278 A 
HETATM    4  O   UNL     1      -7.064   7.203 -27.454  1.00  0.00    -0.265 OA
HETATM    5  C   UNL     1      -8.064   6.264 -29.416  1.00  0.00     0.146 A 
HETATM    6  C   UNL     1      -7.554   5.979 -30.620  1.00  0.00     0.059 A 
ENDROOT
BRANCH   6   7
HETATM    7  C   UNL     1      -8.357   5.523 -31.780  1.00  0.00     0.194 C 
HETATM    8  O   UNL     1      -9.217   6.222 -32.298  1.00  0.00    -0.287 OA
BRANCH   7   9
HETATM    9  C   UNL     1      -8.137   4.136 -32.267  1.00  0.00     0.021 A 
HETATM   10  C   UNL     1      -8.723   3.041 -31.607  1.00  0.00    -0.045 A 
HETATM   11  C   UNL     1      -9.701   3.210 -30.479  1.00  0.00     0.049 C 
HETATM   12  C   UNL     1      -8.402   1.747 -32.047  1.00  0.00     0.044 A 
HETATM   13  C   UNL     1      -7.509   1.541 -33.102  1.00  0.00     0.069 A 
HETATM   14  C   UNL     1      -6.994   2.631 -33.797  1.00  0.00     0.038 A 
HETATM   15  C   UNL     1      -7.316   3.928 -33.387  1.00  0.00     0.019 A 
BRANCH  13  16
HETATM   16  O   UNL     1      -7.246   0.233 -33.392  1.00  0.00    -0.347 OA
BRANCH  16  17
HETATM   17  C   UNL     1      -5.904  -0.068 -33.781  1.00  0.00     0.214 C 
BRANCH  17  18
HETATM   18  C   UNL     1      -5.770  -1.529 -34.150  1.00  0.00    -0.034 A 
HETATM   19  C   UNL     1      -4.530  -2.169 -33.997  1.00  0.00     0.009 A 
HETATM   20  C   UNL     1      -4.389  -3.528 -34.290  1.00  0.00     0.001 A 
HETATM   21  C   UNL     1      -5.484  -4.265 -34.733  1.00  0.00     0.000 A 
HETATM   22  C   UNL     1      -6.723  -3.647 -34.880  1.00  0.00     0.001 A 
HETATM   23  C   UNL     1      -6.867  -2.290 -34.585  1.00  0.00     0.009 A 
ENDBRANCH  17  18
ENDBRANCH  16  17
ENDBRANCH  13  16
ENDBRANCH   7   9
ENDBRANCH   6   7
BRANCH   1  24
HETATM   24  C   UNL     1      -5.264   4.904 -30.909  1.00  0.00    -0.028 A 
HETATM   25  C   UNL     1      -5.586   3.697 -30.258  1.00  0.00     0.012 A 
HETATM   26  C   UNL     1      -4.799   2.562 -30.437  1.00  0.00     0.040 A 
HETATM   27  C   UNL     1      -3.695   2.629 -31.274  1.00  0.00     0.099 A 
HETATM   28  C   UNL     1      -3.368   3.799 -31.965  1.00  0.00     0.102 A 
HETATM   29  C   UNL     1      -4.153   4.938 -31.775  1.00  0.00     0.049 A 
BRANCH  27  30
HETATM   30  O   UNL     1      -2.925   1.508 -31.405  1.00  0.00    -0.358 OA
HETATM   31  H   UNL     1      -3.531   0.794 -31.685  1.00  0.00     0.218 HD
ENDBRANCH  27  30
BRANCH  28  32
HETATM   32  O   UNL     1      -2.249   3.714 -32.748  1.00  0.00    -0.349 OA
BRANCH  32  33
HETATM   33  C   UNL     1      -1.723   4.937 -33.266  1.00  0.00     0.171 C 
HETATM   34  C   UNL     1      -1.962   4.944 -34.765  1.00  0.00     0.034 C 
ENDBRANCH  32  33
ENDBRANCH  28  32
ENDBRANCH   1  24
BRANCH   5  35
HETATM   35  O   UNL     1      -9.359   6.242 -28.999  1.00  0.00    -0.355 OA
HETATM   36  H   UNL     1      -9.371   5.890 -28.087  1.00  0.00     0.218 HD
ENDBRANCH   5  35
BRANCH   2  37
HETATM   37  C   UNL     1      -4.697   7.607 -29.075  1.00  0.00     0.155 C 
BRANCH  37  38
HETATM   38  C   UNL     1      -3.692   7.140 -28.009  1.00  0.00     0.255 C 
BRANCH  38  39
HETATM   39  N   UNL     1      -2.361   6.736 -28.624  1.00  0.00    -0.066 N 
HETATM   40  H   UNL     1      -2.417   5.727 -28.827  1.00  0.00     0.280 HD
HETATM   41  C   UNL     1      -2.048   7.464 -29.930  1.00  0.00     0.261 C 
HETATM   42  C   UNL     1      -0.653   7.082 -30.434  1.00  0.00     0.195 C 
HETATM   43  O   UNL     1       0.337   7.372 -29.443  1.00  0.00    -0.388 OA
HETATM   44  C   UNL     1       0.123   6.601 -28.256  1.00  0.00     0.195 C 
HETATM   45  C   UNL     1      -1.226   6.945 -27.620  1.00  0.00     0.261 C 
ENDBRANCH  38  39
ENDBRANCH  37  38
ENDBRANCH   2  37
TORSDOF 13
ENDMDL
MODEL 7
REMARK VINA RESULT:      -8.4      2.237      6.838
REMARK  13 active torsions:
REMARK  status: ('A' for Active; 'I' for Inactive)
REMARK    1  A    between atoms: C_2  and  O_3 
REMARK    2  A    between atoms: O_3  and  C_4 
REMARK    3  A    between atoms: C_5  and  O_6 
REMARK    4  A    between atoms: C_9  and  C_10 
REMARK    5  A    between atoms: N_11  and  C_12 
REMARK    6  A    between atoms: C_12  and  C_13 
REMARK    7  A    between atoms: C_13  and  N_14 
REMARK    8  A    between atoms: C_23  and  O_24 
REMARK    9  A    between atoms: C_25  and  C_26 
REMARK   10  A    between atoms: C_26  and  C_27 
REMARK   11  A    between atoms: C_31  and  O_32 
REMARK   12  A    between atoms: O_32  and  C_33 
REMARK   13  A    between atoms: C_33  and  C_34 
ROOT
HETATM    1  C   UNL     1      -7.129   1.319 -32.003  1.00  0.00     0.161 A 
HETATM    2  N   UNL     1      -7.304   0.639 -33.280  1.00  0.00    -0.332 N 
HETATM    3  C   UNL     1      -8.431   1.119 -33.930  1.00  0.00     0.278 A 
HETATM    4  O   UNL     1      -8.899   0.701 -34.974  1.00  0.00    -0.265 OA
HETATM    5  C   UNL     1      -9.026   2.181 -33.096  1.00  0.00     0.146 A 
HETATM    6  C   UNL     1      -8.298   2.253 -31.975  1.00  0.00     0.059 A 
ENDROOT
BRANCH   6   7
HETATM    7  C   UNL     1      -8.603   3.156 -30.838  1.00  0.00     0.194 C 
HETATM    8  O   UNL     1      -9.661   3.105 -30.226  1.00  0.00    -0.287 OA
BRANCH   7   9
HETATM    9  C   UNL     1      -7.598   4.196 -30.497  1.00  0.00     0.021 A 
HETATM   10  C   UNL     1      -7.508   5.382 -31.246  1.00  0.00    -0.045 A 
HETATM   11  C   UNL     1      -8.494   5.729 -32.328  1.00  0.00     0.049 C 
HETATM   12  C   UNL     1      -6.477   6.286 -30.945  1.00  0.00     0.044 A 
HETATM   13  C   UNL     1      -5.547   6.014 -29.939  1.00  0.00     0.069 A 
HETATM   14  C   UNL     1      -5.689   4.875 -29.152  1.00  0.00     0.038 A 
HETATM   15  C   UNL     1      -6.721   3.972 -29.424  1.00  0.00     0.019 A 
BRANCH  13  16
HETATM   16  O   UNL     1      -4.567   6.953 -29.786  1.00  0.00    -0.347 OA
BRANCH  16  17
HETATM   17  C   UNL     1      -4.058   7.532 -30.990  1.00  0.00     0.214 C 
BRANCH  17  18
HETATM   18  C   UNL     1      -2.563   7.319 -31.093  1.00  0.00    -0.034 A 
HETATM   19  C   UNL     1      -1.841   6.931 -29.953  1.00  0.00     0.009 A 
HETATM   20  C   UNL     1      -0.468   6.688 -30.029  1.00  0.00     0.001 A 
HETATM   21  C   UNL     1       0.201   6.823 -31.243  1.00  0.00     0.000 A 
HETATM   22  C   UNL     1      -0.504   7.196 -32.384  1.00  0.00     0.001 A 
HETATM   23  C   UNL     1      -1.877   7.438 -32.312  1.00  0.00     0.009 A 
ENDBRANCH  17  18
ENDBRANCH  16  17
ENDBRANCH  13  16
ENDBRANCH   7   9
ENDBRANCH   6   7
BRANCH   1  24
HETATM   24  C   UNL     1      -5.766   1.987 -31.975  1.00  0.00    -0.028 A 
HETATM   25  C   UNL     1      -4.727   1.484 -31.166  1.00  0.00     0.012 A 
HETATM   26  C   UNL     1      -3.503   2.144 -31.092  1.00  0.00     0.040 A 
HETATM   27  C   UNL     1      -3.312   3.300 -31.832  1.00  0.00     0.099 A 
HETATM   28  C   UNL     1      -4.305   3.806 -32.674  1.00  0.00     0.102 A 
HETATM   29  C   UNL     1      -5.536   3.149 -32.739  1.00  0.00     0.049 A 
BRANCH  27  30
HETATM   30  O   UNL     1      -2.111   3.942 -31.714  1.00  0.00    -0.358 OA
HETATM   31  H   UNL     1      -2.223   4.596 -30.996  1.00  0.00     0.218 HD
ENDBRANCH  27  30
BRANCH  28  32
HETATM   32  O   UNL     1      -3.973   4.957 -33.336  1.00  0.00    -0.349 OA
BRANCH  32  33
HETATM   33  C   UNL     1      -3.781   4.863 -34.748  1.00  0.00     0.171 C 
HETATM   34  C   UNL     1      -2.302   5.065 -35.028  1.00  0.00     0.034 C 
ENDBRANCH  32  33
ENDBRANCH  28  32
ENDBRANCH   1  24
BRANCH   5  35
HETATM   35  O   UNL     1     -10.165   2.845 -33.431  1.00  0.00    -0.355 OA
HETATM   36  H   UNL     1     -10.432   2.546 -34.322  1.00  0.00     0.218 HD
ENDBRANCH   5  35
BRANCH   2  37
HETATM   37  C   UNL     1      -6.898  -0.750 -33.464  1.00  0.00     0.155 C 
BRANCH  37  38
HETATM   38  C   UNL     1      -5.477  -0.917 -34.026  1.00  0.00     0.255 C 
BRANCH  38  39
HETATM   39  N   UNL     1      -5.252  -2.310 -34.592  1.00  0.00    -0.066 N 
HETATM   40  H   UNL     1      -4.873  -2.191 -35.544  1.00  0.00     0.280 HD
HETATM   41  C   UNL     1      -4.256  -3.142 -33.788  1.00  0.00     0.261 C 
HETATM   42  C   UNL     1      -4.159  -4.560 -34.357  1.00  0.00     0.195 C 
HETATM   43  O   UNL     1      -5.445  -5.186 -34.371  1.00  0.00    -0.388 OA
HETATM   44  C   UNL     1      -6.354  -4.481 -35.222  1.00  0.00     0.195 C 
HETATM   45  C   UNL     1      -6.583  -3.055 -34.713  1.00  0.00     0.261 C 
ENDBRANCH  38  39
ENDBRANCH  37  38
ENDBRANCH   2  37
TORSDOF 13
ENDMDL
MODEL 8
REMARK VINA RESULT:      -8.4      1.861      4.511
REMARK  13 active torsions:
REMARK  status: ('A' for Active; 'I' for Inactive)
REMARK    1  A    between atoms: C_2  and  O_3 
REMARK    2  A    between atoms: O_3  and  C_4 
REMARK    3  A    between atoms: C_5  and  O_6 
REMARK    4  A    between atoms: C_9  and  C_10 
REMARK    5  A    between atoms: N_11  and  C_12 
REMARK    6  A    between atoms: C_12  and  C_13 
REMARK    7  A    between atoms: C_13  and  N_14 
REMARK    8  A    between atoms: C_23  and  O_24 
REMARK    9  A    between atoms: C_25  and  C_26 
REMARK   10  A    between atoms: C_26  and  C_27 
REMARK   11  A    between atoms: C_31  and  O_32 
REMARK   12  A    between atoms: O_32  and  C_33 
REMARK   13  A    between atoms: C_33  and  C_34 
ROOT
HETATM    1  C   UNL     1      -7.992   4.504 -32.199  1.00  0.00     0.161 A 
HETATM    2  N   UNL     1      -8.353   5.669 -31.402  1.00  0.00    -0.332 N 
HETATM    3  C   UNL     1      -9.411   5.366 -30.558  1.00  0.00     0.278 A 
HETATM    4  O   UNL     1     -10.002   6.140 -29.828  1.00  0.00    -0.265 OA
HETATM    5  C   UNL     1      -9.762   3.945 -30.753  1.00  0.00     0.146 A 
HETATM    6  C   UNL     1      -8.973   3.478 -31.728  1.00  0.00     0.059 A 
ENDROOT
BRANCH   6   7
HETATM    7  C   UNL     1      -9.051   2.101 -32.277  1.00  0.00     0.194 C 
HETATM    8  O   UNL     1     -10.093   1.624 -32.704  1.00  0.00    -0.287 OA
BRANCH   7   9
HETATM    9  C   UNL     1      -7.820   1.271 -32.229  1.00  0.00     0.021 A 
HETATM   10  C   UNL     1      -7.082   1.011 -33.397  1.00  0.00    -0.045 A 
HETATM   11  C   UNL     1      -7.405   1.658 -34.715  1.00  0.00     0.049 C 
HETATM   12  C   UNL     1      -5.985   0.139 -33.313  1.00  0.00     0.044 A 
HETATM   13  C   UNL     1      -5.637  -0.474 -32.107  1.00  0.00     0.069 A 
HETATM   14  C   UNL     1      -6.325  -0.151 -30.941  1.00  0.00     0.038 A 
HETATM   15  C   UNL     1      -7.409   0.729 -30.999  1.00  0.00     0.019 A 
BRANCH  13  16
HETATM   16  O   UNL     1      -4.581  -1.337 -32.178  1.00  0.00    -0.347 OA
BRANCH  16  17
HETATM   17  C   UNL     1      -4.048  -1.572 -33.485  1.00  0.00     0.214 C 
BRANCH  17  18
HETATM   18  C   UNL     1      -4.593  -2.860 -34.060  1.00  0.00    -0.034 A 
HETATM   19  C   UNL     1      -3.972  -4.077 -33.737  1.00  0.00     0.009 A 
HETATM   20  C   UNL     1      -4.479  -5.286 -34.221  1.00  0.00     0.001 A 
HETATM   21  C   UNL     1      -5.615  -5.295 -35.026  1.00  0.00     0.000 A 
HETATM   22  C   UNL     1      -6.248  -4.097 -35.346  1.00  0.00     0.001 A 
HETATM   23  C   UNL     1      -5.745  -2.889 -34.861  1.00  0.00     0.009 A 
ENDBRANCH  17  18
ENDBRANCH  16  17
ENDBRANCH  13  16
ENDBRANCH   7   9
ENDBRANCH   6   7
BRANCH   1  24
HETATM   24  C   UNL     1      -6.532   4.165 -31.954  1.00  0.00    -0.028 A 
HETATM   25  C   UNL     1      -6.080   3.783 -30.675  1.00  0.00     0.012 A 
HETATM   26  C   UNL     1      -4.728   3.543 -30.443  1.00  0.00     0.040 A 
HETATM   27  C   UNL     1      -3.828   3.675 -31.489  1.00  0.00     0.099 A 
HETATM   28  C   UNL     1      -4.245   4.016 -32.778  1.00  0.00     0.102 A 
HETATM   29  C   UNL     1      -5.600   4.266 -33.006  1.00  0.00     0.049 A 
BRANCH  27  30
HETATM   30  O   UNL     1      -2.505   3.464 -31.222  1.00  0.00    -0.358 OA
HETATM   31  H   UNL     1      -2.195   2.812 -31.883  1.00  0.00     0.218 HD
ENDBRANCH  27  30
BRANCH  28  32
HETATM   32  O   UNL     1      -3.243   4.114 -33.704  1.00  0.00    -0.349 OA
BRANCH  32  33
HETATM   33  C   UNL     1      -3.066   5.381 -34.341  1.00  0.00     0.171 C 
HETATM   34  C   UNL     1      -1.578   5.582 -34.563  1.00  0.00     0.034 C 
ENDBRANCH  32  33
ENDBRANCH  28  32
ENDBRANCH   1  24
BRANCH   5  35
HETATM   35  O   UNL     1     -10.781   3.330 -30.096  1.00  0.00    -0.355 OA
HETATM   36  H   UNL     1     -10.403   2.877 -29.318  1.00  0.00     0.218 HD
ENDBRANCH   5  35
BRANCH   2  37
HETATM   37  C   UNL     1      -8.211   7.024 -31.926  1.00  0.00     0.155 C 
BRANCH  37  38
HETATM   38  C   UNL     1      -7.364   7.951 -31.038  1.00  0.00     0.255 C 
BRANCH  38  39
HETATM   39  N   UNL     1      -6.080   7.278 -30.580  1.00  0.00    -0.066 N 
HETATM   40  H   UNL     1      -6.185   6.269 -30.767  1.00  0.00     0.280 HD
HETATM   41  C   UNL     1      -4.837   7.768 -31.319  1.00  0.00     0.261 C 
HETATM   42  C   UNL     1      -3.577   7.122 -30.735  1.00  0.00     0.195 C 
HETATM   43  O   UNL     1      -3.474   7.395 -29.336  1.00  0.00    -0.388 OA
HETATM   44  C   UNL     1      -4.575   6.832 -28.615  1.00  0.00     0.195 C 
HETATM   45  C   UNL     1      -5.898   7.453 -29.071  1.00  0.00     0.261 C 
ENDBRANCH  38  39
ENDBRANCH  37  38
ENDBRANCH   2  37
TORSDOF 13
ENDMDL
MODEL 9
REMARK VINA RESULT:      -8.4      2.410      7.926
REMARK  13 active torsions:
REMARK  status: ('A' for Active; 'I' for Inactive)
REMARK    1  A    between atoms: C_2  and  O_3 
REMARK    2  A    between atoms: O_3  and  C_4 
REMARK    3  A    between atoms: C_5  and  O_6 
REMARK    4  A    between atoms: C_9  and  C_10 
REMARK    5  A    between atoms: N_11  and  C_12 
REMARK    6  A    between atoms: C_12  and  C_13 
REMARK    7  A    between atoms: C_13  and  N_14 
REMARK    8  A    between atoms: C_23  and  O_24 
REMARK    9  A    between atoms: C_25  and  C_26 
REMARK   10  A    between atoms: C_26  and  C_27 
REMARK   11  A    between atoms: C_31  and  O_32 
REMARK   12  A    between atoms: O_32  and  C_33 
REMARK   13  A    between atoms: C_33  and  C_34 
ROOT
HETATM    1  C   UNL     1      -5.760   3.084 -32.812  1.00  0.00     0.161 A 
HETATM    2  N   UNL     1      -4.332   3.361 -32.721  1.00  0.00    -0.332 N 
HETATM    3  C   UNL     1      -3.970   3.593 -31.402  1.00  0.00     0.278 A 
HETATM    4  O   UNL     1      -2.873   3.934 -31.000  1.00  0.00    -0.265 OA
HETATM    5  C   UNL     1      -5.173   3.436 -30.561  1.00  0.00     0.146 A 
HETATM    6  C   UNL     1      -6.198   3.191 -31.386  1.00  0.00     0.059 A 
ENDROOT
BRANCH   6   7
HETATM    7  C   UNL     1      -7.606   3.035 -30.944  1.00  0.00     0.194 C 
HETATM    8  O   UNL     1      -7.913   2.902 -29.767  1.00  0.00    -0.287 OA
BRANCH   7   9
HETATM    9  C   UNL     1      -8.654   2.969 -31.996  1.00  0.00     0.021 A 
HETATM   10  C   UNL     1      -9.254   1.744 -32.338  1.00  0.00    -0.045 A 
HETATM   11  C   UNL     1      -8.982   0.475 -31.580  1.00  0.00     0.049 C 
HETATM   12  C   UNL     1     -10.165   1.723 -33.406  1.00  0.00     0.044 A 
HETATM   13  C   UNL     1     -10.461   2.880 -34.130  1.00  0.00     0.069 A 
HETATM   14  C   UNL     1      -9.921   4.101 -33.736  1.00  0.00     0.038 A 
HETATM   15  C   UNL     1      -9.026   4.148 -32.663  1.00  0.00     0.019 A 
BRANCH  13  16
HETATM   16  O   UNL     1     -11.322   2.706 -35.174  1.00  0.00    -0.347 OA
BRANCH  16  17
HETATM   17  C   UNL     1     -12.526   3.478 -35.132  1.00  0.00     0.214 C 
BRANCH  17  18
HETATM   18  C   UNL     1     -13.439   2.982 -34.033  1.00  0.00    -0.034 A 
HETATM   19  C   UNL     1     -13.740   3.826 -32.953  1.00  0.00     0.009 A 
HETATM   20  C   UNL     1     -14.614   3.409 -31.945  1.00  0.00     0.001 A 
HETATM   21  C   UNL     1     -15.202   2.148 -32.007  1.00  0.00     0.000 A 
HETATM   22  C   UNL     1     -14.921   1.304 -33.078  1.00  0.00     0.001 A 
HETATM   23  C   UNL     1     -14.051   1.720 -34.087  1.00  0.00     0.009 A 
ENDBRANCH  17  18
ENDBRANCH  16  17
ENDBRANCH  13  16
ENDBRANCH   7   9
ENDBRANCH   6   7
BRANCH   1  24
HETATM   24  C   UNL     1      -5.964   1.722 -33.452  1.00  0.00    -0.028 A 
HETATM   25  C   UNL     1      -6.712   1.582 -34.639  1.00  0.00     0.012 A 
HETATM   26  C   UNL     1      -6.955   0.323 -35.180  1.00  0.00     0.040 A 
HETATM   27  C   UNL     1      -6.444  -0.798 -34.543  1.00  0.00     0.099 A 
HETATM   28  C   UNL     1      -5.668  -0.694 -33.386  1.00  0.00     0.102 A 
HETATM   29  C   UNL     1      -5.434   0.569 -32.840  1.00  0.00     0.049 A 
BRANCH  27  30
HETATM   30  O   UNL     1      -6.727  -2.021 -35.081  1.00  0.00    -0.358 OA
HETATM   31  H   UNL     1      -7.318  -1.854 -35.841  1.00  0.00     0.218 HD
ENDBRANCH  27  30
BRANCH  28  32
HETATM   32  O   UNL     1      -5.239  -1.886 -32.868  1.00  0.00    -0.349 OA
BRANCH  32  33
HETATM   33  C   UNL     1      -3.862  -2.217 -33.049  1.00  0.00     0.171 C 
HETATM   34  C   UNL     1      -3.781  -3.697 -33.373  1.00  0.00     0.034 C 
ENDBRANCH  32  33
ENDBRANCH  28  32
ENDBRANCH   1  24
BRANCH   5  35
HETATM   35  O   UNL     1      -5.173   3.624 -29.214  1.00  0.00    -0.355 OA
HETATM   36  H   UNL     1      -4.698   4.458 -29.031  1.00  0.00     0.218 HD
ENDBRANCH   5  35
BRANCH   2  37
HETATM   37  C   UNL     1      -3.618   4.038 -33.798  1.00  0.00     0.155 C 
BRANCH  37  38
HETATM   38  C   UNL     1      -4.136   5.455 -34.095  1.00  0.00     0.255 C 
BRANCH  38  39
HETATM   39  N   UNL     1      -3.138   6.523 -33.673  1.00  0.00    -0.066 N 
HETATM   40  H   UNL     1      -3.189   7.277 -34.374  1.00  0.00     0.280 HD
HETATM   41  C   UNL     1      -3.438   7.130 -32.304  1.00  0.00     0.261 C 
HETATM   42  C   UNL     1      -2.339   8.119 -31.904  1.00  0.00     0.195 C 
HETATM   43  O   UNL     1      -1.061   7.477 -31.904  1.00  0.00    -0.388 OA
HETATM   44  C   UNL     1      -0.715   7.012 -33.213  1.00  0.00     0.195 C 
HETATM   45  C   UNL     1      -1.716   5.960 -33.699  1.00  0.00     0.261 C 
ENDBRANCH  38  39
ENDBRANCH  37  38
ENDBRANCH   2  37
TORSDOF 13
ENDMDL
MODEL 10
REMARK VINA RESULT:      -8.4      2.809      8.736
REMARK  13 active torsions:
REMARK  status: ('A' for Active; 'I' for Inactive)
REMARK    1  A    between atoms: C_2  and  O_3 
REMARK    2  A    between atoms: O_3  and  C_4 
REMARK    3  A    between atoms: C_5  and  O_6 
REMARK    4  A    between atoms: C_9  and  C_10 
REMARK    5  A    between atoms: N_11  and  C_12 
REMARK    6  A    between atoms: C_12  and  C_13 
REMARK    7  A    between atoms: C_13  and  N_14 
REMARK    8  A    between atoms: C_23  and  O_24 
REMARK    9  A    between atoms: C_25  and  C_26 
REMARK   10  A    between atoms: C_26  and  C_27 
REMARK   11  A    between atoms: C_31  and  O_32 
REMARK   12  A    between atoms: O_32  and  C_33 
REMARK   13  A    between atoms: C_33  and  C_34 
ROOT
HETATM    1  C   UNL     1      -5.905   1.747 -32.661  1.00  0.00     0.161 A 
HETATM    2  N   UNL     1      -5.555   0.490 -32.013  1.00  0.00    -0.332 N 
HETATM    3  C   UNL     1      -4.321   0.599 -31.387  1.00  0.00     0.278 A 
HETATM    4  O   UNL     1      -3.709  -0.295 -30.832  1.00  0.00    -0.265 OA
HETATM    5  C   UNL     1      -3.828   1.977 -31.578  1.00  0.00     0.146 A 
HETATM    6  C   UNL     1      -4.722   2.609 -32.348  1.00  0.00     0.059 A 
ENDROOT
BRANCH   6   7
HETATM    7  C   UNL     1      -4.569   4.003 -32.832  1.00  0.00     0.194 C 
HETATM    8  O   UNL     1      -4.715   4.310 -34.008  1.00  0.00    -0.287 OA
BRANCH   7   9
HETATM    9  C   UNL     1      -4.153   5.032 -31.844  1.00  0.00     0.021 A 
HETATM   10  C   UNL     1      -2.854   5.571 -31.871  1.00  0.00    -0.045 A 
HETATM   11  C   UNL     1      -1.872   5.252 -32.962  1.00  0.00     0.049 C 
HETATM   12  C   UNL     1      -2.482   6.465 -30.854  1.00  0.00     0.044 A 
HETATM   13  C   UNL     1      -3.366   6.804 -29.827  1.00  0.00     0.069 A 
HETATM   14  C   UNL     1      -4.673   6.326 -29.852  1.00  0.00     0.038 A 
HETATM   15  C   UNL     1      -5.070   5.449 -30.865  1.00  0.00     0.019 A 
BRANCH  13  16
HETATM   16  O   UNL     1      -2.858   7.642 -28.877  1.00  0.00    -0.347 OA
BRANCH  16  17
HETATM   17  C   UNL     1      -2.022   8.700 -29.354  1.00  0.00     0.214 C 
BRANCH  17  18
HETATM   18  C   UNL     1      -0.821   8.880 -28.453  1.00  0.00    -0.034 A 
HETATM   19  C   UNL     1       0.296   8.046 -28.618  1.00  0.00     0.009 A 
HETATM   20  C   UNL     1       1.435   8.216 -27.827  1.00  0.00     0.001 A 
HETATM   21  C   UNL     1       1.476   9.224 -26.867  1.00  0.00     0.000 A 
HETATM   22  C   UNL     1       0.379  10.066 -26.699  1.00  0.00     0.001 A 
HETATM   23  C   UNL     1      -0.759   9.899 -27.490  1.00  0.00     0.009 A 
ENDBRANCH  17  18
ENDBRANCH  16  17
ENDBRANCH  13  16
ENDBRANCH   7   9
ENDBRANCH   6   7
BRANCH   1  24
HETATM   24  C   UNL     1      -7.230   2.242 -32.108  1.00  0.00    -0.028 A 
HETATM   25  C   UNL     1      -7.330   2.733 -30.791  1.00  0.00     0.012 A 
HETATM   26  C   UNL     1      -8.562   3.117 -30.269  1.00  0.00     0.040 A 
HETATM   27  C   UNL     1      -9.694   3.020 -31.064  1.00  0.00     0.099 A 
HETATM   28  C   UNL     1      -9.627   2.574 -32.386  1.00  0.00     0.102 A 
HETATM   29  C   UNL     1      -8.392   2.180 -32.904  1.00  0.00     0.049 A 
BRANCH  27  30
HETATM   30  O   UNL     1     -10.893   3.375 -30.513  1.00  0.00    -0.358 OA
HETATM   31  H   UNL     1     -11.567   2.814 -30.945  1.00  0.00     0.218 HD
ENDBRANCH  27  30
BRANCH  28  32
HETATM   32  O   UNL     1     -10.826   2.527 -33.043  1.00  0.00    -0.349 OA
BRANCH  32  33
HETATM   33  C   UNL     1     -11.193   1.284 -33.642  1.00  0.00     0.171 C 
HETATM   34  C   UNL     1     -12.023   1.592 -34.875  1.00  0.00     0.034 C 
ENDBRANCH  32  33
ENDBRANCH  28  32
ENDBRANCH   1  24
BRANCH   5  35
HETATM   35  O   UNL     1      -2.628   2.412 -31.112  1.00  0.00    -0.355 OA
HETATM   36  H   UNL     1      -2.460   3.293 -31.500  1.00  0.00     0.218 HD
ENDBRANCH   5  35
BRANCH   2  37
HETATM   37  C   UNL     1      -5.976  -0.793 -32.564  1.00  0.00     0.155 C 
BRANCH  37  38
HETATM   38  C   UNL     1      -5.963  -0.847 -34.101  1.00  0.00     0.255 C 
BRANCH  38  39
HETATM   39  N   UNL     1      -5.520  -2.208 -34.616  1.00  0.00    -0.066 N 
HETATM   40  H   UNL     1      -5.132  -2.061 -35.560  1.00  0.00     0.280 HD
HETATM   41  C   UNL     1      -4.441  -2.863 -33.756  1.00  0.00     0.261 C 
HETATM   42  C   UNL     1      -4.121  -4.267 -34.277  1.00  0.00     0.195 C 
HETATM   43  O   UNL     1      -5.302  -5.074 -34.308  1.00  0.00    -0.388 OA
HETATM   44  C   UNL     1      -6.275  -4.533 -35.207  1.00  0.00     0.195 C 
HETATM   45  C   UNL     1      -6.725  -3.143 -34.751  1.00  0.00     0.261 C 
ENDBRANCH  38  39
ENDBRANCH  37  38
ENDBRANCH   2  37
TORSDOF 13
ENDMDL
