MODEL 1
REMARK VINA RESULT:      -9.5      0.000      0.000
REMARK  5 active torsions:
REMARK  status: ('A' for Active; 'I' for Inactive)
REMARK    1  A    between atoms: C_6  and  C_7 
REMARK       I    between atoms: C_7  and  N_8 
REMARK    2  A    between atoms: N_8  and  C_9 
REMARK    3  A    between atoms: C_16  and  C_17 
REMARK    4  A    between atoms: C_23  and  C_24 
REMARK       I    between atoms: C_24  and  N_25 
REMARK    5  A    between atoms: N_25  and  C_26 
ROOT
HETATM    1  C   UNL     1      -6.743   2.323 -29.963  1.00  0.00     0.069 C 
HETATM    2  C   UNL     1      -5.761   3.440 -30.225  1.00  0.00     0.018 C 
HETATM    3  N   UNL     1      -6.100   4.679 -29.698  1.00  0.00    -0.362 N 
HETATM    4  C   UNL     1      -5.249   5.774 -29.676  1.00  0.00     0.018 C 
HETATM    5  C   UNL     1      -5.703   6.950 -28.851  1.00  0.00     0.069 C 
HETATM    6  C   UNL     1      -4.080   5.716 -30.350  1.00  0.00     0.045 C 
HETATM    7  C   UNL     1      -3.662   4.478 -31.134  1.00  0.00     0.101 C 
HETATM    8  C   UNL     1      -4.600   3.294 -30.903  1.00  0.00     0.045 C 
HETATM    9  H   UNL     1      -6.927   4.721 -29.105  1.00  0.00     0.165 HD
ENDROOT
BRANCH   6  10
HETATM   10  C   UNL     1      -3.063   6.782 -30.159  1.00  0.00     0.255 C 
HETATM   11  N   UNL     1      -2.239   6.553 -29.081  1.00  0.00    -0.323 N 
HETATM   12  H   UNL     1      -2.439   5.743 -28.505  1.00  0.00     0.169 HD
HETATM   13  O   UNL     1      -3.057   7.741 -30.920  1.00  0.00    -0.268 OA
BRANCH  11  14
HETATM   14  C   UNL     1      -1.191   7.378 -28.625  1.00  0.00     0.035 A 
HETATM   15  C   UNL     1       0.153   7.170 -28.938  1.00  0.00     0.029 A 
HETATM   16  C   UNL     1       1.136   8.031 -28.439  1.00  0.00     0.002 A 
HETATM   17  C   UNL     1       0.781   9.109 -27.632  1.00  0.00     0.000 A 
HETATM   18  C   UNL     1      -0.558   9.325 -27.317  1.00  0.00     0.002 A 
HETATM   19  C   UNL     1      -1.539   8.459 -27.805  1.00  0.00     0.029 A 
ENDBRANCH  11  14
ENDBRANCH   6  10
BRANCH   7  20
HETATM   20  C   UNL     1      -3.513   4.792 -32.617  1.00  0.00    -0.027 A 
HETATM   21  C   UNL     1      -4.623   5.132 -33.387  1.00  0.00     0.124 A 
HETATM   22  N   UNL     1      -4.579   5.369 -34.717  1.00  0.00    -0.273 NA
HETATM   23  C   UNL     1      -3.370   5.293 -35.313  1.00  0.00     0.116 A 
HETATM   24  C   UNL     1      -2.204   4.965 -34.642  1.00  0.00     0.020 A 
HETATM   25  C   UNL     1      -2.280   4.704 -33.278  1.00  0.00     0.011 A 
ENDBRANCH   7  20
BRANCH   8  26
HETATM   26  C   UNL     1      -4.260   1.990 -31.543  1.00  0.00     0.255 C 
HETATM   27  N   UNL     1      -5.287   1.477 -32.306  1.00  0.00    -0.323 N 
HETATM   28  H   UNL     1      -6.137   2.021 -32.378  1.00  0.00     0.169 HD
HETATM   29  O   UNL     1      -3.157   1.493 -31.352  1.00  0.00    -0.268 OA
BRANCH  27  30
HETATM   30  C   UNL     1      -5.287   0.265 -33.029  1.00  0.00     0.035 A 
HETATM   31  C   UNL     1      -4.287  -0.704 -32.930  1.00  0.00     0.029 A 
HETATM   32  C   UNL     1      -4.357  -1.876 -33.691  1.00  0.00     0.002 A 
HETATM   33  C   UNL     1      -5.432  -2.094 -34.549  1.00  0.00     0.000 A 
HETATM   34  C   UNL     1      -6.437  -1.137 -34.652  1.00  0.00     0.002 A 
HETATM   35  C   UNL     1      -6.361   0.040 -33.901  1.00  0.00     0.029 A 
ENDBRANCH  27  30
ENDBRANCH   8  26
TORSDOF 5
ENDMDL
MODEL 2
REMARK VINA RESULT:      -9.3      3.153      8.730
REMARK  5 active torsions:
REMARK  status: ('A' for Active; 'I' for Inactive)
REMARK    1  A    between atoms: C_6  and  C_7 
REMARK       I    between atoms: C_7  and  N_8 
REMARK    2  A    between atoms: N_8  and  C_9 
REMARK    3  A    between atoms: C_16  and  C_17 
REMARK    4  A    between atoms: C_23  and  C_24 
REMARK       I    between atoms: C_24  and  N_25 
REMARK    5  A    between atoms: N_25  and  C_26 
ROOT
HETATM    1  C   UNL     1      -8.173   5.692 -32.824  1.00  0.00     0.069 C 
HETATM    2  C   UNL     1      -7.744   4.280 -33.137  1.00  0.00     0.018 C 
HETATM    3  N   UNL     1      -8.756   3.410 -33.518  1.00  0.00    -0.362 N 
HETATM    4  C   UNL     1      -8.539   2.133 -34.015  1.00  0.00     0.018 C 
HETATM    5  C   UNL     1      -9.741   1.436 -34.598  1.00  0.00     0.069 C 
HETATM    6  C   UNL     1      -7.293   1.613 -33.979  1.00  0.00     0.045 C 
HETATM    7  C   UNL     1      -6.111   2.389 -33.410  1.00  0.00     0.101 C 
HETATM    8  C   UNL     1      -6.465   3.841 -33.088  1.00  0.00     0.045 C 
HETATM    9  H   UNL     1      -9.685   3.806 -33.645  1.00  0.00     0.165 HD
ENDROOT
BRANCH   6  10
HETATM   10  C   UNL     1      -6.999   0.349 -34.701  1.00  0.00     0.255 C 
HETATM   11  N   UNL     1      -6.618  -0.673 -33.863  1.00  0.00    -0.323 N 
HETATM   12  H   UNL     1      -6.517  -0.455 -32.878  1.00  0.00     0.169 HD
HETATM   13  O   UNL     1      -7.088   0.327 -35.922  1.00  0.00    -0.268 OA
BRANCH  11  14
HETATM   14  C   UNL     1      -6.258  -1.984 -34.234  1.00  0.00     0.035 A 
HETATM   15  C   UNL     1      -7.178  -2.970 -34.595  1.00  0.00     0.029 A 
HETATM   16  C   UNL     1      -6.741  -4.252 -34.944  1.00  0.00     0.002 A 
HETATM   17  C   UNL     1      -5.381  -4.554 -34.943  1.00  0.00     0.000 A 
HETATM   18  C   UNL     1      -4.456  -3.576 -34.587  1.00  0.00     0.002 A 
HETATM   19  C   UNL     1      -4.893  -2.299 -34.227  1.00  0.00     0.029 A 
ENDBRANCH  11  14
ENDBRANCH   6  10
BRANCH   7  20
HETATM   20  C   UNL     1      -5.517   1.677 -32.203  1.00  0.00    -0.027 A 
HETATM   21  C   UNL     1      -4.201   1.218 -32.225  1.00  0.00     0.124 A 
HETATM   22  N   UNL     1      -3.622   0.529 -31.216  1.00  0.00    -0.273 NA
HETATM   23  C   UNL     1      -4.373   0.306 -30.117  1.00  0.00     0.116 A 
HETATM   24  C   UNL     1      -5.687   0.718 -29.990  1.00  0.00     0.020 A 
HETATM   25  C   UNL     1      -6.267   1.406 -31.051  1.00  0.00     0.011 A 
ENDBRANCH   7  20
BRANCH   8  26
HETATM   26  C   UNL     1      -5.378   4.740 -32.604  1.00  0.00     0.255 C 
HETATM   27  N   UNL     1      -4.243   4.688 -33.386  1.00  0.00    -0.323 N 
HETATM   28  H   UNL     1      -4.259   4.085 -34.198  1.00  0.00     0.169 HD
HETATM   29  O   UNL     1      -5.556   5.419 -31.600  1.00  0.00    -0.268 OA
BRANCH  27  30
HETATM   30  C   UNL     1      -3.043   5.404 -33.193  1.00  0.00     0.035 A 
HETATM   31  C   UNL     1      -2.760   6.631 -33.797  1.00  0.00     0.029 A 
HETATM   32  C   UNL     1      -1.538   7.272 -33.560  1.00  0.00     0.002 A 
HETATM   33  C   UNL     1      -0.595   6.698 -32.712  1.00  0.00     0.000 A 
HETATM   34  C   UNL     1      -0.869   5.478 -32.101  1.00  0.00     0.002 A 
HETATM   35  C   UNL     1      -2.084   4.831 -32.346  1.00  0.00     0.029 A 
ENDBRANCH  27  30
ENDBRANCH   8  26
TORSDOF 5
ENDMDL
MODEL 3
REMARK VINA RESULT:      -9.1      3.120      5.931
REMARK  5 active torsions:
REMARK  status: ('A' for Active; 'I' for Inactive)
REMARK    1  A    between atoms: C_6  and  C_7 
REMARK       I    between atoms: C_7  and  N_8 
REMARK    2  A    between atoms: N_8  and  C_9 
REMARK    3  A    between atoms: C_16  and  C_17 
REMARK    4  A    between atoms: C_23  and  C_24 
REMARK       I    between atoms: C_24  and  N_25 
REMARK    5  A    between atoms: N_25  and  C_26 
ROOT
HETATM    1  C   UNL     1      -6.812  -1.867 -33.820  1.00  0.00     0.069 C 
HETATM    2  C   UNL     1      -6.115  -0.636 -33.294  1.00  0.00     0.018 C 
HETATM    3  N   UNL     1      -4.975  -0.864 -32.536  1.00  0.00    -0.362 N 
HETATM    4  C   UNL     1      -4.104   0.133 -32.121  1.00  0.00     0.018 C 
HETATM    5  C   UNL     1      -2.803  -0.332 -31.520  1.00  0.00     0.069 C 
HETATM    6  C   UNL     1      -4.446   1.427 -32.304  1.00  0.00     0.045 C 
HETATM    7  C   UNL     1      -5.763   1.829 -32.956  1.00  0.00     0.101 C 
HETATM    8  C   UNL     1      -6.519   0.632 -33.534  1.00  0.00     0.045 C 
HETATM    9  H   UNL     1      -4.647  -1.825 -32.468  1.00  0.00     0.165 HD
ENDROOT
BRANCH   6  10
HETATM   10  C   UNL     1      -3.441   2.496 -32.073  1.00  0.00     0.255 C 
HETATM   11  N   UNL     1      -3.443   3.458 -33.056  1.00  0.00    -0.323 N 
HETATM   12  H   UNL     1      -4.063   3.316 -33.847  1.00  0.00     0.169 HD
HETATM   13  O   UNL     1      -2.712   2.425 -31.092  1.00  0.00    -0.268 OA
BRANCH  11  14
HETATM   14  C   UNL     1      -2.605   4.588 -33.139  1.00  0.00     0.035 A 
HETATM   15  C   UNL     1      -2.370   5.460 -32.074  1.00  0.00     0.029 A 
HETATM   16  C   UNL     1      -1.530   6.566 -32.239  1.00  0.00     0.002 A 
HETATM   17  C   UNL     1      -0.912   6.802 -33.465  1.00  0.00     0.000 A 
HETATM   18  C   UNL     1      -1.139   5.936 -34.532  1.00  0.00     0.002 A 
HETATM   19  C   UNL     1      -1.988   4.839 -34.372  1.00  0.00     0.029 A 
ENDBRANCH  11  14
ENDBRANCH   6  10
BRANCH   7  20
HETATM   20  C   UNL     1      -6.631   2.627 -31.994  1.00  0.00    -0.027 A 
HETATM   21  C   UNL     1      -7.139   3.873 -32.359  1.00  0.00     0.124 A 
HETATM   22  N   UNL     1      -7.868   4.664 -31.541  1.00  0.00    -0.273 NA
HETATM   23  C   UNL     1      -8.134   4.188 -30.307  1.00  0.00     0.116 A 
HETATM   24  C   UNL     1      -7.681   2.965 -29.842  1.00  0.00     0.020 A 
HETATM   25  C   UNL     1      -6.914   2.180 -30.696  1.00  0.00     0.011 A 
ENDBRANCH   7  20
BRANCH   8  26
HETATM   26  C   UNL     1      -7.785   0.892 -34.278  1.00  0.00     0.255 C 
HETATM   27  N   UNL     1      -8.877   1.051 -33.451  1.00  0.00    -0.323 N 
HETATM   28  H   UNL     1      -8.722   1.001 -32.454  1.00  0.00     0.169 HD
HETATM   29  O   UNL     1      -7.768   0.939 -35.503  1.00  0.00    -0.268 OA
BRANCH  27  30
HETATM   30  C   UNL     1     -10.211   1.298 -33.841  1.00  0.00     0.035 A 
HETATM   31  C   UNL     1     -10.611   2.393 -34.608  1.00  0.00     0.029 A 
HETATM   32  C   UNL     1     -11.958   2.570 -34.943  1.00  0.00     0.002 A 
HETATM   33  C   UNL     1     -12.914   1.649 -34.522  1.00  0.00     0.000 A 
HETATM   34  C   UNL     1     -12.526   0.551 -33.760  1.00  0.00     0.002 A 
HETATM   35  C   UNL     1     -11.181   0.380 -33.416  1.00  0.00     0.029 A 
ENDBRANCH  27  30
ENDBRANCH   8  26
TORSDOF 5
ENDMDL
MODEL 4
REMARK VINA RESULT:      -9.0      2.061      2.582
REMARK  5 active torsions:
REMARK  status: ('A' for Active; 'I' for Inactive)
REMARK    1  A    between atoms: C_6  and  C_7 
REMARK       I    between atoms: C_7  and  N_8 
REMARK    2  A    between atoms: N_8  and  C_9 
REMARK    3  A    between atoms: C_16  and  C_17 
REMARK    4  A    between atoms: C_23  and  C_24 
REMARK       I    between atoms: C_24  and  N_25 
REMARK    5  A    between atoms: N_25  and  C_26 
ROOT
HETATM    1  C   UNL     1      -9.227   2.999 -33.514  1.00  0.00     0.069 C 
HETATM    2  C   UNL     1      -8.059   3.604 -32.774  1.00  0.00     0.018 C 
HETATM    3  N   UNL     1      -8.341   4.738 -32.023  1.00  0.00    -0.362 N 
HETATM    4  C   UNL     1      -7.449   5.327 -31.139  1.00  0.00     0.018 C 
HETATM    5  C   UNL     1      -8.015   6.396 -30.241  1.00  0.00     0.069 C 
HETATM    6  C   UNL     1      -6.168   4.899 -31.109  1.00  0.00     0.045 C 
HETATM    7  C   UNL     1      -5.669   3.783 -32.020  1.00  0.00     0.101 C 
HETATM    8  C   UNL     1      -6.803   3.104 -32.788  1.00  0.00     0.045 C 
HETATM    9  H   UNL     1      -9.317   5.018 -31.955  1.00  0.00     0.165 HD
ENDROOT
BRANCH   6  10
HETATM   10  C   UNL     1      -5.261   5.357 -30.026  1.00  0.00     0.255 C 
HETATM   11  N   UNL     1      -4.445   6.395 -30.411  1.00  0.00    -0.323 N 
HETATM   12  H   UNL     1      -4.495   6.693 -31.379  1.00  0.00     0.169 HD
HETATM   13  O   UNL     1      -5.292   4.786 -28.944  1.00  0.00    -0.268 OA
BRANCH  11  14
HETATM   14  C   UNL     1      -3.467   7.040 -29.627  1.00  0.00     0.035 A 
HETATM   15  C   UNL     1      -3.764   7.891 -28.561  1.00  0.00     0.029 A 
HETATM   16  C   UNL     1      -2.735   8.501 -27.836  1.00  0.00     0.002 A 
HETATM   17  C   UNL     1      -1.404   8.256 -28.165  1.00  0.00     0.000 A 
HETATM   18  C   UNL     1      -1.099   7.407 -29.226  1.00  0.00     0.002 A 
HETATM   19  C   UNL     1      -2.126   6.808 -29.959  1.00  0.00     0.029 A 
ENDBRANCH  11  14
ENDBRANCH   6  10
BRANCH   7  20
HETATM   20  C   UNL     1      -4.579   4.284 -32.956  1.00  0.00    -0.027 A 
HETATM   21  C   UNL     1      -4.890   5.118 -34.029  1.00  0.00     0.124 A 
HETATM   22  N   UNL     1      -3.988   5.558 -34.934  1.00  0.00    -0.273 NA
HETATM   23  C   UNL     1      -2.706   5.175 -34.755  1.00  0.00     0.116 A 
HETATM   24  C   UNL     1      -2.288   4.351 -33.726  1.00  0.00     0.020 A 
HETATM   25  C   UNL     1      -3.240   3.894 -32.820  1.00  0.00     0.011 A 
ENDBRANCH   7  20
BRANCH   8  26
HETATM   26  C   UNL     1      -6.467   1.936 -33.652  1.00  0.00     0.255 C 
HETATM   27  N   UNL     1      -6.289   0.768 -32.940  1.00  0.00    -0.323 N 
HETATM   28  H   UNL     1      -6.419   0.804 -31.938  1.00  0.00     0.169 HD
HETATM   29  O   UNL     1      -6.372   2.087 -34.865  1.00  0.00    -0.268 OA
BRANCH  27  30
HETATM   30  C   UNL     1      -5.955  -0.502 -33.457  1.00  0.00     0.035 A 
HETATM   31  C   UNL     1      -4.664  -1.033 -33.453  1.00  0.00     0.029 A 
HETATM   32  C   UNL     1      -4.416  -2.299 -33.996  1.00  0.00     0.002 A 
HETATM   33  C   UNL     1      -5.457  -3.047 -34.538  1.00  0.00     0.000 A 
HETATM   34  C   UNL     1      -6.749  -2.529 -34.544  1.00  0.00     0.002 A 
HETATM   35  C   UNL     1      -6.995  -1.260 -34.012  1.00  0.00     0.029 A 
ENDBRANCH  27  30
ENDBRANCH   8  26
TORSDOF 5
ENDMDL
MODEL 5
REMARK VINA RESULT:      -8.8      3.777      8.987
REMARK  5 active torsions:
REMARK  status: ('A' for Active; 'I' for Inactive)
REMARK    1  A    between atoms: C_6  and  C_7 
REMARK       I    between atoms: C_7  and  N_8 
REMARK    2  A    between atoms: N_8  and  C_9 
REMARK    3  A    between atoms: C_16  and  C_17 
REMARK    4  A    between atoms: C_23  and  C_24 
REMARK       I    between atoms: C_24  and  N_25 
REMARK    5  A    between atoms: N_25  and  C_26 
ROOT
HETATM    1  C   UNL     1     -10.803   4.395 -31.929  1.00  0.00     0.069 C 
HETATM    2  C   UNL     1      -9.844   3.343 -32.429  1.00  0.00     0.018 C 
HETATM    3  N   UNL     1     -10.273   2.028 -32.311  1.00  0.00    -0.362 N 
HETATM    4  C   UNL     1      -9.617   0.942 -32.873  1.00  0.00     0.018 C 
HETATM    5  C   UNL     1     -10.361  -0.368 -32.844  1.00  0.00     0.069 C 
HETATM    6  C   UNL     1      -8.399   1.121 -33.427  1.00  0.00     0.045 C 
HETATM    7  C   UNL     1      -7.719   2.484 -33.458  1.00  0.00     0.101 C 
HETATM    8  C   UNL     1      -8.640   3.608 -32.985  1.00  0.00     0.045 C 
HETATM    9  H   UNL     1     -11.226   1.878 -31.986  1.00  0.00     0.165 HD
ENDROOT
BRANCH   6  10
HETATM   10  C   UNL     1      -7.783   0.029 -34.224  1.00  0.00     0.255 C 
HETATM   11  N   UNL     1      -7.075  -0.865 -33.455  1.00  0.00    -0.323 N 
HETATM   12  H   UNL     1      -6.992  -0.665 -32.464  1.00  0.00     0.169 HD
HETATM   13  O   UNL     1      -7.924   0.028 -35.440  1.00  0.00    -0.268 OA
BRANCH  11  14
HETATM   14  C   UNL     1      -6.364  -1.995 -33.906  1.00  0.00     0.035 A 
HETATM   15  C   UNL     1      -4.971  -2.089 -33.903  1.00  0.00     0.029 A 
HETATM   16  C   UNL     1      -4.339  -3.243 -34.376  1.00  0.00     0.002 A 
HETATM   17  C   UNL     1      -5.095  -4.315 -34.846  1.00  0.00     0.000 A 
HETATM   18  C   UNL     1      -6.485  -4.231 -34.851  1.00  0.00     0.002 A 
HETATM   19  C   UNL     1      -7.117  -3.074 -34.390  1.00  0.00     0.029 A 
ENDBRANCH  11  14
ENDBRANCH   6  10
BRANCH   7  20
HETATM   20  C   UNL     1      -6.413   2.464 -32.676  1.00  0.00    -0.027 A 
HETATM   21  C   UNL     1      -6.385   2.046 -31.347  1.00  0.00     0.124 A 
HETATM   22  N   UNL     1      -5.277   2.054 -30.572  1.00  0.00    -0.273 NA
HETATM   23  C   UNL     1      -4.130   2.469 -31.149  1.00  0.00     0.116 A 
HETATM   24  C   UNL     1      -4.045   2.904 -32.460  1.00  0.00     0.020 A 
HETATM   25  C   UNL     1      -5.204   2.907 -33.230  1.00  0.00     0.011 A 
ENDBRANCH   7  20
BRANCH   8  26
HETATM   26  C   UNL     1      -8.130   5.008 -33.045  1.00  0.00     0.255 C 
HETATM   27  N   UNL     1      -7.654   5.465 -31.834  1.00  0.00    -0.323 N 
HETATM   28  H   UNL     1      -7.672   4.826 -31.051  1.00  0.00     0.169 HD
HETATM   29  O   UNL     1      -8.172   5.622 -34.105  1.00  0.00    -0.268 OA
BRANCH  27  30
HETATM   30  C   UNL     1      -7.116   6.740 -31.557  1.00  0.00     0.035 A 
HETATM   31  C   UNL     1      -5.752   6.996 -31.401  1.00  0.00     0.029 A 
HETATM   32  C   UNL     1      -5.302   8.290 -31.116  1.00  0.00     0.002 A 
HETATM   33  C   UNL     1      -6.208   9.339 -30.995  1.00  0.00     0.000 A 
HETATM   34  C   UNL     1      -7.570   9.096 -31.152  1.00  0.00     0.002 A 
HETATM   35  C   UNL     1      -8.021   7.801 -31.425  1.00  0.00     0.029 A 
ENDBRANCH  27  30
ENDBRANCH   8  26
TORSDOF 5
ENDMDL
MODEL 6
REMARK VINA RESULT:      -8.7      2.441      3.638
REMARK  5 active torsions:
REMARK  status: ('A' for Active; 'I' for Inactive)
REMARK    1  A    between atoms: C_6  and  C_7 
REMARK       I    between atoms: C_7  and  N_8 
REMARK    2  A    between atoms: N_8  and  C_9 
REMARK    3  A    between atoms: C_16  and  C_17 
REMARK    4  A    between atoms: C_23  and  C_24 
REMARK       I    between atoms: C_24  and  N_25 
REMARK    5  A    between atoms: N_25  and  C_26 
ROOT
HETATM    1  C   UNL     1      -9.640   1.078 -32.480  1.00  0.00     0.069 C 
HETATM    2  C   UNL     1      -8.726   2.060 -31.789  1.00  0.00     0.018 C 
HETATM    3  N   UNL     1      -9.237   3.339 -31.609  1.00  0.00    -0.362 N 
HETATM    4  C   UNL     1      -8.626   4.320 -30.842  1.00  0.00     0.018 C 
HETATM    5  C   UNL     1      -9.446   5.554 -30.569  1.00  0.00     0.069 C 
HETATM    6  C   UNL     1      -7.378   4.107 -30.370  1.00  0.00     0.045 C 
HETATM    7  C   UNL     1      -6.618   2.817 -30.652  1.00  0.00     0.101 C 
HETATM    8  C   UNL     1      -7.488   1.762 -31.334  1.00  0.00     0.045 C 
HETATM    9  H   UNL     1     -10.209   3.491 -31.870  1.00  0.00     0.165 HD
ENDROOT
BRANCH   6  10
HETATM   10  C   UNL     1      -6.798   5.041 -29.372  1.00  0.00     0.255 C 
HETATM   11  N   UNL     1      -5.995   6.004 -29.938  1.00  0.00    -0.323 N 
HETATM   12  H   UNL     1      -5.832   5.946 -30.937  1.00  0.00     0.169 HD
HETATM   13  O   UNL     1      -7.045   4.872 -28.185  1.00  0.00    -0.268 OA
BRANCH  11  14
HETATM   14  C   UNL     1      -5.288   7.022 -29.266  1.00  0.00     0.035 A 
HETATM   15  C   UNL     1      -5.897   8.133 -28.680  1.00  0.00     0.029 A 
HETATM   16  C   UNL     1      -5.123   9.105 -28.037  1.00  0.00     0.002 A 
HETATM   17  C   UNL     1      -3.739   8.968 -27.969  1.00  0.00     0.000 A 
HETATM   18  C   UNL     1      -3.124   7.862 -28.549  1.00  0.00     0.002 A 
HETATM   19  C   UNL     1      -3.894   6.897 -29.202  1.00  0.00     0.029 A 
ENDBRANCH  11  14
ENDBRANCH   6  10
BRANCH   7  20
HETATM   20  C   UNL     1      -5.346   3.091 -31.443  1.00  0.00    -0.027 A 
HETATM   21  C   UNL     1      -4.105   2.678 -30.960  1.00  0.00     0.124 A 
HETATM   22  N   UNL     1      -2.930   2.933 -31.577  1.00  0.00    -0.273 NA
HETATM   23  C   UNL     1      -2.984   3.607 -32.745  1.00  0.00     0.116 A 
HETATM   24  C   UNL     1      -4.161   4.062 -33.313  1.00  0.00     0.020 A 
HETATM   25  C   UNL     1      -5.356   3.806 -32.648  1.00  0.00     0.011 A 
ENDBRANCH   7  20
BRANCH   8  26
HETATM   26  C   UNL     1      -6.894   0.418 -31.590  1.00  0.00     0.255 C 
HETATM   27  N   UNL     1      -6.690   0.162 -32.929  1.00  0.00    -0.323 N 
HETATM   28  H   UNL     1      -6.931   0.890 -33.589  1.00  0.00     0.169 HD
HETATM   29  O   UNL     1      -6.648  -0.324 -30.647  1.00  0.00    -0.268 OA
BRANCH  27  30
HETATM   30  C   UNL     1      -6.156  -1.013 -33.500  1.00  0.00     0.035 A 
HETATM   31  C   UNL     1      -4.798  -1.335 -33.499  1.00  0.00     0.029 A 
HETATM   32  C   UNL     1      -4.349  -2.518 -34.097  1.00  0.00     0.002 A 
HETATM   33  C   UNL     1      -5.254  -3.393 -34.691  1.00  0.00     0.000 A 
HETATM   34  C   UNL     1      -6.612  -3.084 -34.694  1.00  0.00     0.002 A 
HETATM   35  C   UNL     1      -7.059  -1.897 -34.107  1.00  0.00     0.029 A 
ENDBRANCH  27  30
ENDBRANCH   8  26
TORSDOF 5
ENDMDL
MODEL 7
REMARK VINA RESULT:      -8.6      4.011      8.943
REMARK  5 active torsions:
REMARK  status: ('A' for Active; 'I' for Inactive)
REMARK    1  A    between atoms: C_6  and  C_7 
REMARK       I    between atoms: C_7  and  N_8 
REMARK    2  A    between atoms: N_8  and  C_9 
REMARK    3  A    between atoms: C_16  and  C_17 
REMARK    4  A    between atoms: C_23  and  C_24 
REMARK       I    between atoms: C_24  and  N_25 
REMARK    5  A    between atoms: N_25  and  C_26 
ROOT
HETATM    1  C   UNL     1      -6.024   5.522 -30.839  1.00  0.00     0.069 C 
HETATM    2  C   UNL     1      -6.117   4.079 -31.273  1.00  0.00     0.018 C 
HETATM    3  N   UNL     1      -5.020   3.585 -31.967  1.00  0.00    -0.362 N 
HETATM    4  C   UNL     1      -4.842   2.247 -32.288  1.00  0.00     0.018 C 
HETATM    5  C   UNL     1      -3.485   1.869 -32.824  1.00  0.00     0.069 C 
HETATM    6  C   UNL     1      -5.853   1.376 -32.078  1.00  0.00     0.045 C 
HETATM    7  C   UNL     1      -7.190   1.818 -31.495  1.00  0.00     0.101 C 
HETATM    8  C   UNL     1      -7.167   3.268 -31.011  1.00  0.00     0.045 C 
HETATM    9  H   UNL     1      -4.210   4.195 -32.050  1.00  0.00     0.165 HD
ENDROOT
BRANCH   6  10
HETATM   10  C   UNL     1      -5.610  -0.083 -32.205  1.00  0.00     0.255 C 
HETATM   11  N   UNL     1      -5.814  -0.554 -33.481  1.00  0.00    -0.323 N 
HETATM   12  H   UNL     1      -6.160   0.104 -34.171  1.00  0.00     0.169 HD
HETATM   13  O   UNL     1      -5.290  -0.722 -31.210  1.00  0.00    -0.268 OA
BRANCH  11  14
HETATM   14  C   UNL     1      -5.684  -1.886 -33.925  1.00  0.00     0.035 A 
HETATM   15  C   UNL     1      -4.477  -2.586 -33.936  1.00  0.00     0.029 A 
HETATM   16  C   UNL     1      -4.429  -3.905 -34.400  1.00  0.00     0.002 A 
HETATM   17  C   UNL     1      -5.589  -4.534 -34.846  1.00  0.00     0.000 A 
HETATM   18  C   UNL     1      -6.798  -3.844 -34.836  1.00  0.00     0.002 A 
HETATM   19  C   UNL     1      -6.844  -2.523 -34.384  1.00  0.00     0.029 A 
ENDBRANCH  11  14
ENDBRANCH   6  10
BRANCH   7  20
HETATM   20  C   UNL     1      -8.326   1.575 -32.479  1.00  0.00    -0.027 A 
HETATM   21  C   UNL     1      -8.392   2.281 -33.678  1.00  0.00     0.124 A 
HETATM   22  N   UNL     1      -9.397   2.161 -34.574  1.00  0.00    -0.273 NA
HETATM   23  C   UNL     1     -10.374   1.276 -34.284  1.00  0.00     0.116 A 
HETATM   24  C   UNL     1     -10.406   0.523 -33.123  1.00  0.00     0.020 A 
HETATM   25  C   UNL     1      -9.371   0.682 -32.207  1.00  0.00     0.011 A 
ENDBRANCH   7  20
BRANCH   8  26
HETATM   26  C   UNL     1      -8.385   3.805 -30.338  1.00  0.00     0.255 C 
HETATM   27  N   UNL     1      -9.300   4.339 -31.221  1.00  0.00    -0.323 N 
HETATM   28  H   UNL     1      -9.081   4.299 -32.207  1.00  0.00     0.169 HD
HETATM   29  O   UNL     1      -8.479   3.743 -29.118  1.00  0.00    -0.268 OA
BRANCH  27  30
HETATM   30  C   UNL     1     -10.542   4.932 -30.904  1.00  0.00     0.035 A 
HETATM   31  C   UNL     1     -10.726   6.302 -30.710  1.00  0.00     0.029 A 
HETATM   32  C   UNL     1     -11.990   6.808 -30.389  1.00  0.00     0.002 A 
HETATM   33  C   UNL     1     -13.081   5.952 -30.268  1.00  0.00     0.000 A 
HETATM   34  C   UNL     1     -12.909   4.584 -30.463  1.00  0.00     0.002 A 
HETATM   35  C   UNL     1     -11.644   4.076 -30.774  1.00  0.00     0.029 A 
ENDBRANCH  27  30
ENDBRANCH   8  26
TORSDOF 5
ENDMDL
MODEL 8
REMARK VINA RESULT:      -8.5      3.460      5.166
REMARK  5 active torsions:
REMARK  status: ('A' for Active; 'I' for Inactive)
REMARK    1  A    between atoms: C_6  and  C_7 
REMARK       I    between atoms: C_7  and  N_8 
REMARK    2  A    between atoms: N_8  and  C_9 
REMARK    3  A    between atoms: C_16  and  C_17 
REMARK    4  A    between atoms: C_23  and  C_24 
REMARK       I    between atoms: C_24  and  N_25 
REMARK    5  A    between atoms: N_25  and  C_26 
ROOT
HETATM    1  C   UNL     1      -7.869   0.079 -31.639  1.00  0.00     0.069 C 
HETATM    2  C   UNL     1      -6.804   1.148 -31.666  1.00  0.00     0.018 C 
HETATM    3  N   UNL     1      -5.529   0.741 -31.295  1.00  0.00    -0.362 N 
HETATM    4  C   UNL     1      -4.392   1.524 -31.429  1.00  0.00     0.018 C 
HETATM    5  C   UNL     1      -3.076   0.827 -31.200  1.00  0.00     0.069 C 
HETATM    6  C   UNL     1      -4.522   2.823 -31.777  1.00  0.00     0.045 C 
HETATM    7  C   UNL     1      -5.884   3.457 -32.032  1.00  0.00     0.101 C 
HETATM    8  C   UNL     1      -7.016   2.430 -32.041  1.00  0.00     0.045 C 
HETATM    9  H   UNL     1      -5.391  -0.253 -31.123  1.00  0.00     0.165 HD
ENDROOT
BRANCH   6  10
HETATM   10  C   UNL     1      -3.319   3.614 -32.139  1.00  0.00     0.255 C 
HETATM   11  N   UNL     1      -2.790   4.308 -31.075  1.00  0.00    -0.323 N 
HETATM   12  H   UNL     1      -3.292   4.264 -30.195  1.00  0.00     0.169 HD
HETATM   13  O   UNL     1      -2.930   3.608 -33.300  1.00  0.00    -0.268 OA
BRANCH  11  14
HETATM   14  C   UNL     1      -1.667   5.159 -31.091  1.00  0.00     0.035 A 
HETATM   15  C   UNL     1      -0.410   4.795 -30.607  1.00  0.00     0.029 A 
HETATM   16  C   UNL     1       0.655   5.701 -30.652  1.00  0.00     0.002 A 
HETATM   17  C   UNL     1       0.471   6.973 -31.188  1.00  0.00     0.000 A 
HETATM   18  C   UNL     1      -0.779   7.344 -31.676  1.00  0.00     0.002 A 
HETATM   19  C   UNL     1      -1.846   6.444 -31.620  1.00  0.00     0.029 A 
ENDBRANCH  11  14
ENDBRANCH   6  10
BRANCH   7  20
HETATM   20  C   UNL     1      -6.159   4.584 -31.045  1.00  0.00    -0.027 A 
HETATM   21  C   UNL     1      -6.333   5.893 -31.490  1.00  0.00     0.124 A 
HETATM   22  N   UNL     1      -6.524   6.952 -30.672  1.00  0.00    -0.273 NA
HETATM   23  C   UNL     1      -6.573   6.702 -29.347  1.00  0.00     0.116 A 
HETATM   24  C   UNL     1      -6.413   5.441 -28.799  1.00  0.00     0.020 A 
HETATM   25  C   UNL     1      -6.195   4.371 -29.660  1.00  0.00     0.011 A 
ENDBRANCH   7  20
BRANCH   8  26
HETATM   26  C   UNL     1      -8.393   2.902 -32.365  1.00  0.00     0.255 C 
HETATM   27  N   UNL     1      -8.717   2.756 -33.697  1.00  0.00    -0.323 N 
HETATM   28  H   UNL     1      -8.026   2.337 -34.306  1.00  0.00     0.169 HD
HETATM   29  O   UNL     1      -9.098   3.366 -31.477  1.00  0.00    -0.268 OA
BRANCH  27  30
HETATM   30  C   UNL     1      -9.930   3.113 -34.323  1.00  0.00     0.035 A 
HETATM   31  C   UNL     1     -10.222   4.397 -34.786  1.00  0.00     0.029 A 
HETATM   32  C   UNL     1     -11.456   4.671 -35.387  1.00  0.00     0.002 A 
HETATM   33  C   UNL     1     -12.404   3.663 -35.538  1.00  0.00     0.000 A 
HETATM   34  C   UNL     1     -12.122   2.378 -35.083  1.00  0.00     0.002 A 
HETATM   35  C   UNL     1     -10.894   2.106 -34.473  1.00  0.00     0.029 A 
ENDBRANCH  27  30
ENDBRANCH   8  26
TORSDOF 5
ENDMDL
MODEL 9
REMARK VINA RESULT:      -8.5      6.157      9.037
REMARK  5 active torsions:
REMARK  status: ('A' for Active; 'I' for Inactive)
REMARK    1  A    between atoms: C_6  and  C_7 
REMARK       I    between atoms: C_7  and  N_8 
REMARK    2  A    between atoms: N_8  and  C_9 
REMARK    3  A    between atoms: C_16  and  C_17 
REMARK    4  A    between atoms: C_23  and  C_24 
REMARK       I    between atoms: C_24  and  N_25 
REMARK    5  A    between atoms: N_25  and  C_26 
ROOT
HETATM    1  C   UNL     1      -8.123   3.261 -30.249  1.00  0.00     0.069 C 
HETATM    2  C   UNL     1      -8.881   3.757 -31.455  1.00  0.00     0.018 C 
HETATM    3  N   UNL     1      -9.340   5.066 -31.385  1.00  0.00    -0.362 N 
HETATM    4  C   UNL     1      -9.895   5.754 -32.454  1.00  0.00     0.018 C 
HETATM    5  C   UNL     1     -10.108   7.232 -32.251  1.00  0.00     0.069 C 
HETATM    6  C   UNL     1     -10.174   5.088 -33.596  1.00  0.00     0.045 C 
HETATM    7  C   UNL     1      -9.896   3.598 -33.748  1.00  0.00     0.101 C 
HETATM    8  C   UNL     1      -9.109   3.025 -32.570  1.00  0.00     0.045 C 
HETATM    9  H   UNL     1      -9.057   5.614 -30.575  1.00  0.00     0.165 HD
ENDROOT
BRANCH   6  10
HETATM   10  C   UNL     1     -10.556   5.843 -34.816  1.00  0.00     0.255 C 
HETATM   11  N   UNL     1     -11.850   6.307 -34.779  1.00  0.00    -0.323 N 
HETATM   12  H   UNL     1     -12.417   6.045 -33.980  1.00  0.00     0.169 HD
HETATM   13  O   UNL     1      -9.741   5.962 -35.722  1.00  0.00    -0.268 OA
BRANCH  11  14
HETATM   14  C   UNL     1     -12.518   7.040 -35.781  1.00  0.00     0.035 A 
HETATM   15  C   UNL     1     -12.179   8.343 -36.147  1.00  0.00     0.029 A 
HETATM   16  C   UNL     1     -12.897   9.006 -37.148  1.00  0.00     0.002 A 
HETATM   17  C   UNL     1     -13.952   8.367 -37.795  1.00  0.00     0.000 A 
HETATM   18  C   UNL     1     -14.296   7.066 -37.437  1.00  0.00     0.002 A 
HETATM   19  C   UNL     1     -13.587   6.408 -36.429  1.00  0.00     0.029 A 
ENDBRANCH  11  14
ENDBRANCH   6  10
BRANCH   7  20
HETATM   20  C   UNL     1     -11.182   2.822 -33.992  1.00  0.00    -0.027 A 
HETATM   21  C   UNL     1     -11.376   2.120 -35.181  1.00  0.00     0.124 A 
HETATM   22  N   UNL     1     -12.511   1.456 -35.493  1.00  0.00    -0.273 NA
HETATM   23  C   UNL     1     -13.496   1.461 -34.570  1.00  0.00     0.116 A 
HETATM   24  C   UNL     1     -13.409   2.123 -33.358  1.00  0.00     0.020 A 
HETATM   25  C   UNL     1     -12.239   2.818 -33.071  1.00  0.00     0.011 A 
ENDBRANCH   7  20
BRANCH   8  26
HETATM   26  C   UNL     1      -8.693   1.595 -32.630  1.00  0.00     0.255 C 
HETATM   27  N   UNL     1      -7.522   1.399 -33.332  1.00  0.00    -0.323 N 
HETATM   28  H   UNL     1      -7.058   2.215 -33.709  1.00  0.00     0.169 HD
HETATM   29  O   UNL     1      -9.383   0.741 -32.086  1.00  0.00    -0.268 OA
BRANCH  27  30
HETATM   30  C   UNL     1      -6.872   0.171 -33.578  1.00  0.00     0.035 A 
HETATM   31  C   UNL     1      -5.807  -0.315 -32.817  1.00  0.00     0.029 A 
HETATM   32  C   UNL     1      -5.210  -1.540 -33.134  1.00  0.00     0.002 A 
HETATM   33  C   UNL     1      -5.678  -2.293 -34.208  1.00  0.00     0.000 A 
HETATM   34  C   UNL     1      -6.741  -1.820 -34.971  1.00  0.00     0.002 A 
HETATM   35  C   UNL     1      -7.331  -0.590 -34.661  1.00  0.00     0.029 A 
ENDBRANCH  27  30
ENDBRANCH   8  26
TORSDOF 5
ENDMDL
MODEL 10
REMARK VINA RESULT:      -8.2      6.926      9.802
REMARK  5 active torsions:
REMARK  status: ('A' for Active; 'I' for Inactive)
REMARK    1  A    between atoms: C_6  and  C_7 
REMARK       I    between atoms: C_7  and  N_8 
REMARK    2  A    between atoms: N_8  and  C_9 
REMARK    3  A    between atoms: C_16  and  C_17 
REMARK    4  A    between atoms: C_23  and  C_24 
REMARK       I    between atoms: C_24  and  N_25 
REMARK    5  A    between atoms: N_25  and  C_26 
ROOT
HETATM    1  C   UNL     1      -9.260   3.261 -30.394  1.00  0.00     0.069 C 
HETATM    2  C   UNL     1     -10.297   3.749 -31.376  1.00  0.00     0.018 C 
HETATM    3  N   UNL     1     -10.915   4.950 -31.057  1.00  0.00    -0.362 N 
HETATM    4  C   UNL     1     -11.755   5.645 -31.915  1.00  0.00     0.018 C 
HETATM    5  C   UNL     1     -12.133   7.039 -31.486  1.00  0.00     0.069 C 
HETATM    6  C   UNL     1     -12.149   5.064 -33.068  1.00  0.00     0.045 C 
HETATM    7  C   UNL     1     -11.697   3.662 -33.461  1.00  0.00     0.101 C 
HETATM    8  C   UNL     1     -10.626   3.108 -32.521  1.00  0.00     0.045 C 
HETATM    9  H   UNL     1     -10.563   5.452 -30.243  1.00  0.00     0.165 HD
ENDROOT
BRANCH   6  10
HETATM   10  C   UNL     1     -12.860   5.867 -34.095  1.00  0.00     0.255 C 
HETATM   11  N   UNL     1     -12.022   6.361 -35.068  1.00  0.00    -0.323 N 
HETATM   12  H   UNL     1     -11.029   6.190 -34.958  1.00  0.00     0.169 HD
HETATM   13  O   UNL     1     -14.068   6.039 -33.985  1.00  0.00    -0.268 OA
BRANCH  11  14
HETATM   14  C   UNL     1     -12.381   7.169 -36.165  1.00  0.00     0.035 A 
HETATM   15  C   UNL     1     -13.565   7.016 -36.888  1.00  0.00     0.029 A 
HETATM   16  C   UNL     1     -13.845   7.855 -37.972  1.00  0.00     0.002 A 
HETATM   17  C   UNL     1     -12.947   8.857 -38.334  1.00  0.00     0.000 A 
HETATM   18  C   UNL     1     -11.765   9.018 -37.617  1.00  0.00     0.002 A 
HETATM   19  C   UNL     1     -11.479   8.173 -36.542  1.00  0.00     0.029 A 
ENDBRANCH  11  14
ENDBRANCH   6  10
BRANCH   7  20
HETATM   20  C   UNL     1     -12.883   2.715 -33.579  1.00  0.00    -0.027 A 
HETATM   21  C   UNL     1     -13.086   1.970 -34.739  1.00  0.00     0.124 A 
HETATM   22  N   UNL     1     -14.144   1.153 -34.939  1.00  0.00    -0.273 NA
HETATM   23  C   UNL     1     -15.033   1.044 -33.930  1.00  0.00     0.116 A 
HETATM   24  C   UNL     1     -14.928   1.738 -32.737  1.00  0.00     0.020 A 
HETATM   25  C   UNL     1     -13.842   2.589 -32.564  1.00  0.00     0.011 A 
ENDBRANCH   7  20
BRANCH   8  26
HETATM   26  C   UNL     1     -10.031   1.779 -32.839  1.00  0.00     0.255 C 
HETATM   27  N   UNL     1      -8.724   1.859 -33.273  1.00  0.00    -0.323 N 
HETATM   28  H   UNL     1      -8.298   2.775 -33.314  1.00  0.00     0.169 HD
HETATM   29  O   UNL     1     -10.707   0.765 -32.704  1.00  0.00    -0.268 OA
BRANCH  27  30
HETATM   30  C   UNL     1      -7.888   0.790 -33.660  1.00  0.00     0.035 A 
HETATM   31  C   UNL     1      -7.800   0.299 -34.964  1.00  0.00     0.029 A 
HETATM   32  C   UNL     1      -6.952  -0.773 -35.262  1.00  0.00     0.002 A 
HETATM   33  C   UNL     1      -6.178  -1.356 -34.262  1.00  0.00     0.000 A 
HETATM   34  C   UNL     1      -6.254  -0.872 -32.959  1.00  0.00     0.002 A 
HETATM   35  C   UNL     1      -7.110   0.192 -32.659  1.00  0.00     0.029 A 
ENDBRANCH  27  30
ENDBRANCH   8  26
TORSDOF 5
ENDMDL
