MODEL 1
REMARK VINA RESULT:      -8.4      0.000      0.000
REMARK  3 active torsions:
REMARK  status: ('A' for Active; 'I' for Inactive)
REMARK    1  A    between atoms: C_2  and  N_3 
REMARK       I    between atoms: N_3  and  C_4 
REMARK    2  A    between atoms: C_4  and  C_5 
REMARK    3  A    between atoms: C_5  and  C_6 
ROOT
HETATM    1  C   UNL     1      -4.694   2.037 -32.188  1.00  0.00     0.286 C 
HETATM    2  N   UNL     1      -4.869   3.058 -33.305  1.00  0.00    -0.056 N 
HETATM    3  H   UNL     1      -4.229   2.752 -34.069  1.00  0.00     0.278 HD
HETATM    4  H   UNL     1      -5.818   3.013 -33.693  1.00  0.00     0.278 HD
HETATM    5  C   UNL     1      -4.524   4.457 -32.859  1.00  0.00     0.209 C 
HETATM    6  C   UNL     1      -3.057   4.484 -32.357  1.00  0.00     0.115 C 
HETATM    7  N   UNL     1      -2.779   3.412 -31.400  1.00  0.00    -0.353 N 
HETATM    8  C   UNL     1      -3.333   2.155 -31.468  1.00  0.00     0.249 C 
HETATM    9  O   UNL     1      -2.808   1.217 -30.882  1.00  0.00    -0.271 OA
HETATM   10  C   UNL     1      -4.782   5.432 -34.008  1.00  0.00     0.035 C 
HETATM   11  C   UNL     1      -3.748   5.335 -35.125  1.00  0.00     0.002 C 
HETATM   12  C   UNL     1      -2.329   5.467 -34.582  1.00  0.00     0.002 C 
HETATM   13  C   UNL     1      -2.042   4.425 -33.507  1.00  0.00     0.027 C 
HETATM   14  H   UNL     1      -1.891   3.435 -30.902  1.00  0.00     0.163 HD
ENDROOT
BRANCH   1  15
HETATM   15  C   UNL     1      -4.948   0.606 -32.683  1.00  0.00     0.146 C 
BRANCH  15  16
HETATM   16  C   UNL     1      -6.328   0.473 -33.273  1.00  0.00     0.224 C 
HETATM   17  N   UNL     1      -6.739  -0.639 -33.934  1.00  0.00    -0.327 N 
HETATM   18  H   UNL     1      -7.660  -0.503 -34.346  1.00  0.00     0.169 HD
HETATM   19  O   UNL     1      -7.128   1.406 -33.112  1.00  0.00    -0.273 OA
BRANCH  17  20
HETATM   20  C   UNL     1      -6.167  -1.903 -34.178  1.00  0.00     0.034 A 
HETATM   21  C   UNL     1      -4.810  -2.217 -34.065  1.00  0.00     0.032 A 
HETATM   22  C   UNL     1      -4.357  -3.516 -34.329  1.00  0.00     0.044 A 
HETATM   23  C   UNL     1      -5.259  -4.505 -34.693  1.00  0.00     0.116 A 
HETATM   24  C   UNL     1      -6.612  -4.224 -34.791  1.00  0.00     0.044 A 
HETATM   25  F   UNL     1      -4.819  -5.744 -34.941  1.00  0.00    -0.206 F 
HETATM   26  C   UNL     1      -7.063  -2.927 -34.529  1.00  0.00     0.032 A 
ENDBRANCH  17  20
ENDBRANCH  15  16
ENDBRANCH   1  15
TORSDOF 3
ENDMDL
MODEL 2
REMARK VINA RESULT:      -8.3      3.156      4.471
REMARK  3 active torsions:
REMARK  status: ('A' for Active; 'I' for Inactive)
REMARK    1  A    between atoms: C_2  and  N_3 
REMARK       I    between atoms: N_3  and  C_4 
REMARK    2  A    between atoms: C_4  and  C_5 
REMARK    3  A    between atoms: C_5  and  C_6 
ROOT
HETATM    1  C   UNL     1      -6.971   0.366 -31.050  1.00  0.00     0.286 C 
HETATM    2  N   UNL     1      -7.928   0.206 -32.224  1.00  0.00    -0.056 N 
HETATM    3  H   UNL     1      -7.534   0.791 -32.991  1.00  0.00     0.278 HD
HETATM    4  H   UNL     1      -7.919  -0.761 -32.571  1.00  0.00     0.278 HD
HETATM    5  C   UNL     1      -9.327   0.655 -31.885  1.00  0.00     0.209 C 
HETATM    6  C   UNL     1      -9.292   2.142 -31.444  1.00  0.00     0.115 C 
HETATM    7  N   UNL     1      -8.267   2.395 -30.431  1.00  0.00    -0.353 N 
HETATM    8  C   UNL     1      -7.046   1.762 -30.394  1.00  0.00     0.249 C 
HETATM    9  O   UNL     1      -6.115   2.254 -29.769  1.00  0.00    -0.271 OA
HETATM   10  C   UNL     1     -10.242   0.407 -33.084  1.00  0.00     0.035 C 
HETATM   11  C   UNL     1     -10.009   1.384 -34.233  1.00  0.00     0.002 C 
HETATM   12  C   UNL     1     -10.084   2.830 -33.757  1.00  0.00     0.002 C 
HETATM   13  C   UNL     1      -9.096   3.100 -32.628  1.00  0.00     0.027 C 
HETATM   14  H   UNL     1      -8.264   3.303 -29.971  1.00  0.00     0.163 HD
ENDROOT
BRANCH   1  15
HETATM   15  C   UNL     1      -5.531   0.004 -31.440  1.00  0.00     0.146 C 
BRANCH  15  16
HETATM   16  C   UNL     1      -5.176   0.565 -32.792  1.00  0.00     0.224 C 
HETATM   17  N   UNL     1      -5.067  -0.208 -33.902  1.00  0.00    -0.327 N 
HETATM   18  H   UNL     1      -4.722   0.331 -34.694  1.00  0.00     0.169 HD
HETATM   19  O   UNL     1      -5.017   1.791 -32.896  1.00  0.00    -0.273 OA
BRANCH  17  20
HETATM   20  C   UNL     1      -5.307  -1.569 -34.177  1.00  0.00     0.034 A 
HETATM   21  C   UNL     1      -6.523  -2.111 -34.601  1.00  0.00     0.032 A 
HETATM   22  C   UNL     1      -6.640  -3.485 -34.849  1.00  0.00     0.044 A 
HETATM   23  C   UNL     1      -5.541  -4.316 -34.687  1.00  0.00     0.116 A 
HETATM   24  C   UNL     1      -4.320  -3.799 -34.288  1.00  0.00     0.044 A 
HETATM   25  F   UNL     1      -5.661  -5.626 -34.929  1.00  0.00    -0.206 F 
HETATM   26  C   UNL     1      -4.204  -2.429 -34.039  1.00  0.00     0.032 A 
ENDBRANCH  17  20
ENDBRANCH  15  16
ENDBRANCH   1  15
TORSDOF 3
ENDMDL
MODEL 3
REMARK VINA RESULT:      -8.2      3.677      5.448
REMARK  3 active torsions:
REMARK  status: ('A' for Active; 'I' for Inactive)
REMARK    1  A    between atoms: C_2  and  N_3 
REMARK       I    between atoms: N_3  and  C_4 
REMARK    2  A    between atoms: C_4  and  C_5 
REMARK    3  A    between atoms: C_5  and  C_6 
ROOT
HETATM    1  C   UNL     1      -8.044   2.520 -33.584  1.00  0.00     0.286 C 
HETATM    2  N   UNL     1      -9.312   1.749 -33.927  1.00  0.00    -0.056 N 
HETATM    3  H   UNL     1      -9.339   1.698 -34.967  1.00  0.00     0.278 HD
HETATM    4  H   UNL     1      -9.248   0.778 -33.596  1.00  0.00     0.278 HD
HETATM    5  C   UNL     1     -10.552   2.426 -33.400  1.00  0.00     0.209 C 
HETATM    6  C   UNL     1     -10.641   3.857 -33.992  1.00  0.00     0.115 C 
HETATM    7  N   UNL     1      -9.386   4.597 -33.844  1.00  0.00    -0.353 N 
HETATM    8  C   UNL     1      -8.139   4.022 -33.927  1.00  0.00     0.249 C 
HETATM    9  O   UNL     1      -7.155   4.716 -34.155  1.00  0.00    -0.271 OA
HETATM   10  C   UNL     1     -11.774   1.567 -33.726  1.00  0.00     0.035 C 
HETATM   11  C   UNL     1     -12.159   1.600 -35.202  1.00  0.00     0.002 C 
HETATM   12  C   UNL     1     -12.328   3.031 -35.701  1.00  0.00     0.002 C 
HETATM   13  C   UNL     1     -11.068   3.857 -35.467  1.00  0.00     0.027 C 
HETATM   14  H   UNL     1      -9.388   5.590 -34.064  1.00  0.00     0.163 HD
ENDROOT
BRANCH   1  15
HETATM   15  C   UNL     1      -6.801   1.875 -34.213  1.00  0.00     0.146 C 
BRANCH  15  16
HETATM   16  C   UNL     1      -5.785   1.514 -33.160  1.00  0.00     0.224 C 
HETATM   17  N   UNL     1      -5.370   0.240 -32.947  1.00  0.00    -0.327 N 
HETATM   18  H   UNL     1      -4.763   0.182 -32.133  1.00  0.00     0.169 HD
HETATM   19  O   UNL     1      -5.283   2.429 -32.491  1.00  0.00    -0.273 OA
BRANCH  17  20
HETATM   20  C   UNL     1      -5.611  -0.990 -33.590  1.00  0.00     0.034 A 
HETATM   21  C   UNL     1      -6.868  -1.508 -33.911  1.00  0.00     0.032 A 
HETATM   22  C   UNL     1      -6.984  -2.745 -34.558  1.00  0.00     0.044 A 
HETATM   23  C   UNL     1      -5.844  -3.460 -34.898  1.00  0.00     0.116 A 
HETATM   24  C   UNL     1      -4.586  -2.958 -34.609  1.00  0.00     0.044 A 
HETATM   25  F   UNL     1      -5.963  -4.639 -35.518  1.00  0.00    -0.206 F 
HETATM   26  C   UNL     1      -4.471  -1.725 -33.962  1.00  0.00     0.032 A 
ENDBRANCH  17  20
ENDBRANCH  15  16
ENDBRANCH   1  15
TORSDOF 3
ENDMDL
MODEL 4
REMARK VINA RESULT:      -8.0      2.049      2.653
REMARK  3 active torsions:
REMARK  status: ('A' for Active; 'I' for Inactive)
REMARK    1  A    between atoms: C_2  and  N_3 
REMARK       I    between atoms: N_3  and  C_4 
REMARK    2  A    between atoms: C_4  and  C_5 
REMARK    3  A    between atoms: C_5  and  C_6 
ROOT
HETATM    1  C   UNL     1      -7.970   1.390 -31.684  1.00  0.00     0.286 C 
HETATM    2  N   UNL     1      -7.720   2.564 -32.622  1.00  0.00    -0.056 N 
HETATM    3  H   UNL     1      -7.148   2.183 -33.405  1.00  0.00     0.278 HD
HETATM    4  H   UNL     1      -8.599   2.887 -33.043  1.00  0.00     0.278 HD
HETATM    5  C   UNL     1      -6.991   3.695 -31.940  1.00  0.00     0.209 C 
HETATM    6  C   UNL     1      -5.637   3.171 -31.393  1.00  0.00     0.115 C 
HETATM    7  N   UNL     1      -5.792   1.939 -30.618  1.00  0.00    -0.353 N 
HETATM    8  C   UNL     1      -6.706   0.954 -30.911  1.00  0.00     0.249 C 
HETATM    9  O   UNL     1      -6.554  -0.179 -30.472  1.00  0.00    -0.271 OA
HETATM   10  C   UNL     1      -6.832   4.857 -32.919  1.00  0.00     0.035 C 
HETATM   11  C   UNL     1      -5.790   4.595 -34.003  1.00  0.00     0.002 C 
HETATM   12  C   UNL     1      -4.453   4.179 -33.400  1.00  0.00     0.002 C 
HETATM   13  C   UNL     1      -4.600   2.955 -32.504  1.00  0.00     0.027 C 
HETATM   14  H   UNL     1      -4.988   1.599 -30.094  1.00  0.00     0.163 HD
ENDROOT
BRANCH   1  15
HETATM   15  C   UNL     1      -8.619   0.208 -32.417  1.00  0.00     0.146 C 
BRANCH  15  16
HETATM   16  C   UNL     1      -8.582   0.408 -33.910  1.00  0.00     0.224 C 
HETATM   17  N   UNL     1      -7.616  -0.127 -34.699  1.00  0.00    -0.327 N 
HETATM   18  H   UNL     1      -7.701   0.201 -35.659  1.00  0.00     0.169 HD
HETATM   19  O   UNL     1      -9.496   1.058 -34.438  1.00  0.00    -0.273 OA
BRANCH  17  20
HETATM   20  C   UNL     1      -6.538  -1.005 -34.470  1.00  0.00     0.034 A 
HETATM   21  C   UNL     1      -5.324  -0.664 -33.870  1.00  0.00     0.032 A 
HETATM   22  C   UNL     1      -4.323  -1.628 -33.690  1.00  0.00     0.044 A 
HETATM   23  C   UNL     1      -4.540  -2.937 -34.097  1.00  0.00     0.116 A 
HETATM   24  C   UNL     1      -5.743  -3.304 -34.676  1.00  0.00     0.044 A 
HETATM   25  F   UNL     1      -3.581  -3.852 -33.919  1.00  0.00    -0.206 F 
HETATM   26  C   UNL     1      -6.740  -2.342 -34.857  1.00  0.00     0.032 A 
ENDBRANCH  17  20
ENDBRANCH  15  16
ENDBRANCH   1  15
TORSDOF 3
ENDMDL
MODEL 5
REMARK VINA RESULT:      -8.0      2.407      3.780
REMARK  3 active torsions:
REMARK  status: ('A' for Active; 'I' for Inactive)
REMARK    1  A    between atoms: C_2  and  N_3 
REMARK       I    between atoms: N_3  and  C_4 
REMARK    2  A    between atoms: C_4  and  C_5 
REMARK    3  A    between atoms: C_5  and  C_6 
ROOT
HETATM    1  C   UNL     1      -3.559   4.135 -33.372  1.00  0.00     0.286 C 
HETATM    2  N   UNL     1      -2.689   4.599 -32.211  1.00  0.00    -0.056 N 
HETATM    3  H   UNL     1      -3.208   5.385 -31.766  1.00  0.00     0.278 HD
HETATM    4  H   UNL     1      -2.616   3.865 -31.496  1.00  0.00     0.278 HD
HETATM    5  C   UNL     1      -1.326   5.059 -32.666  1.00  0.00     0.209 C 
HETATM    6  C   UNL     1      -1.494   6.218 -33.683  1.00  0.00     0.115 C 
HETATM    7  N   UNL     1      -2.455   5.894 -34.739  1.00  0.00    -0.353 N 
HETATM    8  C   UNL     1      -3.589   5.140 -34.544  1.00  0.00     0.249 C 
HETATM    9  O   UNL     1      -4.516   5.202 -35.342  1.00  0.00    -0.271 OA
HETATM   10  C   UNL     1      -0.491   5.448 -31.447  1.00  0.00     0.035 C 
HETATM   11  C   UNL     1      -0.927   6.765 -30.812  1.00  0.00     0.002 C 
HETATM   12  C   UNL     1      -0.978   7.888 -31.842  1.00  0.00     0.002 C 
HETATM   13  C   UNL     1      -1.895   7.537 -33.008  1.00  0.00     0.027 C 
HETATM   14  H   UNL     1      -2.524   6.527 -35.533  1.00  0.00     0.163 HD
ENDROOT
BRANCH   1  15
HETATM   15  C   UNL     1      -4.975   3.768 -32.908  1.00  0.00     0.146 C 
BRANCH  15  16
HETATM   16  C   UNL     1      -4.950   3.123 -31.546  1.00  0.00     0.224 C 
HETATM   17  N   UNL     1      -5.010   1.779 -31.369  1.00  0.00    -0.327 N 
HETATM   18  H   UNL     1      -5.083   1.540 -30.382  1.00  0.00     0.169 HD
HETATM   19  O   UNL     1      -4.831   3.855 -30.552  1.00  0.00    -0.273 OA
BRANCH  17  20
HETATM   20  C   UNL     1      -5.009   0.674 -32.243  1.00  0.00     0.034 A 
HETATM   21  C   UNL     1      -3.875   0.003 -32.705  1.00  0.00     0.032 A 
HETATM   22  C   UNL     1      -3.999  -1.092 -33.571  1.00  0.00     0.044 A 
HETATM   23  C   UNL     1      -5.257  -1.525 -33.965  1.00  0.00     0.116 A 
HETATM   24  C   UNL     1      -6.398  -0.889 -33.504  1.00  0.00     0.044 A 
HETATM   25  F   UNL     1      -5.368  -2.572 -34.790  1.00  0.00    -0.206 F 
HETATM   26  C   UNL     1      -6.273   0.203 -32.642  1.00  0.00     0.032 A 
ENDBRANCH  17  20
ENDBRANCH  15  16
ENDBRANCH   1  15
TORSDOF 3
ENDMDL
MODEL 6
REMARK VINA RESULT:      -7.9      4.230      5.374
REMARK  3 active torsions:
REMARK  status: ('A' for Active; 'I' for Inactive)
REMARK    1  A    between atoms: C_2  and  N_3 
REMARK       I    between atoms: N_3  and  C_4 
REMARK    2  A    between atoms: C_4  and  C_5 
REMARK    3  A    between atoms: C_5  and  C_6 
ROOT
HETATM    1  C   UNL     1      -9.047   0.631 -32.528  1.00  0.00     0.286 C 
HETATM    2  N   UNL     1     -10.219   0.488 -33.490  1.00  0.00    -0.056 N 
HETATM    3  H   UNL     1      -9.839   0.715 -34.433  1.00  0.00     0.278 HD
HETATM    4  H   UNL     1     -10.533  -0.489 -33.537  1.00  0.00     0.278 HD
HETATM    5  C   UNL     1     -11.358   1.414 -33.144  1.00  0.00     0.209 C 
HETATM    6  C   UNL     1     -10.847   2.879 -33.164  1.00  0.00     0.115 C 
HETATM    7  N   UNL     1      -9.617   3.047 -32.389  1.00  0.00    -0.353 N 
HETATM    8  C   UNL     1      -8.624   2.099 -32.304  1.00  0.00     0.249 C 
HETATM    9  O   UNL     1      -7.493   2.419 -31.958  1.00  0.00    -0.271 OA
HETATM   10  C   UNL     1     -12.518   1.172 -34.110  1.00  0.00     0.035 C 
HETATM   11  C   UNL     1     -12.259   1.714 -35.512  1.00  0.00     0.002 C 
HETATM   12  C   UNL     1     -11.856   3.184 -35.474  1.00  0.00     0.002 C 
HETATM   13  C   UNL     1     -10.634   3.406 -34.590  1.00  0.00     0.027 C 
HETATM   14  H   UNL     1      -9.285   3.994 -32.218  1.00  0.00     0.163 HD
ENDROOT
BRANCH   1  15
HETATM   15  C   UNL     1      -7.857  -0.241 -32.951  1.00  0.00     0.146 C 
BRANCH  15  16
HETATM   16  C   UNL     1      -7.537  -0.052 -34.411  1.00  0.00     0.224 C 
HETATM   17  N   UNL     1      -6.710  -0.882 -35.095  1.00  0.00    -0.327 N 
HETATM   18  H   UNL     1      -6.537  -0.536 -36.037  1.00  0.00     0.169 HD
HETATM   19  O   UNL     1      -8.087   0.881 -35.016  1.00  0.00    -0.273 OA
BRANCH  17  20
HETATM   20  C   UNL     1      -6.043  -2.082 -34.778  1.00  0.00     0.034 A 
HETATM   21  C   UNL     1      -4.777  -2.180 -34.197  1.00  0.00     0.032 A 
HETATM   22  C   UNL     1      -4.216  -3.434 -33.921  1.00  0.00     0.044 A 
HETATM   23  C   UNL     1      -4.925  -4.590 -34.213  1.00  0.00     0.116 A 
HETATM   24  C   UNL     1      -6.191  -4.519 -34.770  1.00  0.00     0.044 A 
HETATM   25  F   UNL     1      -4.384  -5.784 -33.944  1.00  0.00    -0.206 F 
HETATM   26  C   UNL     1      -6.749  -3.268 -35.047  1.00  0.00     0.032 A 
ENDBRANCH  17  20
ENDBRANCH  15  16
ENDBRANCH   1  15
TORSDOF 3
ENDMDL
MODEL 7
REMARK VINA RESULT:      -7.9     14.774     16.835
REMARK  3 active torsions:
REMARK  status: ('A' for Active; 'I' for Inactive)
REMARK    1  A    between atoms: C_2  and  N_3 
REMARK       I    between atoms: N_3  and  C_4 
REMARK    2  A    between atoms: C_4  and  C_5 
REMARK    3  A    between atoms: C_5  and  C_6 
ROOT
HETATM    1  C   UNL     1      -4.112 -13.939 -40.058  1.00  0.00     0.286 C 
HETATM    2  N   UNL     1      -3.049 -14.097 -38.978  1.00  0.00    -0.056 N 
HETATM    3  H   UNL     1      -2.433 -13.261 -39.066  1.00  0.00     0.278 HD
HETATM    4  H   UNL     1      -3.470 -14.044 -38.043  1.00  0.00     0.278 HD
HETATM    5  C   UNL     1      -2.247 -15.363 -39.148  1.00  0.00     0.209 C 
HETATM    6  C   UNL     1      -1.571 -15.354 -40.544  1.00  0.00     0.115 C 
HETATM    7  N   UNL     1      -2.517 -15.038 -41.616  1.00  0.00    -0.353 N 
HETATM    8  C   UNL     1      -3.562 -14.154 -41.484  1.00  0.00     0.249 C 
HETATM    9  O   UNL     1      -4.084 -13.663 -42.478  1.00  0.00    -0.271 OA
HETATM   10  C   UNL     1      -1.246 -15.485 -37.999  1.00  0.00     0.035 C 
HETATM   11  C   UNL     1      -0.078 -14.510 -38.111  1.00  0.00     0.002 C 
HETATM   12  C   UNL     1       0.608 -14.618 -39.468  1.00  0.00     0.002 C 
HETATM   13  C   UNL     1      -0.375 -14.393 -40.611  1.00  0.00     0.027 C 
HETATM   14  H   UNL     1      -2.205 -15.153 -42.578  1.00  0.00     0.163 HD
ENDROOT
BRANCH   1  15
HETATM   15  C   UNL     1      -4.851 -12.599 -39.934  1.00  0.00     0.146 C 
BRANCH  15  16
HETATM   16  C   UNL     1      -5.289 -12.350 -38.514  1.00  0.00     0.224 C 
HETATM   17  N   UNL     1      -6.579 -12.479 -38.110  1.00  0.00    -0.327 N 
HETATM   18  H   UNL     1      -6.696 -12.172 -37.147  1.00  0.00     0.169 HD
HETATM   19  O   UNL     1      -4.425 -12.053 -37.676  1.00  0.00    -0.273 OA
BRANCH  17  20
HETATM   20  C   UNL     1      -7.762 -12.920 -38.735  1.00  0.00     0.034 A 
HETATM   21  C   UNL     1      -8.578 -12.152 -39.569  1.00  0.00     0.032 A 
HETATM   22  C   UNL     1      -9.732 -12.704 -40.139  1.00  0.00     0.044 A 
HETATM   23  C   UNL     1     -10.065 -14.027 -39.889  1.00  0.00     0.116 A 
HETATM   24  C   UNL     1      -9.262 -14.816 -39.082  1.00  0.00     0.044 A 
HETATM   25  F   UNL     1     -11.168 -14.548 -40.440  1.00  0.00    -0.206 F 
HETATM   26  C   UNL     1      -8.111 -14.264 -38.512  1.00  0.00     0.032 A 
ENDBRANCH  17  20
ENDBRANCH  15  16
ENDBRANCH   1  15
TORSDOF 3
ENDMDL
MODEL 8
REMARK VINA RESULT:      -7.8      3.936      5.369
REMARK  3 active torsions:
REMARK  status: ('A' for Active; 'I' for Inactive)
REMARK    1  A    between atoms: C_2  and  N_3 
REMARK       I    between atoms: N_3  and  C_4 
REMARK    2  A    between atoms: C_4  and  C_5 
REMARK    3  A    between atoms: C_5  and  C_6 
ROOT
HETATM    1  C   UNL     1      -6.687   3.907 -31.147  1.00  0.00     0.286 C 
HETATM    2  N   UNL     1      -5.443   3.257 -31.738  1.00  0.00    -0.056 N 
HETATM    3  H   UNL     1      -5.788   2.617 -32.485  1.00  0.00     0.278 HD
HETATM    4  H   UNL     1      -4.857   3.955 -32.210  1.00  0.00     0.278 HD
HETATM    5  C   UNL     1      -4.657   2.487 -30.706  1.00  0.00     0.209 C 
HETATM    6  C   UNL     1      -5.566   1.396 -30.083  1.00  0.00     0.115 C 
HETATM    7  N   UNL     1      -6.856   1.932 -29.647  1.00  0.00    -0.353 N 
HETATM    8  C   UNL     1      -7.535   2.933 -30.301  1.00  0.00     0.249 C 
HETATM    9  O   UNL     1      -8.736   3.087 -30.114  1.00  0.00    -0.271 OA
HETATM   10  C   UNL     1      -3.395   1.916 -31.355  1.00  0.00     0.035 C 
HETATM   11  C   UNL     1      -3.675   0.742 -32.288  1.00  0.00     0.002 C 
HETATM   12  C   UNL     1      -4.487  -0.342 -31.589  1.00  0.00     0.002 C 
HETATM   13  C   UNL     1      -5.795   0.210 -31.032  1.00  0.00     0.027 C 
HETATM   14  H   UNL     1      -7.461   1.330 -29.092  1.00  0.00     0.163 HD
ENDROOT
BRANCH   1  15
HETATM   15  C   UNL     1      -7.531   4.600 -32.226  1.00  0.00     0.146 C 
BRANCH  15  16
HETATM   16  C   UNL     1      -7.114   4.162 -33.605  1.00  0.00     0.224 C 
HETATM   17  N   UNL     1      -7.641   3.074 -34.222  1.00  0.00    -0.327 N 
HETATM   18  H   UNL     1      -7.164   2.880 -35.100  1.00  0.00     0.169 HD
HETATM   19  O   UNL     1      -6.281   4.851 -34.213  1.00  0.00    -0.273 OA
BRANCH  17  20
HETATM   20  C   UNL     1      -8.673   2.170 -33.901  1.00  0.00     0.034 A 
HETATM   21  C   UNL     1     -10.035   2.371 -34.138  1.00  0.00     0.032 A 
HETATM   22  C   UNL     1     -10.971   1.393 -33.779  1.00  0.00     0.044 A 
HETATM   23  C   UNL     1     -10.547   0.207 -33.196  1.00  0.00     0.116 A 
HETATM   24  C   UNL     1      -9.201  -0.025 -32.970  1.00  0.00     0.044 A 
HETATM   25  F   UNL     1     -11.448  -0.723 -32.858  1.00  0.00    -0.206 F 
HETATM   26  C   UNL     1      -8.267   0.952 -33.327  1.00  0.00     0.032 A 
ENDBRANCH  17  20
ENDBRANCH  15  16
ENDBRANCH   1  15
TORSDOF 3
ENDMDL
MODEL 9
REMARK VINA RESULT:      -7.8      3.817      7.479
REMARK  3 active torsions:
REMARK  status: ('A' for Active; 'I' for Inactive)
REMARK    1  A    between atoms: C_2  and  N_3 
REMARK       I    between atoms: N_3  and  C_4 
REMARK    2  A    between atoms: C_4  and  C_5 
REMARK    3  A    between atoms: C_5  and  C_6 
ROOT
HETATM    1  C   UNL     1      -5.722   2.707 -31.297  1.00  0.00     0.286 C 
HETATM    2  N   UNL     1      -5.150   1.658 -32.241  1.00  0.00    -0.056 N 
HETATM    3  H   UNL     1      -5.618   1.819 -33.158  1.00  0.00     0.278 HD
HETATM    4  H   UNL     1      -4.148   1.821 -32.401  1.00  0.00     0.278 HD
HETATM    5  C   UNL     1      -5.407   0.253 -31.758  1.00  0.00     0.209 C 
HETATM    6  C   UNL     1      -6.936   0.038 -31.610  1.00  0.00     0.115 C 
HETATM    7  N   UNL     1      -7.576   1.112 -30.850  1.00  0.00    -0.353 N 
HETATM    8  C   UNL     1      -7.190   2.431 -30.905  1.00  0.00     0.249 C 
HETATM    9  O   UNL     1      -7.960   3.314 -30.548  1.00  0.00    -0.271 OA
HETATM   10  C   UNL     1      -4.753  -0.740 -32.719  1.00  0.00     0.035 C 
HETATM   11  C   UNL     1      -5.488  -0.866 -34.050  1.00  0.00     0.002 C 
HETATM   12  C   UNL     1      -6.966  -1.175 -33.841  1.00  0.00     0.002 C 
HETATM   13  C   UNL     1      -7.639  -0.124 -32.966  1.00  0.00     0.027 C 
HETATM   14  H   UNL     1      -8.547   0.988 -30.571  1.00  0.00     0.163 HD
ENDROOT
BRANCH   1  15
HETATM   15  C   UNL     1      -5.544   4.127 -31.852  1.00  0.00     0.146 C 
BRANCH  15  16
HETATM   16  C   UNL     1      -5.246   4.099 -33.328  1.00  0.00     0.224 C 
HETATM   17  N   UNL     1      -4.105   4.611 -33.857  1.00  0.00    -0.327 N 
HETATM   18  H   UNL     1      -4.129   4.592 -34.874  1.00  0.00     0.169 HD
HETATM   19  O   UNL     1      -6.063   3.550 -34.082  1.00  0.00    -0.273 OA
BRANCH  17  20
HETATM   20  C   UNL     1      -2.932   5.165 -33.307  1.00  0.00     0.034 A 
HETATM   21  C   UNL     1      -2.028   4.497 -32.478  1.00  0.00     0.032 A 
HETATM   22  C   UNL     1      -0.888   5.154 -31.994  1.00  0.00     0.044 A 
HETATM   23  C   UNL     1      -0.644   6.473 -32.348  1.00  0.00     0.116 A 
HETATM   24  C   UNL     1      -1.515   7.150 -33.185  1.00  0.00     0.044 A 
HETATM   25  F   UNL     1       0.447   7.092 -31.884  1.00  0.00    -0.206 F 
HETATM   26  C   UNL     1      -2.653   6.496 -33.666  1.00  0.00     0.032 A 
ENDBRANCH  17  20
ENDBRANCH  15  16
ENDBRANCH   1  15
TORSDOF 3
ENDMDL
MODEL 10
REMARK VINA RESULT:      -7.8      5.228      7.626
REMARK  3 active torsions:
REMARK  status: ('A' for Active; 'I' for Inactive)
REMARK    1  A    between atoms: C_2  and  N_3 
REMARK       I    between atoms: N_3  and  C_4 
REMARK    2  A    between atoms: C_4  and  C_5 
REMARK    3  A    between atoms: C_5  and  C_6 
ROOT
HETATM    1  C   UNL     1      -0.904   6.534 -30.376  1.00  0.00     0.286 C 
HETATM    2  N   UNL     1      -0.927   7.828 -29.572  1.00  0.00    -0.056 N 
HETATM    3  H   UNL     1       0.007   8.266 -29.716  1.00  0.00     0.278 HD
HETATM    4  H   UNL     1      -1.613   8.486 -29.962  1.00  0.00     0.278 HD
HETATM    5  C   UNL     1      -1.174   7.583 -28.104  1.00  0.00     0.209 C 
HETATM    6  C   UNL     1      -0.066   6.649 -27.551  1.00  0.00     0.115 C 
HETATM    7  N   UNL     1       0.123   5.460 -28.383  1.00  0.00    -0.353 N 
HETATM    8  C   UNL     1       0.004   5.452 -29.753  1.00  0.00     0.249 C 
HETATM    9  O   UNL     1       0.512   4.552 -30.411  1.00  0.00    -0.271 OA
HETATM   10  C   UNL     1      -1.246   8.924 -27.374  1.00  0.00     0.035 C 
HETATM   11  C   UNL     1       0.111   9.603 -27.222  1.00  0.00     0.002 C 
HETATM   12  C   UNL     1       1.132   8.668 -26.582  1.00  0.00     0.002 C 
HETATM   13  C   UNL     1       1.277   7.373 -27.373  1.00  0.00     0.027 C 
HETATM   14  H   UNL     1       0.719   4.716 -28.026  1.00  0.00     0.163 HD
ENDROOT
BRANCH   1  15
HETATM   15  C   UNL     1      -0.550   6.789 -31.848  1.00  0.00     0.146 C 
BRANCH  15  16
HETATM   16  C   UNL     1      -1.748   7.282 -32.617  1.00  0.00     0.224 C 
HETATM   17  N   UNL     1      -2.849   6.518 -32.832  1.00  0.00    -0.327 N 
HETATM   18  H   UNL     1      -3.505   6.984 -33.454  1.00  0.00     0.169 HD
HETATM   19  O   UNL     1      -1.737   8.449 -33.035  1.00  0.00    -0.273 OA
BRANCH  17  20
HETATM   20  C   UNL     1      -3.254   5.239 -32.400  1.00  0.00     0.034 A 
HETATM   21  C   UNL     1      -2.730   4.025 -32.848  1.00  0.00     0.032 A 
HETATM   22  C   UNL     1      -3.211   2.811 -32.339  1.00  0.00     0.044 A 
HETATM   23  C   UNL     1      -4.206   2.810 -31.373  1.00  0.00     0.116 A 
HETATM   24  C   UNL     1      -4.728   4.001 -30.897  1.00  0.00     0.044 A 
HETATM   25  F   UNL     1      -4.659   1.647 -30.890  1.00  0.00    -0.206 F 
HETATM   26  C   UNL     1      -4.249   5.212 -31.407  1.00  0.00     0.032 A 
ENDBRANCH  17  20
ENDBRANCH  15  16
ENDBRANCH   1  15
TORSDOF 3
ENDMDL
