MODEL 1
REMARK VINA RESULT:      -8.6      0.000      0.000
REMARK  6 active torsions:
REMARK  status: ('A' for Active; 'I' for Inactive)
REMARK    1  A    between atoms: C_7  and  C_8 
REMARK    2  A    between atoms: N_9  and  N_10 
REMARK       I    between atoms: N_10  and  C_11 
REMARK    3  A    between atoms: C_11  and  C_12 
REMARK    4  A    between atoms: C_12  and  N_13 
REMARK       I    between atoms: N_13  and  C_14 
REMARK    5  A    between atoms: C_14  and  C_15 
REMARK    6  A    between atoms: C_16  and  C_17 
ROOT
HETATM    1  N   UNL     1      -7.052   1.433 -32.230  1.00  0.00    -0.246 N 
HETATM    2  C   UNL     1      -8.366   1.744 -32.552  1.00  0.00     0.255 C 
HETATM    3  O   UNL     1      -9.214   0.953 -32.963  1.00  0.00    -0.270 OA
HETATM    4  H   UNL     1      -6.412   2.184 -31.958  1.00  0.00     0.192 HD
ENDROOT
BRANCH   1   5
HETATM    5  N   UNL     1      -6.600   0.155 -32.365  1.00  0.00    -0.184 NA
HETATM    6  C   UNL     1      -5.469   0.022 -32.978  1.00  0.00     0.153 C 
BRANCH   6   7
HETATM    7  C   UNL     1      -4.898  -1.300 -33.168  1.00  0.00     0.018 A 
HETATM    8  C   UNL     1      -3.680  -1.708 -32.640  1.00  0.00     0.018 A 
HETATM    9  C   UNL     1      -2.687  -0.989 -31.801  1.00  0.00     0.069 C 
HETATM   10  N   UNL     1      -3.475  -3.011 -33.025  1.00  0.00    -0.358 N 
HETATM   11  H   UNL     1      -2.668  -3.570 -32.784  1.00  0.00     0.166 HD
HETATM   12  C   UNL     1      -4.522  -3.464 -33.788  1.00  0.00     0.043 A 
HETATM   13  C   UNL     1      -5.435  -2.415 -33.897  1.00  0.00     0.004 A 
HETATM   14  C   UNL     1      -4.726  -4.716 -34.382  1.00  0.00     0.030 A 
HETATM   15  C   UNL     1      -6.614  -2.636 -34.644  1.00  0.00     0.014 A 
HETATM   16  C   UNL     1      -6.834  -3.881 -35.245  1.00  0.00     0.001 A 
HETATM   17  C   UNL     1      -5.902  -4.905 -35.113  1.00  0.00     0.002 A 
ENDBRANCH   6   7
ENDBRANCH   1   5
BRANCH   2  18
HETATM   18  C   UNL     1      -8.699   3.215 -32.310  1.00  0.00     0.227 C 
BRANCH  18  19
HETATM   19  N   UNL     1      -7.521   4.065 -32.363  1.00  0.00    -0.349 N 
HETATM   20  C   UNL     1      -7.268   4.875 -33.437  1.00  0.00     0.241 C 
HETATM   21  O   UNL     1      -8.046   5.000 -34.377  1.00  0.00    -0.269 OA
HETATM   22  H   UNL     1      -6.914   4.074 -31.554  1.00  0.00     0.163 HD
BRANCH  20  23
HETATM   23  C   UNL     1      -5.985   5.608 -33.330  1.00  0.00     0.075 C 
HETATM   24  C   UNL     1      -4.874   5.088 -33.870  1.00  0.00     0.017 C 
BRANCH  24  25
HETATM   25  C   UNL     1      -3.547   5.725 -33.828  1.00  0.00    -0.036 A 
HETATM   26  C   UNL     1      -3.255   6.816 -32.998  1.00  0.00     0.011 A 
HETATM   27  C   UNL     1      -1.972   7.371 -32.975  1.00  0.00     0.001 A 
HETATM   28  C   UNL     1      -0.963   6.831 -33.769  1.00  0.00     0.000 A 
HETATM   29  C   UNL     1      -1.234   5.735 -34.583  1.00  0.00     0.001 A 
HETATM   30  C   UNL     1      -2.518   5.182 -34.608  1.00  0.00     0.011 A 
ENDBRANCH  24  25
ENDBRANCH  20  23
ENDBRANCH  18  19
ENDBRANCH   2  18
TORSDOF 6
ENDMDL
MODEL 2
REMARK VINA RESULT:      -8.6      3.334      8.086
REMARK  6 active torsions:
REMARK  status: ('A' for Active; 'I' for Inactive)
REMARK    1  A    between atoms: C_7  and  C_8 
REMARK    2  A    between atoms: N_9  and  N_10 
REMARK       I    between atoms: N_10  and  C_11 
REMARK    3  A    between atoms: C_11  and  C_12 
REMARK    4  A    between atoms: C_12  and  N_13 
REMARK       I    between atoms: N_13  and  C_14 
REMARK    5  A    between atoms: C_14  and  C_15 
REMARK    6  A    between atoms: C_16  and  C_17 
ROOT
HETATM    1  N   UNL     1      -7.348   2.341 -32.706  1.00  0.00    -0.246 N 
HETATM    2  C   UNL     1      -6.467   3.394 -32.505  1.00  0.00     0.255 C 
HETATM    3  O   UNL     1      -6.766   4.587 -32.464  1.00  0.00    -0.270 OA
HETATM    4  H   UNL     1      -6.981   1.389 -32.787  1.00  0.00     0.192 HD
ENDROOT
BRANCH   1   5
HETATM    5  N   UNL     1      -8.677   2.587 -32.886  1.00  0.00    -0.184 NA
HETATM    6  C   UNL     1      -9.178   2.165 -34.001  1.00  0.00     0.153 C 
BRANCH   6   7
HETATM    7  C   UNL     1     -10.587   2.373 -34.287  1.00  0.00     0.018 A 
HETATM    8  C   UNL     1     -11.108   3.533 -34.847  1.00  0.00     0.018 A 
HETATM    9  C   UNL     1     -10.448   4.791 -35.282  1.00  0.00     0.069 C 
HETATM   10  N   UNL     1     -12.465   3.363 -34.971  1.00  0.00    -0.358 N 
HETATM   11  H   UNL     1     -13.106   4.046 -35.350  1.00  0.00     0.166 HD
HETATM   12  C   UNL     1     -12.845   2.127 -34.509  1.00  0.00     0.043 A 
HETATM   13  C   UNL     1     -11.690   1.479 -34.073  1.00  0.00     0.004 A 
HETATM   14  C   UNL     1     -14.116   1.542 -34.449  1.00  0.00     0.030 A 
HETATM   15  C   UNL     1     -11.820   0.174 -33.547  1.00  0.00     0.014 A 
HETATM   16  C   UNL     1     -13.082  -0.427 -33.478  1.00  0.00     0.001 A 
HETATM   17  C   UNL     1     -14.213   0.250 -33.924  1.00  0.00     0.002 A 
ENDBRANCH   6   7
ENDBRANCH   1   5
BRANCH   2  18
HETATM   18  C   UNL     1      -5.029   2.926 -32.293  1.00  0.00     0.227 C 
BRANCH  18  19
HETATM   19  N   UNL     1      -4.860   1.510 -32.575  1.00  0.00    -0.349 N 
HETATM   20  C   UNL     1      -3.798   0.801 -32.082  1.00  0.00     0.241 C 
HETATM   21  O   UNL     1      -2.973   1.283 -31.314  1.00  0.00    -0.269 OA
HETATM   22  H   UNL     1      -5.584   1.051 -33.113  1.00  0.00     0.163 HD
BRANCH  20  23
HETATM   23  C   UNL     1      -3.769  -0.608 -32.540  1.00  0.00     0.075 C 
HETATM   24  C   UNL     1      -4.767  -1.082 -33.300  1.00  0.00     0.017 C 
BRANCH  24  25
HETATM   25  C   UNL     1      -4.844  -2.460 -33.813  1.00  0.00    -0.036 A 
HETATM   26  C   UNL     1      -3.887  -3.438 -33.508  1.00  0.00     0.011 A 
HETATM   27  C   UNL     1      -4.018  -4.740 -33.998  1.00  0.00     0.001 A 
HETATM   28  C   UNL     1      -5.114  -5.084 -34.786  1.00  0.00     0.000 A 
HETATM   29  C   UNL     1      -6.082  -4.127 -35.081  1.00  0.00     0.001 A 
HETATM   30  C   UNL     1      -5.950  -2.824 -34.592  1.00  0.00     0.011 A 
ENDBRANCH  24  25
ENDBRANCH  20  23
ENDBRANCH  18  19
ENDBRANCH   2  18
TORSDOF 6
ENDMDL
MODEL 3
REMARK VINA RESULT:      -8.6      3.130      6.452
REMARK  6 active torsions:
REMARK  status: ('A' for Active; 'I' for Inactive)
REMARK    1  A    between atoms: C_7  and  C_8 
REMARK    2  A    between atoms: N_9  and  N_10 
REMARK       I    between atoms: N_10  and  C_11 
REMARK    3  A    between atoms: C_11  and  C_12 
REMARK    4  A    between atoms: C_12  and  N_13 
REMARK       I    between atoms: N_13  and  C_14 
REMARK    5  A    between atoms: C_14  and  C_15 
REMARK    6  A    between atoms: C_16  and  C_17 
ROOT
HETATM    1  N   UNL     1      -7.095   2.468 -33.878  1.00  0.00    -0.246 N 
HETATM    2  C   UNL     1      -6.600   3.755 -34.030  1.00  0.00     0.255 C 
HETATM    3  O   UNL     1      -5.452   4.053 -34.355  1.00  0.00    -0.270 OA
HETATM    4  H   UNL     1      -8.052   2.335 -33.541  1.00  0.00     0.192 HD
ENDROOT
BRANCH   1   5
HETATM    5  N   UNL     1      -6.282   1.394 -34.090  1.00  0.00    -0.184 NA
HETATM    6  C   UNL     1      -6.205   0.549 -33.115  1.00  0.00     0.153 C 
BRANCH   6   7
HETATM    7  C   UNL     1      -5.369  -0.632 -33.243  1.00  0.00     0.018 A 
HETATM    8  C   UNL     1      -4.073  -0.729 -32.752  1.00  0.00     0.018 A 
HETATM    9  C   UNL     1      -3.230   0.248 -32.016  1.00  0.00     0.069 C 
HETATM   10  N   UNL     1      -3.605  -1.985 -33.056  1.00  0.00    -0.358 N 
HETATM   11  H   UNL     1      -2.689  -2.338 -32.819  1.00  0.00     0.166 HD
HETATM   12  C   UNL     1      -4.557  -2.708 -33.731  1.00  0.00     0.043 A 
HETATM   13  C   UNL     1      -5.677  -1.889 -33.865  1.00  0.00     0.004 A 
HETATM   14  C   UNL     1      -4.506  -4.018 -34.226  1.00  0.00     0.030 A 
HETATM   15  C   UNL     1      -6.806  -2.414 -34.533  1.00  0.00     0.014 A 
HETATM   16  C   UNL     1      -6.774  -3.720 -35.035  1.00  0.00     0.001 A 
HETATM   17  C   UNL     1      -5.638  -4.509 -34.881  1.00  0.00     0.002 A 
ENDBRANCH   6   7
ENDBRANCH   1   5
BRANCH   2  18
HETATM   18  C   UNL     1      -7.661   4.826 -33.781  1.00  0.00     0.227 C 
BRANCH  18  19
HETATM   19  N   UNL     1      -9.013   4.304 -33.901  1.00  0.00    -0.349 N 
HETATM   20  C   UNL     1      -9.920   4.855 -34.764  1.00  0.00     0.241 C 
HETATM   21  O   UNL     1      -9.638   5.759 -35.545  1.00  0.00    -0.269 OA
HETATM   22  H   UNL     1      -9.248   3.487 -33.355  1.00  0.00     0.163 HD
BRANCH  20  23
HETATM   23  C   UNL     1     -11.260   4.227 -34.688  1.00  0.00     0.075 C 
HETATM   24  C   UNL     1     -11.496   3.272 -33.776  1.00  0.00     0.017 C 
BRANCH  24  25
HETATM   25  C   UNL     1     -12.784   2.580 -33.607  1.00  0.00    -0.036 A 
HETATM   26  C   UNL     1     -13.709   2.929 -32.612  1.00  0.00     0.011 A 
HETATM   27  C   UNL     1     -14.930   2.259 -32.507  1.00  0.00     0.001 A 
HETATM   28  C   UNL     1     -15.249   1.242 -33.405  1.00  0.00     0.000 A 
HETATM   29  C   UNL     1     -14.350   0.899 -34.409  1.00  0.00     0.001 A 
HETATM   30  C   UNL     1     -13.126   1.568 -34.513  1.00  0.00     0.011 A 
ENDBRANCH  24  25
ENDBRANCH  20  23
ENDBRANCH  18  19
ENDBRANCH   2  18
TORSDOF 6
ENDMDL
MODEL 4
REMARK VINA RESULT:      -8.5      3.960      5.062
REMARK  6 active torsions:
REMARK  status: ('A' for Active; 'I' for Inactive)
REMARK    1  A    between atoms: C_7  and  C_8 
REMARK    2  A    between atoms: N_9  and  N_10 
REMARK       I    between atoms: N_10  and  C_11 
REMARK    3  A    between atoms: C_11  and  C_12 
REMARK    4  A    between atoms: C_12  and  N_13 
REMARK       I    between atoms: N_13  and  C_14 
REMARK    5  A    between atoms: C_14  and  C_15 
REMARK    6  A    between atoms: C_16  and  C_17 
ROOT
HETATM    1  N   UNL     1      -5.247   2.623 -32.345  1.00  0.00    -0.246 N 
HETATM    2  C   UNL     1      -4.141   3.430 -32.120  1.00  0.00     0.255 C 
HETATM    3  O   UNL     1      -3.015   3.256 -32.583  1.00  0.00    -0.270 OA
HETATM    4  H   UNL     1      -6.122   2.825 -31.855  1.00  0.00     0.192 HD
ENDROOT
BRANCH   1   5
HETATM    5  N   UNL     1      -5.138   1.520 -33.138  1.00  0.00    -0.184 NA
HETATM    6  C   UNL     1      -5.572   0.416 -32.625  1.00  0.00     0.153 C 
BRANCH   6   7
HETATM    7  C   UNL     1      -5.505  -0.816 -33.392  1.00  0.00     0.018 A 
HETATM    8  C   UNL     1      -6.263  -1.071 -34.528  1.00  0.00     0.018 A 
HETATM    9  C   UNL     1      -7.272  -0.243 -35.237  1.00  0.00     0.069 C 
HETATM   10  N   UNL     1      -5.929  -2.326 -34.979  1.00  0.00    -0.358 N 
HETATM   11  H   UNL     1      -6.322  -2.776 -35.793  1.00  0.00     0.166 HD
HETATM   12  C   UNL     1      -4.977  -2.896 -34.170  1.00  0.00     0.043 A 
HETATM   13  C   UNL     1      -4.687  -1.974 -33.164  1.00  0.00     0.004 A 
HETATM   14  C   UNL     1      -4.356  -4.148 -34.258  1.00  0.00     0.030 A 
HETATM   15  C   UNL     1      -3.724  -2.332 -32.195  1.00  0.00     0.014 A 
HETATM   16  C   UNL     1      -3.094  -3.580 -32.266  1.00  0.00     0.001 A 
HETATM   17  C   UNL     1      -3.407  -4.473 -33.286  1.00  0.00     0.002 A 
ENDBRANCH   6   7
ENDBRANCH   1   5
BRANCH   2  18
HETATM   18  C   UNL     1      -4.460   4.632 -31.233  1.00  0.00     0.227 C 
BRANCH  18  19
HETATM   19  N   UNL     1      -3.284   5.138 -30.543  1.00  0.00    -0.349 N 
HETATM   20  C   UNL     1      -2.704   6.328 -30.893  1.00  0.00     0.241 C 
HETATM   21  O   UNL     1      -3.175   7.077 -31.742  1.00  0.00    -0.269 OA
HETATM   22  H   UNL     1      -2.934   4.602 -29.761  1.00  0.00     0.163 HD
BRANCH  20  23
HETATM   23  C   UNL     1      -1.478   6.633 -30.119  1.00  0.00     0.075 C 
HETATM   24  C   UNL     1      -1.580   7.162 -28.891  1.00  0.00     0.017 C 
BRANCH  24  25
HETATM   25  C   UNL     1      -0.436   7.504 -28.031  1.00  0.00    -0.036 A 
HETATM   26  C   UNL     1      -0.290   7.008 -26.727  1.00  0.00     0.011 A 
HETATM   27  C   UNL     1       0.829   7.342 -25.959  1.00  0.00     0.001 A 
HETATM   28  C   UNL     1       1.822   8.162 -26.489  1.00  0.00     0.000 A 
HETATM   29  C   UNL     1       1.700   8.645 -27.789  1.00  0.00     0.001 A 
HETATM   30  C   UNL     1       0.580   8.314 -28.557  1.00  0.00     0.011 A 
ENDBRANCH  24  25
ENDBRANCH  20  23
ENDBRANCH  18  19
ENDBRANCH   2  18
TORSDOF 6
ENDMDL
MODEL 5
REMARK VINA RESULT:      -8.5      4.082      6.229
REMARK  6 active torsions:
REMARK  status: ('A' for Active; 'I' for Inactive)
REMARK    1  A    between atoms: C_7  and  C_8 
REMARK    2  A    between atoms: N_9  and  N_10 
REMARK       I    between atoms: N_10  and  C_11 
REMARK    3  A    between atoms: C_11  and  C_12 
REMARK    4  A    between atoms: C_12  and  N_13 
REMARK       I    between atoms: N_13  and  C_14 
REMARK    5  A    between atoms: C_14  and  C_15 
REMARK    6  A    between atoms: C_16  and  C_17 
ROOT
HETATM    1  N   UNL     1      -3.137   4.349 -33.401  1.00  0.00    -0.246 N 
HETATM    2  C   UNL     1      -2.914   5.186 -34.485  1.00  0.00     0.255 C 
HETATM    3  O   UNL     1      -3.763   5.565 -35.290  1.00  0.00    -0.270 OA
HETATM    4  H   UNL     1      -2.343   4.045 -32.832  1.00  0.00     0.192 HD
ENDROOT
BRANCH   1   5
HETATM    5  N   UNL     1      -4.388   3.866 -33.157  1.00  0.00    -0.184 NA
HETATM    6  C   UNL     1      -4.491   3.063 -32.149  1.00  0.00     0.153 C 
BRANCH   6   7
HETATM    7  C   UNL     1      -5.783   2.497 -31.802  1.00  0.00     0.018 A 
HETATM    8  C   UNL     1      -6.521   2.863 -30.683  1.00  0.00     0.018 A 
HETATM    9  C   UNL     1      -6.242   3.848 -29.607  1.00  0.00     0.069 C 
HETATM   10  N   UNL     1      -7.680   2.124 -30.689  1.00  0.00    -0.358 N 
HETATM   11  H   UNL     1      -8.411   2.181 -29.993  1.00  0.00     0.166 HD
HETATM   12  C   UNL     1      -7.719   1.288 -31.777  1.00  0.00     0.043 A 
HETATM   13  C   UNL     1      -6.544   1.498 -32.498  1.00  0.00     0.004 A 
HETATM   14  C   UNL     1      -8.703   0.372 -32.171  1.00  0.00     0.030 A 
HETATM   15  C   UNL     1      -6.347   0.745 -33.678  1.00  0.00     0.014 A 
HETATM   16  C   UNL     1      -7.318  -0.176 -34.087  1.00  0.00     0.001 A 
HETATM   17  C   UNL     1      -8.480  -0.357 -33.342  1.00  0.00     0.002 A 
ENDBRANCH   6   7
ENDBRANCH   1   5
BRANCH   2  18
HETATM   18  C   UNL     1      -1.462   5.650 -34.581  1.00  0.00     0.227 C 
BRANCH  18  19
HETATM   19  N   UNL     1      -0.844   5.810 -33.275  1.00  0.00    -0.349 N 
HETATM   20  C   UNL     1      -0.850   7.013 -32.621  1.00  0.00     0.241 C 
HETATM   21  O   UNL     1      -1.439   8.001 -33.046  1.00  0.00    -0.269 OA
HETATM   22  H   UNL     1      -0.447   4.987 -32.841  1.00  0.00     0.163 HD
BRANCH  20  23
HETATM   23  C   UNL     1      -0.111   6.987 -31.338  1.00  0.00     0.075 C 
HETATM   24  C   UNL     1      -0.728   7.357 -30.206  1.00  0.00     0.017 C 
BRANCH  24  25
HETATM   25  C   UNL     1      -0.096   7.370 -28.877  1.00  0.00    -0.036 A 
HETATM   26  C   UNL     1       0.987   8.202 -28.559  1.00  0.00     0.011 A 
HETATM   27  C   UNL     1       1.537   8.198 -27.274  1.00  0.00     0.001 A 
HETATM   28  C   UNL     1       1.001   7.373 -26.287  1.00  0.00     0.000 A 
HETATM   29  C   UNL     1      -0.086   6.556 -26.583  1.00  0.00     0.001 A 
HETATM   30  C   UNL     1      -0.635   6.559 -27.869  1.00  0.00     0.011 A 
ENDBRANCH  24  25
ENDBRANCH  20  23
ENDBRANCH  18  19
ENDBRANCH   2  18
TORSDOF 6
ENDMDL
MODEL 6
REMARK VINA RESULT:      -8.3      2.148      8.292
REMARK  6 active torsions:
REMARK  status: ('A' for Active; 'I' for Inactive)
REMARK    1  A    between atoms: C_7  and  C_8 
REMARK    2  A    between atoms: N_9  and  N_10 
REMARK       I    between atoms: N_10  and  C_11 
REMARK    3  A    between atoms: C_11  and  C_12 
REMARK    4  A    between atoms: C_12  and  N_13 
REMARK       I    between atoms: N_13  and  C_14 
REMARK    5  A    between atoms: C_14  and  C_15 
REMARK    6  A    between atoms: C_16  and  C_17 
ROOT
HETATM    1  N   UNL     1      -5.986   3.449 -31.354  1.00  0.00    -0.246 N 
HETATM    2  C   UNL     1      -7.339   3.731 -31.485  1.00  0.00     0.255 C 
HETATM    3  O   UNL     1      -7.819   4.782 -31.905  1.00  0.00    -0.270 OA
HETATM    4  H   UNL     1      -5.698   2.563 -30.932  1.00  0.00     0.192 HD
ENDROOT
BRANCH   1   5
HETATM    5  N   UNL     1      -5.057   4.385 -31.700  1.00  0.00    -0.184 NA
HETATM    6  C   UNL     1      -4.045   3.946 -32.374  1.00  0.00     0.153 C 
BRANCH   6   7
HETATM    7  C   UNL     1      -3.002   4.864 -32.796  1.00  0.00     0.018 A 
HETATM    8  C   UNL     1      -2.915   5.417 -34.067  1.00  0.00     0.018 A 
HETATM    9  C   UNL     1      -3.779   5.257 -35.265  1.00  0.00     0.069 C 
HETATM   10  N   UNL     1      -1.809   6.232 -34.093  1.00  0.00    -0.358 N 
HETATM   11  H   UNL     1      -1.498   6.768 -34.891  1.00  0.00     0.166 HD
HETATM   12  C   UNL     1      -1.172   6.226 -32.876  1.00  0.00     0.043 A 
HETATM   13  C   UNL     1      -1.895   5.378 -32.038  1.00  0.00     0.004 A 
HETATM   14  C   UNL     1      -0.020   6.906 -32.462  1.00  0.00     0.030 A 
HETATM   15  C   UNL     1      -1.434   5.203 -30.714  1.00  0.00     0.014 A 
HETATM   16  C   UNL     1      -0.284   5.873 -30.282  1.00  0.00     0.001 A 
HETATM   17  C   UNL     1       0.411   6.714 -31.147  1.00  0.00     0.002 A 
ENDBRANCH   6   7
ENDBRANCH   1   5
BRANCH   2  18
HETATM   18  C   UNL     1      -8.226   2.556 -31.078  1.00  0.00     0.227 C 
BRANCH  18  19
HETATM   19  N   UNL     1      -7.902   1.339 -31.806  1.00  0.00    -0.349 N 
HETATM   20  C   UNL     1      -8.663   0.910 -32.859  1.00  0.00     0.241 C 
HETATM   21  O   UNL     1      -9.606   1.552 -33.309  1.00  0.00    -0.269 OA
HETATM   22  H   UNL     1      -7.064   0.842 -31.536  1.00  0.00     0.163 HD
BRANCH  20  23
HETATM   23  C   UNL     1      -8.210  -0.384 -33.422  1.00  0.00     0.075 C 
HETATM   24  C   UNL     1      -6.904  -0.689 -33.422  1.00  0.00     0.017 C 
BRANCH  24  25
HETATM   25  C   UNL     1      -6.339  -1.941 -33.951  1.00  0.00    -0.036 A 
HETATM   26  C   UNL     1      -7.135  -2.986 -34.442  1.00  0.00     0.011 A 
HETATM   27  C   UNL     1      -6.551  -4.146 -34.958  1.00  0.00     0.001 A 
HETATM   28  C   UNL     1      -5.164  -4.269 -35.004  1.00  0.00     0.000 A 
HETATM   29  C   UNL     1      -4.361  -3.232 -34.537  1.00  0.00     0.001 A 
HETATM   30  C   UNL     1      -4.946  -2.073 -34.019  1.00  0.00     0.011 A 
ENDBRANCH  24  25
ENDBRANCH  20  23
ENDBRANCH  18  19
ENDBRANCH   2  18
TORSDOF 6
ENDMDL
MODEL 7
REMARK VINA RESULT:      -8.3      2.459      8.742
REMARK  6 active torsions:
REMARK  status: ('A' for Active; 'I' for Inactive)
REMARK    1  A    between atoms: C_7  and  C_8 
REMARK    2  A    between atoms: N_9  and  N_10 
REMARK       I    between atoms: N_10  and  C_11 
REMARK    3  A    between atoms: C_11  and  C_12 
REMARK    4  A    between atoms: C_12  and  N_13 
REMARK       I    between atoms: N_13  and  C_14 
REMARK    5  A    between atoms: C_14  and  C_15 
REMARK    6  A    between atoms: C_16  and  C_17 
ROOT
HETATM    1  N   UNL     1      -5.909   3.783 -32.584  1.00  0.00    -0.246 N 
HETATM    2  C   UNL     1      -6.831   4.159 -33.550  1.00  0.00     0.255 C 
HETATM    3  O   UNL     1      -6.821   5.211 -34.187  1.00  0.00    -0.270 OA
HETATM    4  H   UNL     1      -6.050   2.911 -32.069  1.00  0.00     0.192 HD
ENDROOT
BRANCH   1   5
HETATM    5  N   UNL     1      -4.879   4.616 -32.263  1.00  0.00    -0.184 NA
HETATM    6  C   UNL     1      -4.844   5.016 -31.034  1.00  0.00     0.153 C 
BRANCH   6   7
HETATM    7  C   UNL     1      -3.782   5.902 -30.590  1.00  0.00     0.018 A 
HETATM    8  C   UNL     1      -3.974   6.993 -29.751  1.00  0.00     0.018 A 
HETATM    9  C   UNL     1      -5.203   7.533 -29.114  1.00  0.00     0.069 C 
HETATM   10  N   UNL     1      -2.750   7.585 -29.550  1.00  0.00    -0.358 N 
HETATM   11  H   UNL     1      -2.585   8.402 -28.979  1.00  0.00     0.166 HD
HETATM   12  C   UNL     1      -1.767   6.912 -30.233  1.00  0.00     0.043 A 
HETATM   13  C   UNL     1      -2.380   5.850 -30.895  1.00  0.00     0.004 A 
HETATM   14  C   UNL     1      -0.391   7.166 -30.308  1.00  0.00     0.030 A 
HETATM   15  C   UNL     1      -1.567   4.998 -31.676  1.00  0.00     0.014 A 
HETATM   16  C   UNL     1      -0.190   5.236 -31.764  1.00  0.00     0.001 A 
HETATM   17  C   UNL     1       0.387   6.306 -31.087  1.00  0.00     0.002 A 
ENDBRANCH   6   7
ENDBRANCH   1   5
BRANCH   2  18
HETATM   18  C   UNL     1      -7.894   3.089 -33.796  1.00  0.00     0.227 C 
BRANCH  18  19
HETATM   19  N   UNL     1      -7.353   1.742 -33.716  1.00  0.00    -0.349 N 
HETATM   20  C   UNL     1      -8.166   0.649 -33.589  1.00  0.00     0.241 C 
HETATM   21  O   UNL     1      -9.390   0.720 -33.618  1.00  0.00    -0.269 OA
HETATM   22  H   UNL     1      -6.351   1.635 -33.803  1.00  0.00     0.163 HD
BRANCH  20  23
HETATM   23  C   UNL     1      -7.421  -0.625 -33.453  1.00  0.00     0.075 C 
HETATM   24  C   UNL     1      -6.854  -1.183 -34.532  1.00  0.00     0.017 C 
BRANCH  24  25
HETATM   25  C   UNL     1      -6.090  -2.441 -34.517  1.00  0.00    -0.036 A 
HETATM   26  C   UNL     1      -4.772  -2.525 -34.047  1.00  0.00     0.011 A 
HETATM   27  C   UNL     1      -4.097  -3.748 -34.029  1.00  0.00     0.001 A 
HETATM   28  C   UNL     1      -4.737  -4.906 -34.467  1.00  0.00     0.000 A 
HETATM   29  C   UNL     1      -6.052  -4.841 -34.919  1.00  0.00     0.001 A 
HETATM   30  C   UNL     1      -6.726  -3.617 -34.938  1.00  0.00     0.011 A 
ENDBRANCH  24  25
ENDBRANCH  20  23
ENDBRANCH  18  19
ENDBRANCH   2  18
TORSDOF 6
ENDMDL
MODEL 8
REMARK VINA RESULT:      -8.2      1.663      2.117
REMARK  6 active torsions:
REMARK  status: ('A' for Active; 'I' for Inactive)
REMARK    1  A    between atoms: C_7  and  C_8 
REMARK    2  A    between atoms: N_9  and  N_10 
REMARK       I    between atoms: N_10  and  C_11 
REMARK    3  A    between atoms: C_11  and  C_12 
REMARK    4  A    between atoms: C_12  and  N_13 
REMARK       I    between atoms: N_13  and  C_14 
REMARK    5  A    between atoms: C_14  and  C_15 
REMARK    6  A    between atoms: C_16  and  C_17 
ROOT
HETATM    1  N   UNL     1      -6.371   2.025 -32.416  1.00  0.00    -0.246 N 
HETATM    2  C   UNL     1      -7.186   2.559 -33.405  1.00  0.00     0.255 C 
HETATM    3  O   UNL     1      -7.692   1.937 -34.337  1.00  0.00    -0.270 OA
HETATM    4  H   UNL     1      -5.951   2.648 -31.723  1.00  0.00     0.192 HD
ENDROOT
BRANCH   1   5
HETATM    5  N   UNL     1      -6.065   0.697 -32.428  1.00  0.00    -0.184 NA
HETATM    6  C   UNL     1      -5.015   0.370 -33.109  1.00  0.00     0.153 C 
BRANCH   6   7
HETATM    7  C   UNL     1      -4.601  -1.020 -33.181  1.00  0.00     0.018 A 
HETATM    8  C   UNL     1      -3.476  -1.534 -32.547  1.00  0.00     0.018 A 
HETATM    9  C   UNL     1      -2.456  -0.883 -31.685  1.00  0.00     0.069 C 
HETATM   10  N   UNL     1      -3.410  -2.875 -32.838  1.00  0.00    -0.358 N 
HETATM   11  H   UNL     1      -2.694  -3.508 -32.510  1.00  0.00     0.166 HD
HETATM   12  C   UNL     1      -4.457  -3.250 -33.643  1.00  0.00     0.043 A 
HETATM   13  C   UNL     1      -5.225  -2.110 -33.877  1.00  0.00     0.004 A 
HETATM   14  C   UNL     1      -4.776  -4.507 -34.174  1.00  0.00     0.030 A 
HETATM   15  C   UNL     1      -6.374  -2.239 -34.688  1.00  0.00     0.014 A 
HETATM   16  C   UNL     1      -6.709  -3.486 -35.228  1.00  0.00     0.001 A 
HETATM   17  C   UNL     1      -5.919  -4.603 -34.972  1.00  0.00     0.002 A 
ENDBRANCH   6   7
ENDBRANCH   1   5
BRANCH   2  18
HETATM   18  C   UNL     1      -7.443   4.053 -33.211  1.00  0.00     0.227 C 
BRANCH  18  19
HETATM   19  N   UNL     1      -6.304   4.739 -32.623  1.00  0.00    -0.349 N 
HETATM   20  C   UNL     1      -5.304   5.261 -33.398  1.00  0.00     0.241 C 
HETATM   21  O   UNL     1      -5.338   5.260 -34.624  1.00  0.00    -0.269 OA
HETATM   22  H   UNL     1      -6.298   4.859 -31.619  1.00  0.00     0.163 HD
BRANCH  20  23
HETATM   23  C   UNL     1      -4.201   5.858 -32.609  1.00  0.00     0.075 C 
HETATM   24  C   UNL     1      -3.052   5.183 -32.453  1.00  0.00     0.017 C 
BRANCH  24  25
HETATM   25  C   UNL     1      -1.891   5.674 -31.694  1.00  0.00    -0.036 A 
HETATM   26  C   UNL     1      -0.596   5.171 -31.878  1.00  0.00     0.011 A 
HETATM   27  C   UNL     1       0.480   5.688 -31.151  1.00  0.00     0.001 A 
HETATM   28  C   UNL     1       0.276   6.726 -30.244  1.00  0.00     0.000 A 
HETATM   29  C   UNL     1      -1.002   7.248 -30.066  1.00  0.00     0.001 A 
HETATM   30  C   UNL     1      -2.078   6.729 -30.791  1.00  0.00     0.011 A 
ENDBRANCH  24  25
ENDBRANCH  20  23
ENDBRANCH  18  19
ENDBRANCH   2  18
TORSDOF 6
ENDMDL
MODEL 9
REMARK VINA RESULT:      -8.2      5.040      6.695
REMARK  6 active torsions:
REMARK  status: ('A' for Active; 'I' for Inactive)
REMARK    1  A    between atoms: C_7  and  C_8 
REMARK    2  A    between atoms: N_9  and  N_10 
REMARK       I    between atoms: N_10  and  C_11 
REMARK    3  A    between atoms: C_11  and  C_12 
REMARK    4  A    between atoms: C_12  and  N_13 
REMARK       I    between atoms: N_13  and  C_14 
REMARK    5  A    between atoms: C_14  and  C_15 
REMARK    6  A    between atoms: C_16  and  C_17 
ROOT
HETATM    1  N   UNL     1      -2.789   3.547 -31.310  1.00  0.00    -0.246 N 
HETATM    2  C   UNL     1      -2.486   4.538 -32.234  1.00  0.00     0.255 C 
HETATM    3  O   UNL     1      -3.266   5.027 -33.049  1.00  0.00    -0.270 OA
HETATM    4  H   UNL     1      -2.044   3.167 -30.721  1.00  0.00     0.192 HD
ENDROOT
BRANCH   1   5
HETATM    5  N   UNL     1      -4.047   3.026 -31.256  1.00  0.00    -0.184 NA
HETATM    6  C   UNL     1      -4.197   1.866 -31.808  1.00  0.00     0.153 C 
BRANCH   6   7
HETATM    7  C   UNL     1      -5.499   1.222 -31.799  1.00  0.00     0.018 A 
HETATM    8  C   UNL     1      -6.115   0.720 -30.660  1.00  0.00     0.018 A 
HETATM    9  C   UNL     1      -5.675   0.692 -29.241  1.00  0.00     0.069 C 
HETATM   10  N   UNL     1      -7.326   0.192 -31.039  1.00  0.00    -0.358 N 
HETATM   11  H   UNL     1      -7.993  -0.243 -30.417  1.00  0.00     0.166 HD
HETATM   12  C   UNL     1      -7.517   0.336 -32.391  1.00  0.00     0.043 A 
HETATM   13  C   UNL     1      -6.390   0.980 -32.900  1.00  0.00     0.004 A 
HETATM   14  C   UNL     1      -8.599  -0.053 -33.192  1.00  0.00     0.030 A 
HETATM   15  C   UNL     1      -6.346   1.245 -34.287  1.00  0.00     0.014 A 
HETATM   16  C   UNL     1      -7.417   0.863 -35.103  1.00  0.00     0.001 A 
HETATM   17  C   UNL     1      -8.528   0.223 -34.560  1.00  0.00     0.002 A 
ENDBRANCH   6   7
ENDBRANCH   1   5
BRANCH   2  18
HETATM   18  C   UNL     1      -1.040   5.020 -32.126  1.00  0.00     0.227 C 
BRANCH  18  19
HETATM   19  N   UNL     1      -0.770   5.682 -30.860  1.00  0.00    -0.349 N 
HETATM   20  C   UNL     1       0.231   5.258 -30.028  1.00  0.00     0.241 C 
HETATM   21  O   UNL     1       1.010   4.358 -30.325  1.00  0.00    -0.269 OA
HETATM   22  H   UNL     1      -1.319   6.500 -30.634  1.00  0.00     0.163 HD
BRANCH  20  23
HETATM   23  C   UNL     1       0.300   6.017 -28.758  1.00  0.00     0.075 C 
HETATM   24  C   UNL     1       0.739   7.284 -28.763  1.00  0.00     0.017 C 
BRANCH  24  25
HETATM   25  C   UNL     1       0.849   8.135 -27.567  1.00  0.00    -0.036 A 
HETATM   26  C   UNL     1       0.088   9.299 -27.390  1.00  0.00     0.011 A 
HETATM   27  C   UNL     1       0.210  10.059 -26.223  1.00  0.00     0.001 A 
HETATM   28  C   UNL     1       1.082   9.657 -25.214  1.00  0.00     0.000 A 
HETATM   29  C   UNL     1       1.829   8.493 -25.368  1.00  0.00     0.001 A 
HETATM   30  C   UNL     1       1.709   7.733 -26.536  1.00  0.00     0.011 A 
ENDBRANCH  24  25
ENDBRANCH  20  23
ENDBRANCH  18  19
ENDBRANCH   2  18
TORSDOF 6
ENDMDL
MODEL 10
REMARK VINA RESULT:      -8.2      3.657      9.138
REMARK  6 active torsions:
REMARK  status: ('A' for Active; 'I' for Inactive)
REMARK    1  A    between atoms: C_7  and  C_8 
REMARK    2  A    between atoms: N_9  and  N_10 
REMARK       I    between atoms: N_10  and  C_11 
REMARK    3  A    between atoms: C_11  and  C_12 
REMARK    4  A    between atoms: C_12  and  N_13 
REMARK       I    between atoms: N_13  and  C_14 
REMARK    5  A    between atoms: C_14  and  C_15 
REMARK    6  A    between atoms: C_16  and  C_17 
ROOT
HETATM    1  N   UNL     1      -8.763   3.188 -33.352  1.00  0.00    -0.246 N 
HETATM    2  C   UNL     1      -7.835   4.084 -33.864  1.00  0.00     0.255 C 
HETATM    3  O   UNL     1      -8.080   5.207 -34.299  1.00  0.00    -0.270 OA
HETATM    4  H   UNL     1      -8.456   2.252 -33.076  1.00  0.00     0.192 HD
ENDROOT
BRANCH   1   5
HETATM    5  N   UNL     1     -10.082   3.526 -33.303  1.00  0.00    -0.184 NA
HETATM    6  C   UNL     1     -10.899   2.556 -33.051  1.00  0.00     0.153 C 
BRANCH   6   7
HETATM    7  C   UNL     1     -12.327   2.812 -32.973  1.00  0.00     0.018 A 
HETATM    8  C   UNL     1     -13.286   2.127 -33.708  1.00  0.00     0.018 A 
HETATM    9  C   UNL     1     -13.156   1.028 -34.700  1.00  0.00     0.069 C 
HETATM   10  N   UNL     1     -14.515   2.638 -33.369  1.00  0.00    -0.358 N 
HETATM   11  H   UNL     1     -15.400   2.328 -33.747  1.00  0.00     0.166 HD
HETATM   12  C   UNL     1     -14.387   3.636 -32.435  1.00  0.00     0.043 A 
HETATM   13  C   UNL     1     -13.026   3.771 -32.163  1.00  0.00     0.004 A 
HETATM   14  C   UNL     1     -15.370   4.419 -31.817  1.00  0.00     0.030 A 
HETATM   15  C   UNL     1     -12.632   4.747 -31.220  1.00  0.00     0.014 A 
HETATM   16  C   UNL     1     -13.599   5.540 -30.593  1.00  0.00     0.001 A 
HETATM   17  C   UNL     1     -14.949   5.376 -30.889  1.00  0.00     0.002 A 
ENDBRANCH   6   7
ENDBRANCH   1   5
BRANCH   2  18
HETATM   18  C   UNL     1      -6.406   3.545 -33.810  1.00  0.00     0.227 C 
BRANCH  18  19
HETATM   19  N   UNL     1      -6.364   2.094 -33.722  1.00  0.00    -0.349 N 
HETATM   20  C   UNL     1      -5.680   1.456 -32.723  1.00  0.00     0.241 C 
HETATM   21  O   UNL     1      -5.133   2.052 -31.801  1.00  0.00    -0.269 OA
HETATM   22  H   UNL     1      -6.899   1.569 -34.401  1.00  0.00     0.163 HD
BRANCH  20  23
HETATM   23  C   UNL     1      -5.700  -0.020 -32.849  1.00  0.00     0.075 C 
HETATM   24  C   UNL     1      -5.569  -0.588 -34.057  1.00  0.00     0.017 C 
BRANCH  24  25
HETATM   25  C   UNL     1      -5.573  -2.039 -34.302  1.00  0.00    -0.036 A 
HETATM   26  C   UNL     1      -4.443  -2.846 -34.105  1.00  0.00     0.011 A 
HETATM   27  C   UNL     1      -4.503  -4.224 -34.327  1.00  0.00     0.001 A 
HETATM   28  C   UNL     1      -5.698  -4.815 -34.734  1.00  0.00     0.000 A 
HETATM   29  C   UNL     1      -6.832  -4.029 -34.915  1.00  0.00     0.001 A 
HETATM   30  C   UNL     1      -6.771  -2.650 -34.695  1.00  0.00     0.011 A 
ENDBRANCH  24  25
ENDBRANCH  20  23
ENDBRANCH  18  19
ENDBRANCH   2  18
TORSDOF 6
ENDMDL
