MODEL 1
REMARK VINA RESULT:      -9.4      0.000      0.000
REMARK  7 active torsions:
REMARK  status: ('A' for Active; 'I' for Inactive)
REMARK    1  A    between atoms: C_2  and  O_3 
REMARK    2  A    between atoms: O_3  and  C_4 
REMARK    3  A    between atoms: C_4  and  C_5 
REMARK    4  A    between atoms: C_10  and  N_11 
REMARK       I    between atoms: N_11  and  C_12 
REMARK    5  A    between atoms: C_12  and  C_13 
REMARK    6  A    between atoms: C_13  and  N_14 
REMARK    7  A    between atoms: N_18  and  C_19 
ROOT
HETATM    1  N   UNL     1      -6.532   2.371 -32.834  1.00  0.00    -0.323 N 
HETATM    2  C   UNL     1      -6.605   3.442 -33.690  1.00  0.00     0.248 C 
HETATM    3  O   UNL     1      -5.747   3.837 -34.478  1.00  0.00    -0.271 OA
HETATM    4  H   UNL     1      -7.150   2.345 -32.020  1.00  0.00     0.169 HD
ENDROOT
BRANCH   1   5
HETATM    5  C   UNL     1      -5.535   1.399 -32.816  1.00  0.00     0.080 A 
HETATM    6  C   UNL     1      -4.340   1.626 -32.146  1.00  0.00     0.137 A 
HETATM    7  N   UNL     1      -3.551   0.517 -32.329  1.00  0.00    -0.349 N 
HETATM    8  H   UNL     1      -2.613   0.418 -31.960  1.00  0.00     0.166 HD
HETATM    9  C   UNL     1      -4.227  -0.457 -33.020  1.00  0.00     0.048 A 
HETATM   10  C   UNL     1      -5.493   0.064 -33.343  1.00  0.00     0.023 A 
HETATM   11  C   UNL     1      -3.805  -1.754 -33.357  1.00  0.00     0.070 A 
HETATM   12  C   UNL     1      -6.403  -0.785 -34.018  1.00  0.00     0.055 A 
HETATM   13  C   UNL     1      -5.983  -2.065 -34.337  1.00  0.00     0.106 A 
HETATM   14  C   UNL     1      -4.733  -2.528 -34.023  1.00  0.00     0.107 A 
HETATM   15  O   UNL     1      -6.742  -3.002 -34.971  1.00  0.00    -0.323 OA
HETATM   16  O   UNL     1      -4.541  -3.814 -34.421  1.00  0.00    -0.323 OA
HETATM   17  C   UNL     1      -5.818  -4.110 -35.022  1.00  0.00     0.352 A 
BRANCH   6  18
HETATM   18  C   UNL     1      -3.940   2.792 -31.397  1.00  0.00     0.312 C 
HETATM   19  O   UNL     1      -4.704   3.442 -30.693  1.00  0.00    -0.258 OA
BRANCH  18  20
HETATM   20  O   UNL     1      -2.616   3.029 -31.586  1.00  0.00    -0.317 OA
BRANCH  20  21
HETATM   21  C   UNL     1      -2.247   4.362 -31.972  1.00  0.00     0.175 C 
HETATM   22  C   UNL     1      -2.257   4.455 -33.485  1.00  0.00     0.034 C 
ENDBRANCH  20  21
ENDBRANCH  18  20
ENDBRANCH   6  18
ENDBRANCH   1   5
BRANCH   2  23
HETATM   23  C   UNL     1      -7.926   4.214 -33.624  1.00  0.00     0.337 C 
BRANCH  23  24
HETATM   24  N   UNL     1      -9.093   3.277 -33.922  1.00  0.00    -0.060 N 
HETATM   25  H   UNL     1      -8.701   2.580 -34.580  1.00  0.00     0.280 HD
HETATM   26  C   UNL     1      -9.530   2.470 -32.700  1.00  0.00     0.255 C 
HETATM   27  C   UNL     1     -10.604   1.437 -33.097  1.00  0.00     0.150 C 
HETATM   28  N   UNL     1     -11.713   2.046 -33.851  1.00  0.00    -0.377 N 
HETATM   29  C   UNL     1     -11.339   2.911 -34.987  1.00  0.00     0.150 C 
HETATM   30  C   UNL     1     -10.276   3.954 -34.582  1.00  0.00     0.255 C 
BRANCH  28  31
HETATM   31  C   UNL     1     -12.922   2.332 -33.216  1.00  0.00     0.037 A 
HETATM   32  C   UNL     1     -14.053   1.501 -33.399  1.00  0.00    -0.035 A 
HETATM   33  C   UNL     1     -14.004   0.236 -34.220  1.00  0.00     0.050 C 
HETATM   34  C   UNL     1     -15.282   1.829 -32.792  1.00  0.00     0.011 A 
HETATM   35  C   UNL     1     -15.397   2.947 -31.971  1.00  0.00     0.024 A 
HETATM   36  C   UNL     1     -14.283   3.742 -31.753  1.00  0.00     0.036 A 
HETATM   37 CL   UNL     1     -14.399   5.124 -30.735  1.00  0.00    -0.084 Cl
HETATM   38  C   UNL     1     -13.061   3.440 -32.363  1.00  0.00     0.053 A 
ENDBRANCH  28  31
ENDBRANCH  23  24
ENDBRANCH   2  23
TORSDOF 7
ENDMDL
MODEL 2
REMARK VINA RESULT:      -9.4      3.610      8.394
REMARK  7 active torsions:
REMARK  status: ('A' for Active; 'I' for Inactive)
REMARK    1  A    between atoms: C_2  and  O_3 
REMARK    2  A    between atoms: O_3  and  C_4 
REMARK    3  A    between atoms: C_4  and  C_5 
REMARK    4  A    between atoms: C_10  and  N_11 
REMARK       I    between atoms: N_11  and  C_12 
REMARK    5  A    between atoms: C_12  and  C_13 
REMARK    6  A    between atoms: C_13  and  N_14 
REMARK    7  A    between atoms: N_18  and  C_19 
ROOT
HETATM    1  N   UNL     1      -6.149   1.206 -32.151  1.00  0.00    -0.323 N 
HETATM    2  C   UNL     1      -6.196   1.097 -30.784  1.00  0.00     0.248 C 
HETATM    3  O   UNL     1      -6.632   0.161 -30.116  1.00  0.00    -0.271 OA
HETATM    4  H   UNL     1      -6.078   2.135 -32.572  1.00  0.00     0.169 HD
ENDROOT
BRANCH   1   5
HETATM    5  C   UNL     1      -6.423   0.193 -33.066  1.00  0.00     0.080 A 
HETATM    6  C   UNL     1      -7.444   0.338 -33.996  1.00  0.00     0.137 A 
HETATM    7  N   UNL     1      -7.496  -0.821 -34.732  1.00  0.00    -0.349 N 
HETATM    8  H   UNL     1      -8.163  -0.995 -35.474  1.00  0.00     0.166 HD
HETATM    9  C   UNL     1      -6.486  -1.676 -34.370  1.00  0.00     0.048 A 
HETATM   10  C   UNL     1      -5.780  -1.067 -33.318  1.00  0.00     0.023 A 
HETATM   11  C   UNL     1      -6.152  -2.927 -34.916  1.00  0.00     0.070 A 
HETATM   12  C   UNL     1      -4.646  -1.742 -32.806  1.00  0.00     0.055 A 
HETATM   13  C   UNL     1      -4.317  -2.969 -33.357  1.00  0.00     0.106 A 
HETATM   14  C   UNL     1      -5.044  -3.539 -34.366  1.00  0.00     0.107 A 
HETATM   15  O   UNL     1      -3.253  -3.733 -32.984  1.00  0.00    -0.323 OA
HETATM   16  O   UNL     1      -4.535  -4.738 -34.760  1.00  0.00    -0.323 OA
HETATM   17  C   UNL     1      -3.400  -4.856 -33.880  1.00  0.00     0.352 A 
BRANCH   6  18
HETATM   18  C   UNL     1      -8.327   1.462 -34.190  1.00  0.00     0.312 C 
HETATM   19  O   UNL     1      -7.959   2.630 -34.144  1.00  0.00    -0.258 OA
BRANCH  18  20
HETATM   20  O   UNL     1      -9.588   1.021 -34.435  1.00  0.00    -0.317 OA
BRANCH  20  21
HETATM   21  C   UNL     1     -10.414   0.755 -33.291  1.00  0.00     0.175 C 
HETATM   22  C   UNL     1     -11.869   0.895 -33.693  1.00  0.00     0.034 C 
ENDBRANCH  20  21
ENDBRANCH  18  20
ENDBRANCH   6  18
ENDBRANCH   1   5
BRANCH   2  23
HETATM   23  C   UNL     1      -5.630   2.307 -30.035  1.00  0.00     0.337 C 
BRANCH  23  24
HETATM   24  N   UNL     1      -4.878   3.215 -31.005  1.00  0.00    -0.060 N 
HETATM   25  H   UNL     1      -5.438   3.182 -31.875  1.00  0.00     0.280 HD
HETATM   26  C   UNL     1      -4.894   4.682 -30.575  1.00  0.00     0.255 C 
HETATM   27  C   UNL     1      -4.255   5.566 -31.664  1.00  0.00     0.150 C 
HETATM   28  N   UNL     1      -2.932   5.070 -32.080  1.00  0.00    -0.377 N 
HETATM   29  C   UNL     1      -2.843   3.636 -32.418  1.00  0.00     0.150 C 
HETATM   30  C   UNL     1      -3.470   2.753 -31.318  1.00  0.00     0.255 C 
BRANCH  28  31
HETATM   31  C   UNL     1      -1.770   5.674 -31.597  1.00  0.00     0.037 A 
HETATM   32  C   UNL     1      -0.939   6.437 -32.452  1.00  0.00    -0.035 A 
HETATM   33  C   UNL     1      -1.287   6.701 -33.896  1.00  0.00     0.050 C 
HETATM   34  C   UNL     1       0.257   6.999 -31.964  1.00  0.00     0.011 A 
HETATM   35  C   UNL     1       0.623   6.852 -30.629  1.00  0.00     0.024 A 
HETATM   36  C   UNL     1      -0.207   6.142 -29.776  1.00  0.00     0.036 A 
HETATM   37 CL   UNL     1       0.220   5.955 -28.120  1.00  0.00    -0.084 Cl
HETATM   38  C   UNL     1      -1.388   5.563 -30.250  1.00  0.00     0.053 A 
ENDBRANCH  28  31
ENDBRANCH  23  24
ENDBRANCH   2  23
TORSDOF 7
ENDMDL
MODEL 3
REMARK VINA RESULT:      -9.0      5.020      9.485
REMARK  7 active torsions:
REMARK  status: ('A' for Active; 'I' for Inactive)
REMARK    1  A    between atoms: C_2  and  O_3 
REMARK    2  A    between atoms: O_3  and  C_4 
REMARK    3  A    between atoms: C_4  and  C_5 
REMARK    4  A    between atoms: C_10  and  N_11 
REMARK       I    between atoms: N_11  and  C_12 
REMARK    5  A    between atoms: C_12  and  C_13 
REMARK    6  A    between atoms: C_13  and  N_14 
REMARK    7  A    between atoms: N_18  and  C_19 
ROOT
HETATM    1  N   UNL     1      -2.713   6.221 -29.491  1.00  0.00    -0.323 N 
HETATM    2  C   UNL     1      -3.721   6.784 -30.233  1.00  0.00     0.248 C 
HETATM    3  O   UNL     1      -3.749   7.903 -30.743  1.00  0.00    -0.271 OA
HETATM    4  H   UNL     1      -2.934   5.446 -28.862  1.00  0.00     0.169 HD
ENDROOT
BRANCH   1   5
HETATM    5  C   UNL     1      -1.431   6.739 -29.319  1.00  0.00     0.080 A 
HETATM    6  C   UNL     1      -0.449   6.526 -30.277  1.00  0.00     0.137 A 
HETATM    7  N   UNL     1       0.703   7.121 -29.823  1.00  0.00    -0.349 N 
HETATM    8  H   UNL     1       1.585   7.106 -30.319  1.00  0.00     0.166 HD
HETATM    9  C   UNL     1       0.477   7.788 -28.646  1.00  0.00     0.048 A 
HETATM   10  C   UNL     1      -0.867   7.573 -28.295  1.00  0.00     0.023 A 
HETATM   11  C   UNL     1       1.367   8.571 -27.891  1.00  0.00     0.070 A 
HETATM   12  C   UNL     1      -1.357   8.214 -27.131  1.00  0.00     0.055 A 
HETATM   13  C   UNL     1      -0.476   8.993 -26.400  1.00  0.00     0.106 A 
HETATM   14  C   UNL     1       0.833   9.159 -26.763  1.00  0.00     0.107 A 
HETATM   15  O   UNL     1      -0.795   9.682 -25.269  1.00  0.00    -0.323 OA
HETATM   16  O   UNL     1       1.510   9.972 -25.908  1.00  0.00    -0.323 OA
HETATM   17  C   UNL     1       0.472  10.300 -24.962  1.00  0.00     0.352 A 
BRANCH   6  18
HETATM   18  C   UNL     1      -0.555   5.809 -31.525  1.00  0.00     0.312 C 
HETATM   19  O   UNL     1      -0.698   4.594 -31.600  1.00  0.00    -0.258 OA
BRANCH  18  20
HETATM   20  O   UNL     1      -0.484   6.681 -32.564  1.00  0.00    -0.317 OA
BRANCH  20  21
HETATM   21  C   UNL     1      -1.618   6.731 -33.443  1.00  0.00     0.175 C 
HETATM   22  C   UNL     1      -1.366   5.813 -34.624  1.00  0.00     0.034 C 
ENDBRANCH  20  21
ENDBRANCH  18  20
ENDBRANCH   6  18
ENDBRANCH   1   5
BRANCH   2  23
HETATM   23  C   UNL     1      -4.944   5.882 -30.423  1.00  0.00     0.337 C 
BRANCH  23  24
HETATM   24  N   UNL     1      -4.496   4.459 -30.748  1.00  0.00    -0.060 N 
HETATM   25  H   UNL     1      -3.616   4.338 -30.216  1.00  0.00     0.280 HD
HETATM   26  C   UNL     1      -5.447   3.399 -30.193  1.00  0.00     0.255 C 
HETATM   27  C   UNL     1      -4.866   1.989 -30.421  1.00  0.00     0.150 C 
HETATM   28  N   UNL     1      -4.462   1.770 -31.819  1.00  0.00    -0.377 N 
HETATM   29  C   UNL     1      -3.617   2.814 -32.432  1.00  0.00     0.150 C 
HETATM   30  C   UNL     1      -4.210   4.223 -32.217  1.00  0.00     0.255 C 
BRANCH  28  31
HETATM   31  C   UNL     1      -5.280   1.039 -32.682  1.00  0.00     0.037 A 
HETATM   32  C   UNL     1      -4.880  -0.232 -33.159  1.00  0.00    -0.035 A 
HETATM   33  C   UNL     1      -3.601  -0.898 -32.717  1.00  0.00     0.050 C 
HETATM   34  C   UNL     1      -5.694  -0.937 -34.069  1.00  0.00     0.011 A 
HETATM   35  C   UNL     1      -6.918  -0.421 -34.482  1.00  0.00     0.024 A 
HETATM   36  C   UNL     1      -7.336   0.805 -33.986  1.00  0.00     0.036 A 
HETATM   37 CL   UNL     1      -8.849   1.459 -34.476  1.00  0.00    -0.084 Cl
HETATM   38  C   UNL     1      -6.532   1.524 -33.097  1.00  0.00     0.053 A 
ENDBRANCH  28  31
ENDBRANCH  23  24
ENDBRANCH   2  23
TORSDOF 7
ENDMDL
MODEL 4
REMARK VINA RESULT:      -9.0      3.672      8.843
REMARK  7 active torsions:
REMARK  status: ('A' for Active; 'I' for Inactive)
REMARK    1  A    between atoms: C_2  and  O_3 
REMARK    2  A    between atoms: O_3  and  C_4 
REMARK    3  A    between atoms: C_4  and  C_5 
REMARK    4  A    between atoms: C_10  and  N_11 
REMARK       I    between atoms: N_11  and  C_12 
REMARK    5  A    between atoms: C_12  and  C_13 
REMARK    6  A    between atoms: C_13  and  N_14 
REMARK    7  A    between atoms: N_18  and  C_19 
ROOT
HETATM    1  N   UNL     1      -6.119   2.860 -34.254  1.00  0.00    -0.323 N 
HETATM    2  C   UNL     1      -6.109   4.177 -33.867  1.00  0.00     0.248 C 
HETATM    3  O   UNL     1      -6.932   4.765 -33.167  1.00  0.00    -0.271 OA
HETATM    4  H   UNL     1      -5.584   2.582 -35.079  1.00  0.00     0.169 HD
ENDROOT
BRANCH   1   5
HETATM    5  C   UNL     1      -6.975   1.870 -33.777  1.00  0.00     0.080 A 
HETATM    6  C   UNL     1      -6.477   0.792 -33.057  1.00  0.00     0.137 A 
HETATM    7  N   UNL     1      -7.539  -0.023 -32.752  1.00  0.00    -0.349 N 
HETATM    8  H   UNL     1      -7.461  -0.894 -32.243  1.00  0.00     0.166 HD
HETATM    9  C   UNL     1      -8.721   0.534 -33.172  1.00  0.00     0.048 A 
HETATM   10  C   UNL     1      -8.405   1.740 -33.824  1.00  0.00     0.023 A 
HETATM   11  C   UNL     1     -10.032   0.057 -33.001  1.00  0.00     0.070 A 
HETATM   12  C   UNL     1      -9.477   2.531 -34.303  1.00  0.00     0.055 A 
HETATM   13  C   UNL     1     -10.765   2.059 -34.121  1.00  0.00     0.106 A 
HETATM   14  C   UNL     1     -11.030   0.869 -33.500  1.00  0.00     0.107 A 
HETATM   15  O   UNL     1     -11.898   2.707 -34.512  1.00  0.00    -0.323 OA
HETATM   16  O   UNL     1     -12.363   0.609 -33.421  1.00  0.00    -0.323 OA
HETATM   17  C   UNL     1     -12.909   1.778 -34.065  1.00  0.00     0.352 A 
BRANCH   6  18
HETATM   18  C   UNL     1      -5.111   0.518 -32.684  1.00  0.00     0.312 C 
HETATM   19  O   UNL     1      -4.283   1.391 -32.447  1.00  0.00    -0.258 OA
BRANCH  18  20
HETATM   20  O   UNL     1      -4.908  -0.824 -32.629  1.00  0.00    -0.317 OA
BRANCH  20  21
HETATM   21  C   UNL     1      -4.292  -1.432 -33.775  1.00  0.00     0.175 C 
HETATM   22  C   UNL     1      -5.246  -2.455 -34.360  1.00  0.00     0.034 C 
ENDBRANCH  20  21
ENDBRANCH  18  20
ENDBRANCH   6  18
ENDBRANCH   1   5
BRANCH   2  23
HETATM   23  C   UNL     1      -4.915   4.979 -34.393  1.00  0.00     0.337 C 
BRANCH  23  24
HETATM   24  N   UNL     1      -3.683   4.705 -33.533  1.00  0.00    -0.060 N 
HETATM   25  H   UNL     1      -3.384   3.753 -33.809  1.00  0.00     0.280 HD
HETATM   26  C   UNL     1      -2.504   5.611 -33.883  1.00  0.00     0.255 C 
HETATM   27  C   UNL     1      -1.250   5.188 -33.092  1.00  0.00     0.150 C 
HETATM   28  N   UNL     1      -1.515   5.067 -31.649  1.00  0.00    -0.377 N 
HETATM   29  C   UNL     1      -2.700   4.276 -31.261  1.00  0.00     0.150 C 
HETATM   30  C   UNL     1      -3.957   4.714 -32.043  1.00  0.00     0.255 C 
BRANCH  28  31
HETATM   31  C   UNL     1      -1.125   6.082 -30.774  1.00  0.00     0.037 A 
HETATM   32  C   UNL     1      -0.015   5.912 -29.912  1.00  0.00    -0.035 A 
HETATM   33  C   UNL     1       0.845   4.673 -29.935  1.00  0.00     0.050 C 
HETATM   34  C   UNL     1       0.337   6.925 -28.999  1.00  0.00     0.011 A 
HETATM   35  C   UNL     1      -0.368   8.124 -28.954  1.00  0.00     0.024 A 
HETATM   36  C   UNL     1      -1.431   8.315 -29.824  1.00  0.00     0.036 A 
HETATM   37 CL   UNL     1      -2.312   9.791 -29.793  1.00  0.00    -0.084 Cl
HETATM   38  C   UNL     1      -1.804   7.312 -30.724  1.00  0.00     0.053 A 
ENDBRANCH  28  31
ENDBRANCH  23  24
ENDBRANCH   2  23
TORSDOF 7
ENDMDL
MODEL 5
REMARK VINA RESULT:      -9.0      3.836      8.971
REMARK  7 active torsions:
REMARK  status: ('A' for Active; 'I' for Inactive)
REMARK    1  A    between atoms: C_2  and  O_3 
REMARK    2  A    between atoms: O_3  and  C_4 
REMARK    3  A    between atoms: C_4  and  C_5 
REMARK    4  A    between atoms: C_10  and  N_11 
REMARK       I    between atoms: N_11  and  C_12 
REMARK    5  A    between atoms: C_12  and  C_13 
REMARK    6  A    between atoms: C_13  and  N_14 
REMARK    7  A    between atoms: N_18  and  C_19 
ROOT
HETATM    1  N   UNL     1      -9.378   3.741 -32.595  1.00  0.00    -0.323 N 
HETATM    2  C   UNL     1      -9.081   3.750 -31.256  1.00  0.00     0.248 C 
HETATM    3  O   UNL     1      -9.586   3.068 -30.365  1.00  0.00    -0.271 OA
HETATM    4  H   UNL     1      -9.140   4.558 -33.162  1.00  0.00     0.169 HD
ENDROOT
BRANCH   1   5
HETATM    5  C   UNL     1     -10.191   2.818 -33.251  1.00  0.00     0.080 A 
HETATM    6  C   UNL     1      -9.636   1.852 -34.079  1.00  0.00     0.137 A 
HETATM    7  N   UNL     1     -10.672   1.117 -34.602  1.00  0.00    -0.349 N 
HETATM    8  H   UNL     1     -10.555   0.352 -35.255  1.00  0.00     0.166 HD
HETATM    9  C   UNL     1     -11.873   1.518 -34.073  1.00  0.00     0.048 A 
HETATM   10  C   UNL     1     -11.609   2.594 -33.207  1.00  0.00     0.023 A 
HETATM   11  C   UNL     1     -13.156   0.988 -34.294  1.00  0.00     0.070 A 
HETATM   12  C   UNL     1     -12.698   3.148 -32.492  1.00  0.00     0.055 A 
HETATM   13  C   UNL     1     -13.956   2.613 -32.708  1.00  0.00     0.106 A 
HETATM   14  C   UNL     1     -14.175   1.579 -33.577  1.00  0.00     0.107 A 
HETATM   15  O   UNL     1     -15.098   3.027 -32.090  1.00  0.00    -0.323 OA
HETATM   16  O   UNL     1     -15.483   1.208 -33.623  1.00  0.00    -0.323 OA
HETATM   17  C   UNL     1     -16.064   2.129 -32.678  1.00  0.00     0.352 A 
BRANCH   6  18
HETATM   18  C   UNL     1      -8.245   1.623 -34.383  1.00  0.00     0.312 C 
HETATM   19  O   UNL     1      -7.337   2.351 -33.998  1.00  0.00    -0.258 OA
BRANCH  18  20
HETATM   20  O   UNL     1      -8.116   0.497 -35.132  1.00  0.00    -0.317 OA
BRANCH  20  21
HETATM   21  C   UNL     1      -6.838  -0.158 -35.099  1.00  0.00     0.175 C 
HETATM   22  C   UNL     1      -6.988  -1.490 -34.390  1.00  0.00     0.034 C 
ENDBRANCH  20  21
ENDBRANCH  18  20
ENDBRANCH   6  18
ENDBRANCH   1   5
BRANCH   2  23
HETATM   23  C   UNL     1      -7.986   4.746 -30.859  1.00  0.00     0.337 C 
BRANCH  23  24
HETATM   24  N   UNL     1      -6.781   4.589 -31.782  1.00  0.00    -0.060 N 
HETATM   25  H   UNL     1      -7.026   3.790 -32.393  1.00  0.00     0.280 HD
HETATM   26  C   UNL     1      -6.604   5.776 -32.729  1.00  0.00     0.255 C 
HETATM   27  C   UNL     1      -5.469   5.494 -33.734  1.00  0.00     0.150 C 
HETATM   28  N   UNL     1      -4.230   5.058 -33.069  1.00  0.00    -0.377 N 
HETATM   29  C   UNL     1      -4.362   3.974 -32.075  1.00  0.00     0.150 C 
HETATM   30  C   UNL     1      -5.488   4.268 -31.061  1.00  0.00     0.255 C 
BRANCH  28  31
HETATM   31  C   UNL     1      -3.178   5.956 -32.881  1.00  0.00     0.037 A 
HETATM   32  C   UNL     1      -2.038   5.925 -33.719  1.00  0.00    -0.035 A 
HETATM   33  C   UNL     1      -1.920   4.984 -34.892  1.00  0.00     0.050 C 
HETATM   34  C   UNL     1      -0.961   6.804 -33.487  1.00  0.00     0.011 A 
HETATM   35  C   UNL     1      -1.015   7.744 -32.462  1.00  0.00     0.024 A 
HETATM   36  C   UNL     1      -2.146   7.808 -31.663  1.00  0.00     0.036 A 
HETATM   37 CL   UNL     1      -2.237   8.967 -30.395  1.00  0.00    -0.084 Cl
HETATM   38  C   UNL     1      -3.215   6.931 -31.870  1.00  0.00     0.053 A 
ENDBRANCH  28  31
ENDBRANCH  23  24
ENDBRANCH   2  23
TORSDOF 7
ENDMDL
MODEL 6
REMARK VINA RESULT:      -8.8      4.635      8.833
REMARK  7 active torsions:
REMARK  status: ('A' for Active; 'I' for Inactive)
REMARK    1  A    between atoms: C_2  and  O_3 
REMARK    2  A    between atoms: O_3  and  C_4 
REMARK    3  A    between atoms: C_4  and  C_5 
REMARK    4  A    between atoms: C_10  and  N_11 
REMARK       I    between atoms: N_11  and  C_12 
REMARK    5  A    between atoms: C_12  and  C_13 
REMARK    6  A    between atoms: C_13  and  N_14 
REMARK    7  A    between atoms: N_18  and  C_19 
ROOT
HETATM    1  N   UNL     1      -3.893   6.566 -31.044  1.00  0.00    -0.323 N 
HETATM    2  C   UNL     1      -4.959   5.889 -30.506  1.00  0.00     0.248 C 
HETATM    3  O   UNL     1      -4.951   5.084 -29.576  1.00  0.00    -0.271 OA
HETATM    4  H   UNL     1      -3.969   6.936 -31.993  1.00  0.00     0.169 HD
ENDROOT
BRANCH   1   5
HETATM    5  C   UNL     1      -2.603   6.614 -30.521  1.00  0.00     0.080 A 
HETATM    6  C   UNL     1      -1.637   5.707 -30.938  1.00  0.00     0.137 A 
HETATM    7  N   UNL     1      -0.489   5.978 -30.235  1.00  0.00    -0.349 N 
HETATM    8  H   UNL     1       0.373   5.456 -30.328  1.00  0.00     0.166 HD
HETATM    9  C   UNL     1      -0.651   7.086 -29.441  1.00  0.00     0.048 A 
HETATM   10  C   UNL     1      -1.979   7.522 -29.599  1.00  0.00     0.023 A 
HETATM   11  C   UNL     1       0.291   7.728 -28.619  1.00  0.00     0.070 A 
HETATM   12  C   UNL     1      -2.373   8.696 -28.914  1.00  0.00     0.055 A 
HETATM   13  C   UNL     1      -1.436   9.328 -28.115  1.00  0.00     0.106 A 
HETATM   14  C   UNL     1      -0.159   8.859 -27.970  1.00  0.00     0.107 A 
HETATM   15  O   UNL     1      -1.657  10.469 -27.404  1.00  0.00    -0.323 OA
HETATM   16  O   UNL     1       0.592   9.641 -27.148  1.00  0.00    -0.323 OA
HETATM   17  C   UNL     1      -0.363  10.661 -26.792  1.00  0.00     0.352 A 
BRANCH   6  18
HETATM   18  C   UNL     1      -1.763   4.648 -31.909  1.00  0.00     0.312 C 
HETATM   19  O   UNL     1      -2.437   3.640 -31.733  1.00  0.00    -0.258 OA
BRANCH  18  20
HETATM   20  O   UNL     1      -1.043   4.954 -33.020  1.00  0.00    -0.317 OA
BRANCH  20  21
HETATM   21  C   UNL     1      -1.605   5.936 -33.905  1.00  0.00     0.175 C 
HETATM   22  C   UNL     1      -2.430   5.228 -34.962  1.00  0.00     0.034 C 
ENDBRANCH  20  21
ENDBRANCH  18  20
ENDBRANCH   6  18
ENDBRANCH   1   5
BRANCH   2  23
HETATM   23  C   UNL     1      -6.303   6.198 -31.173  1.00  0.00     0.337 C 
BRANCH  23  24
HETATM   24  N   UNL     1      -6.654   5.098 -32.170  1.00  0.00    -0.060 N 
HETATM   25  H   UNL     1      -7.365   5.528 -32.789  1.00  0.00     0.280 HD
HETATM   26  C   UNL     1      -5.488   4.740 -33.090  1.00  0.00     0.255 C 
HETATM   27  C   UNL     1      -5.945   3.737 -34.169  1.00  0.00     0.150 C 
HETATM   28  N   UNL     1      -6.641   2.575 -33.592  1.00  0.00    -0.377 N 
HETATM   29  C   UNL     1      -7.718   2.866 -32.625  1.00  0.00     0.150 C 
HETATM   30  C   UNL     1      -7.252   3.858 -31.537  1.00  0.00     0.255 C 
BRANCH  28  31
HETATM   31  C   UNL     1      -5.974   1.359 -33.440  1.00  0.00     0.037 A 
HETATM   32  C   UNL     1      -6.305   0.244 -34.247  1.00  0.00    -0.035 A 
HETATM   33  C   UNL     1      -7.331   0.318 -35.351  1.00  0.00     0.050 C 
HETATM   34  C   UNL     1      -5.659  -0.993 -34.050  1.00  0.00     0.011 A 
HETATM   35  C   UNL     1      -4.658  -1.131 -33.092  1.00  0.00     0.024 A 
HETATM   36  C   UNL     1      -4.299  -0.032 -32.327  1.00  0.00     0.036 A 
HETATM   37 CL   UNL     1      -3.060  -0.177 -31.143  1.00  0.00    -0.084 Cl
HETATM   38  C   UNL     1      -4.944   1.197 -32.499  1.00  0.00     0.053 A 
ENDBRANCH  28  31
ENDBRANCH  23  24
ENDBRANCH   2  23
TORSDOF 7
ENDMDL
MODEL 7
REMARK VINA RESULT:      -8.7      3.627      8.546
REMARK  7 active torsions:
REMARK  status: ('A' for Active; 'I' for Inactive)
REMARK    1  A    between atoms: C_2  and  O_3 
REMARK    2  A    between atoms: O_3  and  C_4 
REMARK    3  A    between atoms: C_4  and  C_5 
REMARK    4  A    between atoms: C_10  and  N_11 
REMARK       I    between atoms: N_11  and  C_12 
REMARK    5  A    between atoms: C_12  and  C_13 
REMARK    6  A    between atoms: C_13  and  N_14 
REMARK    7  A    between atoms: N_18  and  C_19 
ROOT
HETATM    1  N   UNL     1      -7.596   3.392 -32.439  1.00  0.00    -0.323 N 
HETATM    2  C   UNL     1      -7.471   3.342 -31.074  1.00  0.00     0.248 C 
HETATM    3  O   UNL     1      -7.714   2.395 -30.327  1.00  0.00    -0.271 OA
HETATM    4  H   UNL     1      -7.683   4.302 -32.896  1.00  0.00     0.169 HD
ENDROOT
BRANCH   1   5
HETATM    5  C   UNL     1      -7.854   2.312 -33.281  1.00  0.00     0.080 A 
HETATM    6  C   UNL     1      -8.971   2.309 -34.105  1.00  0.00     0.137 A 
HETATM    7  N   UNL     1      -8.977   1.116 -34.786  1.00  0.00    -0.349 N 
HETATM    8  H   UNL     1      -9.692   0.840 -35.446  1.00  0.00     0.166 HD
HETATM    9  C   UNL     1      -7.852   0.384 -34.497  1.00  0.00     0.048 A 
HETATM   10  C   UNL     1      -7.112   1.111 -33.549  1.00  0.00     0.023 A 
HETATM   11  C   UNL     1      -7.447  -0.854 -35.025  1.00  0.00     0.070 A 
HETATM   12  C   UNL     1      -5.869   0.577 -33.132  1.00  0.00     0.055 A 
HETATM   13  C   UNL     1      -5.471  -0.637 -33.665  1.00  0.00     0.106 A 
HETATM   14  C   UNL     1      -6.232  -1.325 -34.571  1.00  0.00     0.107 A 
HETATM   15  O   UNL     1      -4.302  -1.272 -33.376  1.00  0.00    -0.323 OA
HETATM   16  O   UNL     1      -5.644  -2.486 -34.968  1.00  0.00    -0.323 OA
HETATM   17  C   UNL     1      -4.420  -2.447 -34.206  1.00  0.00     0.352 A 
BRANCH   6  18
HETATM   18  C   UNL     1      -9.981   3.330 -34.249  1.00  0.00     0.312 C 
HETATM   19  O   UNL     1      -9.854   4.474 -33.830  1.00  0.00    -0.258 OA
BRANCH  18  20
HETATM   20  O   UNL     1     -11.052   2.827 -34.917  1.00  0.00    -0.317 OA
BRANCH  20  21
HETATM   21  C   UNL     1     -12.348   3.120 -34.373  1.00  0.00     0.175 C 
HETATM   22  C   UNL     1     -12.785   1.963 -33.495  1.00  0.00     0.034 C 
ENDBRANCH  20  21
ENDBRANCH  18  20
ENDBRANCH   6  18
ENDBRANCH   1   5
BRANCH   2  23
HETATM   23  C   UNL     1      -6.968   4.642 -30.439  1.00  0.00     0.337 C 
BRANCH  23  24
HETATM   24  N   UNL     1      -5.810   5.208 -31.257  1.00  0.00    -0.060 N 
HETATM   25  H   UNL     1      -6.193   5.298 -32.216  1.00  0.00     0.280 HD
HETATM   26  C   UNL     1      -5.432   6.629 -30.843  1.00  0.00     0.255 C 
HETATM   27  C   UNL     1      -4.366   7.200 -31.799  1.00  0.00     0.150 C 
HETATM   28  N   UNL     1      -3.220   6.291 -31.964  1.00  0.00    -0.377 N 
HETATM   29  C   UNL     1      -3.536   4.883 -32.275  1.00  0.00     0.150 C 
HETATM   30  C   UNL     1      -4.591   4.309 -31.306  1.00  0.00     0.255 C 
BRANCH  28  31
HETATM   31  C   UNL     1      -2.028   6.529 -31.279  1.00  0.00     0.037 A 
HETATM   32  C   UNL     1      -0.822   6.766 -31.981  1.00  0.00    -0.035 A 
HETATM   33  C   UNL     1      -0.763   6.847 -33.486  1.00  0.00     0.050 C 
HETATM   34  C   UNL     1       0.384   6.956 -31.277  1.00  0.00     0.011 A 
HETATM   35  C   UNL     1       0.406   6.957 -29.886  1.00  0.00     0.024 A 
HETATM   36  C   UNL     1      -0.778   6.767 -29.191  1.00  0.00     0.036 A 
HETATM   37 CL   UNL     1      -0.776   6.772 -27.471  1.00  0.00    -0.084 Cl
HETATM   38  C   UNL     1      -1.980   6.559 -29.875  1.00  0.00     0.053 A 
ENDBRANCH  28  31
ENDBRANCH  23  24
ENDBRANCH   2  23
TORSDOF 7
ENDMDL
MODEL 8
REMARK VINA RESULT:      -8.5      4.509      8.583
REMARK  7 active torsions:
REMARK  status: ('A' for Active; 'I' for Inactive)
REMARK    1  A    between atoms: C_2  and  O_3 
REMARK    2  A    between atoms: O_3  and  C_4 
REMARK    3  A    between atoms: C_4  and  C_5 
REMARK    4  A    between atoms: C_10  and  N_11 
REMARK       I    between atoms: N_11  and  C_12 
REMARK    5  A    between atoms: C_12  and  C_13 
REMARK    6  A    between atoms: C_13  and  N_14 
REMARK    7  A    between atoms: N_18  and  C_19 
ROOT
HETATM    1  N   UNL     1      -3.333   6.349 -29.900  1.00  0.00    -0.323 N 
HETATM    2  C   UNL     1      -4.196   7.129 -30.627  1.00  0.00     0.248 C 
HETATM    3  O   UNL     1      -3.986   8.242 -31.107  1.00  0.00    -0.271 OA
HETATM    4  H   UNL     1      -3.715   5.621 -29.292  1.00  0.00     0.169 HD
ENDROOT
BRANCH   1   5
HETATM    5  C   UNL     1      -1.973   6.583 -29.713  1.00  0.00     0.080 A 
HETATM    6  C   UNL     1      -1.031   5.955 -30.517  1.00  0.00     0.137 A 
HETATM    7  N   UNL     1       0.210   6.351 -30.082  1.00  0.00    -0.349 N 
HETATM    8  H   UNL     1       1.083   6.031 -30.481  1.00  0.00     0.166 HD
HETATM    9  C   UNL     1       0.102   7.283 -29.080  1.00  0.00     0.048 A 
HETATM   10  C   UNL     1      -1.268   7.460 -28.820  1.00  0.00     0.023 A 
HETATM   11  C   UNL     1       1.122   7.980 -28.410  1.00  0.00     0.070 A 
HETATM   12  C   UNL     1      -1.637   8.424 -27.851  1.00  0.00     0.055 A 
HETATM   13  C   UNL     1      -0.626   9.114 -27.205  1.00  0.00     0.106 A 
HETATM   14  C   UNL     1       0.698   8.897 -27.471  1.00  0.00     0.107 A 
HETATM   15  O   UNL     1      -0.818  10.078 -26.261  1.00  0.00    -0.323 OA
HETATM   16  O   UNL     1       1.515   9.692 -26.728  1.00  0.00    -0.323 OA
HETATM   17  C   UNL     1       0.548  10.439 -25.962  1.00  0.00     0.352 A 
BRANCH   6  18
HETATM   18  C   UNL     1      -1.253   5.037 -31.608  1.00  0.00     0.312 C 
HETATM   19  O   UNL     1      -1.867   3.983 -31.495  1.00  0.00    -0.258 OA
BRANCH  18  20
HETATM   20  O   UNL     1      -0.697   5.531 -32.745  1.00  0.00    -0.317 OA
BRANCH  20  21
HETATM   21  C   UNL     1      -1.474   5.416 -33.948  1.00  0.00     0.175 C 
HETATM   22  C   UNL     1      -2.241   6.706 -34.162  1.00  0.00     0.034 C 
ENDBRANCH  20  21
ENDBRANCH  18  20
ENDBRANCH   6  18
ENDBRANCH   1   5
BRANCH   2  23
HETATM   23  C   UNL     1      -5.580   6.508 -30.843  1.00  0.00     0.337 C 
BRANCH  23  24
HETATM   24  N   UNL     1      -5.446   5.003 -31.060  1.00  0.00    -0.060 N 
HETATM   25  H   UNL     1      -4.479   4.784 -30.762  1.00  0.00     0.280 HD
HETATM   26  C   UNL     1      -6.344   4.189 -30.129  1.00  0.00     0.255 C 
HETATM   27  C   UNL     1      -6.056   2.683 -30.288  1.00  0.00     0.150 C 
HETATM   28  N   UNL     1      -6.093   2.253 -31.696  1.00  0.00    -0.377 N 
HETATM   29  C   UNL     1      -5.313   3.063 -32.653  1.00  0.00     0.150 C 
HETATM   30  C   UNL     1      -5.617   4.569 -32.502  1.00  0.00     0.255 C 
BRANCH  28  31
HETATM   31  C   UNL     1      -7.214   1.593 -32.201  1.00  0.00     0.037 A 
HETATM   32  C   UNL     1      -7.153   0.223 -32.553  1.00  0.00    -0.035 A 
HETATM   33  C   UNL     1      -5.915  -0.613 -32.341  1.00  0.00     0.050 C 
HETATM   34  C   UNL     1      -8.278  -0.419 -33.109  1.00  0.00     0.011 A 
HETATM   35  C   UNL     1      -9.477   0.265 -33.282  1.00  0.00     0.024 A 
HETATM   36  C   UNL     1      -9.557   1.596 -32.901  1.00  0.00     0.036 A 
HETATM   37 CL   UNL     1     -11.031   2.459 -33.099  1.00  0.00    -0.084 Cl
HETATM   38  C   UNL     1      -8.444   2.251 -32.365  1.00  0.00     0.053 A 
ENDBRANCH  28  31
ENDBRANCH  23  24
ENDBRANCH   2  23
TORSDOF 7
ENDMDL
MODEL 9
REMARK VINA RESULT:      -8.4      4.161      8.810
REMARK  7 active torsions:
REMARK  status: ('A' for Active; 'I' for Inactive)
REMARK    1  A    between atoms: C_2  and  O_3 
REMARK    2  A    between atoms: O_3  and  C_4 
REMARK    3  A    between atoms: C_4  and  C_5 
REMARK    4  A    between atoms: C_10  and  N_11 
REMARK       I    between atoms: N_11  and  C_12 
REMARK    5  A    between atoms: C_12  and  C_13 
REMARK    6  A    between atoms: C_13  and  N_14 
REMARK    7  A    between atoms: N_18  and  C_19 
ROOT
HETATM    1  N   UNL     1      -6.042   2.705 -33.761  1.00  0.00    -0.323 N 
HETATM    2  C   UNL     1      -6.175   4.069 -33.697  1.00  0.00     0.248 C 
HETATM    3  O   UNL     1      -7.170   4.717 -33.377  1.00  0.00    -0.271 OA
HETATM    4  H   UNL     1      -5.301   2.305 -34.341  1.00  0.00     0.169 HD
ENDROOT
BRANCH   1   5
HETATM    5  C   UNL     1      -6.961   1.767 -33.296  1.00  0.00     0.080 A 
HETATM    6  C   UNL     1      -6.581   0.806 -32.369  1.00  0.00     0.137 A 
HETATM    7  N   UNL     1      -7.677   0.013 -32.127  1.00  0.00    -0.349 N 
HETATM    8  H   UNL     1      -7.679  -0.781 -31.500  1.00  0.00     0.166 HD
HETATM    9  C   UNL     1      -8.778   0.482 -32.800  1.00  0.00     0.048 A 
HETATM   10  C   UNL     1      -8.365   1.597 -33.550  1.00  0.00     0.023 A 
HETATM   11  C   UNL     1     -10.098   0.001 -32.775  1.00  0.00     0.070 A 
HETATM   12  C   UNL     1      -9.348   2.293 -34.294  1.00  0.00     0.055 A 
HETATM   13  C   UNL     1     -10.648   1.819 -34.255  1.00  0.00     0.106 A 
HETATM   14  C   UNL     1     -11.006   0.716 -33.529  1.00  0.00     0.107 A 
HETATM   15  O   UNL     1     -11.705   2.383 -34.903  1.00  0.00    -0.323 OA
HETATM   16  O   UNL     1     -12.334   0.438 -33.626  1.00  0.00    -0.323 OA
HETATM   17  C   UNL     1     -12.773   1.498 -34.499  1.00  0.00     0.352 A 
BRANCH   6  18
HETATM   18  C   UNL     1      -5.291   0.616 -31.752  1.00  0.00     0.312 C 
HETATM   19  O   UNL     1      -4.546   1.537 -31.438  1.00  0.00    -0.258 OA
BRANCH  18  20
HETATM   20  O   UNL     1      -5.057  -0.711 -31.573  1.00  0.00    -0.317 OA
BRANCH  20  21
HETATM   21  C   UNL     1      -3.891  -1.253 -32.210  1.00  0.00     0.175 C 
HETATM   22  C   UNL     1      -4.319  -2.021 -33.446  1.00  0.00     0.034 C 
ENDBRANCH  20  21
ENDBRANCH  18  20
ENDBRANCH   6  18
ENDBRANCH   1   5
BRANCH   2  23
HETATM   23  C   UNL     1      -4.911   4.845 -34.082  1.00  0.00     0.337 C 
BRANCH  23  24
HETATM   24  N   UNL     1      -4.514   5.787 -32.949  1.00  0.00    -0.060 N 
HETATM   25  H   UNL     1      -5.289   6.472 -32.900  1.00  0.00     0.280 HD
HETATM   26  C   UNL     1      -4.502   5.099 -31.584  1.00  0.00     0.255 C 
HETATM   27  C   UNL     1      -4.244   6.130 -30.467  1.00  0.00     0.150 C 
HETATM   28  N   UNL     1      -3.060   6.962 -30.738  1.00  0.00    -0.377 N 
HETATM   29  C   UNL     1      -2.979   7.576 -32.078  1.00  0.00     0.150 C 
HETATM   30  C   UNL     1      -3.221   6.538 -33.195  1.00  0.00     0.255 C 
BRANCH  28  31
HETATM   31  C   UNL     1      -1.849   6.694 -30.097  1.00  0.00     0.037 A 
HETATM   32  C   UNL     1      -1.550   7.270 -28.839  1.00  0.00    -0.035 A 
HETATM   33  C   UNL     1      -2.533   8.137 -28.091  1.00  0.00     0.050 C 
HETATM   34  C   UNL     1      -0.304   7.031 -28.226  1.00  0.00     0.011 A 
HETATM   35  C   UNL     1       0.636   6.195 -28.822  1.00  0.00     0.024 A 
HETATM   36  C   UNL     1       0.334   5.594 -30.034  1.00  0.00     0.036 A 
HETATM   37 CL   UNL     1       1.477   4.551 -30.784  1.00  0.00    -0.084 Cl
HETATM   38  C   UNL     1      -0.891   5.836 -30.663  1.00  0.00     0.053 A 
ENDBRANCH  28  31
ENDBRANCH  23  24
ENDBRANCH   2  23
TORSDOF 7
ENDMDL
MODEL 10
REMARK VINA RESULT:      -8.3      4.224      9.296
REMARK  7 active torsions:
REMARK  status: ('A' for Active; 'I' for Inactive)
REMARK    1  A    between atoms: C_2  and  O_3 
REMARK    2  A    between atoms: O_3  and  C_4 
REMARK    3  A    between atoms: C_4  and  C_5 
REMARK    4  A    between atoms: C_10  and  N_11 
REMARK       I    between atoms: N_11  and  C_12 
REMARK    5  A    between atoms: C_12  and  C_13 
REMARK    6  A    between atoms: C_13  and  N_14 
REMARK    7  A    between atoms: N_18  and  C_19 
ROOT
HETATM    1  N   UNL     1      -5.500   1.458 -32.310  1.00  0.00    -0.323 N 
HETATM    2  C   UNL     1      -4.859   2.630 -32.622  1.00  0.00     0.248 C 
HETATM    3  O   UNL     1      -5.121   3.414 -33.533  1.00  0.00    -0.271 OA
HETATM    4  H   UNL     1      -5.002   0.751 -31.764  1.00  0.00     0.169 HD
ENDROOT
BRANCH   1   5
HETATM    5  C   UNL     1      -6.700   1.007 -32.853  1.00  0.00     0.080 A 
HETATM    6  C   UNL     1      -6.765  -0.217 -33.507  1.00  0.00     0.137 A 
HETATM    7  N   UNL     1      -8.053  -0.374 -33.957  1.00  0.00    -0.349 N 
HETATM    8  H   UNL     1      -8.378  -1.175 -34.484  1.00  0.00     0.166 HD
HETATM    9  C   UNL     1      -8.847   0.665 -33.541  1.00  0.00     0.048 A 
HETATM   10  C   UNL     1      -8.026   1.560 -32.833  1.00  0.00     0.023 A 
HETATM   11  C   UNL     1     -10.226   0.852 -33.732  1.00  0.00     0.070 A 
HETATM   12  C   UNL     1      -8.637   2.698 -32.252  1.00  0.00     0.055 A 
HETATM   13  C   UNL     1      -9.998   2.869 -32.437  1.00  0.00     0.106 A 
HETATM   14  C   UNL     1     -10.760   1.984 -33.152  1.00  0.00     0.107 A 
HETATM   15  O   UNL     1     -10.732   3.900 -31.933  1.00  0.00    -0.323 OA
HETATM   16  O   UNL     1     -12.071   2.344 -33.195  1.00  0.00    -0.323 OA
HETATM   17  C   UNL     1     -12.048   3.560 -32.420  1.00  0.00     0.352 A 
BRANCH   6  18
HETATM   18  C   UNL     1      -5.708  -1.176 -33.718  1.00  0.00     0.312 C 
HETATM   19  O   UNL     1      -4.740  -1.295 -32.976  1.00  0.00    -0.258 OA
BRANCH  18  20
HETATM   20  O   UNL     1      -5.967  -1.908 -34.833  1.00  0.00    -0.317 OA
BRANCH  20  21
HETATM   21  C   UNL     1      -5.471  -3.255 -34.851  1.00  0.00     0.175 C 
HETATM   22  C   UNL     1      -6.638  -4.205 -35.045  1.00  0.00     0.034 C 
ENDBRANCH  20  21
ENDBRANCH  18  20
ENDBRANCH   6  18
ENDBRANCH   1   5
BRANCH   2  23
HETATM   23  C   UNL     1      -3.678   2.967 -31.707  1.00  0.00     0.337 C 
BRANCH  23  24
HETATM   24  N   UNL     1      -3.417   4.471 -31.727  1.00  0.00    -0.060 N 
HETATM   25  H   UNL     1      -3.765   4.781 -32.651  1.00  0.00     0.280 HD
HETATM   26  C   UNL     1      -4.264   5.231 -30.706  1.00  0.00     0.255 C 
HETATM   27  C   UNL     1      -4.070   6.751 -30.876  1.00  0.00     0.150 C 
HETATM   28  N   UNL     1      -2.649   7.135 -30.892  1.00  0.00    -0.377 N 
HETATM   29  C   UNL     1      -1.769   6.367 -31.795  1.00  0.00     0.150 C 
HETATM   30  C   UNL     1      -1.954   4.846 -31.610  1.00  0.00     0.255 C 
BRANCH  28  31
HETATM   31  C   UNL     1      -2.055   7.681 -29.753  1.00  0.00     0.037 A 
HETATM   32  C   UNL     1      -1.970   9.083 -29.579  1.00  0.00    -0.035 A 
HETATM   33  C   UNL     1      -2.570  10.059 -30.561  1.00  0.00     0.050 C 
HETATM   34  C   UNL     1      -1.323   9.621 -28.449  1.00  0.00     0.011 A 
HETATM   35  C   UNL     1      -0.795   8.790 -27.465  1.00  0.00     0.024 A 
HETATM   36  C   UNL     1      -0.911   7.416 -27.608  1.00  0.00     0.036 A 
HETATM   37 CL   UNL     1      -0.273   6.371 -26.400  1.00  0.00    -0.084 Cl
HETATM   38  C   UNL     1      -1.534   6.867 -28.732  1.00  0.00     0.053 A 
ENDBRANCH  28  31
ENDBRANCH  23  24
ENDBRANCH   2  23
TORSDOF 7
ENDMDL
