MODEL 1
REMARK VINA RESULT:      -9.2      0.000      0.000
REMARK  5 active torsions:
REMARK  status: ('A' for Active; 'I' for Inactive)
REMARK    1  A    between atoms: O_2  and  C_3 
REMARK    2  A    between atoms: C_5  and  C_23 
REMARK    3  A    between atoms: C_11  and  C_14 
REMARK    4  A    between atoms: C_14  and  N_15 
REMARK    5  A    between atoms: C_14  and  C_16 
ROOT
HETATM    1  C   UNL     1      -6.213   0.242 -34.219  1.00  0.00     0.098 A 
HETATM    2  C   UNL     1      -6.073  -1.129 -34.490  1.00  0.00     0.051 A 
HETATM    3  C   UNL     1      -5.090  -1.899 -33.848  1.00  0.00    -0.019 A 
HETATM    4  C   UNL     1      -4.244  -1.279 -32.926  1.00  0.00     0.032 A 
HETATM    5  C   UNL     1      -4.392   0.085 -32.650  1.00  0.00     0.064 A 
HETATM    6  C   UNL     1      -3.487   0.752 -31.698  1.00  0.00     0.259 A 
HETATM    7  O   UNL     1      -2.589   0.150 -31.123  1.00  0.00    -0.267 OA
HETATM    8  N   UNL     1      -3.711   2.087 -31.511  1.00  0.00    -0.309 N 
HETATM    9  C   UNL     1      -4.705   2.785 -32.147  1.00  0.00     0.145 A 
HETATM   10  N   UNL     1      -5.517   2.241 -32.995  1.00  0.00    -0.229 NA
HETATM   11  C   UNL     1      -5.373   0.863 -33.275  1.00  0.00     0.108 A 
HETATM   12  H   UNL     1      -3.079   2.586 -30.900  1.00  0.00     0.170 HD
ENDROOT
BRANCH   9  13
HETATM   13  C   UNL     1      -4.797   4.281 -31.812  1.00  0.00     0.320 C 
BRANCH  13  14
HETATM   14  N   UNL     1      -5.666   4.927 -32.818  1.00  0.00     0.094 N 
HETATM   15  H   UNL     1      -6.629   4.850 -32.487  1.00  0.00     0.314 HD
HETATM   16  H   UNL     1      -5.630   4.360 -33.667  1.00  0.00     0.314 HD
ENDBRANCH  13  14
BRANCH  13  17
HETATM   17  C   UNL     1      -3.419   4.919 -31.729  1.00  0.00    -0.018 A 
HETATM   18  C   UNL     1      -3.135   5.796 -30.667  1.00  0.00     0.011 A 
HETATM   19  C   UNL     1      -1.876   6.389 -30.545  1.00  0.00     0.024 A 
HETATM   20  C   UNL     1      -0.884   6.108 -31.481  1.00  0.00     0.034 A 
HETATM   21 CL   UNL     1       0.666   6.840 -31.333  1.00  0.00    -0.084 Cl
HETATM   22  C   UNL     1      -1.138   5.234 -32.534  1.00  0.00     0.024 A 
HETATM   23  C   UNL     1      -2.398   4.641 -32.655  1.00  0.00     0.011 A 
ENDBRANCH  13  17
ENDBRANCH   9  13
BRANCH   1  24
HETATM   24  O   UNL     1      -7.157   1.047 -34.810  1.00  0.00    -0.354 OA
HETATM   25  C   UNL     1      -8.521   0.742 -34.550  1.00  0.00     0.210 C 
ENDBRANCH   1  24
BRANCH   3  26
HETATM   26  C   UNL     1      -4.957  -3.314 -34.153  1.00  0.00     0.010 A 
HETATM   27  C   UNL     1      -5.837  -4.209 -34.806  1.00  0.00     0.152 A 
HETATM   28  N   UNL     1      -5.352  -5.451 -34.885  1.00  0.00    -0.187 NA
HETATM   29  N   UNL     1      -4.155  -5.358 -34.283  1.00  0.00    -0.289 N 
HETATM   30  H   UNL     1      -3.584  -6.194 -34.217  1.00  0.00     0.188 HD
HETATM   31  C   UNL     1      -3.873  -4.103 -33.826  1.00  0.00     0.123 A 
ENDBRANCH   3  26
TORSDOF 5
ENDMDL
MODEL 2
REMARK VINA RESULT:      -9.0      1.552      3.056
REMARK  5 active torsions:
REMARK  status: ('A' for Active; 'I' for Inactive)
REMARK    1  A    between atoms: O_2  and  C_3 
REMARK    2  A    between atoms: C_5  and  C_23 
REMARK    3  A    between atoms: C_11  and  C_14 
REMARK    4  A    between atoms: C_14  and  N_15 
REMARK    5  A    between atoms: C_14  and  C_16 
ROOT
HETATM    1  C   UNL     1      -4.332   0.072 -33.013  1.00  0.00     0.098 A 
HETATM    2  C   UNL     1      -4.294  -1.286 -33.368  1.00  0.00     0.051 A 
HETATM    3  C   UNL     1      -5.348  -1.880 -34.081  1.00  0.00    -0.019 A 
HETATM    4  C   UNL     1      -6.447  -1.096 -34.437  1.00  0.00     0.032 A 
HETATM    5  C   UNL     1      -6.478   0.260 -34.092  1.00  0.00     0.064 A 
HETATM    6  C   UNL     1      -7.645   1.088 -34.441  1.00  0.00     0.259 A 
HETATM    7  O   UNL     1      -8.613   0.630 -35.036  1.00  0.00    -0.267 OA
HETATM    8  N   UNL     1      -7.578   2.395 -34.045  1.00  0.00    -0.309 N 
HETATM    9  C   UNL     1      -6.510   2.929 -33.373  1.00  0.00     0.145 A 
HETATM   10  N   UNL     1      -5.469   2.237 -33.040  1.00  0.00    -0.229 NA
HETATM   11  C   UNL     1      -5.432   0.867 -33.389  1.00  0.00     0.108 A 
HETATM   12  H   UNL     1      -8.383   2.980 -34.228  1.00  0.00     0.170 HD
ENDROOT
BRANCH   9  13
HETATM   13  C   UNL     1      -6.621   4.417 -33.008  1.00  0.00     0.320 C 
BRANCH  13  14
HETATM   14  N   UNL     1      -7.713   5.009 -33.809  1.00  0.00     0.094 N 
HETATM   15  H   UNL     1      -7.376   5.100 -34.769  1.00  0.00     0.314 HD
HETATM   16  H   UNL     1      -7.851   5.967 -33.484  1.00  0.00     0.314 HD
ENDBRANCH  13  14
BRANCH  13  17
HETATM   17  C   UNL     1      -5.295   5.137 -33.200  1.00  0.00    -0.018 A 
HETATM   18  C   UNL     1      -4.758   5.875 -32.129  1.00  0.00     0.011 A 
HETATM   19  C   UNL     1      -3.534   6.536 -32.259  1.00  0.00     0.024 A 
HETATM   20  C   UNL     1      -2.831   6.464 -33.457  1.00  0.00     0.034 A 
HETATM   21 CL   UNL     1      -1.325   7.281 -33.619  1.00  0.00    -0.084 Cl
HETATM   22  C   UNL     1      -3.337   5.730 -34.527  1.00  0.00     0.024 A 
HETATM   23  C   UNL     1      -4.561   5.069 -34.397  1.00  0.00     0.011 A 
ENDBRANCH  13  17
ENDBRANCH   9  13
BRANCH   1  24
HETATM   24  O   UNL     1      -3.332   0.712 -32.321  1.00  0.00    -0.354 OA
HETATM   25  C   UNL     1      -2.969   0.169 -31.058  1.00  0.00     0.210 C 
ENDBRANCH   1  24
BRANCH   3  26
HETATM   26  C   UNL     1      -5.291  -3.291 -34.426  1.00  0.00     0.010 A 
HETATM   27  C   UNL     1      -6.194  -4.107 -35.147  1.00  0.00     0.152 A 
HETATM   28  N   UNL     1      -5.787  -5.375 -35.245  1.00  0.00    -0.187 NA
HETATM   29  N   UNL     1      -4.616  -5.379 -34.587  1.00  0.00    -0.289 N 
HETATM   30  H   UNL     1      -4.102  -6.251 -34.523  1.00  0.00     0.188 HD
HETATM   31  C   UNL     1      -4.276  -4.159 -34.077  1.00  0.00     0.123 A 
ENDBRANCH   3  26
TORSDOF 5
ENDMDL
MODEL 3
REMARK VINA RESULT:      -8.5      2.448      3.283
REMARK  5 active torsions:
REMARK  status: ('A' for Active; 'I' for Inactive)
REMARK    1  A    between atoms: O_2  and  C_3 
REMARK    2  A    between atoms: C_5  and  C_23 
REMARK    3  A    between atoms: C_11  and  C_14 
REMARK    4  A    between atoms: C_14  and  N_15 
REMARK    5  A    between atoms: C_14  and  C_16 
ROOT
HETATM    1  C   UNL     1      -6.422   0.666 -34.167  1.00  0.00     0.098 A 
HETATM    2  C   UNL     1      -6.544  -0.688 -34.521  1.00  0.00     0.051 A 
HETATM    3  C   UNL     1      -5.642  -1.649 -34.038  1.00  0.00    -0.019 A 
HETATM    4  C   UNL     1      -4.610  -1.238 -33.192  1.00  0.00     0.032 A 
HETATM    5  C   UNL     1      -4.496   0.109 -32.831  1.00  0.00     0.064 A 
HETATM    6  C   UNL     1      -3.395   0.554 -31.959  1.00  0.00     0.259 A 
HETATM    7  O   UNL     1      -2.555  -0.224 -31.525  1.00  0.00    -0.267 OA
HETATM    8  N   UNL     1      -3.370   1.891 -31.680  1.00  0.00    -0.309 N 
HETATM    9  C   UNL     1      -4.295   2.782 -32.159  1.00  0.00     0.145 A 
HETATM   10  N   UNL     1      -5.273   2.437 -32.933  1.00  0.00    -0.229 NA
HETATM   11  C   UNL     1      -5.393   1.076 -33.298  1.00  0.00     0.108 A 
HETATM   12  H   UNL     1      -2.601   2.238 -31.123  1.00  0.00     0.170 HD
ENDROOT
BRANCH   9  13
HETATM   13  C   UNL     1      -4.097   4.247 -31.740  1.00  0.00     0.320 C 
BRANCH  13  14
HETATM   14  N   UNL     1      -2.868   4.332 -30.924  1.00  0.00     0.094 N 
HETATM   15  H   UNL     1      -2.121   3.869 -31.444  1.00  0.00     0.314 HD
HETATM   16  H   UNL     1      -3.009   3.758 -30.092  1.00  0.00     0.314 HD
ENDBRANCH  13  14
BRANCH  13  17
HETATM   17  C   UNL     1      -5.321   4.789 -31.018  1.00  0.00    -0.018 A 
HETATM   18  C   UNL     1      -6.143   5.723 -31.674  1.00  0.00     0.011 A 
HETATM   19  C   UNL     1      -7.286   6.232 -31.052  1.00  0.00     0.024 A 
HETATM   20  C   UNL     1      -7.623   5.810 -29.770  1.00  0.00     0.034 A 
HETATM   21 CL   UNL     1      -9.029   6.438 -29.001  1.00  0.00    -0.084 Cl
HETATM   22  C   UNL     1      -6.831   4.878 -29.105  1.00  0.00     0.024 A 
HETATM   23  C   UNL     1      -5.688   4.369 -29.727  1.00  0.00     0.011 A 
ENDBRANCH  13  17
ENDBRANCH   9  13
BRANCH   1  24
HETATM   24  O   UNL     1      -7.275   1.652 -34.601  1.00  0.00    -0.354 OA
HETATM   25  C   UNL     1      -8.641   1.536 -34.225  1.00  0.00     0.210 C 
ENDBRANCH   1  24
BRANCH   3  26
HETATM   26  C   UNL     1      -5.782  -3.042 -34.428  1.00  0.00     0.010 A 
HETATM   27  C   UNL     1      -4.838  -4.097 -34.459  1.00  0.00     0.152 A 
HETATM   28  N   UNL     1      -5.357  -5.246 -34.896  1.00  0.00    -0.187 NA
HETATM   29  N   UNL     1      -6.639  -4.936 -35.148  1.00  0.00    -0.289 N 
HETATM   30  H   UNL     1      -7.251  -5.664 -35.500  1.00  0.00     0.188 HD
HETATM   31  C   UNL     1      -6.942  -3.630 -34.888  1.00  0.00     0.123 A 
ENDBRANCH   3  26
TORSDOF 5
ENDMDL
MODEL 4
REMARK VINA RESULT:      -8.4      2.375      3.824
REMARK  5 active torsions:
REMARK  status: ('A' for Active; 'I' for Inactive)
REMARK    1  A    between atoms: O_2  and  C_3 
REMARK    2  A    between atoms: C_5  and  C_23 
REMARK    3  A    between atoms: C_11  and  C_14 
REMARK    4  A    between atoms: C_14  and  N_15 
REMARK    5  A    between atoms: C_14  and  C_16 
ROOT
HETATM    1  C   UNL     1      -4.510   0.200 -32.970  1.00  0.00     0.098 A 
HETATM    2  C   UNL     1      -4.434  -1.155 -33.330  1.00  0.00     0.051 A 
HETATM    3  C   UNL     1      -5.478  -1.780 -34.029  1.00  0.00    -0.019 A 
HETATM    4  C   UNL     1      -6.607  -1.029 -34.367  1.00  0.00     0.032 A 
HETATM    5  C   UNL     1      -6.676   0.323 -34.017  1.00  0.00     0.064 A 
HETATM    6  C   UNL     1      -7.873   1.115 -34.347  1.00  0.00     0.259 A 
HETATM    7  O   UNL     1      -8.834   0.629 -34.929  1.00  0.00    -0.267 OA
HETATM    8  N   UNL     1      -7.841   2.422 -33.949  1.00  0.00    -0.309 N 
HETATM    9  C   UNL     1      -6.781   2.988 -33.291  1.00  0.00     0.145 A 
HETATM   10  N   UNL     1      -5.714   2.328 -32.975  1.00  0.00    -0.229 NA
HETATM   11  C   UNL     1      -5.639   0.962 -33.328  1.00  0.00     0.108 A 
HETATM   12  H   UNL     1      -8.667   2.983 -34.118  1.00  0.00     0.170 HD
ENDROOT
BRANCH   9  13
HETATM   13  C   UNL     1      -6.933   4.471 -32.920  1.00  0.00     0.320 C 
BRANCH  13  14
HETATM   14  N   UNL     1      -6.117   5.268 -33.859  1.00  0.00     0.094 N 
HETATM   15  H   UNL     1      -6.711   6.012 -34.228  1.00  0.00     0.314 HD
HETATM   16  H   UNL     1      -5.904   4.675 -34.663  1.00  0.00     0.314 HD
ENDBRANCH  13  14
BRANCH  13  17
HETATM   17  C   UNL     1      -6.568   4.722 -31.465  1.00  0.00    -0.018 A 
HETATM   18  C   UNL     1      -5.392   5.434 -31.170  1.00  0.00     0.011 A 
HETATM   19  C   UNL     1      -5.029   5.701 -29.847  1.00  0.00     0.024 A 
HETATM   20  C   UNL     1      -5.841   5.262 -28.804  1.00  0.00     0.034 A 
HETATM   21 CL   UNL     1      -5.394   5.587 -27.175  1.00  0.00    -0.084 Cl
HETATM   22  C   UNL     1      -7.015   4.566 -29.073  1.00  0.00     0.024 A 
HETATM   23  C   UNL     1      -7.378   4.299 -30.396  1.00  0.00     0.011 A 
ENDBRANCH  13  17
ENDBRANCH   9  13
BRANCH   1  24
HETATM   24  O   UNL     1      -3.520   0.870 -32.291  1.00  0.00    -0.354 OA
HETATM   25  C   UNL     1      -2.989   0.238 -31.134  1.00  0.00     0.210 C 
ENDBRANCH   1  24
BRANCH   3  26
HETATM   26  C   UNL     1      -5.382  -3.187 -34.380  1.00  0.00     0.010 A 
HETATM   27  C   UNL     1      -6.274  -4.033 -35.081  1.00  0.00     0.152 A 
HETATM   28  N   UNL     1      -5.826  -5.286 -35.192  1.00  0.00    -0.187 NA
HETATM   29  N   UNL     1      -4.641  -5.251 -34.562  1.00  0.00    -0.289 N 
HETATM   30  H   UNL     1      -4.097  -6.105 -34.512  1.00  0.00     0.188 HD
HETATM   31  C   UNL     1      -4.331  -4.021 -34.057  1.00  0.00     0.123 A 
ENDBRANCH   3  26
TORSDOF 5
ENDMDL
MODEL 5
REMARK VINA RESULT:      -8.2     15.441     17.104
REMARK  5 active torsions:
REMARK  status: ('A' for Active; 'I' for Inactive)
REMARK    1  A    between atoms: O_2  and  C_3 
REMARK    2  A    between atoms: C_5  and  C_23 
REMARK    3  A    between atoms: C_11  and  C_14 
REMARK    4  A    between atoms: C_14  and  N_15 
REMARK    5  A    between atoms: C_14  and  C_16 
ROOT
HETATM    1  C   UNL     1      -7.202 -13.251 -37.540  1.00  0.00     0.098 A 
HETATM    2  C   UNL     1      -8.437 -13.524 -38.151  1.00  0.00     0.051 A 
HETATM    3  C   UNL     1      -8.544 -13.660 -39.544  1.00  0.00    -0.019 A 
HETATM    4  C   UNL     1      -7.394 -13.520 -40.324  1.00  0.00     0.032 A 
HETATM    5  C   UNL     1      -6.163 -13.259 -39.713  1.00  0.00     0.064 A 
HETATM    6  C   UNL     1      -4.950 -13.084 -40.531  1.00  0.00     0.259 A 
HETATM    7  O   UNL     1      -4.973 -13.160 -41.753  1.00  0.00    -0.267 OA
HETATM    8  N   UNL     1      -3.804 -12.820 -39.834  1.00  0.00    -0.309 N 
HETATM    9  C   UNL     1      -3.753 -12.724 -38.468  1.00  0.00     0.145 A 
HETATM   10  N   UNL     1      -4.794 -12.863 -37.712  1.00  0.00    -0.229 NA
HETATM   11  C   UNL     1      -6.040 -13.129 -38.326  1.00  0.00     0.108 A 
HETATM   12  H   UNL     1      -2.962 -12.649 -40.368  1.00  0.00     0.170 HD
ENDROOT
BRANCH   9  13
HETATM   13  C   UNL     1      -2.374 -12.416 -37.866  1.00  0.00     0.320 C 
BRANCH  13  14
HETATM   14  N   UNL     1      -1.747 -11.348 -38.672  1.00  0.00     0.094 N 
HETATM   15  H   UNL     1      -1.550 -11.735 -39.596  1.00  0.00     0.314 HD
HETATM   16  H   UNL     1      -0.830 -11.151 -38.266  1.00  0.00     0.314 HD
ENDBRANCH  13  14
BRANCH  13  17
HETATM   17  C   UNL     1      -1.514 -13.666 -37.777  1.00  0.00    -0.018 A 
HETATM   18  C   UNL     1      -0.402 -13.793 -38.629  1.00  0.00     0.011 A 
HETATM   19  C   UNL     1       0.424 -14.919 -38.566  1.00  0.00     0.024 A 
HETATM   20  C   UNL     1       0.151 -15.927 -37.647  1.00  0.00     0.034 A 
HETATM   21 CL   UNL     1       1.166 -17.315 -37.570  1.00  0.00    -0.084 Cl
HETATM   22  C   UNL     1      -0.936 -15.818 -36.785  1.00  0.00     0.024 A 
HETATM   23  C   UNL     1      -1.762 -14.693 -36.848  1.00  0.00     0.011 A 
ENDBRANCH  13  17
ENDBRANCH   9  13
BRANCH   1  24
HETATM   24  O   UNL     1      -7.032 -13.112 -36.183  1.00  0.00    -0.354 OA
HETATM   25  C   UNL     1      -7.005 -14.305 -35.410  1.00  0.00     0.210 C 
ENDBRANCH   1  24
BRANCH   3  26
HETATM   26  C   UNL     1      -9.835 -13.930 -40.154  1.00  0.00     0.010 A 
HETATM   27  C   UNL     1     -10.348 -15.102 -40.761  1.00  0.00     0.152 A 
HETATM   28  N   UNL     1     -11.592 -14.947 -41.221  1.00  0.00    -0.187 NA
HETATM   29  N   UNL     1     -11.885 -13.674 -40.910  1.00  0.00    -0.289 N 
HETATM   30  H   UNL     1     -12.798 -13.314 -41.165  1.00  0.00     0.188 HD
HETATM   31  C   UNL     1     -10.867 -13.023 -40.274  1.00  0.00     0.123 A 
ENDBRANCH   3  26
TORSDOF 5
ENDMDL
MODEL 6
REMARK VINA RESULT:      -8.1      3.661      5.639
REMARK  5 active torsions:
REMARK  status: ('A' for Active; 'I' for Inactive)
REMARK    1  A    between atoms: O_2  and  C_3 
REMARK    2  A    between atoms: C_5  and  C_23 
REMARK    3  A    between atoms: C_11  and  C_14 
REMARK    4  A    between atoms: C_14  and  N_15 
REMARK    5  A    between atoms: C_14  and  C_16 
ROOT
HETATM    1  C   UNL     1      -8.239   0.975 -33.481  1.00  0.00     0.098 A 
HETATM    2  C   UNL     1      -9.540   0.739 -33.953  1.00  0.00     0.051 A 
HETATM    3  C   UNL     1     -10.649   1.379 -33.378  1.00  0.00    -0.019 A 
HETATM    4  C   UNL     1     -10.440   2.265 -32.318  1.00  0.00     0.032 A 
HETATM    5  C   UNL     1      -9.142   2.507 -31.856  1.00  0.00     0.064 A 
HETATM    6  C   UNL     1      -8.915   3.420 -30.722  1.00  0.00     0.259 A 
HETATM    7  O   UNL     1      -9.837   3.991 -30.153  1.00  0.00    -0.267 OA
HETATM    8  N   UNL     1      -7.611   3.576 -30.344  1.00  0.00    -0.309 N 
HETATM    9  C   UNL     1      -6.563   2.943 -30.961  1.00  0.00     0.145 A 
HETATM   10  N   UNL     1      -6.717   2.129 -31.954  1.00  0.00    -0.229 NA
HETATM   11  C   UNL     1      -8.027   1.883 -32.426  1.00  0.00     0.108 A 
HETATM   12  H   UNL     1      -7.424   4.159 -29.540  1.00  0.00     0.170 HD
ENDROOT
BRANCH   9  13
HETATM   13  C   UNL     1      -5.169   3.240 -30.389  1.00  0.00     0.320 C 
BRANCH  13  14
HETATM   14  N   UNL     1      -5.338   3.933 -29.095  1.00  0.00     0.094 N 
HETATM   15  H   UNL     1      -4.926   3.341 -28.373  1.00  0.00     0.314 HD
HETATM   16  H   UNL     1      -6.337   3.955 -28.884  1.00  0.00     0.314 HD
ENDBRANCH  13  14
BRANCH  13  17
HETATM   17  C   UNL     1      -4.320   4.030 -31.373  1.00  0.00    -0.018 A 
HETATM   18  C   UNL     1      -3.153   3.443 -31.893  1.00  0.00     0.011 A 
HETATM   19  C   UNL     1      -2.355   4.129 -32.813  1.00  0.00     0.024 A 
HETATM   20  C   UNL     1      -2.718   5.407 -33.227  1.00  0.00     0.034 A 
HETATM   21 CL   UNL     1      -1.735   6.254 -34.358  1.00  0.00    -0.084 Cl
HETATM   22  C   UNL     1      -3.876   6.004 -32.735  1.00  0.00     0.024 A 
HETATM   23  C   UNL     1      -4.673   5.318 -31.815  1.00  0.00     0.011 A 
ENDBRANCH  13  17
ENDBRANCH   9  13
BRANCH   1  24
HETATM   24  O   UNL     1      -7.114   0.383 -34.005  1.00  0.00    -0.354 OA
HETATM   25  C   UNL     1      -7.118   0.110 -35.400  1.00  0.00     0.210 C 
ENDBRANCH   1  24
BRANCH   3  26
HETATM   26  C   UNL     1     -11.988   1.109 -33.876  1.00  0.00     0.010 A 
HETATM   27  C   UNL     1     -12.834   1.866 -34.721  1.00  0.00     0.152 A 
HETATM   28  N   UNL     1     -14.011   1.276 -34.942  1.00  0.00    -0.187 NA
HETATM   29  N   UNL     1     -13.926   0.135 -34.240  1.00  0.00    -0.289 N 
HETATM   30  H   UNL     1     -14.719  -0.498 -34.251  1.00  0.00     0.188 HD
HETATM   31  C   UNL     1     -12.738  -0.011 -33.583  1.00  0.00     0.123 A 
ENDBRANCH   3  26
TORSDOF 5
ENDMDL
MODEL 7
REMARK VINA RESULT:      -8.1      5.550      9.990
REMARK  5 active torsions:
REMARK  status: ('A' for Active; 'I' for Inactive)
REMARK    1  A    between atoms: O_2  and  C_3 
REMARK    2  A    between atoms: C_5  and  C_23 
REMARK    3  A    between atoms: C_11  and  C_14 
REMARK    4  A    between atoms: C_14  and  N_15 
REMARK    5  A    between atoms: C_14  and  C_16 
ROOT
HETATM    1  C   UNL     1      -1.550   8.377 -29.886  1.00  0.00     0.098 A 
HETATM    2  C   UNL     1      -0.909   8.710 -28.682  1.00  0.00     0.051 A 
HETATM    3  C   UNL     1       0.144   7.928 -28.179  1.00  0.00    -0.019 A 
HETATM    4  C   UNL     1       0.550   6.803 -28.900  1.00  0.00     0.032 A 
HETATM    5  C   UNL     1      -0.083   6.479 -30.105  1.00  0.00     0.064 A 
HETATM    6  C   UNL     1       0.323   5.279 -30.858  1.00  0.00     0.259 A 
HETATM    7  O   UNL     1       1.213   4.536 -30.465  1.00  0.00    -0.267 OA
HETATM    8  N   UNL     1      -0.368   5.050 -32.014  1.00  0.00    -0.309 N 
HETATM    9  C   UNL     1      -1.372   5.863 -32.471  1.00  0.00     0.145 A 
HETATM   10  N   UNL     1      -1.765   6.921 -31.839  1.00  0.00    -0.229 NA
HETATM   11  C   UNL     1      -1.127   7.254 -30.622  1.00  0.00     0.108 A 
HETATM   12  H   UNL     1      -0.147   4.209 -32.532  1.00  0.00     0.170 HD
ENDROOT
BRANCH   9  13
HETATM   13  C   UNL     1      -2.036   5.437 -33.789  1.00  0.00     0.320 C 
BRANCH  13  14
HETATM   14  N   UNL     1      -2.273   6.649 -34.600  1.00  0.00     0.094 N 
HETATM   15  H   UNL     1      -2.784   7.314 -34.017  1.00  0.00     0.314 HD
HETATM   16  H   UNL     1      -2.922   6.400 -35.348  1.00  0.00     0.314 HD
ENDBRANCH  13  14
BRANCH  13  17
HETATM   17  C   UNL     1      -3.306   4.639 -33.540  1.00  0.00    -0.018 A 
HETATM   18  C   UNL     1      -4.476   4.981 -34.242  1.00  0.00     0.011 A 
HETATM   19  C   UNL     1      -5.659   4.261 -34.055  1.00  0.00     0.024 A 
HETATM   20  C   UNL     1      -5.685   3.188 -33.169  1.00  0.00     0.034 A 
HETATM   21 CL   UNL     1      -7.142   2.303 -32.935  1.00  0.00    -0.084 Cl
HETATM   22  C   UNL     1      -4.536   2.824 -32.472  1.00  0.00     0.024 A 
HETATM   23  C   UNL     1      -3.353   3.544 -32.659  1.00  0.00     0.011 A 
ENDBRANCH  13  17
ENDBRANCH   9  13
BRANCH   1  24
HETATM   24  O   UNL     1      -2.581   9.104 -30.432  1.00  0.00    -0.354 OA
HETATM   25  C   UNL     1      -2.648  10.484 -30.095  1.00  0.00     0.210 C 
ENDBRANCH   1  24
BRANCH   3  26
HETATM   26  C   UNL     1       0.784   8.286 -26.925  1.00  0.00     0.010 A 
HETATM   27  C   UNL     1       0.557   9.370 -26.043  1.00  0.00     0.152 A 
HETATM   28  N   UNL     1       1.371   9.358 -24.984  1.00  0.00    -0.187 NA
HETATM   29  N   UNL     1       2.124   8.263 -25.180  1.00  0.00    -0.289 N 
HETATM   30  H   UNL     1       2.833   8.038 -24.491  1.00  0.00     0.188 HD
HETATM   31  C   UNL     1       1.814   7.590 -26.326  1.00  0.00     0.123 A 
ENDBRANCH   3  26
TORSDOF 5
ENDMDL
MODEL 8
REMARK VINA RESULT:      -8.0      3.711      8.425
REMARK  5 active torsions:
REMARK  status: ('A' for Active; 'I' for Inactive)
REMARK    1  A    between atoms: O_2  and  C_3 
REMARK    2  A    between atoms: C_5  and  C_23 
REMARK    3  A    between atoms: C_11  and  C_14 
REMARK    4  A    between atoms: C_14  and  N_15 
REMARK    5  A    between atoms: C_14  and  C_16 
ROOT
HETATM    1  C   UNL     1      -4.708   4.253 -32.112  1.00  0.00     0.098 A 
HETATM    2  C   UNL     1      -4.678   5.111 -31.001  1.00  0.00     0.051 A 
HETATM    3  C   UNL     1      -5.710   5.104 -30.049  1.00  0.00    -0.019 A 
HETATM    4  C   UNL     1      -6.779   4.223 -30.223  1.00  0.00     0.032 A 
HETATM    5  C   UNL     1      -6.803   3.360 -31.324  1.00  0.00     0.064 A 
HETATM    6  C   UNL     1      -7.940   2.446 -31.528  1.00  0.00     0.259 A 
HETATM    7  O   UNL     1      -8.888   2.406 -30.754  1.00  0.00    -0.267 OA
HETATM    8  N   UNL     1      -7.867   1.657 -32.641  1.00  0.00    -0.309 N 
HETATM    9  C   UNL     1      -6.820   1.687 -33.524  1.00  0.00     0.145 A 
HETATM   10  N   UNL     1      -5.805   2.479 -33.388  1.00  0.00    -0.229 NA
HETATM   11  C   UNL     1      -5.776   3.350 -32.275  1.00  0.00     0.108 A 
HETATM   12  H   UNL     1      -8.653   1.050 -32.836  1.00  0.00     0.170 HD
ENDROOT
BRANCH   9  13
HETATM   13  C   UNL     1      -6.920   0.729 -34.720  1.00  0.00     0.320 C 
BRANCH  13  14
HETATM   14  N   UNL     1      -8.351   0.506 -35.014  1.00  0.00     0.094 N 
HETATM   15  H   UNL     1      -8.833   0.381 -34.123  1.00  0.00     0.314 HD
HETATM   16  H   UNL     1      -8.433  -0.394 -35.490  1.00  0.00     0.314 HD
ENDBRANCH  13  14
BRANCH  13  17
HETATM   17  C   UNL     1      -6.165  -0.566 -34.462  1.00  0.00    -0.018 A 
HETATM   18  C   UNL     1      -6.664  -1.766 -35.000  1.00  0.00     0.011 A 
HETATM   19  C   UNL     1      -5.990  -2.974 -34.801  1.00  0.00     0.024 A 
HETATM   20  C   UNL     1      -4.808  -2.995 -34.066  1.00  0.00     0.034 A 
HETATM   21 CL   UNL     1      -3.979  -4.483 -33.817  1.00  0.00    -0.084 Cl
HETATM   22  C   UNL     1      -4.290  -1.818 -33.533  1.00  0.00     0.024 A 
HETATM   23  C   UNL     1      -4.964  -0.610 -33.733  1.00  0.00     0.011 A 
ENDBRANCH  13  17
ENDBRANCH   9  13
BRANCH   1  24
HETATM   24  O   UNL     1      -3.727   4.208 -33.073  1.00  0.00    -0.354 OA
HETATM   25  C   UNL     1      -2.379   4.189 -32.621  1.00  0.00     0.210 C 
ENDBRANCH   1  24
BRANCH   3  26
HETATM   26  C   UNL     1      -5.662   6.011 -28.914  1.00  0.00     0.010 A 
HETATM   27  C   UNL     1      -5.377   5.774 -27.548  1.00  0.00     0.152 A 
HETATM   28  N   UNL     1      -5.447   6.880 -26.803  1.00  0.00    -0.187 NA
HETATM   29  N   UNL     1      -5.775   7.834 -27.689  1.00  0.00    -0.289 N 
HETATM   30  H   UNL     1      -5.889   8.784 -27.353  1.00  0.00     0.188 HD
HETATM   31  C   UNL     1      -5.919   7.366 -28.963  1.00  0.00     0.123 A 
ENDBRANCH   3  26
TORSDOF 5
ENDMDL
MODEL 9
REMARK VINA RESULT:      -7.9      4.707      6.793
REMARK  5 active torsions:
REMARK  status: ('A' for Active; 'I' for Inactive)
REMARK    1  A    between atoms: O_2  and  C_3 
REMARK    2  A    between atoms: C_5  and  C_23 
REMARK    3  A    between atoms: C_11  and  C_14 
REMARK    4  A    between atoms: C_14  and  N_15 
REMARK    5  A    between atoms: C_14  and  C_16 
ROOT
HETATM    1  C   UNL     1      -6.427   1.560 -33.302  1.00  0.00     0.098 A 
HETATM    2  C   UNL     1      -5.808   0.361 -33.691  1.00  0.00     0.051 A 
HETATM    3  C   UNL     1      -6.534  -0.837 -33.776  1.00  0.00    -0.019 A 
HETATM    4  C   UNL     1      -7.896  -0.823 -33.467  1.00  0.00     0.032 A 
HETATM    5  C   UNL     1      -8.514   0.374 -33.090  1.00  0.00     0.064 A 
HETATM    6  C   UNL     1      -9.944   0.393 -32.738  1.00  0.00     0.259 A 
HETATM    7  O   UNL     1     -10.632  -0.620 -32.761  1.00  0.00    -0.267 OA
HETATM    8  N   UNL     1     -10.443   1.611 -32.372  1.00  0.00    -0.309 N 
HETATM    9  C   UNL     1      -9.693   2.757 -32.332  1.00  0.00     0.145 A 
HETATM   10  N   UNL     1      -8.433   2.785 -32.626  1.00  0.00    -0.229 NA
HETATM   11  C   UNL     1      -7.805   1.578 -33.009  1.00  0.00     0.108 A 
HETATM   12  H   UNL     1     -11.411   1.651 -32.079  1.00  0.00     0.170 HD
ENDROOT
BRANCH   9  13
HETATM   13  C   UNL     1     -10.430   4.030 -31.891  1.00  0.00     0.320 C 
BRANCH  13  14
HETATM   14  N   UNL     1     -11.226   3.709 -30.687  1.00  0.00     0.094 N 
HETATM   15  H   UNL     1     -11.717   2.831 -30.868  1.00  0.00     0.314 HD
HETATM   16  H   UNL     1     -11.962   4.412 -30.606  1.00  0.00     0.314 HD
ENDBRANCH  13  14
BRANCH  13  17
HETATM   17  C   UNL     1     -11.275   4.603 -33.018  1.00  0.00    -0.018 A 
HETATM   18  C   UNL     1     -12.559   5.098 -32.726  1.00  0.00     0.011 A 
HETATM   19  C   UNL     1     -13.359   5.649 -33.730  1.00  0.00     0.024 A 
HETATM   20  C   UNL     1     -12.883   5.716 -35.036  1.00  0.00     0.034 A 
HETATM   21 CL   UNL     1     -13.869   6.391 -36.275  1.00  0.00    -0.084 Cl
HETATM   22  C   UNL     1     -11.612   5.243 -35.347  1.00  0.00     0.024 A 
HETATM   23  C   UNL     1     -10.811   4.692 -34.342  1.00  0.00     0.011 A 
ENDBRANCH  13  17
ENDBRANCH   9  13
BRANCH   1  24
HETATM   24  O   UNL     1      -5.773   2.765 -33.205  1.00  0.00    -0.354 OA
HETATM   25  C   UNL     1      -4.573   2.789 -32.442  1.00  0.00     0.210 C 
ENDBRANCH   1  24
BRANCH   3  26
HETATM   26  C   UNL     1      -5.867  -2.068 -34.169  1.00  0.00     0.010 A 
HETATM   27  C   UNL     1      -4.510  -2.457 -34.080  1.00  0.00     0.152 A 
HETATM   28  N   UNL     1      -4.287  -3.681 -34.566  1.00  0.00    -0.187 NA
HETATM   29  N   UNL     1      -5.502  -4.084 -34.970  1.00  0.00    -0.289 N 
HETATM   30  H   UNL     1      -5.591  -5.005 -35.385  1.00  0.00     0.188 HD
HETATM   31  C   UNL     1      -6.480  -3.155 -34.757  1.00  0.00     0.123 A 
ENDBRANCH   3  26
TORSDOF 5
ENDMDL
MODEL 10
REMARK VINA RESULT:      -7.8      3.489      8.075
REMARK  5 active torsions:
REMARK  status: ('A' for Active; 'I' for Inactive)
REMARK    1  A    between atoms: O_2  and  C_3 
REMARK    2  A    between atoms: C_5  and  C_23 
REMARK    3  A    between atoms: C_11  and  C_14 
REMARK    4  A    between atoms: C_14  and  N_15 
REMARK    5  A    between atoms: C_14  and  C_16 
ROOT
HETATM    1  C   UNL     1      -4.662   4.608 -33.164  1.00  0.00     0.098 A 
HETATM    2  C   UNL     1      -3.614   5.409 -32.681  1.00  0.00     0.051 A 
HETATM    3  C   UNL     1      -2.595   4.866 -31.882  1.00  0.00    -0.019 A 
HETATM    4  C   UNL     1      -2.636   3.505 -31.571  1.00  0.00     0.032 A 
HETATM    5  C   UNL     1      -3.675   2.707 -32.062  1.00  0.00     0.064 A 
HETATM    6  C   UNL     1      -3.740   1.277 -31.716  1.00  0.00     0.259 A 
HETATM    7  O   UNL     1      -2.902   0.742 -31.001  1.00  0.00    -0.267 OA
HETATM    8  N   UNL     1      -4.802   0.594 -32.239  1.00  0.00    -0.309 N 
HETATM    9  C   UNL     1      -5.755   1.170 -33.036  1.00  0.00     0.145 A 
HETATM   10  N   UNL     1      -5.742   2.423 -33.359  1.00  0.00    -0.229 NA
HETATM   11  C   UNL     1      -4.692   3.233 -32.866  1.00  0.00     0.108 A 
HETATM   12  H   UNL     1      -4.903  -0.380 -31.983  1.00  0.00     0.170 HD
ENDROOT
BRANCH   9  13
HETATM   13  C   UNL     1      -6.877   0.240 -33.523  1.00  0.00     0.320 C 
BRANCH  13  14
HETATM   14  N   UNL     1      -7.915   0.179 -32.473  1.00  0.00     0.094 N 
HETATM   15  H   UNL     1      -7.530   0.618 -31.635  1.00  0.00     0.314 HD
HETATM   16  H   UNL     1      -8.045  -0.802 -32.223  1.00  0.00     0.314 HD
ENDBRANCH  13  14
BRANCH  13  17
HETATM   17  C   UNL     1      -6.340  -1.132 -33.899  1.00  0.00    -0.018 A 
HETATM   18  C   UNL     1      -7.248  -2.155 -34.223  1.00  0.00     0.011 A 
HETATM   19  C   UNL     1      -6.794  -3.425 -34.591  1.00  0.00     0.024 A 
HETATM   20  C   UNL     1      -5.428  -3.684 -34.643  1.00  0.00     0.034 A 
HETATM   21 CL   UNL     1      -4.868  -5.248 -35.093  1.00  0.00    -0.084 Cl
HETATM   22  C   UNL     1      -4.510  -2.683 -34.338  1.00  0.00     0.024 A 
HETATM   23  C   UNL     1      -4.964  -1.413 -33.970  1.00  0.00     0.011 A 
ENDBRANCH  13  17
ENDBRANCH   9  13
BRANCH   1  24
HETATM   24  O   UNL     1      -5.684   5.079 -33.954  1.00  0.00    -0.354 OA
HETATM   25  C   UNL     1      -6.832   5.591 -33.290  1.00  0.00     0.210 C 
ENDBRANCH   1  24
BRANCH   3  26
HETATM   26  C   UNL     1      -1.527   5.717 -31.384  1.00  0.00     0.010 A 
HETATM   27  C   UNL     1      -0.134   5.700 -31.633  1.00  0.00     0.152 A 
HETATM   28  N   UNL     1       0.525   6.653 -30.968  1.00  0.00    -0.187 NA
HETATM   29  N   UNL     1      -0.444   7.288 -30.289  1.00  0.00    -0.289 N 
HETATM   30  H   UNL     1      -0.184   8.068 -29.696  1.00  0.00     0.188 HD
HETATM   31  C   UNL     1      -1.687   6.765 -30.501  1.00  0.00     0.123 A 
ENDBRANCH   3  26
TORSDOF 5
ENDMDL
