MODEL 1
REMARK VINA RESULT:      -8.7      0.000      0.000
REMARK  3 active torsions:
REMARK  status: ('A' for Active; 'I' for Inactive)
REMARK    1  A    between atoms: C_2  and  N_3 
REMARK    2  A    between atoms: C_2  and  C_10 
REMARK    3  A    between atoms: C_13  and  C_14 
ROOT
HETATM    1  C   UNL     1      -6.236  -0.214 -33.560  1.00  0.00    -0.028 A 
HETATM    2  C   UNL     1      -6.913   0.001 -32.348  1.00  0.00     0.010 A 
HETATM    3  C   UNL     1      -8.251   0.412 -32.332  1.00  0.00     0.013 A 
HETATM    4  C   UNL     1      -8.964   0.619 -33.521  1.00  0.00    -0.024 A 
HETATM    5  C   UNL     1      -8.289   0.390 -34.729  1.00  0.00     0.013 A 
HETATM    6  C   UNL     1      -6.949  -0.017 -34.752  1.00  0.00     0.010 A 
ENDROOT
BRANCH   4   7
HETATM    7  C   UNL     1     -10.368   1.066 -33.502  1.00  0.00    -0.006 A 
HETATM    8  C   UNL     1     -10.699   2.430 -33.505  1.00  0.00     0.131 A 
HETATM    9  N   UNL     1     -11.940   2.969 -33.482  1.00  0.00    -0.239 NA
HETATM   10  C   UNL     1     -12.937   2.061 -33.451  1.00  0.00     0.177 A 
HETATM   11  C   UNL     1     -12.715   0.689 -33.445  1.00  0.00     0.082 A 
HETATM   12  N   UNL     1     -14.272   2.348 -33.419  1.00  0.00    -0.222 NA
HETATM   13  N   UNL     1     -13.974   0.147 -33.413  1.00  0.00    -0.348 N 
HETATM   14  C   UNL     1     -11.430   0.146 -33.471  1.00  0.00     0.047 A 
HETATM   15  H   UNL     1     -14.205  -0.836 -33.401  1.00  0.00     0.167 HD
HETATM   16  C   UNL     1     -14.872   1.179 -33.397  1.00  0.00     0.210 A 
ENDBRANCH   4   7
BRANCH   1  17
HETATM   17  C   UNL     1      -4.776  -0.629 -33.538  1.00  0.00     0.217 C 
HETATM   18  C   UNL     1      -3.903   0.148 -32.544  1.00  0.00     0.045 C 
BRANCH  17  19
HETATM   19  N   UNL     1      -4.543  -2.133 -33.335  1.00  0.00    -0.063 N 
HETATM   20  H   UNL     1      -5.342  -2.454 -32.775  1.00  0.00     0.280 HD
HETATM   21  C   UNL     1      -4.544  -2.958 -34.605  1.00  0.00     0.235 C 
HETATM   22  C   UNL     1      -4.543  -4.438 -34.240  1.00  0.00     0.028 C 
HETATM   23  C   UNL     1      -3.359  -4.797 -33.349  1.00  0.00     0.003 C 
HETATM   24  C   UNL     1      -3.298  -3.897 -32.121  1.00  0.00     0.028 C 
HETATM   25  C   UNL     1      -3.312  -2.423 -32.503  1.00  0.00     0.235 C 
ENDBRANCH  17  19
ENDBRANCH   1  17
TORSDOF 3
ENDMDL
MODEL 2
REMARK VINA RESULT:      -8.6      0.708      1.294
REMARK  3 active torsions:
REMARK  status: ('A' for Active; 'I' for Inactive)
REMARK    1  A    between atoms: C_2  and  N_3 
REMARK    2  A    between atoms: C_2  and  C_10 
REMARK    3  A    between atoms: C_13  and  C_14 
ROOT
HETATM    1  C   UNL     1      -6.106  -0.391 -33.826  1.00  0.00    -0.028 A 
HETATM    2  C   UNL     1      -6.762  -0.237 -32.594  1.00  0.00     0.010 A 
HETATM    3  C   UNL     1      -8.061   0.282 -32.527  1.00  0.00     0.013 A 
HETATM    4  C   UNL     1      -8.754   0.661 -33.684  1.00  0.00    -0.024 A 
HETATM    5  C   UNL     1      -8.102   0.493 -34.915  1.00  0.00     0.013 A 
HETATM    6  C   UNL     1      -6.801  -0.021 -34.988  1.00  0.00     0.010 A 
ENDROOT
BRANCH   4   7
HETATM    7  C   UNL     1     -10.115   1.220 -33.611  1.00  0.00    -0.006 A 
HETATM    8  C   UNL     1     -10.342   2.602 -33.708  1.00  0.00     0.131 A 
HETATM    9  N   UNL     1     -11.534   3.240 -33.649  1.00  0.00    -0.239 NA
HETATM   10  C   UNL     1     -12.591   2.422 -33.475  1.00  0.00     0.177 A 
HETATM   11  C   UNL     1     -12.474   1.041 -33.366  1.00  0.00     0.082 A 
HETATM   12  N   UNL     1     -13.895   2.817 -33.380  1.00  0.00    -0.222 NA
HETATM   13  N   UNL     1     -13.764   0.608 -33.205  1.00  0.00    -0.348 N 
HETATM   14  C   UNL     1     -11.238   0.395 -33.431  1.00  0.00     0.047 A 
HETATM   15  H   UNL     1     -14.068  -0.349 -33.095  1.00  0.00     0.167 HD
HETATM   16  C   UNL     1     -14.578   1.707 -33.218  1.00  0.00     0.210 A 
ENDBRANCH   4   7
BRANCH   1  17
HETATM   17  C   UNL     1      -4.686  -0.928 -33.857  1.00  0.00     0.217 C 
HETATM   18  C   UNL     1      -3.884  -0.694 -32.570  1.00  0.00     0.045 C 
BRANCH  17  19
HETATM   19  N   UNL     1      -4.572  -2.407 -34.252  1.00  0.00    -0.063 N 
HETATM   20  H   UNL     1      -4.045  -2.410 -35.133  1.00  0.00     0.280 HD
HETATM   21  C   UNL     1      -3.796  -3.270 -33.279  1.00  0.00     0.235 C 
HETATM   22  C   UNL     1      -3.560  -4.640 -33.904  1.00  0.00     0.028 C 
HETATM   23  C   UNL     1      -4.870  -5.307 -34.310  1.00  0.00     0.003 C 
HETATM   24  C   UNL     1      -5.700  -4.395 -35.206  1.00  0.00     0.028 C 
HETATM   25  C   UNL     1      -5.916  -3.028 -34.571  1.00  0.00     0.235 C 
ENDBRANCH  17  19
ENDBRANCH   1  17
TORSDOF 3
ENDMDL
MODEL 3
REMARK VINA RESULT:      -8.1      4.586      7.993
REMARK  3 active torsions:
REMARK  status: ('A' for Active; 'I' for Inactive)
REMARK    1  A    between atoms: C_2  and  N_3 
REMARK    2  A    between atoms: C_2  and  C_10 
REMARK    3  A    between atoms: C_13  and  C_14 
ROOT
HETATM    1  C   UNL     1      -4.716   3.182 -32.477  1.00  0.00    -0.028 A 
HETATM    2  C   UNL     1      -5.857   2.805 -33.204  1.00  0.00     0.010 A 
HETATM    3  C   UNL     1      -6.056   1.476 -33.597  1.00  0.00     0.013 A 
HETATM    4  C   UNL     1      -5.128   0.475 -33.278  1.00  0.00    -0.024 A 
HETATM    5  C   UNL     1      -3.996   0.852 -32.540  1.00  0.00     0.013 A 
HETATM    6  C   UNL     1      -3.790   2.181 -32.147  1.00  0.00     0.010 A 
ENDROOT
BRANCH   4   7
HETATM    7  C   UNL     1      -5.333  -0.920 -33.705  1.00  0.00    -0.006 A 
HETATM    8  C   UNL     1      -6.555  -1.343 -34.252  1.00  0.00     0.131 A 
HETATM    9  N   UNL     1      -6.873  -2.589 -34.675  1.00  0.00    -0.239 NA
HETATM   10  C   UNL     1      -5.879  -3.490 -34.535  1.00  0.00     0.177 A 
HETATM   11  C   UNL     1      -4.634  -3.173 -34.006  1.00  0.00     0.082 A 
HETATM   12  N   UNL     1      -5.949  -4.810 -34.881  1.00  0.00    -0.222 NA
HETATM   13  N   UNL     1      -3.942  -4.356 -34.047  1.00  0.00    -0.348 N 
HETATM   14  C   UNL     1      -4.318  -1.883 -33.575  1.00  0.00     0.047 A 
HETATM   15  H   UNL     1      -2.992  -4.507 -33.742  1.00  0.00     0.167 HD
HETATM   16  C   UNL     1      -4.772  -5.305 -34.577  1.00  0.00     0.210 A 
ENDBRANCH   4   7
BRANCH   1  17
HETATM   17  C   UNL     1      -4.519   4.638 -32.094  1.00  0.00     0.217 C 
HETATM   18  C   UNL     1      -4.728   4.942 -30.605  1.00  0.00     0.045 C 
BRANCH  17  19
HETATM   19  N   UNL     1      -3.179   5.240 -32.542  1.00  0.00    -0.063 N 
HETATM   20  H   UNL     1      -2.528   4.446 -32.577  1.00  0.00     0.280 HD
HETATM   21  C   UNL     1      -3.185   5.857 -33.924  1.00  0.00     0.235 C 
HETATM   22  C   UNL     1      -1.755   6.195 -34.328  1.00  0.00     0.028 C 
HETATM   23  C   UNL     1      -1.086   7.117 -33.315  1.00  0.00     0.003 C 
HETATM   24  C   UNL     1      -1.171   6.543 -31.904  1.00  0.00     0.028 C 
HETATM   25  C   UNL     1      -2.606   6.201 -31.522  1.00  0.00     0.235 C 
ENDBRANCH  17  19
ENDBRANCH   1  17
TORSDOF 3
ENDMDL
MODEL 4
REMARK VINA RESULT:      -7.7      5.418      8.620
REMARK  3 active torsions:
REMARK  status: ('A' for Active; 'I' for Inactive)
REMARK    1  A    between atoms: C_2  and  N_3 
REMARK    2  A    between atoms: C_2  and  C_10 
REMARK    3  A    between atoms: C_13  and  C_14 
ROOT
HETATM    1  C   UNL     1      -4.526   3.582 -31.990  1.00  0.00    -0.028 A 
HETATM    2  C   UNL     1      -3.516   2.854 -31.341  1.00  0.00     0.010 A 
HETATM    3  C   UNL     1      -3.362   1.480 -31.559  1.00  0.00     0.013 A 
HETATM    4  C   UNL     1      -4.205   0.782 -32.435  1.00  0.00    -0.024 A 
HETATM    5  C   UNL     1      -5.205   1.514 -33.093  1.00  0.00     0.013 A 
HETATM    6  C   UNL     1      -5.366   2.888 -32.875  1.00  0.00     0.010 A 
ENDROOT
BRANCH   4   7
HETATM    7  C   UNL     1      -4.050  -0.667 -32.652  1.00  0.00    -0.006 A 
HETATM    8  C   UNL     1      -3.196  -1.437 -31.846  1.00  0.00     0.131 A 
HETATM    9  N   UNL     1      -2.960  -2.766 -31.944  1.00  0.00    -0.239 NA
HETATM   10  C   UNL     1      -3.637  -3.376 -32.939  1.00  0.00     0.177 A 
HETATM   11  C   UNL     1      -4.505  -2.704 -33.790  1.00  0.00     0.082 A 
HETATM   12  N   UNL     1      -3.569  -4.705 -33.247  1.00  0.00    -0.222 NA
HETATM   13  N   UNL     1      -4.970  -3.681 -34.632  1.00  0.00    -0.348 N 
HETATM   14  C   UNL     1      -4.742  -1.333 -33.677  1.00  0.00     0.047 A 
HETATM   15  H   UNL     1      -5.629  -3.560 -35.387  1.00  0.00     0.167 HD
HETATM   16  C   UNL     1      -4.380  -4.860 -34.268  1.00  0.00     0.210 A 
ENDBRANCH   4   7
BRANCH   1  17
HETATM   17  C   UNL     1      -4.683   5.065 -31.706  1.00  0.00     0.217 C 
HETATM   18  C   UNL     1      -4.889   5.415 -30.226  1.00  0.00     0.045 C 
BRANCH  17  19
HETATM   19  N   UNL     1      -3.561   5.945 -32.273  1.00  0.00    -0.063 N 
HETATM   20  H   UNL     1      -3.981   6.875 -32.386  1.00  0.00     0.280 HD
HETATM   21  C   UNL     1      -2.362   6.119 -31.364  1.00  0.00     0.235 C 
HETATM   22  C   UNL     1      -1.447   7.192 -31.942  1.00  0.00     0.028 C 
HETATM   23  C   UNL     1      -1.016   6.857 -33.365  1.00  0.00     0.003 C 
HETATM   24  C   UNL     1      -2.221   6.580 -34.258  1.00  0.00     0.028 C 
HETATM   25  C   UNL     1      -3.130   5.514 -33.659  1.00  0.00     0.235 C 
ENDBRANCH  17  19
ENDBRANCH   1  17
TORSDOF 3
ENDMDL
MODEL 5
REMARK VINA RESULT:      -7.7     11.804     14.938
REMARK  3 active torsions:
REMARK  status: ('A' for Active; 'I' for Inactive)
REMARK    1  A    between atoms: C_2  and  N_3 
REMARK    2  A    between atoms: C_2  and  C_10 
REMARK    3  A    between atoms: C_13  and  C_14 
ROOT
HETATM    1  C   UNL     1       1.589   9.159 -25.920  1.00  0.00    -0.028 A 
HETATM    2  C   UNL     1       0.750   9.741 -26.884  1.00  0.00     0.010 A 
HETATM    3  C   UNL     1       0.268   8.997 -27.967  1.00  0.00     0.013 A 
HETATM    4  C   UNL     1       0.601   7.645 -28.127  1.00  0.00    -0.024 A 
HETATM    5  C   UNL     1       1.428   7.062 -27.155  1.00  0.00     0.013 A 
HETATM    6  C   UNL     1       1.917   7.804 -26.072  1.00  0.00     0.010 A 
ENDROOT
BRANCH   4   7
HETATM    7  C   UNL     1       0.105   6.867 -29.276  1.00  0.00    -0.006 A 
HETATM    8  C   UNL     1       0.314   5.481 -29.361  1.00  0.00     0.131 A 
HETATM    9  N   UNL     1      -0.081   4.656 -30.359  1.00  0.00    -0.239 NA
HETATM   10  C   UNL     1      -0.742   5.275 -31.359  1.00  0.00     0.177 A 
HETATM   11  C   UNL     1      -0.999   6.640 -31.369  1.00  0.00     0.082 A 
HETATM   12  N   UNL     1      -1.239   4.668 -32.477  1.00  0.00    -0.222 NA
HETATM   13  N   UNL     1      -1.680   6.844 -32.541  1.00  0.00    -0.348 N 
HETATM   14  C   UNL     1      -0.588   7.480 -30.333  1.00  0.00     0.047 A 
HETATM   15  H   UNL     1      -2.033   7.724 -32.887  1.00  0.00     0.167 HD
HETATM   16  C   UNL     1      -1.797   5.634 -33.170  1.00  0.00     0.210 A 
ENDBRANCH   4   7
BRANCH   1  17
HETATM   17  C   UNL     1       2.116  10.006 -24.776  1.00  0.00     0.217 C 
HETATM   18  C   UNL     1       1.032  10.650 -23.902  1.00  0.00     0.045 C 
BRANCH  17  19
HETATM   19  N   UNL     1       3.128   9.292 -23.867  1.00  0.00    -0.063 N 
HETATM   20  H   UNL     1       3.272   8.372 -24.299  1.00  0.00     0.280 HD
HETATM   21  C   UNL     1       4.489   9.951 -23.784  1.00  0.00     0.235 C 
HETATM   22  C   UNL     1       5.450   9.022 -23.052  1.00  0.00     0.028 C 
HETATM   23  C   UNL     1       4.931   8.652 -21.668  1.00  0.00     0.003 C 
HETATM   24  C   UNL     1       3.518   8.084 -21.740  1.00  0.00     0.028 C 
HETATM   25  C   UNL     1       2.574   9.019 -22.485  1.00  0.00     0.235 C 
ENDBRANCH  17  19
ENDBRANCH   1  17
TORSDOF 3
ENDMDL
MODEL 6
REMARK VINA RESULT:      -7.7      5.106      7.555
REMARK  3 active torsions:
REMARK  status: ('A' for Active; 'I' for Inactive)
REMARK    1  A    between atoms: C_2  and  N_3 
REMARK    2  A    between atoms: C_2  and  C_10 
REMARK    3  A    between atoms: C_13  and  C_14 
ROOT
HETATM    1  C   UNL     1      -6.441   1.154 -32.715  1.00  0.00    -0.028 A 
HETATM    2  C   UNL     1      -5.643   1.549 -31.630  1.00  0.00     0.010 A 
HETATM    3  C   UNL     1      -4.884   2.724 -31.682  1.00  0.00     0.013 A 
HETATM    4  C   UNL     1      -4.896   3.550 -32.814  1.00  0.00    -0.024 A 
HETATM    5  C   UNL     1      -5.706   3.160 -33.892  1.00  0.00     0.013 A 
HETATM    6  C   UNL     1      -6.464   1.983 -33.847  1.00  0.00     0.010 A 
ENDROOT
BRANCH   4   7
HETATM    7  C   UNL     1      -4.085   4.779 -32.873  1.00  0.00    -0.006 A 
HETATM    8  C   UNL     1      -3.653   5.309 -34.099  1.00  0.00     0.131 A 
HETATM    9  N   UNL     1      -2.903   6.419 -34.289  1.00  0.00    -0.239 NA
HETATM   10  C   UNL     1      -2.553   7.052 -33.150  1.00  0.00     0.177 A 
HETATM   11  C   UNL     1      -2.929   6.609 -31.888  1.00  0.00     0.082 A 
HETATM   12  N   UNL     1      -1.798   8.188 -33.072  1.00  0.00    -0.222 NA
HETATM   13  N   UNL     1      -2.375   7.525 -31.033  1.00  0.00    -0.348 N 
HETATM   14  C   UNL     1      -3.705   5.463 -31.706  1.00  0.00     0.047 A 
HETATM   15  H   UNL     1      -2.442   7.525 -30.025  1.00  0.00     0.167 HD
HETATM   16  C   UNL     1      -1.707   8.450 -31.788  1.00  0.00     0.210 A 
ENDBRANCH   4   7
BRANCH   1  17
HETATM   17  C   UNL     1      -7.227  -0.143 -32.634  1.00  0.00     0.217 C 
HETATM   18  C   UNL     1      -8.640  -0.073 -33.229  1.00  0.00     0.045 C 
BRANCH  17  19
HETATM   19  N   UNL     1      -6.503  -1.365 -33.216  1.00  0.00    -0.063 N 
HETATM   20  H   UNL     1      -6.602  -2.098 -32.504  1.00  0.00     0.280 HD
HETATM   21  C   UNL     1      -7.103  -1.916 -34.493  1.00  0.00     0.235 C 
HETATM   22  C   UNL     1      -6.440  -3.249 -34.821  1.00  0.00     0.028 C 
HETATM   23  C   UNL     1      -4.927  -3.113 -34.937  1.00  0.00     0.003 C 
HETATM   24  C   UNL     1      -4.334  -2.462 -33.692  1.00  0.00     0.028 C 
HETATM   25  C   UNL     1      -5.014  -1.137 -33.372  1.00  0.00     0.235 C 
ENDBRANCH  17  19
ENDBRANCH   1  17
TORSDOF 3
ENDMDL
MODEL 7
REMARK VINA RESULT:      -7.6      5.178      7.134
REMARK  3 active torsions:
REMARK  status: ('A' for Active; 'I' for Inactive)
REMARK    1  A    between atoms: C_2  and  N_3 
REMARK    2  A    between atoms: C_2  and  C_10 
REMARK    3  A    between atoms: C_13  and  C_14 
ROOT
HETATM    1  C   UNL     1      -2.758   4.496 -33.070  1.00  0.00    -0.028 A 
HETATM    2  C   UNL     1      -2.989   3.381 -32.248  1.00  0.00     0.010 A 
HETATM    3  C   UNL     1      -4.225   2.725 -32.251  1.00  0.00     0.013 A 
HETATM    4  C   UNL     1      -5.275   3.152 -33.076  1.00  0.00    -0.024 A 
HETATM    5  C   UNL     1      -5.037   4.257 -33.907  1.00  0.00     0.013 A 
HETATM    6  C   UNL     1      -3.803   4.920 -33.905  1.00  0.00     0.010 A 
ENDROOT
BRANCH   4   7
HETATM    7  C   UNL     1      -6.580   2.468 -33.067  1.00  0.00    -0.006 A 
HETATM    8  C   UNL     1      -6.854   1.433 -32.159  1.00  0.00     0.131 A 
HETATM    9  N   UNL     1      -8.001   0.723 -32.052  1.00  0.00    -0.239 NA
HETATM   10  C   UNL     1      -8.957   1.081 -32.934  1.00  0.00     0.177 A 
HETATM   11  C   UNL     1      -8.785   2.091 -33.872  1.00  0.00     0.082 A 
HETATM   12  N   UNL     1     -10.197   0.518 -33.033  1.00  0.00    -0.222 NA
HETATM   13  N   UNL     1      -9.977   2.126 -34.548  1.00  0.00    -0.348 N 
HETATM   14  C   UNL     1      -7.597   2.817 -33.971  1.00  0.00     0.047 A 
HETATM   15  H   UNL     1     -10.220   2.745 -35.308  1.00  0.00     0.167 HD
HETATM   16  C   UNL     1     -10.789   1.165 -34.011  1.00  0.00     0.210 A 
ENDBRANCH   4   7
BRANCH   1  17
HETATM   17  C   UNL     1      -1.415   5.201 -33.017  1.00  0.00     0.217 C 
HETATM   18  C   UNL     1      -1.241   6.325 -34.047  1.00  0.00     0.045 C 
BRANCH  17  19
HETATM   19  N   UNL     1      -1.027   5.733 -31.630  1.00  0.00    -0.063 N 
HETATM   20  H   UNL     1      -1.752   5.377 -30.995  1.00  0.00     0.280 HD
HETATM   21  C   UNL     1       0.299   5.231 -31.100  1.00  0.00     0.235 C 
HETATM   22  C   UNL     1       0.442   5.641 -29.640  1.00  0.00     0.028 C 
HETATM   23  C   UNL     1       0.314   7.150 -29.463  1.00  0.00     0.003 C 
HETATM   24  C   UNL     1      -0.975   7.672 -30.089  1.00  0.00     0.028 C 
HETATM   25  C   UNL     1      -1.107   7.243 -31.545  1.00  0.00     0.235 C 
ENDBRANCH  17  19
ENDBRANCH   1  17
TORSDOF 3
ENDMDL
MODEL 8
REMARK VINA RESULT:      -7.5      2.593      3.371
REMARK  3 active torsions:
REMARK  status: ('A' for Active; 'I' for Inactive)
REMARK    1  A    between atoms: C_2  and  N_3 
REMARK    2  A    between atoms: C_2  and  C_10 
REMARK    3  A    between atoms: C_13  and  C_14 
ROOT
HETATM    1  C   UNL     1      -5.432  -0.266 -32.768  1.00  0.00    -0.028 A 
HETATM    2  C   UNL     1      -5.655   0.859 -33.579  1.00  0.00     0.010 A 
HETATM    3  C   UNL     1      -6.579   1.844 -33.210  1.00  0.00     0.013 A 
HETATM    4  C   UNL     1      -7.311   1.746 -32.018  1.00  0.00    -0.024 A 
HETATM    5  C   UNL     1      -7.075   0.629 -31.203  1.00  0.00     0.013 A 
HETATM    6  C   UNL     1      -6.155  -0.362 -31.569  1.00  0.00     0.010 A 
ENDROOT
BRANCH   4   7
HETATM    7  C   UNL     1      -8.293   2.777 -31.639  1.00  0.00    -0.006 A 
HETATM    8  C   UNL     1      -7.884   4.030 -31.157  1.00  0.00     0.131 A 
HETATM    9  N   UNL     1      -8.679   5.055 -30.770  1.00  0.00    -0.239 NA
HETATM   10  C   UNL     1      -9.999   4.800 -30.873  1.00  0.00     0.177 A 
HETATM   11  C   UNL     1     -10.506   3.592 -31.337  1.00  0.00     0.082 A 
HETATM   12  N   UNL     1     -11.004   5.665 -30.543  1.00  0.00    -0.222 NA
HETATM   13  N   UNL     1     -11.865   3.756 -31.282  1.00  0.00    -0.348 N 
HETATM   14  C   UNL     1      -9.675   2.544 -31.735  1.00  0.00     0.047 A 
HETATM   15  H   UNL     1     -12.565   3.077 -31.547  1.00  0.00     0.167 HD
HETATM   16  C   UNL     1     -12.114   5.012 -30.799  1.00  0.00     0.210 A 
ENDBRANCH   4   7
BRANCH   1  17
HETATM   17  C   UNL     1      -4.444  -1.329 -33.215  1.00  0.00     0.217 C 
HETATM   18  C   UNL     1      -3.337  -1.643 -32.200  1.00  0.00     0.045 C 
BRANCH  17  19
HETATM   19  N   UNL     1      -5.087  -2.645 -33.673  1.00  0.00    -0.063 N 
HETATM   20  H   UNL     1      -5.532  -3.033 -32.832  1.00  0.00     0.280 HD
HETATM   21  C   UNL     1      -6.180  -2.496 -34.711  1.00  0.00     0.235 C 
HETATM   22  C   UNL     1      -6.883  -3.836 -34.893  1.00  0.00     0.028 C 
HETATM   23  C   UNL     1      -5.903  -4.938 -35.278  1.00  0.00     0.003 C 
HETATM   24  C   UNL     1      -4.746  -5.020 -34.288  1.00  0.00     0.028 C 
HETATM   25  C   UNL     1      -4.063  -3.671 -34.110  1.00  0.00     0.235 C 
ENDBRANCH  17  19
ENDBRANCH   1  17
TORSDOF 3
ENDMDL
MODEL 9
REMARK VINA RESULT:      -7.5      5.797      8.206
REMARK  3 active torsions:
REMARK  status: ('A' for Active; 'I' for Inactive)
REMARK    1  A    between atoms: C_2  and  N_3 
REMARK    2  A    between atoms: C_2  and  C_10 
REMARK    3  A    between atoms: C_13  and  C_14 
ROOT
HETATM    1  C   UNL     1      -4.809   1.424 -31.353  1.00  0.00    -0.028 A 
HETATM    2  C   UNL     1      -3.795   1.804 -32.247  1.00  0.00     0.010 A 
HETATM    3  C   UNL     1      -3.348   3.129 -32.311  1.00  0.00     0.013 A 
HETATM    4  C   UNL     1      -3.892   4.123 -31.485  1.00  0.00    -0.024 A 
HETATM    5  C   UNL     1      -4.896   3.737 -30.584  1.00  0.00     0.013 A 
HETATM    6  C   UNL     1      -5.350   2.414 -30.518  1.00  0.00     0.010 A 
ENDROOT
BRANCH   4   7
HETATM    7  C   UNL     1      -3.431   5.519 -31.564  1.00  0.00    -0.006 A 
HETATM    8  C   UNL     1      -2.783   6.009 -32.710  1.00  0.00     0.131 A 
HETATM    9  N   UNL     1      -2.307   7.260 -32.907  1.00  0.00    -0.239 NA
HETATM   10  C   UNL     1      -2.494   8.094 -31.863  1.00  0.00     0.177 A 
HETATM   11  C   UNL     1      -3.123   7.707 -30.686  1.00  0.00     0.082 A 
HETATM   12  N   UNL     1      -2.103   9.401 -31.811  1.00  0.00    -0.222 NA
HETATM   13  N   UNL     1      -3.104   8.837 -29.910  1.00  0.00    -0.348 N 
HETATM   14  C   UNL     1      -3.612   6.414 -30.496  1.00  0.00     0.047 A 
HETATM   15  H   UNL     1      -3.478   8.933 -28.977  1.00  0.00     0.167 HD
HETATM   16  C   UNL     1      -2.482   9.823 -30.626  1.00  0.00     0.210 A 
ENDBRANCH   4   7
BRANCH   1  17
HETATM   17  C   UNL     1      -5.289  -0.016 -31.333  1.00  0.00     0.217 C 
HETATM   18  C   UNL     1      -6.652  -0.228 -30.661  1.00  0.00     0.045 C 
BRANCH  17  19
HETATM   19  N   UNL     1      -5.300  -0.705 -32.705  1.00  0.00    -0.063 N 
HETATM   20  H   UNL     1      -4.930  -0.004 -33.359  1.00  0.00     0.280 HD
HETATM   21  C   UNL     1      -4.402  -1.919 -32.818  1.00  0.00     0.235 C 
HETATM   22  C   UNL     1      -4.328  -2.352 -34.278  1.00  0.00     0.028 C 
HETATM   23  C   UNL     1      -5.711  -2.633 -34.853  1.00  0.00     0.003 C 
HETATM   24  C   UNL     1      -6.647  -1.448 -34.646  1.00  0.00     0.028 C 
HETATM   25  C   UNL     1      -6.700  -1.021 -33.185  1.00  0.00     0.235 C 
ENDBRANCH  17  19
ENDBRANCH   1  17
TORSDOF 3
ENDMDL
MODEL 10
REMARK VINA RESULT:      -7.4      9.394     12.660
REMARK  3 active torsions:
REMARK  status: ('A' for Active; 'I' for Inactive)
REMARK    1  A    between atoms: C_2  and  N_3 
REMARK    2  A    between atoms: C_2  and  C_10 
REMARK    3  A    between atoms: C_13  and  C_14 
ROOT
HETATM    1  C   UNL     1      -1.686   6.749 -32.202  1.00  0.00    -0.028 A 
HETATM    2  C   UNL     1      -2.467   7.561 -31.363  1.00  0.00     0.010 A 
HETATM    3  C   UNL     1      -1.959   8.053 -30.156  1.00  0.00     0.013 A 
HETATM    4  C   UNL     1      -0.653   7.757 -29.741  1.00  0.00    -0.024 A 
HETATM    5  C   UNL     1       0.130   6.957 -30.587  1.00  0.00     0.013 A 
HETATM    6  C   UNL     1      -0.375   6.459 -31.795  1.00  0.00     0.010 A 
ENDROOT
BRANCH   4   7
HETATM    7  C   UNL     1      -0.124   8.264 -28.463  1.00  0.00    -0.006 A 
HETATM    8  C   UNL     1      -0.685   9.388 -27.837  1.00  0.00     0.131 A 
HETATM    9  N   UNL     1      -0.292   9.956 -26.673  1.00  0.00    -0.239 NA
HETATM   10  C   UNL     1       0.757   9.344 -26.086  1.00  0.00     0.177 A 
HETATM   11  C   UNL     1       1.382   8.226 -26.623  1.00  0.00     0.082 A 
HETATM   12  N   UNL     1       1.342   9.724 -24.912  1.00  0.00    -0.222 NA
HETATM   13  N   UNL     1       2.375   7.934 -25.724  1.00  0.00    -0.348 N 
HETATM   14  C   UNL     1       0.966   7.649 -27.824  1.00  0.00     0.047 A 
HETATM   15  H   UNL     1       3.038   7.175 -25.786  1.00  0.00     0.167 HD
HETATM   16  C   UNL     1       2.312   8.859 -24.718  1.00  0.00     0.210 A 
ENDBRANCH   4   7
BRANCH   1  17
HETATM   17  C   UNL     1      -2.282   6.209 -33.489  1.00  0.00     0.217 C 
HETATM   18  C   UNL     1      -1.288   5.470 -34.395  1.00  0.00     0.045 C 
BRANCH  17  19
HETATM   19  N   UNL     1      -3.527   5.331 -33.298  1.00  0.00    -0.063 N 
HETATM   20  H   UNL     1      -4.116   5.844 -32.631  1.00  0.00     0.280 HD
HETATM   21  C   UNL     1      -4.361   5.124 -34.544  1.00  0.00     0.235 C 
HETATM   22  C   UNL     1      -5.671   4.445 -34.162  1.00  0.00     0.028 C 
HETATM   23  C   UNL     1      -5.431   3.128 -33.434  1.00  0.00     0.003 C 
HETATM   24  C   UNL     1      -4.506   3.318 -32.237  1.00  0.00     0.028 C 
HETATM   25  C   UNL     1      -3.207   4.008 -32.635  1.00  0.00     0.235 C 
ENDBRANCH  17  19
ENDBRANCH   1  17
TORSDOF 3
ENDMDL
