MODEL 1
REMARK VINA RESULT:      -8.1      0.000      0.000
REMARK  5 active torsions:
REMARK  status: ('A' for Active; 'I' for Inactive)
REMARK    1  A    between atoms: C_11  and  N_12 
REMARK       I    between atoms: N_12  and  C_13 
REMARK       I    between atoms: C_13  and  N_14 
REMARK    2  A    between atoms: N_14  and  C_15 
REMARK    3  A    between atoms: C_15  and  C_16 
REMARK    4  A    between atoms: C_16  and  N_17 
REMARK    5  A    between atoms: C_16  and  C_21 
ROOT
HETATM    1  N   UNL     1      -5.388   1.864 -31.330  1.00  0.00    -0.314 N 
HETATM    2  C   UNL     1      -4.493   2.882 -31.338  1.00  0.00     0.298 C 
HETATM    3  N   UNL     1      -3.548   2.918 -32.315  1.00  0.00    -0.242 NA
HETATM    4  O   UNL     1      -4.585   3.770 -30.494  1.00  0.00    -0.254 OA
HETATM    5  H   UNL     1      -5.973   1.923 -30.501  1.00  0.00     0.170 HD
HETATM    6  H   UNL     1      -3.173   1.990 -32.475  1.00  0.00     0.132 HD
ENDROOT
BRANCH   1   7
HETATM    7  C   UNL     1      -5.749   0.851 -32.243  1.00  0.00     0.038 A 
HETATM    8  C   UNL     1      -6.923   0.806 -32.984  1.00  0.00     0.032 A 
HETATM    9  C   UNL     1      -7.191  -0.288 -33.817  1.00  0.00     0.036 A 
HETATM   10  C   UNL     1      -6.315  -1.357 -33.914  1.00  0.00     0.086 A 
HETATM   11  N   UNL     1      -6.630  -2.402 -34.697  1.00  0.00    -0.250 NA
HETATM   12  C   UNL     1      -5.121  -1.326 -33.168  1.00  0.00     0.088 A 
HETATM   13  C   UNL     1      -5.749  -3.435 -34.737  1.00  0.00     0.055 A 
HETATM   14  C   UNL     1      -6.124  -4.600 -35.601  1.00  0.00     0.072 C 
HETATM   15  C   UNL     1      -4.567  -3.408 -33.996  1.00  0.00     0.055 A 
HETATM   16  N   UNL     1      -4.249  -2.346 -33.210  1.00  0.00    -0.250 NA
HETATM   17  C   UNL     1      -3.591  -4.545 -34.012  1.00  0.00     0.072 C 
HETATM   18  C   UNL     1      -4.857  -0.224 -32.360  1.00  0.00     0.063 A 
ENDBRANCH   1   7
BRANCH   3  19
HETATM   19  C   UNL     1      -2.536   3.974 -32.325  1.00  0.00     0.135 C 
BRANCH  19  20
HETATM   20  C   UNL     1      -2.945   5.386 -32.849  1.00  0.00     0.240 C 
BRANCH  20  21
HETATM   21  N   UNL     1      -2.683   5.679 -34.323  1.00  0.00    -0.069 N 
HETATM   22  H   UNL     1      -2.737   6.705 -34.366  1.00  0.00     0.279 HD
HETATM   23  C   UNL     1      -1.321   5.362 -34.862  1.00  0.00     0.270 C 
HETATM   24  C   UNL     1      -3.770   5.189 -35.235  1.00  0.00     0.270 C 
ENDBRANCH  20  21
BRANCH  20  25
HETATM   25  C   UNL     1      -2.481   6.527 -31.963  1.00  0.00     0.014 A 
HETATM   26  S   UNL     1      -1.433   6.176 -30.642  1.00  0.00    -0.104 SA
HETATM   27  C   UNL     1      -1.369   7.812 -30.161  1.00  0.00     0.050 A 
HETATM   28  C   UNL     1      -2.140   8.616 -30.969  1.00  0.00     0.008 A 
HETATM   29  C   UNL     1      -2.782   7.876 -32.002  1.00  0.00     0.017 A 
ENDBRANCH  20  25
ENDBRANCH  19  20
ENDBRANCH   3  19
TORSDOF 5
ENDMDL
MODEL 2
REMARK VINA RESULT:      -8.0      4.627      7.267
REMARK  5 active torsions:
REMARK  status: ('A' for Active; 'I' for Inactive)
REMARK    1  A    between atoms: C_11  and  N_12 
REMARK       I    between atoms: N_12  and  C_13 
REMARK       I    between atoms: C_13  and  N_14 
REMARK    2  A    between atoms: N_14  and  C_15 
REMARK    3  A    between atoms: C_15  and  C_16 
REMARK    4  A    between atoms: C_16  and  N_17 
REMARK    5  A    between atoms: C_16  and  C_21 
ROOT
HETATM    1  N   UNL     1      -6.343   2.340 -33.360  1.00  0.00    -0.314 N 
HETATM    2  C   UNL     1      -7.587   2.791 -33.065  1.00  0.00     0.298 C 
HETATM    3  N   UNL     1      -8.550   1.890 -32.737  1.00  0.00    -0.242 NA
HETATM    4  O   UNL     1      -7.800   4.001 -33.053  1.00  0.00    -0.254 OA
HETATM    5  H   UNL     1      -5.757   3.114 -33.666  1.00  0.00     0.170 HD
HETATM    6  H   UNL     1      -8.500   1.083 -33.348  1.00  0.00     0.132 HD
ENDROOT
BRANCH   1   7
HETATM    7  C   UNL     1      -5.676   1.104 -33.229  1.00  0.00     0.038 A 
HETATM    8  C   UNL     1      -4.500   0.886 -32.523  1.00  0.00     0.032 A 
HETATM    9  C   UNL     1      -3.905  -0.382 -32.517  1.00  0.00     0.036 A 
HETATM   10  C   UNL     1      -4.451  -1.443 -33.221  1.00  0.00     0.086 A 
HETATM   11  N   UNL     1      -3.827  -2.632 -33.216  1.00  0.00    -0.250 NA
HETATM   12  C   UNL     1      -5.643  -1.237 -33.941  1.00  0.00     0.088 A 
HETATM   13  C   UNL     1      -4.390  -3.631 -33.942  1.00  0.00     0.055 A 
HETATM   14  C   UNL     1      -3.671  -4.946 -33.941  1.00  0.00     0.072 C 
HETATM   15  C   UNL     1      -5.570  -3.429 -34.660  1.00  0.00     0.055 A 
HETATM   16  N   UNL     1      -6.202  -2.227 -34.657  1.00  0.00    -0.250 NA
HETATM   17  C   UNL     1      -6.197  -4.514 -35.482  1.00  0.00     0.072 C 
HETATM   18  C   UNL     1      -6.235   0.022 -33.924  1.00  0.00     0.063 A 
ENDBRANCH   1   7
BRANCH   3  19
HETATM   19  C   UNL     1      -9.915   2.337 -32.461  1.00  0.00     0.135 C 
BRANCH  19  20
HETATM   20  C   UNL     1     -10.882   2.550 -33.668  1.00  0.00     0.240 C 
BRANCH  20  21
HETATM   21  N   UNL     1     -11.305   3.986 -33.969  1.00  0.00    -0.069 N 
HETATM   22  H   UNL     1     -12.316   3.896 -34.133  1.00  0.00     0.279 HD
HETATM   23  C   UNL     1     -11.202   4.987 -32.858  1.00  0.00     0.270 C 
HETATM   24  C   UNL     1     -10.742   4.520 -35.254  1.00  0.00     0.270 C 
ENDBRANCH  20  21
BRANCH  20  25
HETATM   25  C   UNL     1     -12.069   1.606 -33.677  1.00  0.00     0.014 A 
HETATM   26  S   UNL     1     -13.656   2.271 -33.756  1.00  0.00    -0.104 SA
HETATM   27  C   UNL     1     -14.385   0.729 -33.719  1.00  0.00     0.050 A 
HETATM   28  C   UNL     1     -13.453  -0.279 -33.629  1.00  0.00     0.008 A 
HETATM   29  C   UNL     1     -12.122   0.226 -33.600  1.00  0.00     0.017 A 
ENDBRANCH  20  25
ENDBRANCH  19  20
ENDBRANCH   3  19
TORSDOF 5
ENDMDL
MODEL 3
REMARK VINA RESULT:      -7.8      1.379      2.237
REMARK  5 active torsions:
REMARK  status: ('A' for Active; 'I' for Inactive)
REMARK    1  A    between atoms: C_11  and  N_12 
REMARK       I    between atoms: N_12  and  C_13 
REMARK       I    between atoms: C_13  and  N_14 
REMARK    2  A    between atoms: N_14  and  C_15 
REMARK    3  A    between atoms: C_15  and  C_16 
REMARK    4  A    between atoms: C_16  and  N_17 
REMARK    5  A    between atoms: C_16  and  C_21 
ROOT
HETATM    1  N   UNL     1      -6.280   2.434 -33.082  1.00  0.00    -0.314 N 
HETATM    2  C   UNL     1      -5.906   3.728 -32.933  1.00  0.00     0.298 C 
HETATM    3  N   UNL     1      -4.685   4.002 -32.401  1.00  0.00    -0.242 NA
HETATM    4  O   UNL     1      -6.657   4.619 -33.324  1.00  0.00    -0.254 OA
HETATM    5  H   UNL     1      -7.242   2.385 -33.409  1.00  0.00     0.170 HD
HETATM    6  H   UNL     1      -4.498   3.389 -31.617  1.00  0.00     0.132 HD
ENDROOT
BRANCH   1   7
HETATM    7  C   UNL     1      -5.615   1.192 -33.000  1.00  0.00     0.038 A 
HETATM    8  C   UNL     1      -4.433   0.947 -32.314  1.00  0.00     0.032 A 
HETATM    9  C   UNL     1      -3.841  -0.322 -32.357  1.00  0.00     0.036 A 
HETATM   10  C   UNL     1      -4.396  -1.357 -33.092  1.00  0.00     0.086 A 
HETATM   11  N   UNL     1      -3.775  -2.547 -33.135  1.00  0.00    -0.250 NA
HETATM   12  C   UNL     1      -5.595  -1.123 -33.793  1.00  0.00     0.088 A 
HETATM   13  C   UNL     1      -4.349  -3.519 -33.889  1.00  0.00     0.055 A 
HETATM   14  C   UNL     1      -3.633  -4.835 -33.940  1.00  0.00     0.072 C 
HETATM   15  C   UNL     1      -5.535  -3.289 -34.588  1.00  0.00     0.055 A 
HETATM   16  N   UNL     1      -6.163  -2.086 -34.537  1.00  0.00    -0.250 NA
HETATM   17  C   UNL     1      -6.173  -4.343 -35.441  1.00  0.00     0.072 C 
HETATM   18  C   UNL     1      -6.184   0.136 -33.726  1.00  0.00     0.063 A 
ENDBRANCH   1   7
BRANCH   3  19
HETATM   19  C   UNL     1      -4.271   5.387 -32.180  1.00  0.00     0.135 C 
BRANCH  19  20
HETATM   20  C   UNL     1      -3.028   5.921 -32.959  1.00  0.00     0.240 C 
BRANCH  20  21
HETATM   21  N   UNL     1      -2.674   5.214 -34.264  1.00  0.00    -0.069 N 
HETATM   22  H   UNL     1      -2.660   4.223 -33.990  1.00  0.00     0.279 HD
HETATM   23  C   UNL     1      -3.675   5.271 -35.378  1.00  0.00     0.270 C 
HETATM   24  C   UNL     1      -1.285   5.509 -34.750  1.00  0.00     0.270 C 
ENDBRANCH  20  21
BRANCH  20  25
HETATM   25  C   UNL     1      -1.803   6.132 -32.090  1.00  0.00     0.014 A 
HETATM   26  S   UNL     1      -1.198   4.803 -31.176  1.00  0.00    -0.104 SA
HETATM   27  C   UNL     1       0.064   5.740 -30.511  1.00  0.00     0.050 A 
HETATM   28  C   UNL     1       0.026   7.042 -30.952  1.00  0.00     0.008 A 
HETATM   29  C   UNL     1      -1.050   7.268 -31.856  1.00  0.00     0.017 A 
ENDBRANCH  20  25
ENDBRANCH  19  20
ENDBRANCH   3  19
TORSDOF 5
ENDMDL
MODEL 4
REMARK VINA RESULT:      -7.8      2.294      3.115
REMARK  5 active torsions:
REMARK  status: ('A' for Active; 'I' for Inactive)
REMARK    1  A    between atoms: C_11  and  N_12 
REMARK       I    between atoms: N_12  and  C_13 
REMARK       I    between atoms: C_13  and  N_14 
REMARK    2  A    between atoms: N_14  and  C_15 
REMARK    3  A    between atoms: C_15  and  C_16 
REMARK    4  A    between atoms: C_16  and  N_17 
REMARK    5  A    between atoms: C_16  and  C_21 
ROOT
HETATM    1  N   UNL     1      -7.805   2.142 -33.581  1.00  0.00    -0.314 N 
HETATM    2  C   UNL     1      -7.426   3.443 -33.602  1.00  0.00     0.298 C 
HETATM    3  N   UNL     1      -6.121   3.742 -33.837  1.00  0.00    -0.242 NA
HETATM    4  O   UNL     1      -8.275   4.319 -33.458  1.00  0.00    -0.254 OA
HETATM    5  H   UNL     1      -8.783   2.069 -33.312  1.00  0.00     0.170 HD
HETATM    6  H   UNL     1      -5.517   3.109 -33.326  1.00  0.00     0.132 HD
ENDROOT
BRANCH   1   7
HETATM    7  C   UNL     1      -7.197   0.923 -33.949  1.00  0.00     0.038 A 
HETATM    8  C   UNL     1      -7.590   0.105 -35.001  1.00  0.00     0.032 A 
HETATM    9  C   UNL     1      -6.938  -1.113 -35.229  1.00  0.00     0.036 A 
HETATM   10  C   UNL     1      -5.904  -1.548 -34.414  1.00  0.00     0.086 A 
HETATM   11  N   UNL     1      -5.332  -2.739 -34.648  1.00  0.00    -0.250 NA
HETATM   12  C   UNL     1      -5.496  -0.729 -33.344  1.00  0.00     0.088 A 
HETATM   13  C   UNL     1      -4.342  -3.128 -33.804  1.00  0.00     0.055 A 
HETATM   14  C   UNL     1      -3.726  -4.468 -34.069  1.00  0.00     0.072 C 
HETATM   15  C   UNL     1      -3.937  -2.320 -32.741  1.00  0.00     0.055 A 
HETATM   16  N   UNL     1      -4.514  -1.112 -32.511  1.00  0.00    -0.250 NA
HETATM   17  C   UNL     1      -2.859  -2.739 -31.788  1.00  0.00     0.072 C 
HETATM   18  C   UNL     1      -6.139   0.489 -33.139  1.00  0.00     0.063 A 
ENDBRANCH   1   7
BRANCH   3  19
HETATM   19  C   UNL     1      -5.668   5.133 -33.817  1.00  0.00     0.135 C 
BRANCH  19  20
HETATM   20  C   UNL     1      -4.600   5.549 -32.757  1.00  0.00     0.240 C 
BRANCH  20  21
HETATM   21  N   UNL     1      -5.002   6.632 -31.759  1.00  0.00    -0.069 N 
HETATM   22  H   UNL     1      -4.284   7.353 -31.904  1.00  0.00     0.279 HD
HETATM   23  C   UNL     1      -6.295   7.349 -31.998  1.00  0.00     0.270 C 
HETATM   24  C   UNL     1      -4.855   6.211 -30.325  1.00  0.00     0.270 C 
ENDBRANCH  20  21
BRANCH  20  25
HETATM   25  C   UNL     1      -3.225   5.812 -33.342  1.00  0.00     0.014 A 
HETATM   26  S   UNL     1      -2.357   7.206 -32.822  1.00  0.00    -0.104 SA
HETATM   27  C   UNL     1      -1.034   6.852 -33.839  1.00  0.00     0.050 A 
HETATM   28  C   UNL     1      -1.242   5.710 -34.577  1.00  0.00     0.008 A 
HETATM   29  C   UNL     1      -2.504   5.115 -34.294  1.00  0.00     0.017 A 
ENDBRANCH  20  25
ENDBRANCH  19  20
ENDBRANCH   3  19
TORSDOF 5
ENDMDL
MODEL 5
REMARK VINA RESULT:      -7.7      2.016      2.938
REMARK  5 active torsions:
REMARK  status: ('A' for Active; 'I' for Inactive)
REMARK    1  A    between atoms: C_11  and  N_12 
REMARK       I    between atoms: N_12  and  C_13 
REMARK       I    between atoms: C_13  and  N_14 
REMARK    2  A    between atoms: N_14  and  C_15 
REMARK    3  A    between atoms: C_15  and  C_16 
REMARK    4  A    between atoms: C_16  and  N_17 
REMARK    5  A    between atoms: C_16  and  C_21 
ROOT
HETATM    1  N   UNL     1      -6.812   2.373 -33.691  1.00  0.00    -0.314 N 
HETATM    2  C   UNL     1      -6.492   3.686 -33.804  1.00  0.00     0.298 C 
HETATM    3  N   UNL     1      -5.229   4.082 -33.498  1.00  0.00    -0.242 NA
HETATM    4  O   UNL     1      -7.334   4.475 -34.226  1.00  0.00    -0.254 OA
HETATM    5  H   UNL     1      -7.805   2.241 -33.870  1.00  0.00     0.170 HD
HETATM    6  H   UNL     1      -4.907   3.614 -32.659  1.00  0.00     0.132 HD
ENDROOT
BRANCH   1   7
HETATM    7  C   UNL     1      -6.077   1.184 -33.504  1.00  0.00     0.038 A 
HETATM    8  C   UNL     1      -4.896   1.064 -32.783  1.00  0.00     0.032 A 
HETATM    9  C   UNL     1      -4.229  -0.166 -32.720  1.00  0.00     0.036 A 
HETATM   10  C   UNL     1      -4.708  -1.286 -33.381  1.00  0.00     0.086 A 
HETATM   11  N   UNL     1      -4.017  -2.436 -33.322  1.00  0.00    -0.250 NA
HETATM   12  C   UNL     1      -5.904  -1.179 -34.115  1.00  0.00     0.088 A 
HETATM   13  C   UNL     1      -4.517  -3.496 -34.008  1.00  0.00     0.055 A 
HETATM   14  C   UNL     1      -3.724  -4.766 -33.947  1.00  0.00     0.072 C 
HETATM   15  C   UNL     1      -5.701  -3.392 -34.740  1.00  0.00     0.055 A 
HETATM   16  N   UNL     1      -6.400  -2.229 -34.792  1.00  0.00    -0.250 NA
HETATM   17  C   UNL     1      -6.259  -4.544 -35.519  1.00  0.00     0.072 C 
HETATM   18  C   UNL     1      -6.568   0.043 -34.155  1.00  0.00     0.063 A 
ENDBRANCH   1   7
BRANCH   3  19
HETATM   19  C   UNL     1      -4.863   5.497 -33.561  1.00  0.00     0.135 C 
BRANCH  19  20
HETATM   20  C   UNL     1      -4.386   6.197 -32.249  1.00  0.00     0.240 C 
BRANCH  20  21
HETATM   21  N   UNL     1      -5.227   7.366 -31.745  1.00  0.00    -0.069 N 
HETATM   22  H   UNL     1      -4.854   8.162 -32.278  1.00  0.00     0.279 HD
HETATM   23  C   UNL     1      -6.690   7.361 -32.071  1.00  0.00     0.270 C 
HETATM   24  C   UNL     1      -4.980   7.706 -30.303  1.00  0.00     0.270 C 
ENDBRANCH  20  21
BRANCH  20  25
HETATM   25  C   UNL     1      -2.906   6.528 -32.234  1.00  0.00     0.014 A 
HETATM   26  S   UNL     1      -1.883   5.699 -31.124  1.00  0.00    -0.104 SA
HETATM   27  C   UNL     1      -0.499   6.544 -31.653  1.00  0.00     0.050 A 
HETATM   28  C   UNL     1      -0.798   7.455 -32.640  1.00  0.00     0.008 A 
HETATM   29  C   UNL     1      -2.182   7.448 -32.971  1.00  0.00     0.017 A 
ENDBRANCH  20  25
ENDBRANCH  19  20
ENDBRANCH   3  19
TORSDOF 5
ENDMDL
MODEL 6
REMARK VINA RESULT:      -7.6      3.473      8.632
REMARK  5 active torsions:
REMARK  status: ('A' for Active; 'I' for Inactive)
REMARK    1  A    between atoms: C_11  and  N_12 
REMARK       I    between atoms: N_12  and  C_13 
REMARK       I    between atoms: C_13  and  N_14 
REMARK    2  A    between atoms: N_14  and  C_15 
REMARK    3  A    between atoms: C_15  and  C_16 
REMARK    4  A    between atoms: C_16  and  N_17 
REMARK    5  A    between atoms: C_16  and  C_21 
ROOT
HETATM    1  N   UNL     1      -5.753   5.676 -33.496  1.00  0.00    -0.314 N 
HETATM    2  C   UNL     1      -6.950   5.043 -33.435  1.00  0.00     0.298 C 
HETATM    3  N   UNL     1      -6.987   3.745 -33.034  1.00  0.00    -0.242 NA
HETATM    4  O   UNL     1      -7.975   5.669 -33.697  1.00  0.00    -0.254 OA
HETATM    5  H   UNL     1      -5.872   6.606 -33.890  1.00  0.00     0.170 HD
HETATM    6  H   UNL     1      -6.227   3.225 -33.456  1.00  0.00     0.132 HD
ENDROOT
BRANCH   1   7
HETATM    7  C   UNL     1      -4.451   5.384 -33.041  1.00  0.00     0.038 A 
HETATM    8  C   UNL     1      -3.626   4.378 -33.529  1.00  0.00     0.032 A 
HETATM    9  C   UNL     1      -2.370   4.152 -32.951  1.00  0.00     0.036 A 
HETATM   10  C   UNL     1      -1.922   4.899 -31.874  1.00  0.00     0.086 A 
HETATM   11  N   UNL     1      -0.727   4.623 -31.328  1.00  0.00    -0.250 NA
HETATM   12  C   UNL     1      -2.747   5.921 -31.368  1.00  0.00     0.088 A 
HETATM   13  C   UNL     1      -0.346   5.369 -30.259  1.00  0.00     0.055 A 
HETATM   14  C   UNL     1       0.983   5.036 -29.651  1.00  0.00     0.072 C 
HETATM   15  C   UNL     1      -1.164   6.380 -29.753  1.00  0.00     0.055 A 
HETATM   16  N   UNL     1      -2.369   6.661 -30.312  1.00  0.00    -0.250 NA
HETATM   17  C   UNL     1      -0.769   7.201 -28.563  1.00  0.00     0.072 C 
HETATM   18  C   UNL     1      -3.984   6.150 -31.964  1.00  0.00     0.063 A 
ENDBRANCH   1   7
BRANCH   3  19
HETATM   19  C   UNL     1      -8.255   3.017 -33.005  1.00  0.00     0.135 C 
BRANCH  19  20
HETATM   20  C   UNL     1      -8.626   2.126 -34.233  1.00  0.00     0.240 C 
BRANCH  20  21
HETATM   21  N   UNL     1     -10.108   2.000 -34.573  1.00  0.00    -0.069 N 
HETATM   22  H   UNL     1     -10.094   1.520 -35.481  1.00  0.00     0.279 HD
HETATM   23  C   UNL     1     -10.947   1.114 -33.703  1.00  0.00     0.270 C 
HETATM   24  C   UNL     1     -10.778   3.318 -34.834  1.00  0.00     0.270 C 
ENDBRANCH  20  21
BRANCH  20  25
HETATM   25  C   UNL     1      -7.935   0.776 -34.241  1.00  0.00     0.014 A 
HETATM   26  S   UNL     1      -7.399   0.110 -32.746  1.00  0.00    -0.104 SA
HETATM   27  C   UNL     1      -6.773  -1.283 -33.506  1.00  0.00     0.050 A 
HETATM   28  C   UNL     1      -6.945  -1.247 -34.871  1.00  0.00     0.008 A 
HETATM   29  C   UNL     1      -7.609  -0.061 -35.293  1.00  0.00     0.017 A 
ENDBRANCH  20  25
ENDBRANCH  19  20
ENDBRANCH   3  19
TORSDOF 5
ENDMDL
MODEL 7
REMARK VINA RESULT:      -7.5      5.204      7.627
REMARK  5 active torsions:
REMARK  status: ('A' for Active; 'I' for Inactive)
REMARK    1  A    between atoms: C_11  and  N_12 
REMARK       I    between atoms: N_12  and  C_13 
REMARK       I    between atoms: C_13  and  N_14 
REMARK    2  A    between atoms: N_14  and  C_15 
REMARK    3  A    between atoms: C_15  and  C_16 
REMARK    4  A    between atoms: C_16  and  N_17 
REMARK    5  A    between atoms: C_16  and  C_21 
ROOT
HETATM    1  N   UNL     1      -7.418   2.833 -33.764  1.00  0.00    -0.314 N 
HETATM    2  C   UNL     1      -8.521   3.341 -33.162  1.00  0.00     0.298 C 
HETATM    3  N   UNL     1      -9.586   2.525 -32.947  1.00  0.00    -0.242 NA
HETATM    4  O   UNL     1      -8.514   4.510 -32.783  1.00  0.00    -0.254 OA
HETATM    5  H   UNL     1      -6.742   3.574 -33.934  1.00  0.00     0.170 HD
HETATM    6  H   UNL     1      -9.749   1.938 -33.757  1.00  0.00     0.132 HD
ENDROOT
BRANCH   1   7
HETATM    7  C   UNL     1      -6.972   1.534 -34.086  1.00  0.00     0.038 A 
HETATM    8  C   UNL     1      -7.511   0.709 -35.064  1.00  0.00     0.032 A 
HETATM    9  C   UNL     1      -7.013  -0.587 -35.248  1.00  0.00     0.036 A 
HETATM   10  C   UNL     1      -5.991  -1.091 -34.459  1.00  0.00     0.086 A 
HETATM   11  N   UNL     1      -5.569  -2.352 -34.646  1.00  0.00    -0.250 NA
HETATM   12  C   UNL     1      -5.434  -0.266 -33.463  1.00  0.00     0.088 A 
HETATM   13  C   UNL     1      -4.583  -2.804 -33.830  1.00  0.00     0.055 A 
HETATM   14  C   UNL     1      -4.136  -4.218 -34.041  1.00  0.00     0.072 C 
HETATM   15  C   UNL     1      -4.032  -1.989 -32.840  1.00  0.00     0.055 A 
HETATM   16  N   UNL     1      -4.457  -0.712 -32.657  1.00  0.00    -0.250 NA
HETATM   17  C   UNL     1      -2.956  -2.476 -31.917  1.00  0.00     0.072 C 
HETATM   18  C   UNL     1      -5.925   1.027 -33.303  1.00  0.00     0.063 A 
ENDBRANCH   1   7
BRANCH   3  19
HETATM   19  C   UNL     1     -10.811   3.053 -32.345  1.00  0.00     0.135 C 
BRANCH  19  20
HETATM   20  C   UNL     1     -11.947   3.549 -33.294  1.00  0.00     0.240 C 
BRANCH  20  21
HETATM   21  N   UNL     1     -12.445   4.977 -33.088  1.00  0.00    -0.069 N 
HETATM   22  H   UNL     1     -13.309   4.842 -32.548  1.00  0.00     0.279 HD
HETATM   23  C   UNL     1     -11.616   5.884 -32.232  1.00  0.00     0.270 C 
HETATM   24  C   UNL     1     -12.876   5.651 -34.359  1.00  0.00     0.270 C 
ENDBRANCH  20  21
BRANCH  20  25
HETATM   25  C   UNL     1     -13.099   2.572 -33.434  1.00  0.00     0.014 A 
HETATM   26  S   UNL     1     -13.012   1.358 -34.654  1.00  0.00    -0.104 SA
HETATM   27  C   UNL     1     -14.536   0.719 -34.230  1.00  0.00     0.050 A 
HETATM   28  C   UNL     1     -15.118   1.416 -33.196  1.00  0.00     0.008 A 
HETATM   29  C   UNL     1     -14.293   2.484 -32.742  1.00  0.00     0.017 A 
ENDBRANCH  20  25
ENDBRANCH  19  20
ENDBRANCH   3  19
TORSDOF 5
ENDMDL
MODEL 8
REMARK VINA RESULT:      -7.5      2.227      2.901
REMARK  5 active torsions:
REMARK  status: ('A' for Active; 'I' for Inactive)
REMARK    1  A    between atoms: C_11  and  N_12 
REMARK       I    between atoms: N_12  and  C_13 
REMARK       I    between atoms: C_13  and  N_14 
REMARK    2  A    between atoms: N_14  and  C_15 
REMARK    3  A    between atoms: C_15  and  C_16 
REMARK    4  A    between atoms: C_16  and  N_17 
REMARK    5  A    between atoms: C_16  and  C_21 
ROOT
HETATM    1  N   UNL     1      -7.353   2.504 -33.774  1.00  0.00    -0.314 N 
HETATM    2  C   UNL     1      -6.848   3.759 -33.869  1.00  0.00     0.298 C 
HETATM    3  N   UNL     1      -5.525   3.915 -34.136  1.00  0.00    -0.242 NA
HETATM    4  O   UNL     1      -7.604   4.721 -33.759  1.00  0.00    -0.254 OA
HETATM    5  H   UNL     1      -8.329   2.543 -33.488  1.00  0.00     0.170 HD
HETATM    6  H   UNL     1      -4.977   3.251 -33.600  1.00  0.00     0.132 HD
ENDROOT
BRANCH   1   7
HETATM    7  C   UNL     1      -6.876   1.215 -34.086  1.00  0.00     0.038 A 
HETATM    8  C   UNL     1      -7.374   0.383 -35.080  1.00  0.00     0.032 A 
HETATM    9  C   UNL     1      -6.848  -0.904 -35.254  1.00  0.00     0.036 A 
HETATM   10  C   UNL     1      -5.839  -1.392 -34.438  1.00  0.00     0.086 A 
HETATM   11  N   UNL     1      -5.391  -2.645 -34.616  1.00  0.00    -0.250 NA
HETATM   12  C   UNL     1      -5.325  -0.560 -33.425  1.00  0.00     0.088 A 
HETATM   13  C   UNL     1      -4.420  -3.082 -33.774  1.00  0.00     0.055 A 
HETATM   14  C   UNL     1      -3.943  -4.488 -33.975  1.00  0.00     0.072 C 
HETATM   15  C   UNL     1      -3.911  -2.261 -32.767  1.00  0.00     0.055 A 
HETATM   16  N   UNL     1      -4.363  -0.992 -32.593  1.00  0.00    -0.250 NA
HETATM   17  C   UNL     1      -2.852  -2.731 -31.815  1.00  0.00     0.072 C 
HETATM   18  C   UNL     1      -5.842   0.723 -33.276  1.00  0.00     0.063 A 
ENDBRANCH   1   7
BRANCH   3  19
HETATM   19  C   UNL     1      -4.936   5.253 -34.196  1.00  0.00     0.135 C 
BRANCH  19  20
HETATM   20  C   UNL     1      -4.069   5.734 -32.990  1.00  0.00     0.240 C 
BRANCH  20  21
HETATM   21  N   UNL     1      -2.624   5.245 -32.939  1.00  0.00    -0.069 N 
HETATM   22  H   UNL     1      -2.705   4.348 -32.442  1.00  0.00     0.279 HD
HETATM   23  C   UNL     1      -1.967   4.886 -34.237  1.00  0.00     0.270 C 
HETATM   24  C   UNL     1      -1.733   6.094 -32.080  1.00  0.00     0.270 C 
ENDBRANCH  20  21
BRANCH  20  25
HETATM   25  C   UNL     1      -4.755   5.589 -31.645  1.00  0.00     0.014 A 
HETATM   26  S   UNL     1      -5.628   6.932 -31.011  1.00  0.00    -0.104 SA
HETATM   27  C   UNL     1      -6.062   6.078 -29.600  1.00  0.00     0.050 A 
HETATM   28  C   UNL     1      -5.545   4.804 -29.589  1.00  0.00     0.008 A 
HETATM   29  C   UNL     1      -4.790   4.525 -30.764  1.00  0.00     0.017 A 
ENDBRANCH  20  25
ENDBRANCH  19  20
ENDBRANCH   3  19
TORSDOF 5
ENDMDL
MODEL 9
REMARK VINA RESULT:      -7.4      2.196      3.511
REMARK  5 active torsions:
REMARK  status: ('A' for Active; 'I' for Inactive)
REMARK    1  A    between atoms: C_11  and  N_12 
REMARK       I    between atoms: N_12  and  C_13 
REMARK       I    between atoms: C_13  and  N_14 
REMARK    2  A    between atoms: N_14  and  C_15 
REMARK    3  A    between atoms: C_15  and  C_16 
REMARK    4  A    between atoms: C_16  and  N_17 
REMARK    5  A    between atoms: C_16  and  C_21 
ROOT
HETATM    1  N   UNL     1      -6.412   3.536 -29.266  1.00  0.00    -0.314 N 
HETATM    2  C   UNL     1      -5.656   4.660 -29.211  1.00  0.00     0.298 C 
HETATM    3  N   UNL     1      -4.854   4.964 -30.265  1.00  0.00    -0.242 NA
HETATM    4  O   UNL     1      -5.750   5.400 -28.235  1.00  0.00    -0.254 OA
HETATM    5  H   UNL     1      -6.891   3.396 -28.380  1.00  0.00     0.170 HD
HETATM    6  H   UNL     1      -4.390   4.129 -30.606  1.00  0.00     0.132 HD
ENDROOT
BRANCH   1   7
HETATM    7  C   UNL     1      -6.757   2.620 -30.281  1.00  0.00     0.038 A 
HETATM    8  C   UNL     1      -8.011   2.491 -30.866  1.00  0.00     0.032 A 
HETATM    9  C   UNL     1      -8.242   1.499 -31.829  1.00  0.00     0.036 A 
HETATM   10  C   UNL     1      -7.248   0.613 -32.211  1.00  0.00     0.086 A 
HETATM   11  N   UNL     1      -7.524  -0.346 -33.110  1.00  0.00    -0.250 NA
HETATM   12  C   UNL     1      -5.973   0.732 -31.626  1.00  0.00     0.088 A 
HETATM   13  C   UNL     1      -6.521  -1.203 -33.430  1.00  0.00     0.055 A 
HETATM   14  C   UNL     1      -6.852  -2.277 -34.421  1.00  0.00     0.072 C 
HETATM   15  C   UNL     1      -5.257  -1.090 -32.849  1.00  0.00     0.055 A 
HETATM   16  N   UNL     1      -4.980  -0.116 -31.945  1.00  0.00    -0.250 NA
HETATM   17  C   UNL     1      -4.144  -2.038 -33.176  1.00  0.00     0.072 C 
HETATM   18  C   UNL     1      -5.750   1.733 -30.686  1.00  0.00     0.063 A 
ENDBRANCH   1   7
BRANCH   3  19
HETATM   19  C   UNL     1      -3.988   6.142 -30.219  1.00  0.00     0.135 C 
BRANCH  19  20
HETATM   20  C   UNL     1      -2.462   5.950 -30.488  1.00  0.00     0.240 C 
BRANCH  20  21
HETATM   21  N   UNL     1      -1.504   6.846 -29.707  1.00  0.00    -0.069 N 
HETATM   22  H   UNL     1      -1.346   7.630 -30.354  1.00  0.00     0.279 HD
HETATM   23  C   UNL     1      -2.024   7.499 -28.462  1.00  0.00     0.270 C 
HETATM   24  C   UNL     1      -0.151   6.234 -29.491  1.00  0.00     0.270 C 
ENDBRANCH  20  21
BRANCH  20  25
HETATM   25  C   UNL     1      -2.101   5.898 -31.960  1.00  0.00     0.014 A 
HETATM   26  S   UNL     1      -2.004   7.374 -32.843  1.00  0.00    -0.104 SA
HETATM   27  C   UNL     1      -1.600   6.568 -34.291  1.00  0.00     0.050 A 
HETATM   28  C   UNL     1      -1.554   5.203 -34.125  1.00  0.00     0.008 A 
HETATM   29  C   UNL     1      -1.847   4.818 -32.786  1.00  0.00     0.017 A 
ENDBRANCH  20  25
ENDBRANCH  19  20
ENDBRANCH   3  19
TORSDOF 5
ENDMDL
MODEL 10
REMARK VINA RESULT:      -7.3      2.785      8.409
REMARK  5 active torsions:
REMARK  status: ('A' for Active; 'I' for Inactive)
REMARK    1  A    between atoms: C_11  and  N_12 
REMARK       I    between atoms: N_12  and  C_13 
REMARK       I    between atoms: C_13  and  N_14 
REMARK    2  A    between atoms: N_14  and  C_15 
REMARK    3  A    between atoms: C_15  and  C_16 
REMARK    4  A    between atoms: C_16  and  N_17 
REMARK    5  A    between atoms: C_16  and  C_21 
ROOT
HETATM    1  N   UNL     1      -5.985   2.038 -29.904  1.00  0.00    -0.314 N 
HETATM    2  C   UNL     1      -6.027   0.772 -30.385  1.00  0.00     0.298 C 
HETATM    3  N   UNL     1      -5.465   0.510 -31.595  1.00  0.00    -0.242 NA
HETATM    4  O   UNL     1      -6.526  -0.116 -29.698  1.00  0.00    -0.254 OA
HETATM    5  H   UNL     1      -6.515   2.098 -29.038  1.00  0.00     0.170 HD
HETATM    6  H   UNL     1      -5.690   1.247 -32.254  1.00  0.00     0.132 HD
ENDROOT
BRANCH   1   7
HETATM    7  C   UNL     1      -5.298   3.216 -30.265  1.00  0.00     0.038 A 
HETATM    8  C   UNL     1      -5.427   4.453 -29.647  1.00  0.00     0.032 A 
HETATM    9  C   UNL     1      -4.729   5.564 -30.138  1.00  0.00     0.036 A 
HETATM   10  C   UNL     1      -3.914   5.473 -31.255  1.00  0.00     0.086 A 
HETATM   11  N   UNL     1      -3.293   6.572 -31.713  1.00  0.00    -0.250 NA
HETATM   12  C   UNL     1      -3.774   4.226 -31.892  1.00  0.00     0.088 A 
HETATM   13  C   UNL     1      -2.526   6.433 -32.825  1.00  0.00     0.055 A 
HETATM   14  C   UNL     1      -1.855   7.673 -33.333  1.00  0.00     0.072 C 
HETATM   15  C   UNL     1      -2.389   5.199 -33.461  1.00  0.00     0.055 A 
HETATM   16  N   UNL     1      -3.013   4.088 -32.990  1.00  0.00    -0.250 NA
HETATM   17  C   UNL     1      -1.562   5.029 -34.699  1.00  0.00     0.072 C 
HETATM   18  C   UNL     1      -4.457   3.125 -31.383  1.00  0.00     0.063 A 
ENDBRANCH   1   7
BRANCH   3  19
HETATM   19  C   UNL     1      -5.535  -0.834 -32.167  1.00  0.00     0.135 C 
BRANCH  19  20
HETATM   20  C   UNL     1      -5.906  -0.978 -33.676  1.00  0.00     0.240 C 
BRANCH  20  21
HETATM   21  N   UNL     1      -7.140  -0.221 -34.160  1.00  0.00    -0.069 N 
HETATM   22  H   UNL     1      -7.469  -0.798 -34.945  1.00  0.00     0.279 HD
HETATM   23  C   UNL     1      -8.319  -0.154 -33.237  1.00  0.00     0.270 C 
HETATM   24  C   UNL     1      -6.826   1.119 -34.759  1.00  0.00     0.270 C 
ENDBRANCH  20  21
BRANCH  20  25
HETATM   25  C   UNL     1      -5.900  -2.410 -34.176  1.00  0.00     0.014 A 
HETATM   26  S   UNL     1      -4.422  -3.294 -34.138  1.00  0.00    -0.104 SA
HETATM   27  C   UNL     1      -5.150  -4.684 -34.806  1.00  0.00     0.050 A 
HETATM   28  C   UNL     1      -6.485  -4.489 -35.074  1.00  0.00     0.008 A 
HETATM   29  C   UNL     1      -6.915  -3.179 -34.715  1.00  0.00     0.017 A 
ENDBRANCH  20  25
ENDBRANCH  19  20
ENDBRANCH   3  19
TORSDOF 5
ENDMDL
