MODEL 1
REMARK VINA RESULT:      -7.7      0.000      0.000
REMARK  5 active torsions:
REMARK  status: ('A' for Active; 'I' for Inactive)
REMARK    1  A    between atoms: C_2  and  O_3 
REMARK    2  A    between atoms: O_3  and  C_4 
REMARK    3  A    between atoms: C_6  and  C_7 
REMARK    4  A    between atoms: C_7  and  N_8 
REMARK       I    between atoms: N_8  and  C_9 
REMARK       I    between atoms: C_9  and  N_10 
REMARK    5  A    between atoms: N_10  and  C_11 
ROOT
HETATM    1  N   UNL     1      -4.433   1.818 -31.747  1.00  0.00    -0.335 N 
HETATM    2  C   UNL     1      -4.220   3.140 -31.993  1.00  0.00     0.321 C 
HETATM    3  N   UNL     1      -3.005   3.470 -32.520  1.00  0.00    -0.307 N 
HETATM    4  O   UNL     1      -5.112   3.925 -31.686  1.00  0.00    -0.247 OA
HETATM    5  H   UNL     1      -5.368   1.685 -31.380  1.00  0.00     0.165 HD
HETATM    6  H   UNL     1      -2.290   2.770 -32.436  1.00  0.00     0.170 HD
ENDROOT
BRANCH   1   7
HETATM    7  C   UNL     1      -3.801   0.640 -32.333  1.00  0.00     0.115 C 
HETATM    8  C   UNL     1      -3.008  -0.108 -31.261  1.00  0.00     0.037 C 
BRANCH   7   9
HETATM    9  C   UNL     1      -4.819  -0.284 -32.979  1.00  0.00    -0.033 A 
HETATM   10  C   UNL     1      -4.428  -1.424 -33.704  1.00  0.00     0.046 A 
HETATM   11  C   UNL     1      -5.368  -2.250 -34.330  1.00  0.00     0.069 A 
HETATM   12  C   UNL     1      -6.721  -1.929 -34.248  1.00  0.00     0.037 A 
HETATM   13  C   UNL     1      -7.128  -0.797 -33.539  1.00  0.00     0.003 A 
HETATM   14  C   UNL     1      -6.186   0.019 -32.909  1.00  0.00     0.009 A 
BRANCH  11  15
HETATM   15  O   UNL     1      -4.831  -3.321 -34.990  1.00  0.00    -0.352 OA
BRANCH  15  16
HETATM   16  C   UNL     1      -5.164  -4.619 -34.502  1.00  0.00     0.171 C 
HETATM   17  C   UNL     1      -4.002  -5.114 -33.660  1.00  0.00     0.034 C 
ENDBRANCH  15  16
ENDBRANCH  11  15
ENDBRANCH   7   9
ENDBRANCH   1   7
BRANCH   3  18
HETATM   18  C   UNL     1      -2.580   4.761 -32.919  1.00  0.00     0.059 A 
HETATM   19  C   UNL     1      -1.604   5.435 -32.160  1.00  0.00    -0.032 A 
HETATM   20  C   UNL     1      -0.993   4.845 -30.920  1.00  0.00     0.050 C 
HETATM   21  C   UNL     1      -1.191   6.711 -32.570  1.00  0.00     0.028 A 
HETATM   22  C   UNL     1      -1.747   7.268 -33.710  1.00  0.00     0.117 A 
HETATM   23  N   UNL     1      -2.673   6.648 -34.463  1.00  0.00    -0.271 NA
HETATM   24  C   UNL     1      -3.068   5.416 -34.053  1.00  0.00     0.146 A 
ENDBRANCH   3  18
TORSDOF 5
ENDMDL
MODEL 2
REMARK VINA RESULT:      -7.5      1.003      1.500
REMARK  5 active torsions:
REMARK  status: ('A' for Active; 'I' for Inactive)
REMARK    1  A    between atoms: C_2  and  O_3 
REMARK    2  A    between atoms: O_3  and  C_4 
REMARK    3  A    between atoms: C_6  and  C_7 
REMARK    4  A    between atoms: C_7  and  N_8 
REMARK       I    between atoms: N_8  and  C_9 
REMARK       I    between atoms: C_9  and  N_10 
REMARK    5  A    between atoms: N_10  and  C_11 
ROOT
HETATM    1  N   UNL     1      -4.426   2.069 -31.867  1.00  0.00    -0.335 N 
HETATM    2  C   UNL     1      -4.023   3.369 -31.887  1.00  0.00     0.321 C 
HETATM    3  N   UNL     1      -2.677   3.586 -31.947  1.00  0.00    -0.307 N 
HETATM    4  O   UNL     1      -4.891   4.234 -31.810  1.00  0.00    -0.247 OA
HETATM    5  H   UNL     1      -5.438   2.026 -31.845  1.00  0.00     0.165 HD
HETATM    6  H   UNL     1      -2.100   2.800 -31.708  1.00  0.00     0.170 HD
ENDROOT
BRANCH   1   7
HETATM    7  C   UNL     1      -3.744   0.867 -32.334  1.00  0.00     0.115 C 
HETATM    8  C   UNL     1      -3.021   0.196 -31.165  1.00  0.00     0.037 C 
BRANCH   7   9
HETATM    9  C   UNL     1      -4.704  -0.108 -32.992  1.00  0.00    -0.033 A 
HETATM   10  C   UNL     1      -4.248  -1.259 -33.660  1.00  0.00     0.046 A 
HETATM   11  C   UNL     1      -5.134  -2.133 -34.298  1.00  0.00     0.069 A 
HETATM   12  C   UNL     1      -6.498  -1.852 -34.286  1.00  0.00     0.037 A 
HETATM   13  C   UNL     1      -6.969  -0.710 -33.635  1.00  0.00     0.003 A 
HETATM   14  C   UNL     1      -6.081   0.155 -32.992  1.00  0.00     0.009 A 
BRANCH  11  15
HETATM   15  O   UNL     1      -4.537  -3.209 -34.896  1.00  0.00    -0.352 OA
BRANCH  15  16
HETATM   16  C   UNL     1      -4.833  -4.498 -34.363  1.00  0.00     0.171 C 
HETATM   17  C   UNL     1      -3.662  -4.926 -33.498  1.00  0.00     0.034 C 
ENDBRANCH  15  16
ENDBRANCH  11  15
ENDBRANCH   7   9
ENDBRANCH   1   7
BRANCH   3  18
HETATM   18  C   UNL     1      -2.027   4.840 -32.045  1.00  0.00     0.059 A 
HETATM   19  C   UNL     1      -1.779   5.394 -33.316  1.00  0.00    -0.032 A 
HETATM   20  C   UNL     1      -2.166   4.700 -34.592  1.00  0.00     0.050 C 
HETATM   21  C   UNL     1      -1.136   6.639 -33.396  1.00  0.00     0.028 A 
HETATM   22  C   UNL     1      -0.772   7.289 -32.230  1.00  0.00     0.117 A 
HETATM   23  N   UNL     1      -1.002   6.793 -31.001  1.00  0.00    -0.271 NA
HETATM   24  C   UNL     1      -1.620   5.585 -30.936  1.00  0.00     0.146 A 
ENDBRANCH   3  18
TORSDOF 5
ENDMDL
MODEL 3
REMARK VINA RESULT:      -7.4      1.385      2.625
REMARK  5 active torsions:
REMARK  status: ('A' for Active; 'I' for Inactive)
REMARK    1  A    between atoms: C_2  and  O_3 
REMARK    2  A    between atoms: O_3  and  C_4 
REMARK    3  A    between atoms: C_6  and  C_7 
REMARK    4  A    between atoms: C_7  and  N_8 
REMARK       I    between atoms: N_8  and  C_9 
REMARK       I    between atoms: C_9  and  N_10 
REMARK    5  A    between atoms: N_10  and  C_11 
ROOT
HETATM    1  N   UNL     1      -4.396   1.765 -31.803  1.00  0.00    -0.335 N 
HETATM    2  C   UNL     1      -4.175   3.090 -32.024  1.00  0.00     0.321 C 
HETATM    3  N   UNL     1      -2.972   3.420 -32.578  1.00  0.00    -0.307 N 
HETATM    4  O   UNL     1      -5.050   3.877 -31.674  1.00  0.00    -0.247 OA
HETATM    5  H   UNL     1      -5.321   1.634 -31.413  1.00  0.00     0.165 HD
HETATM    6  H   UNL     1      -2.263   2.711 -32.531  1.00  0.00     0.170 HD
ENDROOT
BRANCH   1   7
HETATM    7  C   UNL     1      -3.794   0.595 -32.434  1.00  0.00     0.115 C 
HETATM    8  C   UNL     1      -3.150  -0.292 -31.369  1.00  0.00     0.037 C 
BRANCH   7   9
HETATM    9  C   UNL     1      -4.810  -0.198 -33.238  1.00  0.00    -0.033 A 
HETATM   10  C   UNL     1      -6.040   0.359 -33.631  1.00  0.00     0.046 A 
HETATM   11  C   UNL     1      -6.988  -0.389 -34.337  1.00  0.00     0.069 A 
HETATM   12  C   UNL     1      -6.716  -1.719 -34.648  1.00  0.00     0.037 A 
HETATM   13  C   UNL     1      -5.502  -2.291 -34.260  1.00  0.00     0.003 A 
HETATM   14  C   UNL     1      -4.556  -1.538 -33.562  1.00  0.00     0.009 A 
BRANCH  11  15
HETATM   15  O   UNL     1      -8.131   0.295 -34.651  1.00  0.00    -0.352 OA
BRANCH  15  16
HETATM   16  C   UNL     1      -8.786   0.989 -33.590  1.00  0.00     0.171 C 
HETATM   17  C   UNL     1      -9.674  -0.004 -32.862  1.00  0.00     0.034 C 
ENDBRANCH  15  16
ENDBRANCH  11  15
ENDBRANCH   7   9
ENDBRANCH   1   7
BRANCH   3  18
HETATM   18  C   UNL     1      -2.544   4.715 -32.960  1.00  0.00     0.059 A 
HETATM   19  C   UNL     1      -1.569   5.378 -32.189  1.00  0.00    -0.032 A 
HETATM   20  C   UNL     1      -0.963   4.772 -30.954  1.00  0.00     0.050 C 
HETATM   21  C   UNL     1      -1.154   6.659 -32.581  1.00  0.00     0.028 A 
HETATM   22  C   UNL     1      -1.705   7.231 -33.715  1.00  0.00     0.117 A 
HETATM   23  N   UNL     1      -2.630   6.622 -34.479  1.00  0.00    -0.271 NA
HETATM   24  C   UNL     1      -3.028   5.385 -34.086  1.00  0.00     0.146 A 
ENDBRANCH   3  18
TORSDOF 5
ENDMDL
MODEL 4
REMARK VINA RESULT:      -7.3      2.257      7.902
REMARK  5 active torsions:
REMARK  status: ('A' for Active; 'I' for Inactive)
REMARK    1  A    between atoms: C_2  and  O_3 
REMARK    2  A    between atoms: O_3  and  C_4 
REMARK    3  A    between atoms: C_6  and  C_7 
REMARK    4  A    between atoms: C_7  and  N_8 
REMARK       I    between atoms: N_8  and  C_9 
REMARK       I    between atoms: C_9  and  N_10 
REMARK    5  A    between atoms: N_10  and  C_11 
ROOT
HETATM    1  N   UNL     1      -5.258   2.945 -32.284  1.00  0.00    -0.335 N 
HETATM    2  C   UNL     1      -5.218   1.585 -32.333  1.00  0.00     0.321 C 
HETATM    3  N   UNL     1      -5.483   1.014 -33.543  1.00  0.00    -0.307 N 
HETATM    4  O   UNL     1      -4.989   0.987 -31.286  1.00  0.00    -0.247 OA
HETATM    5  H   UNL     1      -5.025   3.260 -31.350  1.00  0.00     0.165 HD
HETATM    6  H   UNL     1      -5.935   1.609 -34.214  1.00  0.00     0.170 HD
ENDROOT
BRANCH   1   7
HETATM    7  C   UNL     1      -5.096   3.928 -33.351  1.00  0.00     0.115 C 
HETATM    8  C   UNL     1      -6.086   5.076 -33.150  1.00  0.00     0.037 C 
BRANCH   7   9
HETATM    9  C   UNL     1      -3.675   4.461 -33.417  1.00  0.00    -0.033 A 
HETATM   10  C   UNL     1      -2.784   4.329 -32.337  1.00  0.00     0.046 A 
HETATM   11  C   UNL     1      -1.489   4.857 -32.390  1.00  0.00     0.069 A 
HETATM   12  C   UNL     1      -1.076   5.542 -33.530  1.00  0.00     0.037 A 
HETATM   13  C   UNL     1      -1.950   5.689 -34.610  1.00  0.00     0.003 A 
HETATM   14  C   UNL     1      -3.238   5.153 -34.555  1.00  0.00     0.009 A 
BRANCH  11  15
HETATM   15  O   UNL     1      -0.743   4.641 -31.264  1.00  0.00    -0.352 OA
BRANCH  15  16
HETATM   16  C   UNL     1       0.356   5.519 -31.032  1.00  0.00     0.171 C 
HETATM   17  C   UNL     1      -0.147   6.690 -30.206  1.00  0.00     0.034 C 
ENDBRANCH  15  16
ENDBRANCH  11  15
ENDBRANCH   7   9
ENDBRANCH   1   7
BRANCH   3  18
HETATM   18  C   UNL     1      -5.436  -0.367 -33.855  1.00  0.00     0.059 A 
HETATM   19  C   UNL     1      -6.511  -0.957 -34.547  1.00  0.00    -0.032 A 
HETATM   20  C   UNL     1      -7.730  -0.183 -34.965  1.00  0.00     0.050 C 
HETATM   21  C   UNL     1      -6.448  -2.326 -34.851  1.00  0.00     0.028 A 
HETATM   22  C   UNL     1      -5.333  -3.053 -34.470  1.00  0.00     0.117 A 
HETATM   23  N   UNL     1      -4.286  -2.518 -33.817  1.00  0.00    -0.271 NA
HETATM   24  C   UNL     1      -4.361  -1.194 -33.525  1.00  0.00     0.146 A 
ENDBRANCH   3  18
TORSDOF 5
ENDMDL
MODEL 5
REMARK VINA RESULT:      -7.3      4.302      7.191
REMARK  5 active torsions:
REMARK  status: ('A' for Active; 'I' for Inactive)
REMARK    1  A    between atoms: C_2  and  O_3 
REMARK    2  A    between atoms: O_3  and  C_4 
REMARK    3  A    between atoms: C_6  and  C_7 
REMARK    4  A    between atoms: C_7  and  N_8 
REMARK       I    between atoms: N_8  and  C_9 
REMARK       I    between atoms: C_9  and  N_10 
REMARK    5  A    between atoms: N_10  and  C_11 
ROOT
HETATM    1  N   UNL     1      -7.949   3.919 -33.697  1.00  0.00    -0.335 N 
HETATM    2  C   UNL     1      -9.267   3.590 -33.612  1.00  0.00     0.321 C 
HETATM    3  N   UNL     1      -9.682   2.543 -34.383  1.00  0.00    -0.307 N 
HETATM    4  O   UNL     1      -9.979   4.280 -32.887  1.00  0.00    -0.247 OA
HETATM    5  H   UNL     1      -7.749   4.689 -33.070  1.00  0.00     0.165 HD
HETATM    6  H   UNL     1      -9.062   2.280 -35.128  1.00  0.00     0.170 HD
ENDROOT
BRANCH   1   7
HETATM    7  C   UNL     1      -6.804   3.112 -34.106  1.00  0.00     0.115 C 
HETATM    8  C   UNL     1      -5.560   3.995 -34.208  1.00  0.00     0.037 C 
BRANCH   7   9
HETATM    9  C   UNL     1      -6.557   1.957 -33.152  1.00  0.00    -0.033 A 
HETATM   10  C   UNL     1      -6.353   0.645 -33.615  1.00  0.00     0.046 A 
HETATM   11  C   UNL     1      -6.164  -0.422 -32.729  1.00  0.00     0.069 A 
HETATM   12  C   UNL     1      -6.193  -0.184 -31.358  1.00  0.00     0.037 A 
HETATM   13  C   UNL     1      -6.402   1.111 -30.879  1.00  0.00     0.003 A 
HETATM   14  C   UNL     1      -6.581   2.173 -31.767  1.00  0.00     0.009 A 
BRANCH  11  15
HETATM   15  O   UNL     1      -5.973  -1.634 -33.335  1.00  0.00    -0.352 OA
BRANCH  15  16
HETATM   16  C   UNL     1      -6.665  -1.865 -34.561  1.00  0.00     0.171 C 
HETATM   17  C   UNL     1      -6.761  -3.366 -34.766  1.00  0.00     0.034 C 
ENDBRANCH  15  16
ENDBRANCH  11  15
ENDBRANCH   7   9
ENDBRANCH   1   7
BRANCH   3  18
HETATM   18  C   UNL     1     -10.980   1.979 -34.414  1.00  0.00     0.059 A 
HETATM   19  C   UNL     1     -11.244   0.808 -33.677  1.00  0.00    -0.032 A 
HETATM   20  C   UNL     1     -10.193   0.111 -32.859  1.00  0.00     0.050 C 
HETATM   21  C   UNL     1     -12.536   0.262 -33.715  1.00  0.00     0.028 A 
HETATM   22  C   UNL     1     -13.514   0.891 -34.466  1.00  0.00     0.117 A 
HETATM   23  N   UNL     1     -13.299   2.015 -35.173  1.00  0.00    -0.271 NA
HETATM   24  C   UNL     1     -12.043   2.531 -35.132  1.00  0.00     0.146 A 
ENDBRANCH   3  18
TORSDOF 5
ENDMDL
MODEL 6
REMARK VINA RESULT:      -7.3      5.175      8.495
REMARK  5 active torsions:
REMARK  status: ('A' for Active; 'I' for Inactive)
REMARK    1  A    between atoms: C_2  and  O_3 
REMARK    2  A    between atoms: O_3  and  C_4 
REMARK    3  A    between atoms: C_6  and  C_7 
REMARK    4  A    between atoms: C_7  and  N_8 
REMARK       I    between atoms: N_8  and  C_9 
REMARK       I    between atoms: C_9  and  N_10 
REMARK    5  A    between atoms: N_10  and  C_11 
ROOT
HETATM    1  N   UNL     1      -8.341   1.027 -34.467  1.00  0.00    -0.335 N 
HETATM    2  C   UNL     1      -7.401   0.102 -34.806  1.00  0.00     0.321 C 
HETATM    3  N   UNL     1      -7.287  -0.977 -33.979  1.00  0.00    -0.307 N 
HETATM    4  O   UNL     1      -6.711   0.331 -35.795  1.00  0.00    -0.247 OA
HETATM    5  H   UNL     1      -8.355   1.769 -35.157  1.00  0.00     0.165 HD
HETATM    6  H   UNL     1      -7.703  -0.875 -33.071  1.00  0.00     0.170 HD
ENDROOT
BRANCH   1   7
HETATM    7  C   UNL     1      -9.543   0.889 -33.651  1.00  0.00     0.115 C 
HETATM    8  C   UNL     1      -9.230   1.266 -32.202  1.00  0.00     0.037 C 
BRANCH   7   9
HETATM    9  C   UNL     1     -10.686   1.736 -34.181  1.00  0.00    -0.033 A 
HETATM   10  C   UNL     1     -11.997   1.233 -34.277  1.00  0.00     0.046 A 
HETATM   11  C   UNL     1     -13.038   2.004 -34.804  1.00  0.00     0.069 A 
HETATM   12  C   UNL     1     -12.772   3.294 -35.258  1.00  0.00     0.037 A 
HETATM   13  C   UNL     1     -11.476   3.807 -35.177  1.00  0.00     0.003 A 
HETATM   14  C   UNL     1     -10.441   3.036 -34.643  1.00  0.00     0.009 A 
BRANCH  11  15
HETATM   15  O   UNL     1     -14.253   1.377 -34.824  1.00  0.00    -0.352 OA
BRANCH  15  16
HETATM   16  C   UNL     1     -14.693   0.769 -33.610  1.00  0.00     0.171 C 
HETATM   17  C   UNL     1     -15.416   1.826 -32.795  1.00  0.00     0.034 C 
ENDBRANCH  15  16
ENDBRANCH  11  15
ENDBRANCH   7   9
ENDBRANCH   1   7
BRANCH   3  18
HETATM   18  C   UNL     1      -6.434  -2.094 -34.160  1.00  0.00     0.059 A 
HETATM   19  C   UNL     1      -5.075  -1.992 -33.805  1.00  0.00    -0.032 A 
HETATM   20  C   UNL     1      -4.475  -0.732 -33.249  1.00  0.00     0.050 C 
HETATM   21  C   UNL     1      -4.245  -3.108 -33.987  1.00  0.00     0.028 A 
HETATM   22  C   UNL     1      -4.783  -4.275 -34.501  1.00  0.00     0.117 A 
HETATM   23  N   UNL     1      -6.077  -4.409 -34.841  1.00  0.00    -0.271 NA
HETATM   24  C   UNL     1      -6.870  -3.321 -34.664  1.00  0.00     0.146 A 
ENDBRANCH   3  18
TORSDOF 5
ENDMDL
MODEL 7
REMARK VINA RESULT:      -7.0      4.100      6.828
REMARK  5 active torsions:
REMARK  status: ('A' for Active; 'I' for Inactive)
REMARK    1  A    between atoms: C_2  and  O_3 
REMARK    2  A    between atoms: O_3  and  C_4 
REMARK    3  A    between atoms: C_6  and  C_7 
REMARK    4  A    between atoms: C_7  and  N_8 
REMARK       I    between atoms: N_8  and  C_9 
REMARK       I    between atoms: C_9  and  N_10 
REMARK    5  A    between atoms: N_10  and  C_11 
ROOT
HETATM    1  N   UNL     1      -7.407   2.437 -32.390  1.00  0.00    -0.335 N 
HETATM    2  C   UNL     1      -8.745   2.189 -32.435  1.00  0.00     0.321 C 
HETATM    3  N   UNL     1      -9.327   2.229 -33.668  1.00  0.00    -0.307 N 
HETATM    4  O   UNL     1      -9.321   1.991 -31.369  1.00  0.00    -0.247 OA
HETATM    5  H   UNL     1      -7.077   2.360 -31.435  1.00  0.00     0.165 HD
HETATM    6  H   UNL     1      -8.795   2.687 -34.386  1.00  0.00     0.170 HD
ENDROOT
BRANCH   1   7
HETATM    7  C   UNL     1      -6.392   2.307 -33.430  1.00  0.00     0.115 C 
HETATM    8  C   UNL     1      -5.289   3.342 -33.208  1.00  0.00     0.037 C 
BRANCH   7   9
HETATM    9  C   UNL     1      -5.803   0.908 -33.474  1.00  0.00    -0.033 A 
HETATM   10  C   UNL     1      -6.375  -0.111 -34.257  1.00  0.00     0.046 A 
HETATM   11  C   UNL     1      -5.851  -1.409 -34.262  1.00  0.00     0.069 A 
HETATM   12  C   UNL     1      -4.749  -1.704 -33.464  1.00  0.00     0.037 A 
HETATM   13  C   UNL     1      -4.172  -0.707 -32.674  1.00  0.00     0.003 A 
HETATM   14  C   UNL     1      -4.694   0.588 -32.679  1.00  0.00     0.009 A 
BRANCH  11  15
HETATM   15  O   UNL     1      -6.514  -2.284 -35.079  1.00  0.00    -0.352 OA
BRANCH  15  16
HETATM   16  C   UNL     1      -6.843  -3.561 -34.535  1.00  0.00     0.171 C 
HETATM   17  C   UNL     1      -6.327  -4.622 -35.490  1.00  0.00     0.034 C 
ENDBRANCH  15  16
ENDBRANCH  11  15
ENDBRANCH   7   9
ENDBRANCH   1   7
BRANCH   3  18
HETATM   18  C   UNL     1     -10.680   1.940 -33.973  1.00  0.00     0.059 A 
HETATM   19  C   UNL     1     -11.406   2.819 -34.800  1.00  0.00    -0.032 A 
HETATM   20  C   UNL     1     -10.808   4.074 -35.371  1.00  0.00     0.050 C 
HETATM   21  C   UNL     1     -12.744   2.518 -35.096  1.00  0.00     0.028 A 
HETATM   22  C   UNL     1     -13.309   1.366 -34.575  1.00  0.00     0.117 A 
HETATM   23  N   UNL     1     -12.642   0.501 -33.791  1.00  0.00    -0.271 NA
HETATM   24  C   UNL     1     -11.349   0.806 -33.508  1.00  0.00     0.146 A 
ENDBRANCH   3  18
TORSDOF 5
ENDMDL
MODEL 8
REMARK VINA RESULT:      -7.0      5.117      8.574
REMARK  5 active torsions:
REMARK  status: ('A' for Active; 'I' for Inactive)
REMARK    1  A    between atoms: C_2  and  O_3 
REMARK    2  A    between atoms: O_3  and  C_4 
REMARK    3  A    between atoms: C_6  and  C_7 
REMARK    4  A    between atoms: C_7  and  N_8 
REMARK       I    between atoms: N_8  and  C_9 
REMARK       I    between atoms: C_9  and  N_10 
REMARK    5  A    between atoms: N_10  and  C_11 
ROOT
HETATM    1  N   UNL     1      -8.899   0.907 -34.147  1.00  0.00    -0.335 N 
HETATM    2  C   UNL     1      -7.903   0.095 -34.596  1.00  0.00     0.321 C 
HETATM    3  N   UNL     1      -7.452  -0.851 -33.722  1.00  0.00    -0.307 N 
HETATM    4  O   UNL     1      -7.468   0.302 -35.725  1.00  0.00    -0.247 OA
HETATM    5  H   UNL     1      -9.170   1.551 -34.879  1.00  0.00     0.165 HD
HETATM    6  H   UNL     1      -7.693  -0.703 -32.759  1.00  0.00     0.170 HD
ENDROOT
BRANCH   1   7
HETATM    7  C   UNL     1      -9.878   0.694 -33.086  1.00  0.00     0.115 C 
HETATM    8  C   UNL     1      -9.516   1.549 -31.870  1.00  0.00     0.037 C 
BRANCH   7   9
HETATM    9  C   UNL     1     -11.290   1.006 -33.549  1.00  0.00    -0.033 A 
HETATM   10  C   UNL     1     -11.682   2.309 -33.905  1.00  0.00     0.046 A 
HETATM   11  C   UNL     1     -12.995   2.596 -34.294  1.00  0.00     0.069 A 
HETATM   12  C   UNL     1     -13.941   1.575 -34.315  1.00  0.00     0.037 A 
HETATM   13  C   UNL     1     -13.572   0.275 -33.958  1.00  0.00     0.003 A 
HETATM   14  C   UNL     1     -12.258  -0.008 -33.579  1.00  0.00     0.009 A 
BRANCH  11  15
HETATM   15  O   UNL     1     -13.216   3.908 -34.614  1.00  0.00    -0.352 OA
BRANCH  15  16
HETATM   16  C   UNL     1     -12.096   4.664 -35.072  1.00  0.00     0.171 C 
HETATM   17  C   UNL     1     -12.615   5.981 -35.621  1.00  0.00     0.034 C 
ENDBRANCH  15  16
ENDBRANCH  11  15
ENDBRANCH   7   9
ENDBRANCH   1   7
BRANCH   3  18
HETATM   18  C   UNL     1      -6.478  -1.846 -33.982  1.00  0.00     0.059 A 
HETATM   19  C   UNL     1      -5.147  -1.637 -33.571  1.00  0.00    -0.032 A 
HETATM   20  C   UNL     1      -4.703  -0.383 -32.871  1.00  0.00     0.050 C 
HETATM   21  C   UNL     1      -4.195  -2.633 -33.833  1.00  0.00     0.028 A 
HETATM   22  C   UNL     1      -4.589  -3.792 -34.479  1.00  0.00     0.117 A 
HETATM   23  N   UNL     1      -5.852  -4.028 -34.876  1.00  0.00    -0.271 NA
HETATM   24  C   UNL     1      -6.764  -3.055 -34.621  1.00  0.00     0.146 A 
ENDBRANCH   3  18
TORSDOF 5
ENDMDL
MODEL 9
REMARK VINA RESULT:      -7.0      2.324      7.819
REMARK  5 active torsions:
REMARK  status: ('A' for Active; 'I' for Inactive)
REMARK    1  A    between atoms: C_2  and  O_3 
REMARK    2  A    between atoms: O_3  and  C_4 
REMARK    3  A    between atoms: C_6  and  C_7 
REMARK    4  A    between atoms: C_7  and  N_8 
REMARK       I    between atoms: N_8  and  C_9 
REMARK       I    between atoms: C_9  and  N_10 
REMARK    5  A    between atoms: N_10  and  C_11 
ROOT
HETATM    1  N   UNL     1      -3.741   1.110 -31.548  1.00  0.00    -0.335 N 
HETATM    2  C   UNL     1      -3.592  -0.103 -32.147  1.00  0.00     0.321 C 
HETATM    3  N   UNL     1      -4.729  -0.687 -32.624  1.00  0.00    -0.307 N 
HETATM    4  O   UNL     1      -2.464  -0.589 -32.173  1.00  0.00    -0.247 OA
HETATM    5  H   UNL     1      -2.837   1.459 -31.253  1.00  0.00     0.165 HD
HETATM    6  H   UNL     1      -5.591  -0.315 -32.270  1.00  0.00     0.170 HD
ENDROOT
BRANCH   1   7
HETATM    7  C   UNL     1      -4.794   2.109 -31.699  1.00  0.00     0.115 C 
HETATM    8  C   UNL     1      -5.109   2.737 -30.341  1.00  0.00     0.037 C 
BRANCH   7   9
HETATM    9  C   UNL     1      -4.415   3.183 -32.704  1.00  0.00    -0.033 A 
HETATM   10  C   UNL     1      -3.111   3.705 -32.772  1.00  0.00     0.046 A 
HETATM   11  C   UNL     1      -2.777   4.722 -33.673  1.00  0.00     0.069 A 
HETATM   12  C   UNL     1      -3.760   5.241 -34.512  1.00  0.00     0.037 A 
HETATM   13  C   UNL     1      -5.062   4.740 -34.453  1.00  0.00     0.003 A 
HETATM   14  C   UNL     1      -5.388   3.719 -33.558  1.00  0.00     0.009 A 
BRANCH  11  15
HETATM   15  O   UNL     1      -1.469   5.117 -33.621  1.00  0.00    -0.352 OA
BRANCH  15  16
HETATM   16  C   UNL     1      -1.171   6.443 -34.057  1.00  0.00     0.171 C 
HETATM   17  C   UNL     1      -1.233   7.357 -32.846  1.00  0.00     0.034 C 
ENDBRANCH  15  16
ENDBRANCH  11  15
ENDBRANCH   7   9
ENDBRANCH   1   7
BRANCH   3  18
HETATM   18  C   UNL     1      -4.816  -1.907 -33.339  1.00  0.00     0.059 A 
HETATM   19  C   UNL     1      -5.826  -2.072 -34.307  1.00  0.00    -0.032 A 
HETATM   20  C   UNL     1      -6.838  -1.003 -34.612  1.00  0.00     0.050 C 
HETATM   21  C   UNL     1      -5.897  -3.284 -35.009  1.00  0.00     0.028 A 
HETATM   22  C   UNL     1      -4.972  -4.278 -34.738  1.00  0.00     0.117 A 
HETATM   23  N   UNL     1      -3.991  -4.150 -33.828  1.00  0.00    -0.271 NA
HETATM   24  C   UNL     1      -3.935  -2.974 -33.152  1.00  0.00     0.146 A 
ENDBRANCH   3  18
TORSDOF 5
ENDMDL
MODEL 10
REMARK VINA RESULT:      -6.8      2.315      3.288
REMARK  5 active torsions:
REMARK  status: ('A' for Active; 'I' for Inactive)
REMARK    1  A    between atoms: C_2  and  O_3 
REMARK    2  A    between atoms: O_3  and  C_4 
REMARK    3  A    between atoms: C_6  and  C_7 
REMARK    4  A    between atoms: C_7  and  N_8 
REMARK       I    between atoms: N_8  and  C_9 
REMARK       I    between atoms: C_9  and  N_10 
REMARK    5  A    between atoms: N_10  and  C_11 
ROOT
HETATM    1  N   UNL     1      -6.608   4.098 -34.154  1.00  0.00    -0.335 N 
HETATM    2  C   UNL     1      -5.408   4.698 -33.928  1.00  0.00     0.321 C 
HETATM    3  N   UNL     1      -4.992   4.749 -32.629  1.00  0.00    -0.307 N 
HETATM    4  O   UNL     1      -4.820   5.176 -34.894  1.00  0.00    -0.247 OA
HETATM    5  H   UNL     1      -6.806   4.096 -35.148  1.00  0.00     0.165 HD
HETATM    6  H   UNL     1      -5.702   4.588 -31.938  1.00  0.00     0.170 HD
ENDROOT
BRANCH   1   7
HETATM    7  C   UNL     1      -7.334   3.117 -33.355  1.00  0.00     0.115 C 
HETATM    8  C   UNL     1      -8.833   3.415 -33.407  1.00  0.00     0.037 C 
BRANCH   7   9
HETATM    9  C   UNL     1      -7.061   1.697 -33.818  1.00  0.00    -0.033 A 
HETATM   10  C   UNL     1      -5.894   1.007 -33.442  1.00  0.00     0.046 A 
HETATM   11  C   UNL     1      -5.629  -0.286 -33.905  1.00  0.00     0.069 A 
HETATM   12  C   UNL     1      -6.533  -0.902 -34.767  1.00  0.00     0.037 A 
HETATM   13  C   UNL     1      -7.694  -0.230 -35.157  1.00  0.00     0.003 A 
HETATM   14  C   UNL     1      -7.957   1.058 -34.686  1.00  0.00     0.009 A 
BRANCH  11  15
HETATM   15  O   UNL     1      -4.458  -0.823 -33.446  1.00  0.00    -0.352 OA
BRANCH  15  16
HETATM   16  C   UNL     1      -4.234  -0.789 -32.037  1.00  0.00     0.171 C 
HETATM   17  C   UNL     1      -2.736  -0.869 -31.801  1.00  0.00     0.034 C 
ENDBRANCH  15  16
ENDBRANCH  11  15
ENDBRANCH   7   9
ENDBRANCH   1   7
BRANCH   3  18
HETATM   18  C   UNL     1      -3.758   5.259 -32.156  1.00  0.00     0.059 A 
HETATM   19  C   UNL     1      -2.780   4.368 -31.672  1.00  0.00    -0.032 A 
HETATM   20  C   UNL     1      -2.994   2.882 -31.620  1.00  0.00     0.050 C 
HETATM   21  C   UNL     1      -1.562   4.888 -31.211  1.00  0.00     0.028 A 
HETATM   22  C   UNL     1      -1.351   6.256 -31.251  1.00  0.00     0.117 A 
HETATM   23  N   UNL     1      -2.259   7.133 -31.716  1.00  0.00    -0.271 NA
HETATM   24  C   UNL     1      -3.436   6.618 -32.155  1.00  0.00     0.146 A 
ENDBRANCH   3  18
TORSDOF 5
ENDMDL
