MODEL 1
REMARK VINA RESULT:      -8.5      0.000      0.000
REMARK  3 active torsions:
REMARK  status: ('A' for Active; 'I' for Inactive)
REMARK    1  A    between atoms: C_3  and  C_4 
REMARK    2  A    between atoms: C_10  and  C_11 
REMARK    3  A    between atoms: C_14  and  O_15 
ROOT
HETATM    1  C   UNL     1      -2.998   4.862 -31.553  1.00  0.00    -0.007 A 
HETATM    2  C   UNL     1      -2.867   3.469 -31.651  1.00  0.00     0.047 A 
HETATM    3  C   UNL     1      -3.899   2.731 -32.252  1.00  0.00     0.086 A 
HETATM    4  C   UNL     1      -5.022   3.385 -32.734  1.00  0.00     0.063 A 
HETATM    5  N   UNL     1      -5.798   2.380 -33.252  1.00  0.00    -0.338 N 
HETATM    6  H   UNL     1      -6.685   2.506 -33.712  1.00  0.00     0.167 HD
HETATM    7  C   UNL     1      -5.147   1.178 -33.078  1.00  0.00     0.139 A 
HETATM    8  N   UNL     1      -3.989   1.381 -32.472  1.00  0.00    -0.228 NA
HETATM    9  C   UNL     1      -5.196   4.764 -32.655  1.00  0.00     0.033 A 
HETATM   10  C   UNL     1      -4.158   5.488 -32.052  1.00  0.00     0.016 A 
ENDROOT
BRANCH   1  11
HETATM   11  C   UNL     1      -1.924   5.728 -30.948  1.00  0.00     0.069 C 
HETATM   12  C   UNL     1      -0.593   5.903 -31.671  1.00  0.00     0.045 C 
HETATM   13  C   UNL     1      -0.728   7.021 -32.707  1.00  0.00     0.017 C 
HETATM   14  C   UNL     1       0.510   6.196 -30.665  1.00  0.00     0.115 C 
HETATM   15  C   UNL     1       0.083   7.210 -29.646  1.00  0.00     0.238 C 
HETATM   16  N   UNL     1      -1.244   7.182 -29.309  1.00  0.00    -0.247 N 
HETATM   17  O   UNL     1       0.878   7.965 -29.092  1.00  0.00    -0.272 OA
HETATM   18  N   UNL     1      -2.195   6.376 -29.850  1.00  0.00    -0.176 NA
HETATM   19  H   UNL     1      -1.539   7.784 -28.546  1.00  0.00     0.192 HD
ENDBRANCH   1  11
BRANCH   7  20
HETATM   20  C   UNL     1      -5.661  -0.118 -33.535  1.00  0.00     0.010 A 
HETATM   21  C   UNL     1      -4.756  -1.153 -33.806  1.00  0.00     0.018 A 
HETATM   22  C   UNL     1      -5.204  -2.398 -34.256  1.00  0.00     0.037 A 
HETATM   23  C   UNL     1      -6.565  -2.640 -34.440  1.00  0.00     0.068 A 
HETATM   24  C   UNL     1      -7.476  -1.622 -34.163  1.00  0.00     0.037 A 
HETATM   25  C   UNL     1      -7.027  -0.372 -33.714  1.00  0.00     0.018 A 
BRANCH  23  26
HETATM   26  O   UNL     1      -6.868  -3.896 -34.886  1.00  0.00    -0.356 OA
HETATM   27  C   UNL     1      -5.796  -4.825 -34.979  1.00  0.00     0.210 C 
ENDBRANCH  23  26
ENDBRANCH   7  20
TORSDOF 3
ENDMDL
MODEL 2
REMARK VINA RESULT:      -8.2      4.683     10.092
REMARK  3 active torsions:
REMARK  status: ('A' for Active; 'I' for Inactive)
REMARK    1  A    between atoms: C_3  and  C_4 
REMARK    2  A    between atoms: C_10  and  C_11 
REMARK    3  A    between atoms: C_14  and  O_15 
ROOT
HETATM    1  C   UNL     1     -10.360   1.293 -33.465  1.00  0.00    -0.007 A 
HETATM    2  C   UNL     1      -9.634   2.425 -33.862  1.00  0.00     0.047 A 
HETATM    3  C   UNL     1      -8.258   2.480 -33.584  1.00  0.00     0.086 A 
HETATM    4  C   UNL     1      -7.646   1.426 -32.926  1.00  0.00     0.063 A 
HETATM    5  N   UNL     1      -6.332   1.806 -32.835  1.00  0.00    -0.338 N 
HETATM    6  H   UNL     1      -5.592   1.255 -32.432  1.00  0.00     0.167 HD
HETATM    7  C   UNL     1      -6.182   3.044 -33.422  1.00  0.00     0.139 A 
HETATM    8  N   UNL     1      -7.350   3.462 -33.884  1.00  0.00    -0.228 NA
HETATM    9  C   UNL     1      -8.328   0.285 -32.511  1.00  0.00     0.033 A 
HETATM   10  C   UNL     1      -9.701   0.244 -32.794  1.00  0.00     0.016 A 
ENDROOT
BRANCH   1  11
HETATM   11  C   UNL     1     -11.832   1.144 -33.750  1.00  0.00     0.069 C 
HETATM   12  C   UNL     1     -12.632   2.340 -34.252  1.00  0.00     0.045 C 
HETATM   13  C   UNL     1     -12.481   2.445 -35.770  1.00  0.00     0.017 C 
HETATM   14  C   UNL     1     -14.090   2.199 -33.836  1.00  0.00     0.115 C 
HETATM   15  C   UNL     1     -14.607   0.812 -34.073  1.00  0.00     0.238 C 
HETATM   16  N   UNL     1     -13.689  -0.192 -33.918  1.00  0.00    -0.247 N 
HETATM   17  O   UNL     1     -15.789   0.580 -34.313  1.00  0.00    -0.272 OA
HETATM   18  N   UNL     1     -12.368  -0.039 -33.638  1.00  0.00    -0.176 NA
HETATM   19  H   UNL     1     -14.035  -1.145 -33.968  1.00  0.00     0.192 HD
ENDBRANCH   1  11
BRANCH   7  20
HETATM   20  C   UNL     1      -4.906   3.758 -33.542  1.00  0.00     0.010 A 
HETATM   21  C   UNL     1      -3.850   3.415 -32.688  1.00  0.00     0.018 A 
HETATM   22  C   UNL     1      -2.623   4.079 -32.761  1.00  0.00     0.037 A 
HETATM   23  C   UNL     1      -2.420   5.096 -33.693  1.00  0.00     0.068 A 
HETATM   24  C   UNL     1      -3.460   5.440 -34.557  1.00  0.00     0.037 A 
HETATM   25  C   UNL     1      -4.692   4.774 -34.482  1.00  0.00     0.018 A 
BRANCH  23  26
HETATM   26  O   UNL     1      -1.178   5.666 -33.658  1.00  0.00    -0.356 OA
HETATM   27  C   UNL     1      -1.091   6.995 -33.161  1.00  0.00     0.210 C 
ENDBRANCH  23  26
ENDBRANCH   7  20
TORSDOF 3
ENDMDL
MODEL 3
REMARK VINA RESULT:      -8.1      5.116      6.643
REMARK  3 active torsions:
REMARK  status: ('A' for Active; 'I' for Inactive)
REMARK    1  A    between atoms: C_3  and  C_4 
REMARK    2  A    between atoms: C_10  and  C_11 
REMARK    3  A    between atoms: C_14  and  O_15 
ROOT
HETATM    1  C   UNL     1      -6.120   3.525 -33.895  1.00  0.00    -0.007 A 
HETATM    2  C   UNL     1      -7.430   4.024 -33.826  1.00  0.00     0.047 A 
HETATM    3  C   UNL     1      -8.498   3.116 -33.749  1.00  0.00     0.086 A 
HETATM    4  C   UNL     1      -8.245   1.753 -33.744  1.00  0.00     0.063 A 
HETATM    5  N   UNL     1      -9.487   1.182 -33.650  1.00  0.00    -0.338 N 
HETATM    6  H   UNL     1      -9.673   0.194 -33.594  1.00  0.00     0.167 HD
HETATM    7  C   UNL     1     -10.437   2.181 -33.602  1.00  0.00     0.139 A 
HETATM    8  N   UNL     1      -9.844   3.362 -33.659  1.00  0.00    -0.228 NA
HETATM    9  C   UNL     1      -6.963   1.214 -33.814  1.00  0.00     0.033 A 
HETATM   10  C   UNL     1      -5.906   2.132 -33.892  1.00  0.00     0.016 A 
ENDROOT
BRANCH   1  11
HETATM   11  C   UNL     1      -4.919   4.432 -33.952  1.00  0.00     0.069 C 
HETATM   12  C   UNL     1      -4.168   4.777 -32.670  1.00  0.00     0.045 C 
HETATM   13  C   UNL     1      -3.156   3.670 -32.369  1.00  0.00     0.017 C 
HETATM   14  C   UNL     1      -3.496   6.135 -32.813  1.00  0.00     0.115 C 
HETATM   15  C   UNL     1      -2.806   6.281 -34.136  1.00  0.00     0.238 C 
HETATM   16  N   UNL     1      -3.403   5.632 -35.184  1.00  0.00    -0.247 N 
HETATM   17  O   UNL     1      -1.819   6.996 -34.292  1.00  0.00    -0.272 OA
HETATM   18  N   UNL     1      -4.501   4.836 -35.118  1.00  0.00    -0.176 NA
HETATM   19  H   UNL     1      -3.019   5.801 -36.109  1.00  0.00     0.192 HD
ENDBRANCH   1  11
BRANCH   7  20
HETATM   20  C   UNL     1     -11.879   1.950 -33.469  1.00  0.00     0.010 A 
HETATM   21  C   UNL     1     -12.698   2.992 -33.014  1.00  0.00     0.018 A 
HETATM   22  C   UNL     1     -14.074   2.808 -32.861  1.00  0.00     0.037 A 
HETATM   23  C   UNL     1     -14.667   1.583 -33.166  1.00  0.00     0.068 A 
HETATM   24  C   UNL     1     -13.865   0.541 -33.630  1.00  0.00     0.037 A 
HETATM   25  C   UNL     1     -12.482   0.724 -33.781  1.00  0.00     0.018 A 
BRANCH  23  26
HETATM   26  O   UNL     1     -16.019   1.535 -32.970  1.00  0.00    -0.356 OA
HETATM   27  C   UNL     1     -16.597   2.581 -32.201  1.00  0.00     0.210 C 
ENDBRANCH  23  26
ENDBRANCH   7  20
TORSDOF 3
ENDMDL
MODEL 4
REMARK VINA RESULT:      -8.1      2.190      9.535
REMARK  3 active torsions:
REMARK  status: ('A' for Active; 'I' for Inactive)
REMARK    1  A    between atoms: C_3  and  C_4 
REMARK    2  A    between atoms: C_10  and  C_11 
REMARK    3  A    between atoms: C_14  and  O_15 
ROOT
HETATM    1  C   UNL     1      -5.298  -0.360 -32.625  1.00  0.00    -0.007 A 
HETATM    2  C   UNL     1      -4.584   0.752 -33.094  1.00  0.00     0.047 A 
HETATM    3  C   UNL     1      -4.393   1.847 -32.236  1.00  0.00     0.086 A 
HETATM    4  C   UNL     1      -4.911   1.813 -30.950  1.00  0.00     0.063 A 
HETATM    5  N   UNL     1      -4.534   3.013 -30.406  1.00  0.00    -0.338 N 
HETATM    6  H   UNL     1      -4.724   3.311 -29.463  1.00  0.00     0.167 HD
HETATM    7  C   UNL     1      -3.819   3.726 -31.344  1.00  0.00     0.139 A 
HETATM    8  N   UNL     1      -3.726   3.023 -32.462  1.00  0.00    -0.228 NA
HETATM    9  C   UNL     1      -5.628   0.732 -30.444  1.00  0.00     0.033 A 
HETATM   10  C   UNL     1      -5.812  -0.354 -31.312  1.00  0.00     0.016 A 
ENDROOT
BRANCH   1  11
HETATM   11  C   UNL     1      -5.522  -1.585 -33.472  1.00  0.00     0.069 C 
HETATM   12  C   UNL     1      -6.912  -1.884 -34.023  1.00  0.00     0.045 C 
HETATM   13  C   UNL     1      -7.114  -1.106 -35.324  1.00  0.00     0.017 C 
HETATM   14  C   UNL     1      -7.078  -3.383 -34.228  1.00  0.00     0.115 C 
HETATM   15  C   UNL     1      -5.876  -3.994 -34.884  1.00  0.00     0.238 C 
HETATM   16  N   UNL     1      -4.676  -3.413 -34.569  1.00  0.00    -0.247 N 
HETATM   17  O   UNL     1      -5.948  -4.993 -35.594  1.00  0.00    -0.272 OA
HETATM   18  N   UNL     1      -4.492  -2.321 -33.783  1.00  0.00    -0.176 NA
HETATM   19  H   UNL     1      -3.838  -3.872 -34.914  1.00  0.00     0.192 HD
ENDBRANCH   1  11
BRANCH   7  20
HETATM   20  C   UNL     1      -3.226   5.047 -31.110  1.00  0.00     0.010 A 
HETATM   21  C   UNL     1      -3.982   6.027 -30.454  1.00  0.00     0.018 A 
HETATM   22  C   UNL     1      -3.459   7.302 -30.222  1.00  0.00     0.037 A 
HETATM   23  C   UNL     1      -2.166   7.625 -30.634  1.00  0.00     0.068 A 
HETATM   24  C   UNL     1      -1.399   6.655 -31.278  1.00  0.00     0.037 A 
HETATM   25  C   UNL     1      -1.925   5.376 -31.513  1.00  0.00     0.018 A 
BRANCH  23  26
HETATM   26  O   UNL     1      -1.777   8.904 -30.350  1.00  0.00    -0.356 OA
HETATM   27  C   UNL     1      -2.749   9.928 -30.520  1.00  0.00     0.210 C 
ENDBRANCH  23  26
ENDBRANCH   7  20
TORSDOF 3
ENDMDL
MODEL 5
REMARK VINA RESULT:      -8.0      5.256      7.994
REMARK  3 active torsions:
REMARK  status: ('A' for Active; 'I' for Inactive)
REMARK    1  A    between atoms: C_3  and  C_4 
REMARK    2  A    between atoms: C_10  and  C_11 
REMARK    3  A    between atoms: C_14  and  O_15 
ROOT
HETATM    1  C   UNL     1      -6.483   0.174 -33.452  1.00  0.00    -0.007 A 
HETATM    2  C   UNL     1      -7.627   0.266 -32.646  1.00  0.00     0.047 A 
HETATM    3  C   UNL     1      -8.861   0.555 -33.250  1.00  0.00     0.086 A 
HETATM    4  C   UNL     1      -8.929   0.744 -34.621  1.00  0.00     0.063 A 
HETATM    5  N   UNL     1     -10.256   0.990 -34.860  1.00  0.00    -0.338 N 
HETATM    6  H   UNL     1     -10.667   1.148 -35.766  1.00  0.00     0.167 HD
HETATM    7  C   UNL     1     -10.942   0.946 -33.665  1.00  0.00     0.139 A 
HETATM    8  N   UNL     1     -10.101   0.679 -32.679  1.00  0.00    -0.228 NA
HETATM    9  C   UNL     1      -7.820   0.665 -35.459  1.00  0.00     0.033 A 
HETATM   10  C   UNL     1      -6.594   0.377 -34.842  1.00  0.00     0.016 A 
ENDROOT
BRANCH   1  11
HETATM   11  C   UNL     1      -5.128  -0.160 -32.885  1.00  0.00     0.069 C 
HETATM   12  C   UNL     1      -4.704  -1.618 -32.741  1.00  0.00     0.045 C 
HETATM   13  C   UNL     1      -4.125  -2.106 -34.070  1.00  0.00     0.017 C 
HETATM   14  C   UNL     1      -3.704  -1.757 -31.603  1.00  0.00     0.115 C 
HETATM   15  C   UNL     1      -2.657  -0.683 -31.644  1.00  0.00     0.238 C 
HETATM   16  N   UNL     1      -3.078   0.529 -32.121  1.00  0.00    -0.247 N 
HETATM   17  O   UNL     1      -1.521  -0.851 -31.208  1.00  0.00    -0.272 OA
HETATM   18  N   UNL     1      -4.313   0.819 -32.607  1.00  0.00    -0.176 NA
HETATM   19  H   UNL     1      -2.422   1.302 -32.061  1.00  0.00     0.192 HD
ENDBRANCH   1  11
BRANCH   7  20
HETATM   20  C   UNL     1     -12.391   1.131 -33.531  1.00  0.00     0.010 A 
HETATM   21  C   UNL     1     -12.876   2.298 -32.927  1.00  0.00     0.018 A 
HETATM   22  C   UNL     1     -14.249   2.507 -32.769  1.00  0.00     0.037 A 
HETATM   23  C   UNL     1     -15.168   1.559 -33.217  1.00  0.00     0.068 A 
HETATM   24  C   UNL     1     -14.699   0.398 -33.831  1.00  0.00     0.037 A 
HETATM   25  C   UNL     1     -13.321   0.187 -33.987  1.00  0.00     0.018 A 
BRANCH  23  26
HETATM   26  O   UNL     1     -16.478   1.883 -33.000  1.00  0.00    -0.356 OA
HETATM   27  C   UNL     1     -16.749   2.817 -31.962  1.00  0.00     0.210 C 
ENDBRANCH  23  26
ENDBRANCH   7  20
TORSDOF 3
ENDMDL
MODEL 6
REMARK VINA RESULT:      -8.0      3.711      9.430
REMARK  3 active torsions:
REMARK  status: ('A' for Active; 'I' for Inactive)
REMARK    1  A    between atoms: C_3  and  C_4 
REMARK    2  A    between atoms: C_10  and  C_11 
REMARK    3  A    between atoms: C_14  and  O_15 
ROOT
HETATM    1  C   UNL     1      -5.118  -0.285 -32.640  1.00  0.00    -0.007 A 
HETATM    2  C   UNL     1      -6.146   0.512 -32.116  1.00  0.00     0.047 A 
HETATM    3  C   UNL     1      -5.807   1.648 -31.363  1.00  0.00     0.086 A 
HETATM    4  C   UNL     1      -4.473   1.960 -31.150  1.00  0.00     0.063 A 
HETATM    5  N   UNL     1      -4.513   3.108 -30.404  1.00  0.00    -0.338 N 
HETATM    6  H   UNL     1      -3.710   3.630 -30.091  1.00  0.00     0.167 HD
HETATM    7  C   UNL     1      -5.829   3.456 -30.187  1.00  0.00     0.139 A 
HETATM    8  N   UNL     1      -6.625   2.574 -30.770  1.00  0.00    -0.228 NA
HETATM    9  C   UNL     1      -3.421   1.196 -31.649  1.00  0.00     0.033 A 
HETATM   10  C   UNL     1      -3.774   0.064 -32.397  1.00  0.00     0.016 A 
ENDROOT
BRANCH   1  11
HETATM   11  C   UNL     1      -5.397  -1.503 -33.482  1.00  0.00     0.069 C 
HETATM   12  C   UNL     1      -6.807  -1.756 -34.005  1.00  0.00     0.045 C 
HETATM   13  C   UNL     1      -7.008  -0.974 -35.304  1.00  0.00     0.017 C 
HETATM   14  C   UNL     1      -7.025  -3.249 -34.205  1.00  0.00     0.115 C 
HETATM   15  C   UNL     1      -5.857  -3.900 -34.883  1.00  0.00     0.238 C 
HETATM   16  N   UNL     1      -4.633  -3.358 -34.592  1.00  0.00    -0.247 N 
HETATM   17  O   UNL     1      -5.975  -4.897 -35.590  1.00  0.00    -0.272 OA
HETATM   18  N   UNL     1      -4.398  -2.272 -33.811  1.00  0.00    -0.176 NA
HETATM   19  H   UNL     1      -3.817  -3.844 -34.952  1.00  0.00     0.192 HD
ENDBRANCH   1  11
BRANCH   7  20
HETATM   20  C   UNL     1      -6.263   4.649 -29.452  1.00  0.00     0.010 A 
HETATM   21  C   UNL     1      -7.632   4.864 -29.247  1.00  0.00     0.018 A 
HETATM   22  C   UNL     1      -8.087   5.994 -28.563  1.00  0.00     0.037 A 
HETATM   23  C   UNL     1      -7.185   6.933 -28.062  1.00  0.00     0.068 A 
HETATM   24  C   UNL     1      -5.819   6.725 -28.250  1.00  0.00     0.037 A 
HETATM   25  C   UNL     1      -5.362   5.592 -28.938  1.00  0.00     0.018 A 
BRANCH  23  26
HETATM   26  O   UNL     1      -7.760   7.992 -27.417  1.00  0.00    -0.356 OA
HETATM   27  C   UNL     1      -9.166   8.147 -27.555  1.00  0.00     0.210 C 
ENDBRANCH  23  26
ENDBRANCH   7  20
TORSDOF 3
ENDMDL
MODEL 7
REMARK VINA RESULT:      -8.0      1.775      9.342
REMARK  3 active torsions:
REMARK  status: ('A' for Active; 'I' for Inactive)
REMARK    1  A    between atoms: C_3  and  C_4 
REMARK    2  A    between atoms: C_10  and  C_11 
REMARK    3  A    between atoms: C_14  and  O_15 
ROOT
HETATM    1  C   UNL     1      -5.139   0.715 -33.243  1.00  0.00    -0.007 A 
HETATM    2  C   UNL     1      -3.913   1.059 -32.653  1.00  0.00     0.047 A 
HETATM    3  C   UNL     1      -3.692   2.395 -32.279  1.00  0.00     0.086 A 
HETATM    4  C   UNL     1      -4.678   3.343 -32.497  1.00  0.00     0.063 A 
HETATM    5  N   UNL     1      -4.137   4.506 -32.012  1.00  0.00    -0.338 N 
HETATM    6  H   UNL     1      -4.601   5.400 -31.988  1.00  0.00     0.167 HD
HETATM    7  C   UNL     1      -2.874   4.243 -31.525  1.00  0.00     0.139 A 
HETATM    8  N   UNL     1      -2.595   2.959 -31.682  1.00  0.00    -0.228 NA
HETATM    9  C   UNL     1      -5.907   3.048 -33.081  1.00  0.00     0.033 A 
HETATM   10  C   UNL     1      -6.114   1.711 -33.451  1.00  0.00     0.016 A 
ENDROOT
BRANCH   1  11
HETATM   11  C   UNL     1      -5.466  -0.699 -33.646  1.00  0.00     0.069 C 
HETATM   12  C   UNL     1      -4.340  -1.700 -33.881  1.00  0.00     0.045 C 
HETATM   13  C   UNL     1      -3.929  -2.315 -32.542  1.00  0.00     0.017 C 
HETATM   14  C   UNL     1      -4.788  -2.760 -34.877  1.00  0.00     0.115 C 
HETATM   15  C   UNL     1      -6.171  -3.258 -34.579  1.00  0.00     0.238 C 
HETATM   16  N   UNL     1      -7.025  -2.333 -34.041  1.00  0.00    -0.247 N 
HETATM   17  O   UNL     1      -6.540  -4.394 -34.867  1.00  0.00    -0.272 OA
HETATM   18  N   UNL     1      -6.719  -1.053 -33.705  1.00  0.00    -0.176 NA
HETATM   19  H   UNL     1      -7.995  -2.612 -33.929  1.00  0.00     0.192 HD
ENDBRANCH   1  11
BRANCH   7  20
HETATM   20  C   UNL     1      -2.001   5.242 -30.898  1.00  0.00     0.010 A 
HETATM   21  C   UNL     1      -0.632   4.970 -30.775  1.00  0.00     0.018 A 
HETATM   22  C   UNL     1       0.230   5.889 -30.173  1.00  0.00     0.037 A 
HETATM   23  C   UNL     1      -0.252   7.103 -29.685  1.00  0.00     0.068 A 
HETATM   24  C   UNL     1      -1.611   7.391 -29.812  1.00  0.00     0.037 A 
HETATM   25  C   UNL     1      -2.478   6.467 -30.414  1.00  0.00     0.018 A 
BRANCH  23  26
HETATM   26  O   UNL     1       0.694   7.910 -29.117  1.00  0.00    -0.356 OA
HETATM   27  C   UNL     1       1.049   7.636 -27.768  1.00  0.00     0.210 C 
ENDBRANCH  23  26
ENDBRANCH   7  20
TORSDOF 3
ENDMDL
MODEL 8
REMARK VINA RESULT:      -7.8      3.739      4.802
REMARK  3 active torsions:
REMARK  status: ('A' for Active; 'I' for Inactive)
REMARK    1  A    between atoms: C_3  and  C_4 
REMARK    2  A    between atoms: C_10  and  C_11 
REMARK    3  A    between atoms: C_14  and  O_15 
ROOT
HETATM    1  C   UNL     1      -4.517   3.724 -32.488  1.00  0.00    -0.007 A 
HETATM    2  C   UNL     1      -5.799   4.183 -32.825  1.00  0.00     0.047 A 
HETATM    3  C   UNL     1      -6.803   3.244 -33.108  1.00  0.00     0.086 A 
HETATM    4  C   UNL     1      -6.515   1.890 -33.053  1.00  0.00     0.063 A 
HETATM    5  N   UNL     1      -7.702   1.282 -33.369  1.00  0.00    -0.338 N 
HETATM    6  H   UNL     1      -7.859   0.287 -33.396  1.00  0.00     0.167 HD
HETATM    7  C   UNL     1      -8.654   2.251 -33.601  1.00  0.00     0.139 A 
HETATM    8  N   UNL     1      -8.117   3.450 -33.443  1.00  0.00    -0.228 NA
HETATM    9  C   UNL     1      -5.257   1.389 -32.727  1.00  0.00     0.033 A 
HETATM   10  C   UNL     1      -4.264   2.338 -32.447  1.00  0.00     0.016 A 
ENDROOT
BRANCH   1  11
HETATM   11  C   UNL     1      -3.393   4.665 -32.142  1.00  0.00     0.069 C 
HETATM   12  C   UNL     1      -2.054   4.545 -32.862  1.00  0.00     0.045 C 
HETATM   13  C   UNL     1      -2.121   5.316 -34.180  1.00  0.00     0.017 C 
HETATM   14  C   UNL     1      -0.936   5.054 -31.964  1.00  0.00     0.115 C 
HETATM   15  C   UNL     1      -1.301   6.345 -31.294  1.00  0.00     0.238 C 
HETATM   16  N   UNL     1      -2.628   6.493 -30.987  1.00  0.00    -0.247 N 
HETATM   17  O   UNL     1      -0.462   7.181 -30.969  1.00  0.00    -0.272 OA
HETATM   18  N   UNL     1      -3.625   5.621 -31.287  1.00  0.00    -0.176 NA
HETATM   19  H   UNL     1      -2.885   7.308 -30.439  1.00  0.00     0.192 HD
ENDBRANCH   1  11
BRANCH   7  20
HETATM   20  C   UNL     1     -10.056   1.976 -33.936  1.00  0.00     0.010 A 
HETATM   21  C   UNL     1     -10.721   2.820 -34.835  1.00  0.00     0.018 A 
HETATM   22  C   UNL     1     -12.059   2.599 -35.170  1.00  0.00     0.037 A 
HETATM   23  C   UNL     1     -12.762   1.528 -34.620  1.00  0.00     0.068 A 
HETATM   24  C   UNL     1     -12.109   0.674 -33.732  1.00  0.00     0.037 A 
HETATM   25  C   UNL     1     -10.766   0.896 -33.394  1.00  0.00     0.018 A 
BRANCH  23  26
HETATM   26  O   UNL     1     -14.063   1.427 -35.026  1.00  0.00    -0.356 OA
HETATM   27  C   UNL     1     -14.938   0.660 -34.209  1.00  0.00     0.210 C 
ENDBRANCH  23  26
ENDBRANCH   7  20
TORSDOF 3
ENDMDL
MODEL 9
REMARK VINA RESULT:      -7.7      5.596      7.372
REMARK  3 active torsions:
REMARK  status: ('A' for Active; 'I' for Inactive)
REMARK    1  A    between atoms: C_3  and  C_4 
REMARK    2  A    between atoms: C_10  and  C_11 
REMARK    3  A    between atoms: C_14  and  O_15 
ROOT
HETATM    1  C   UNL     1      -6.800   2.272 -33.294  1.00  0.00    -0.007 A 
HETATM    2  C   UNL     1      -7.940   2.807 -32.676  1.00  0.00     0.047 A 
HETATM    3  C   UNL     1      -9.207   2.375 -33.099  1.00  0.00     0.086 A 
HETATM    4  C   UNL     1      -9.311   1.437 -34.114  1.00  0.00     0.063 A 
HETATM    5  N   UNL     1     -10.661   1.247 -34.257  1.00  0.00    -0.338 N 
HETATM    6  H   UNL     1     -11.095   0.602 -34.898  1.00  0.00     0.167 HD
HETATM    7  C   UNL     1     -11.324   2.049 -33.354  1.00  0.00     0.139 A 
HETATM    8  N   UNL     1     -10.447   2.739 -32.642  1.00  0.00    -0.228 NA
HETATM    9  C   UNL     1      -8.208   0.882 -34.758  1.00  0.00     0.033 A 
HETATM   10  C   UNL     1      -6.949   1.323 -34.325  1.00  0.00     0.016 A 
ENDROOT
BRANCH   1  11
HETATM   11  C   UNL     1      -5.405   2.660 -32.878  1.00  0.00     0.069 C 
HETATM   12  C   UNL     1      -4.622   1.768 -31.922  1.00  0.00     0.045 C 
HETATM   13  C   UNL     1      -3.935   0.658 -32.719  1.00  0.00     0.017 C 
HETATM   14  C   UNL     1      -3.621   2.603 -31.136  1.00  0.00     0.115 C 
HETATM   15  C   UNL     1      -2.885   3.568 -32.016  1.00  0.00     0.238 C 
HETATM   16  N   UNL     1      -3.602   4.064 -33.072  1.00  0.00    -0.247 N 
HETATM   17  O   UNL     1      -1.745   3.951 -31.769  1.00  0.00    -0.272 OA
HETATM   18  N   UNL     1      -4.870   3.719 -33.419  1.00  0.00    -0.176 NA
HETATM   19  H   UNL     1      -3.166   4.799 -33.622  1.00  0.00     0.192 HD
ENDBRANCH   1  11
BRANCH   7  20
HETATM   20  C   UNL     1     -12.782   2.091 -33.193  1.00  0.00     0.010 A 
HETATM   21  C   UNL     1     -13.558   1.063 -33.743  1.00  0.00     0.018 A 
HETATM   22  C   UNL     1     -14.950   1.072 -33.624  1.00  0.00     0.037 A 
HETATM   23  C   UNL     1     -15.599   2.104 -32.946  1.00  0.00     0.068 A 
HETATM   24  C   UNL     1     -14.837   3.128 -32.385  1.00  0.00     0.037 A 
HETATM   25  C   UNL     1     -13.440   3.121 -32.506  1.00  0.00     0.018 A 
BRANCH  23  26
HETATM   26  O   UNL     1     -16.961   1.996 -32.904  1.00  0.00    -0.356 OA
HETATM   27  C   UNL     1     -17.629   2.659 -31.838  1.00  0.00     0.210 C 
ENDBRANCH  23  26
ENDBRANCH   7  20
TORSDOF 3
ENDMDL
MODEL 10
REMARK VINA RESULT:      -7.6     17.114     19.021
REMARK  3 active torsions:
REMARK  status: ('A' for Active; 'I' for Inactive)
REMARK    1  A    between atoms: C_3  and  C_4 
REMARK    2  A    between atoms: C_10  and  C_11 
REMARK    3  A    between atoms: C_14  and  O_15 
ROOT
HETATM    1  C   UNL     1      -2.400 -13.970 -39.076  1.00  0.00    -0.007 A 
HETATM    2  C   UNL     1      -3.496 -14.643 -39.636  1.00  0.00     0.047 A 
HETATM    3  C   UNL     1      -4.771 -14.062 -39.540  1.00  0.00     0.086 A 
HETATM    4  C   UNL     1      -4.925 -12.844 -38.898  1.00  0.00     0.063 A 
HETATM    5  N   UNL     1      -6.267 -12.579 -39.000  1.00  0.00    -0.338 N 
HETATM    6  H   UNL     1      -6.726 -11.750 -38.659  1.00  0.00     0.167 HD
HETATM    7  C   UNL     1      -6.876 -13.611 -39.681  1.00  0.00     0.139 A 
HETATM    8  N   UNL     1      -5.973 -14.518 -40.016  1.00  0.00    -0.228 NA
HETATM    9  C   UNL     1      -3.868 -12.142 -38.326  1.00  0.00     0.033 A 
HETATM   10  C   UNL     1      -2.601 -12.734 -38.428  1.00  0.00     0.016 A 
ENDROOT
BRANCH   1  11
HETATM   11  C   UNL     1      -0.997 -14.511 -39.162  1.00  0.00     0.069 C 
HETATM   12  C   UNL     1      -0.037 -14.318 -37.993  1.00  0.00     0.045 C 
HETATM   13  C   UNL     1      -0.265 -15.429 -36.967  1.00  0.00     0.017 C 
HETATM   14  C   UNL     1       1.398 -14.300 -38.499  1.00  0.00     0.115 C 
HETATM   15  C   UNL     1       1.654 -15.393 -39.493  1.00  0.00     0.238 C 
HETATM   16  N   UNL     1       0.589 -15.727 -40.286  1.00  0.00    -0.247 N 
HETATM   17  O   UNL     1       2.761 -15.904 -39.643  1.00  0.00    -0.272 OA
HETATM   18  N   UNL     1      -0.665 -15.210 -40.210  1.00  0.00    -0.176 NA
HETATM   19  H   UNL     1       0.763 -16.387 -41.038  1.00  0.00     0.192 HD
ENDBRANCH   1  11
BRANCH   7  20
HETATM   20  C   UNL     1      -8.305 -13.661 -40.008  1.00  0.00     0.010 A 
HETATM   21  C   UNL     1      -8.859 -14.865 -40.463  1.00  0.00     0.018 A 
HETATM   22  C   UNL     1     -10.213 -14.951 -40.797  1.00  0.00     0.037 A 
HETATM   23  C   UNL     1     -11.046 -13.839 -40.679  1.00  0.00     0.068 A 
HETATM   24  C   UNL     1     -10.509 -12.637 -40.218  1.00  0.00     0.037 A 
HETATM   25  C   UNL     1      -9.150 -12.550 -39.884  1.00  0.00     0.018 A 
BRANCH  23  26
HETATM   26  O   UNL     1     -12.346 -14.055 -41.041  1.00  0.00    -0.356 OA
HETATM   27  C   UNL     1     -12.605 -15.171 -41.884  1.00  0.00     0.210 C 
ENDBRANCH  23  26
ENDBRANCH   7  20
TORSDOF 3
ENDMDL
