MODEL 1
REMARK VINA RESULT:      -9.1      0.000      0.000
REMARK  2 active torsions:
REMARK  status: ('A' for Active; 'I' for Inactive)
REMARK    1  A    between atoms: N_20  and  C_21 
REMARK    2  A    between atoms: C_24  and  O_25 
ROOT
HETATM    1  C   UNL     1      -7.264  -1.520 -34.993  1.00  0.00     0.048 C 
HETATM    2  C   UNL     1      -6.474  -0.809 -33.929  1.00  0.00    -0.061 A 
HETATM    3  C   UNL     1      -6.874   0.455 -33.463  1.00  0.00     0.019 A 
HETATM    4  C   UNL     1      -6.149   1.047 -32.437  1.00  0.00     0.016 A 
HETATM    5  C   UNL     1      -5.032   0.389 -31.911  1.00  0.00     0.044 A 
HETATM    6  N   UNL     1      -4.428   1.160 -30.931  1.00  0.00    -0.324 N 
HETATM    7  C   UNL     1      -5.104   2.350 -30.747  1.00  0.00     0.264 A 
HETATM    8  O   UNL     1      -4.792   3.252 -29.987  1.00  0.00    -0.270 OA
HETATM    9  C   UNL     1      -6.313   2.379 -31.755  1.00  0.00     0.250 A 
HETATM   10  N   UNL     1      -6.228   3.540 -32.728  1.00  0.00    -0.043 N 
HETATM   11  H   UNL     1      -6.886   3.339 -33.495  1.00  0.00     0.282 HD
HETATM   12  C   UNL     1      -6.688   4.745 -31.948  1.00  0.00     0.204 C 
HETATM   13  C   UNL     1      -6.667   5.788 -33.040  1.00  0.00     0.036 C 
HETATM   14  C   UNL     1      -5.354   5.452 -33.786  1.00  0.00     0.030 C 
HETATM   15  C   UNL     1      -4.983   4.005 -33.407  1.00  0.00     0.237 C 
HETATM   16  C   UNL     1      -7.874   4.223 -31.168  1.00  0.00     0.126 C 
HETATM   17  C   UNL     1      -7.586   2.732 -30.941  1.00  0.00     0.145 C 
HETATM   18  C   UNL     1      -8.827   2.060 -31.442  1.00  0.00     0.239 C 
HETATM   19  O   UNL     1      -9.023   0.874 -31.225  1.00  0.00    -0.272 OA
HETATM   20  N   UNL     1      -9.599   2.965 -32.141  1.00  0.00    -0.252 N 
HETATM   21  C   UNL     1      -9.139   4.250 -31.964  1.00  0.00     0.238 C 
HETATM   22  O   UNL     1      -9.564   5.308 -32.403  1.00  0.00    -0.272 OA
HETATM   23  C   UNL     1      -4.612  -0.848 -32.346  1.00  0.00     0.031 A 
HETATM   24  C   UNL     1      -5.351  -1.451 -33.364  1.00  0.00     0.009 A 
HETATM   25  H   UNL     1      -3.604   0.894 -30.403  1.00  0.00     0.169 HD
ENDROOT
BRANCH  20  26
HETATM   26  C   UNL     1     -10.725   2.618 -32.961  1.00  0.00     0.045 A 
HETATM   27  C   UNL     1     -12.029   3.014 -32.628  1.00  0.00     0.033 A 
HETATM   28  C   UNL     1     -13.137   2.588 -33.378  1.00  0.00     0.039 A 
HETATM   29  C   UNL     1     -12.978   1.760 -34.485  1.00  0.00     0.068 A 
HETATM   30  C   UNL     1     -11.695   1.385 -34.854  1.00  0.00     0.039 A 
HETATM   31  C   UNL     1     -10.588   1.811 -34.104  1.00  0.00     0.033 A 
BRANCH  29  32
HETATM   32  O   UNL     1     -14.137   1.395 -35.106  1.00  0.00    -0.356 OA
HETATM   33  C   UNL     1     -15.102   0.703 -34.320  1.00  0.00     0.210 C 
ENDBRANCH  29  32
ENDBRANCH  20  26
TORSDOF 2
ENDMDL
MODEL 2
REMARK VINA RESULT:      -9.0      2.730      7.042
REMARK  2 active torsions:
REMARK  status: ('A' for Active; 'I' for Inactive)
REMARK    1  A    between atoms: N_20  and  C_21 
REMARK    2  A    between atoms: C_24  and  O_25 
ROOT
HETATM    1  C   UNL     1      -4.364  -0.417 -33.467  1.00  0.00     0.048 C 
HETATM    2  C   UNL     1      -5.708   0.181 -33.781  1.00  0.00    -0.061 A 
HETATM    3  C   UNL     1      -6.023   1.489 -33.378  1.00  0.00     0.019 A 
HETATM    4  C   UNL     1      -7.253   2.021 -33.743  1.00  0.00     0.016 A 
HETATM    5  C   UNL     1      -8.153   1.241 -34.476  1.00  0.00     0.044 A 
HETATM    6  N   UNL     1      -9.331   1.936 -34.701  1.00  0.00    -0.324 N 
HETATM    7  C   UNL     1      -9.275   3.200 -34.148  1.00  0.00     0.264 A 
HETATM    8  O   UNL     1     -10.170   4.029 -34.145  1.00  0.00    -0.270 OA
HETATM    9  C   UNL     1      -7.876   3.359 -33.446  1.00  0.00     0.250 A 
HETATM   10  N   UNL     1      -8.002   3.618 -31.955  1.00  0.00    -0.043 N 
HETATM   11  H   UNL     1      -7.075   3.447 -31.541  1.00  0.00     0.282 HD
HETATM   12  C   UNL     1      -8.366   5.076 -31.837  1.00  0.00     0.204 C 
HETATM   13  C   UNL     1      -8.349   5.229 -30.335  1.00  0.00     0.036 C 
HETATM   14  C   UNL     1      -9.040   3.928 -29.866  1.00  0.00     0.030 C 
HETATM   15  C   UNL     1      -8.962   2.932 -31.040  1.00  0.00     0.237 C 
HETATM   16  C   UNL     1      -7.475   5.742 -32.861  1.00  0.00     0.126 C 
HETATM   17  C   UNL     1      -7.251   4.685 -33.952  1.00  0.00     0.145 C 
HETATM   18  C   UNL     1      -5.760   4.636 -34.085  1.00  0.00     0.239 C 
HETATM   19  O   UNL     1      -5.237   4.041 -35.014  1.00  0.00    -0.272 OA
HETATM   20  N   UNL     1      -5.176   5.315 -33.035  1.00  0.00    -0.252 N 
HETATM   21  C   UNL     1      -6.111   6.035 -32.327  1.00  0.00     0.238 C 
HETATM   22  O   UNL     1      -5.976   6.764 -31.356  1.00  0.00    -0.272 OA
HETATM   23  C   UNL     1      -7.877  -0.045 -34.884  1.00  0.00     0.031 A 
HETATM   24  C   UNL     1      -6.635  -0.572 -34.534  1.00  0.00     0.009 A 
HETATM   25  H   UNL     1     -10.130   1.580 -35.212  1.00  0.00     0.169 HD
ENDROOT
BRANCH  20  26
HETATM   26  C   UNL     1      -3.779   5.267 -32.707  1.00  0.00     0.045 A 
HETATM   27  C   UNL     1      -3.285   4.410 -31.712  1.00  0.00     0.033 A 
HETATM   28  C   UNL     1      -1.935   4.438 -31.326  1.00  0.00     0.039 A 
HETATM   29  C   UNL     1      -1.037   5.317 -31.924  1.00  0.00     0.068 A 
HETATM   30  C   UNL     1      -1.494   6.149 -32.934  1.00  0.00     0.039 A 
HETATM   31  C   UNL     1      -2.845   6.119 -33.320  1.00  0.00     0.033 A 
BRANCH  29  32
HETATM   32  O   UNL     1       0.237   5.264 -31.436  1.00  0.00    -0.356 OA
HETATM   33  C   UNL     1       0.384   5.156 -30.024  1.00  0.00     0.210 C 
ENDBRANCH  29  32
ENDBRANCH  20  26
TORSDOF 2
ENDMDL
MODEL 3
REMARK VINA RESULT:      -8.9     16.309     17.797
REMARK  2 active torsions:
REMARK  status: ('A' for Active; 'I' for Inactive)
REMARK    1  A    between atoms: N_20  and  C_21 
REMARK    2  A    between atoms: C_24  and  O_25 
ROOT
HETATM    1  C   UNL     1      -7.889 -17.284 -35.752  1.00  0.00     0.048 C 
HETATM    2  C   UNL     1      -6.642 -16.444 -35.758  1.00  0.00    -0.061 A 
HETATM    3  C   UNL     1      -6.331 -15.630 -36.860  1.00  0.00     0.019 A 
HETATM    4  C   UNL     1      -5.201 -14.825 -36.797  1.00  0.00     0.016 A 
HETATM    5  C   UNL     1      -4.391 -14.860 -35.656  1.00  0.00     0.044 A 
HETATM    6  N   UNL     1      -3.299 -14.021 -35.808  1.00  0.00    -0.324 N 
HETATM    7  C   UNL     1      -3.328 -13.383 -37.032  1.00  0.00     0.264 A 
HETATM    8  O   UNL     1      -2.485 -12.618 -37.472  1.00  0.00    -0.270 OA
HETATM    9  C   UNL     1      -4.604 -13.881 -37.806  1.00  0.00     0.250 A 
HETATM   10  N   UNL     1      -4.257 -14.575 -39.111  1.00  0.00    -0.043 N 
HETATM   11  H   UNL     1      -5.098 -15.089 -39.411  1.00  0.00     0.282 HD
HETATM   12  C   UNL     1      -3.950 -13.464 -40.081  1.00  0.00     0.204 C 
HETATM   13  C   UNL     1      -3.738 -14.268 -41.342  1.00  0.00     0.036 C 
HETATM   14  C   UNL     1      -2.919 -15.474 -40.825  1.00  0.00     0.030 C 
HETATM   15  C   UNL     1      -3.134 -15.540 -39.301  1.00  0.00     0.237 C 
HETATM   16  C   UNL     1      -5.023 -12.439 -39.788  1.00  0.00     0.126 C 
HETATM   17  C   UNL     1      -5.365 -12.623 -38.303  1.00  0.00     0.145 C 
HETATM   18  C   UNL     1      -6.854 -12.783 -38.308  1.00  0.00     0.239 C 
HETATM   19  O   UNL     1      -7.488 -12.748 -37.265  1.00  0.00    -0.272 OA
HETATM   20  N   UNL     1      -7.298 -12.978 -39.600  1.00  0.00    -0.252 N 
HETATM   21  C   UNL     1      -6.299 -12.724 -40.512  1.00  0.00     0.238 C 
HETATM   22  O   UNL     1      -6.313 -12.771 -41.732  1.00  0.00    -0.272 OA
HETATM   23  C   UNL     1      -4.665 -15.647 -34.561  1.00  0.00     0.031 A 
HETATM   24  C   UNL     1      -5.810 -16.442 -34.618  1.00  0.00     0.009 A 
HETATM   25  H   UNL     1      -2.574 -13.875 -35.115  1.00  0.00     0.169 HD
ENDROOT
BRANCH  20  26
HETATM   26  C   UNL     1      -8.622 -13.407 -39.954  1.00  0.00     0.045 A 
HETATM   27  C   UNL     1      -8.892 -14.732 -40.326  1.00  0.00     0.033 A 
HETATM   28  C   UNL     1     -10.166 -15.123 -40.767  1.00  0.00     0.039 A 
HETATM   29  C   UNL     1     -11.210 -14.207 -40.844  1.00  0.00     0.068 A 
HETATM   30  C   UNL     1     -10.976 -12.899 -40.448  1.00  0.00     0.039 A 
HETATM   31  C   UNL     1      -9.701 -12.509 -40.007  1.00  0.00     0.033 A 
BRANCH  29  32
HETATM   32  O   UNL     1     -12.388 -14.710 -41.317  1.00  0.00    -0.356 OA
HETATM   33  C   UNL     1     -12.306 -15.689 -42.347  1.00  0.00     0.210 C 
ENDBRANCH  29  32
ENDBRANCH  20  26
TORSDOF 2
ENDMDL
MODEL 4
REMARK VINA RESULT:      -8.8      2.224      6.938
REMARK  2 active torsions:
REMARK  status: ('A' for Active; 'I' for Inactive)
REMARK    1  A    between atoms: N_20  and  C_21 
REMARK    2  A    between atoms: C_24  and  O_25 
ROOT
HETATM    1  C   UNL     1      -9.934   5.901 -35.369  1.00  0.00     0.048 C 
HETATM    2  C   UNL     1     -10.360   4.533 -34.912  1.00  0.00    -0.061 A 
HETATM    3  C   UNL     1      -9.465   3.695 -34.226  1.00  0.00     0.019 A 
HETATM    4  C   UNL     1      -9.920   2.465 -33.770  1.00  0.00     0.016 A 
HETATM    5  C   UNL     1     -11.241   2.080 -34.022  1.00  0.00     0.044 A 
HETATM    6  N   UNL     1     -11.483   0.810 -33.524  1.00  0.00    -0.324 N 
HETATM    7  C   UNL     1     -10.358   0.293 -32.913  1.00  0.00     0.264 A 
HETATM    8  O   UNL     1     -10.247  -0.817 -32.418  1.00  0.00    -0.270 OA
HETATM    9  C   UNL     1      -9.207   1.359 -33.039  1.00  0.00     0.250 A 
HETATM   10  N   UNL     1      -8.011   0.833 -33.812  1.00  0.00    -0.043 N 
HETATM   11  H   UNL     1      -7.438   1.649 -34.071  1.00  0.00     0.282 HD
HETATM   12  C   UNL     1      -7.264  -0.042 -32.838  1.00  0.00     0.204 C 
HETATM   13  C   UNL     1      -6.062  -0.402 -33.678  1.00  0.00     0.036 C 
HETATM   14  C   UNL     1      -6.699  -0.669 -35.062  1.00  0.00     0.030 C 
HETATM   15  C   UNL     1      -8.084   0.008 -35.054  1.00  0.00     0.237 C 
HETATM   16  C   UNL     1      -7.309   0.752 -31.551  1.00  0.00     0.126 C 
HETATM   17  C   UNL     1      -8.610   1.564 -31.621  1.00  0.00     0.145 C 
HETATM   18  C   UNL     1      -8.155   2.967 -31.357  1.00  0.00     0.239 C 
HETATM   19  O   UNL     1      -8.967   3.853 -31.139  1.00  0.00    -0.272 OA
HETATM   20  N   UNL     1      -6.779   3.033 -31.429  1.00  0.00    -0.252 N 
HETATM   21  C   UNL     1      -6.223   1.775 -31.472  1.00  0.00     0.238 C 
HETATM   22  O   UNL     1      -5.052   1.430 -31.522  1.00  0.00    -0.272 OA
HETATM   23  C   UNL     1     -12.142   2.875 -34.693  1.00  0.00     0.031 A 
HETATM   24  C   UNL     1     -11.691   4.118 -35.136  1.00  0.00     0.009 A 
HETATM   25  H   UNL     1     -12.367   0.318 -33.583  1.00  0.00     0.169 HD
ENDROOT
BRANCH  20  26
HETATM   26  C   UNL     1      -6.020   4.251 -31.472  1.00  0.00     0.045 A 
HETATM   27  C   UNL     1      -5.808   4.945 -32.673  1.00  0.00     0.033 A 
HETATM   28  C   UNL     1      -4.983   6.079 -32.726  1.00  0.00     0.039 A 
HETATM   29  C   UNL     1      -4.350   6.560 -31.584  1.00  0.00     0.068 A 
HETATM   30  C   UNL     1      -4.573   5.911 -30.379  1.00  0.00     0.039 A 
HETATM   31  C   UNL     1      -5.399   4.777 -30.327  1.00  0.00     0.033 A 
BRANCH  29  32
HETATM   32  O   UNL     1      -3.553   7.651 -31.779  1.00  0.00    -0.356 OA
HETATM   33  C   UNL     1      -2.411   7.476 -32.611  1.00  0.00     0.210 C 
ENDBRANCH  29  32
ENDBRANCH  20  26
TORSDOF 2
ENDMDL
MODEL 5
REMARK VINA RESULT:      -8.6      2.384      5.867
REMARK  2 active torsions:
REMARK  status: ('A' for Active; 'I' for Inactive)
REMARK    1  A    between atoms: N_20  and  C_21 
REMARK    2  A    between atoms: C_24  and  O_25 
ROOT
HETATM    1  C   UNL     1      -2.693   3.705 -32.431  1.00  0.00     0.048 C 
HETATM    2  C   UNL     1      -3.945   4.216 -31.773  1.00  0.00    -0.061 A 
HETATM    3  C   UNL     1      -5.188   3.616 -32.033  1.00  0.00     0.019 A 
HETATM    4  C   UNL     1      -6.308   4.082 -31.357  1.00  0.00     0.016 A 
HETATM    5  C   UNL     1      -6.179   5.147 -30.458  1.00  0.00     0.044 A 
HETATM    6  N   UNL     1      -7.411   5.486 -29.924  1.00  0.00    -0.324 N 
HETATM    7  C   UNL     1      -8.410   4.672 -30.420  1.00  0.00     0.264 A 
HETATM    8  O   UNL     1      -9.602   4.752 -30.171  1.00  0.00    -0.270 OA
HETATM    9  C   UNL     1      -7.752   3.666 -31.436  1.00  0.00     0.250 A 
HETATM   10  N   UNL     1      -8.317   3.807 -32.838  1.00  0.00    -0.043 N 
HETATM   11  H   UNL     1      -7.669   3.320 -33.474  1.00  0.00     0.282 HD
HETATM   12  C   UNL     1      -9.646   3.097 -32.803  1.00  0.00     0.204 C 
HETATM   13  C   UNL     1     -10.041   3.208 -34.257  1.00  0.00     0.036 C 
HETATM   14  C   UNL     1      -9.629   4.660 -34.596  1.00  0.00     0.030 C 
HETATM   15  C   UNL     1      -8.619   5.101 -33.519  1.00  0.00     0.237 C 
HETATM   16  C   UNL     1      -9.352   1.849 -32.001  1.00  0.00     0.126 C 
HETATM   17  C   UNL     1      -8.218   2.239 -31.043  1.00  0.00     0.145 C 
HETATM   18  C   UNL     1      -7.185   1.182 -31.281  1.00  0.00     0.239 C 
HETATM   19  O   UNL     1      -6.226   1.069 -30.534  1.00  0.00    -0.272 OA
HETATM   20  N   UNL     1      -7.507   0.461 -32.413  1.00  0.00    -0.252 N 
HETATM   21  C   UNL     1      -8.782   0.751 -32.840  1.00  0.00     0.238 C 
HETATM   22  O   UNL     1      -9.419   0.307 -33.783  1.00  0.00    -0.272 OA
HETATM   23  C   UNL     1      -4.977   5.760 -30.184  1.00  0.00     0.031 A 
HETATM   24  C   UNL     1      -3.850   5.279 -30.849  1.00  0.00     0.009 A 
HETATM   25  H   UNL     1      -7.572   6.224 -29.248  1.00  0.00     0.169 HD
ENDROOT
BRANCH  20  26
HETATM   26  C   UNL     1      -6.626  -0.460 -33.074  1.00  0.00     0.045 A 
HETATM   27  C   UNL     1      -7.116  -1.528 -33.839  1.00  0.00     0.033 A 
HETATM   28  C   UNL     1      -6.253  -2.483 -34.401  1.00  0.00     0.039 A 
HETATM   29  C   UNL     1      -4.876  -2.399 -34.221  1.00  0.00     0.068 A 
HETATM   30  C   UNL     1      -4.366  -1.332 -33.497  1.00  0.00     0.039 A 
HETATM   31  C   UNL     1      -5.230  -0.377 -32.937  1.00  0.00     0.033 A 
BRANCH  29  32
HETATM   32  O   UNL     1      -4.154  -3.406 -34.793  1.00  0.00    -0.356 OA
HETATM   33  C   UNL     1      -3.741  -4.469 -33.941  1.00  0.00     0.210 C 
ENDBRANCH  29  32
ENDBRANCH  20  26
TORSDOF 2
ENDMDL
MODEL 6
REMARK VINA RESULT:      -8.4     16.105     18.591
REMARK  2 active torsions:
REMARK  status: ('A' for Active; 'I' for Inactive)
REMARK    1  A    between atoms: N_20  and  C_21 
REMARK    2  A    between atoms: C_24  and  O_25 
ROOT
HETATM    1  C   UNL     1      -0.076 -15.428 -36.695  1.00  0.00     0.048 C 
HETATM    2  C   UNL     1      -0.773 -14.968 -37.946  1.00  0.00    -0.061 A 
HETATM    3  C   UNL     1      -2.173 -14.860 -37.988  1.00  0.00     0.019 A 
HETATM    4  C   UNL     1      -2.770 -14.374 -39.144  1.00  0.00     0.016 A 
HETATM    5  C   UNL     1      -1.972 -14.028 -40.240  1.00  0.00     0.044 A 
HETATM    6  N   UNL     1      -2.757 -13.606 -41.301  1.00  0.00    -0.324 N 
HETATM    7  C   UNL     1      -4.097 -13.638 -40.971  1.00  0.00     0.264 A 
HETATM    8  O   UNL     1      -5.032 -13.365 -41.707  1.00  0.00    -0.270 OA
HETATM    9  C   UNL     1      -4.219 -14.169 -39.495  1.00  0.00     0.250 A 
HETATM   10  N   UNL     1      -5.021 -15.455 -39.406  1.00  0.00    -0.043 N 
HETATM   11  H   UNL     1      -4.832 -15.864 -38.480  1.00  0.00     0.282 HD
HETATM   12  C   UNL     1      -6.464 -15.029 -39.504  1.00  0.00     0.204 C 
HETATM   13  C   UNL     1      -7.145 -16.360 -39.291  1.00  0.00     0.036 C 
HETATM   14  C   UNL     1      -6.267 -17.315 -40.134  1.00  0.00     0.030 C 
HETATM   15  C   UNL     1      -4.919 -16.601 -40.358  1.00  0.00     0.237 C 
HETATM   16  C   UNL     1      -6.521 -13.793 -38.635  1.00  0.00     0.126 C 
HETATM   17  C   UNL     1      -5.119 -13.174 -38.717  1.00  0.00     0.145 C 
HETATM   18  C   UNL     1      -4.730 -13.007 -37.280  1.00  0.00     0.239 C 
HETATM   19  O   UNL     1      -3.747 -12.351 -36.973  1.00  0.00    -0.272 OA
HETATM   20  N   UNL     1      -5.613 -13.697 -36.475  1.00  0.00    -0.252 N 
HETATM   21  C   UNL     1      -6.711 -14.119 -37.189  1.00  0.00     0.238 C 
HETATM   22  O   UNL     1      -7.700 -14.736 -36.825  1.00  0.00    -0.272 OA
HETATM   23  C   UNL     1      -0.599 -14.124 -40.233  1.00  0.00     0.031 A 
HETATM   24  C   UNL     1       0.001 -14.595 -39.065  1.00  0.00     0.009 A 
HETATM   25  H   UNL     1      -2.407 -13.301 -42.202  1.00  0.00     0.169 HD
ENDROOT
BRANCH  20  26
HETATM   26  C   UNL     1      -5.410 -13.960 -35.078  1.00  0.00     0.045 A 
HETATM   27  C   UNL     1      -4.948 -15.203 -34.622  1.00  0.00     0.033 A 
HETATM   28  C   UNL     1      -4.846 -15.489 -33.251  1.00  0.00     0.039 A 
HETATM   29  C   UNL     1      -5.198 -14.542 -32.294  1.00  0.00     0.068 A 
HETATM   30  C   UNL     1      -5.625 -13.294 -32.721  1.00  0.00     0.039 A 
HETATM   31  C   UNL     1      -5.725 -13.009 -34.092  1.00  0.00     0.033 A 
BRANCH  29  32
HETATM   32  O   UNL     1      -5.082 -14.957 -30.999  1.00  0.00    -0.356 OA
HETATM   33  C   UNL     1      -5.165 -16.358 -30.759  1.00  0.00     0.210 C 
ENDBRANCH  29  32
ENDBRANCH  20  26
TORSDOF 2
ENDMDL
MODEL 7
REMARK VINA RESULT:      -8.3      2.335      6.098
REMARK  2 active torsions:
REMARK  status: ('A' for Active; 'I' for Inactive)
REMARK    1  A    between atoms: N_20  and  C_21 
REMARK    2  A    between atoms: C_24  and  O_25 
ROOT
HETATM    1  C   UNL     1     -11.659  -0.123 -33.471  1.00  0.00     0.048 C 
HETATM    2  C   UNL     1     -11.135   1.286 -33.426  1.00  0.00    -0.061 A 
HETATM    3  C   UNL     1      -9.779   1.538 -33.158  1.00  0.00     0.019 A 
HETATM    4  C   UNL     1      -9.326   2.851 -33.187  1.00  0.00     0.016 A 
HETATM    5  C   UNL     1     -10.228   3.887 -33.455  1.00  0.00     0.044 A 
HETATM    6  N   UNL     1      -9.591   5.116 -33.397  1.00  0.00    -0.324 N 
HETATM    7  C   UNL     1      -8.250   4.967 -33.102  1.00  0.00     0.264 A 
HETATM    8  O   UNL     1      -7.439   5.864 -32.943  1.00  0.00    -0.270 OA
HETATM    9  C   UNL     1      -7.962   3.430 -32.923  1.00  0.00     0.250 A 
HETATM   10  N   UNL     1      -7.452   3.094 -31.533  1.00  0.00    -0.043 N 
HETATM   11  H   UNL     1      -7.542   2.074 -31.418  1.00  0.00     0.282 HD
HETATM   12  C   UNL     1      -5.998   3.492 -31.539  1.00  0.00     0.204 C 
HETATM   13  C   UNL     1      -5.589   3.010 -30.168  1.00  0.00     0.036 C 
HETATM   14  C   UNL     1      -6.796   3.434 -29.299  1.00  0.00     0.030 C 
HETATM   15  C   UNL     1      -7.977   3.669 -30.260  1.00  0.00     0.237 C 
HETATM   16  C   UNL     1      -5.511   3.014 -32.889  1.00  0.00     0.126 C 
HETATM   17  C   UNL     1      -6.738   3.081 -33.810  1.00  0.00     0.145 C 
HETATM   18  C   UNL     1      -6.798   1.709 -34.406  1.00  0.00     0.239 C 
HETATM   19  O   UNL     1      -7.540   1.471 -35.346  1.00  0.00    -0.272 OA
HETATM   20  N   UNL     1      -5.945   0.866 -33.724  1.00  0.00    -0.252 N 
HETATM   21  C   UNL     1      -5.121   1.572 -32.878  1.00  0.00     0.238 C 
HETATM   22  O   UNL     1      -4.235   1.183 -32.132  1.00  0.00    -0.272 OA
HETATM   23  C   UNL     1     -11.562   3.675 -33.719  1.00  0.00     0.031 A 
HETATM   24  C   UNL     1     -12.013   2.355 -33.709  1.00  0.00     0.009 A 
HETATM   25  H   UNL     1     -10.035   6.012 -33.559  1.00  0.00     0.169 HD
ENDROOT
BRANCH  20  26
HETATM   26  C   UNL     1      -5.925  -0.563 -33.861  1.00  0.00     0.045 A 
HETATM   27  C   UNL     1      -4.722  -1.279 -33.941  1.00  0.00     0.033 A 
HETATM   28  C   UNL     1      -4.708  -2.663 -34.175  1.00  0.00     0.039 A 
HETATM   29  C   UNL     1      -5.893  -3.376 -34.331  1.00  0.00     0.068 A 
HETATM   30  C   UNL     1      -7.096  -2.695 -34.221  1.00  0.00     0.039 A 
HETATM   31  C   UNL     1      -7.108  -1.311 -33.986  1.00  0.00     0.033 A 
BRANCH  29  32
HETATM   32  O   UNL     1      -5.739  -4.709 -34.583  1.00  0.00    -0.356 OA
HETATM   33  C   UNL     1      -4.493  -5.295 -34.221  1.00  0.00     0.210 C 
ENDBRANCH  29  32
ENDBRANCH  20  26
TORSDOF 2
ENDMDL
MODEL 8
REMARK VINA RESULT:      -8.3      3.375      5.767
REMARK  2 active torsions:
REMARK  status: ('A' for Active; 'I' for Inactive)
REMARK    1  A    between atoms: N_20  and  C_21 
REMARK    2  A    between atoms: C_24  and  O_25 
ROOT
HETATM    1  C   UNL     1      -2.244   4.832 -34.975  1.00  0.00     0.048 C 
HETATM    2  C   UNL     1      -2.611   5.554 -33.708  1.00  0.00    -0.061 A 
HETATM    3  C   UNL     1      -3.746   5.178 -32.970  1.00  0.00     0.019 A 
HETATM    4  C   UNL     1      -4.011   5.832 -31.775  1.00  0.00     0.016 A 
HETATM    5  C   UNL     1      -3.165   6.861 -31.348  1.00  0.00     0.044 A 
HETATM    6  N   UNL     1      -3.624   7.410 -30.161  1.00  0.00    -0.324 N 
HETATM    7  C   UNL     1      -4.776   6.781 -29.735  1.00  0.00     0.264 A 
HETATM    8  O   UNL     1      -5.437   7.066 -28.750  1.00  0.00    -0.270 OA
HETATM    9  C   UNL     1      -5.141   5.673 -30.793  1.00  0.00     0.250 A 
HETATM   10  N   UNL     1      -6.498   5.907 -31.432  1.00  0.00    -0.043 N 
HETATM   11  H   UNL     1      -6.541   5.314 -32.273  1.00  0.00     0.282 HD
HETATM   12  C   UNL     1      -7.502   5.438 -30.411  1.00  0.00     0.204 C 
HETATM   13  C   UNL     1      -8.779   5.613 -31.198  1.00  0.00     0.036 C 
HETATM   14  C   UNL     1      -8.545   6.971 -31.901  1.00  0.00     0.030 C 
HETATM   15  C   UNL     1      -7.026   7.232 -31.873  1.00  0.00     0.237 C 
HETATM   16  C   UNL     1      -6.890   4.160 -29.882  1.00  0.00     0.126 C 
HETATM   17  C   UNL     1      -5.373   4.350 -30.017  1.00  0.00     0.145 C 
HETATM   18  C   UNL     1      -4.937   3.129 -30.766  1.00  0.00     0.239 C 
HETATM   19  O   UNL     1      -3.752   2.853 -30.872  1.00  0.00    -0.272 OA
HETATM   20  N   UNL     1      -6.040   2.472 -31.271  1.00  0.00    -0.252 N 
HETATM   21  C   UNL     1      -7.205   2.978 -30.741  1.00  0.00     0.238 C 
HETATM   22  O   UNL     1      -8.366   2.649 -30.929  1.00  0.00    -0.272 OA
HETATM   23  C   UNL     1      -2.047   7.257 -32.048  1.00  0.00     0.031 A 
HETATM   24  C   UNL     1      -1.770   6.586 -33.239  1.00  0.00     0.009 A 
HETATM   25  H   UNL     1      -3.177   8.167 -29.656  1.00  0.00     0.169 HD
ENDROOT
BRANCH  20  26
HETATM   26  C   UNL     1      -5.989   1.411 -32.237  1.00  0.00     0.045 A 
HETATM   27  C   UNL     1      -6.378   1.609 -33.570  1.00  0.00     0.033 A 
HETATM   28  C   UNL     1      -6.421   0.546 -34.486  1.00  0.00     0.039 A 
HETATM   29  C   UNL     1      -6.073  -0.746 -34.102  1.00  0.00     0.068 A 
HETATM   30  C   UNL     1      -5.651  -0.959 -32.798  1.00  0.00     0.039 A 
HETATM   31  C   UNL     1      -5.608   0.105 -31.883  1.00  0.00     0.033 A 
BRANCH  29  32
HETATM   32  O   UNL     1      -6.187  -1.692 -35.079  1.00  0.00    -0.356 OA
HETATM   33  C   UNL     1      -5.493  -2.918 -34.876  1.00  0.00     0.210 C 
ENDBRANCH  29  32
ENDBRANCH  20  26
TORSDOF 2
ENDMDL
MODEL 9
REMARK VINA RESULT:      -8.0      2.313      6.348
REMARK  2 active torsions:
REMARK  status: ('A' for Active; 'I' for Inactive)
REMARK    1  A    between atoms: N_20  and  C_21 
REMARK    2  A    between atoms: C_24  and  O_25 
ROOT
HETATM    1  C   UNL     1     -10.279  -0.678 -32.794  1.00  0.00     0.048 C 
HETATM    2  C   UNL     1     -10.239   0.806 -33.027  1.00  0.00    -0.061 A 
HETATM    3  C   UNL     1      -9.102   1.556 -32.683  1.00  0.00     0.019 A 
HETATM    4  C   UNL     1      -9.086   2.914 -32.973  1.00  0.00     0.016 A 
HETATM    5  C   UNL     1     -10.203   3.506 -33.572  1.00  0.00     0.044 A 
HETATM    6  N   UNL     1     -10.004   4.867 -33.738  1.00  0.00    -0.324 N 
HETATM    7  C   UNL     1      -8.760   5.248 -33.275  1.00  0.00     0.264 A 
HETATM    8  O   UNL     1      -8.313   6.383 -33.247  1.00  0.00    -0.270 OA
HETATM    9  C   UNL     1      -8.042   3.967 -32.709  1.00  0.00     0.250 A 
HETATM   10  N   UNL     1      -7.710   4.093 -31.234  1.00  0.00    -0.043 N 
HETATM   11  H   UNL     1      -7.495   3.146 -30.892  1.00  0.00     0.282 HD
HETATM   12  C   UNL     1      -6.478   4.960 -31.179  1.00  0.00     0.204 C 
HETATM   13  C   UNL     1      -6.190   4.913 -29.697  1.00  0.00     0.036 C 
HETATM   14  C   UNL     1      -7.605   5.050 -29.086  1.00  0.00     0.030 C 
HETATM   15  C   UNL     1      -8.608   4.679 -30.195  1.00  0.00     0.237 C 
HETATM   16  C   UNL     1      -5.632   4.436 -32.318  1.00  0.00     0.126 C 
HETATM   17  C   UNL     1      -6.633   3.903 -33.354  1.00  0.00     0.145 C 
HETATM   18  C   UNL     1      -6.152   2.508 -33.613  1.00  0.00     0.239 C 
HETATM   19  O   UNL     1      -6.601   1.858 -34.543  1.00  0.00    -0.272 OA
HETATM   20  N   UNL     1      -5.214   2.154 -32.665  1.00  0.00    -0.252 N 
HETATM   21  C   UNL     1      -4.818   3.246 -31.926  1.00  0.00     0.238 C 
HETATM   22  O   UNL     1      -4.004   3.332 -31.020  1.00  0.00    -0.272 OA
HETATM   23  C   UNL     1     -11.334   2.802 -33.919  1.00  0.00     0.031 A 
HETATM   24  C   UNL     1     -11.342   1.434 -33.645  1.00  0.00     0.009 A 
HETATM   25  H   UNL     1     -10.670   5.509 -34.153  1.00  0.00     0.169 HD
ENDROOT
BRANCH  20  26
HETATM   26  C   UNL     1      -4.724   0.821 -32.458  1.00  0.00     0.045 A 
HETATM   27  C   UNL     1      -3.409   0.577 -32.034  1.00  0.00     0.033 A 
HETATM   28  C   UNL     1      -2.904  -0.729 -31.930  1.00  0.00     0.039 A 
HETATM   29  C   UNL     1      -3.696  -1.831 -32.239  1.00  0.00     0.068 A 
HETATM   30  C   UNL     1      -5.010  -1.616 -32.626  1.00  0.00     0.039 A 
HETATM   31  C   UNL     1      -5.514  -0.309 -32.730  1.00  0.00     0.033 A 
BRANCH  29  32
HETATM   32  O   UNL     1      -3.075  -3.041 -32.124  1.00  0.00    -0.356 OA
HETATM   33  C   UNL     1      -3.480  -4.062 -33.030  1.00  0.00     0.210 C 
ENDBRANCH  29  32
ENDBRANCH  20  26
TORSDOF 2
ENDMDL
MODEL 10
REMARK VINA RESULT:      -8.0      4.067      7.293
REMARK  2 active torsions:
REMARK  status: ('A' for Active; 'I' for Inactive)
REMARK    1  A    between atoms: N_20  and  C_21 
REMARK    2  A    between atoms: C_24  and  O_25 
ROOT
HETATM    1  C   UNL     1      -6.863   5.601 -27.861  1.00  0.00     0.048 C 
HETATM    2  C   UNL     1      -5.970   6.671 -28.425  1.00  0.00    -0.061 A 
HETATM    3  C   UNL     1      -5.091   6.387 -29.484  1.00  0.00     0.019 A 
HETATM    4  C   UNL     1      -4.329   7.420 -30.014  1.00  0.00     0.016 A 
HETATM    5  C   UNL     1      -4.433   8.705 -29.469  1.00  0.00     0.044 A 
HETATM    6  N   UNL     1      -3.566   9.577 -30.107  1.00  0.00    -0.324 N 
HETATM    7  C   UNL     1      -2.856   8.934 -31.101  1.00  0.00     0.264 A 
HETATM    8  O   UNL     1      -1.990   9.424 -31.807  1.00  0.00    -0.270 OA
HETATM    9  C   UNL     1      -3.301   7.424 -31.114  1.00  0.00     0.250 A 
HETATM   10  N   UNL     1      -2.149   6.478 -30.830  1.00  0.00    -0.043 N 
HETATM   11  H   UNL     1      -2.561   5.563 -30.598  1.00  0.00     0.282 HD
HETATM   12  C   UNL     1      -1.381   6.390 -32.124  1.00  0.00     0.204 C 
HETATM   13  C   UNL     1      -0.351   5.351 -31.748  1.00  0.00     0.036 C 
HETATM   14  C   UNL     1       0.040   5.784 -30.316  1.00  0.00     0.030 C 
HETATM   15  C   UNL     1      -1.092   6.692 -29.798  1.00  0.00     0.237 C 
HETATM   16  C   UNL     1      -2.470   6.301 -33.170  1.00  0.00     0.126 C 
HETATM   17  C   UNL     1      -3.665   7.060 -32.577  1.00  0.00     0.145 C 
HETATM   18  C   UNL     1      -4.790   6.078 -32.692  1.00  0.00     0.239 C 
HETATM   19  O   UNL     1      -5.943   6.427 -32.497  1.00  0.00    -0.272 OA
HETATM   20  N   UNL     1      -4.290   4.831 -33.007  1.00  0.00    -0.252 N 
HETATM   21  C   UNL     1      -2.963   4.904 -33.364  1.00  0.00     0.238 C 
HETATM   22  O   UNL     1      -2.192   4.025 -33.719  1.00  0.00    -0.272 OA
HETATM   23  C   UNL     1      -5.281   9.016 -28.430  1.00  0.00     0.031 A 
HETATM   24  C   UNL     1      -6.060   7.982 -27.911  1.00  0.00     0.009 A 
HETATM   25  H   UNL     1      -3.464  10.562 -29.890  1.00  0.00     0.169 HD
ENDROOT
BRANCH  20  26
HETATM   26  C   UNL     1      -5.045   3.611 -32.956  1.00  0.00     0.045 A 
HETATM   27  C   UNL     1      -4.897   2.697 -31.902  1.00  0.00     0.033 A 
HETATM   28  C   UNL     1      -5.562   1.461 -31.906  1.00  0.00     0.039 A 
HETATM   29  C   UNL     1      -6.399   1.100 -32.958  1.00  0.00     0.068 A 
HETATM   30  C   UNL     1      -6.588   2.002 -33.994  1.00  0.00     0.039 A 
HETATM   31  C   UNL     1      -5.922   3.239 -33.988  1.00  0.00     0.033 A 
BRANCH  29  32
HETATM   32  O   UNL     1      -6.960  -0.140 -32.853  1.00  0.00    -0.356 OA
HETATM   33  C   UNL     1      -6.234  -1.226 -33.419  1.00  0.00     0.210 C 
ENDBRANCH  29  32
ENDBRANCH  20  26
TORSDOF 2
ENDMDL
