MODEL 1
REMARK VINA RESULT:      -8.5      0.000      0.000
REMARK  3 active torsions:
REMARK  status: ('A' for Active; 'I' for Inactive)
REMARK    1  A    between atoms: C_4  and  C_5 
REMARK    2  A    between atoms: C_14  and  C_15 
REMARK       I    between atoms: C_15  and  N_16 
REMARK    3  A    between atoms: N_16  and  C_17 
ROOT
HETATM    1  C   UNL     1      -7.124   2.286 -33.280  1.00  0.00     0.222 C 
HETATM    2  N   UNL     1      -7.962   3.418 -33.663  1.00  0.00    -0.090 N 
HETATM    3  C   UNL     1      -9.324   3.440 -33.576  1.00  0.00     0.735 A 
HETATM    4  N   UNL     1      -9.746   4.592 -34.035  1.00  0.00     0.030 NA
HETATM    5  N   UNL     1      -8.612   5.269 -34.447  1.00  0.00     0.033 NA
HETATM    6  N   UNL     1      -7.517   4.541 -34.252  1.00  0.00     0.012 NA
HETATM    7  N   UNL     1      -9.975   2.344 -33.132  1.00  0.00    -0.191 N 
HETATM    8  C   UNL     1      -9.336   1.126 -32.911  1.00  0.00     0.037 C 
HETATM    9  C   UNL     1     -10.251  -0.058 -32.723  1.00  0.00     0.070 C 
HETATM   10  C   UNL     1      -7.980   1.062 -32.957  1.00  0.00     0.064 C 
HETATM   11  H   UNL     1     -10.991   2.342 -33.169  1.00  0.00     0.184 HD
ENDROOT
BRANCH  10  12
HETATM   12  C   UNL     1      -7.185  -0.191 -32.833  1.00  0.00     0.256 C 
HETATM   13  N   UNL     1      -7.137  -0.942 -33.984  1.00  0.00    -0.323 N 
HETATM   14  H   UNL     1      -7.682  -0.617 -34.772  1.00  0.00     0.169 HD
HETATM   15  O   UNL     1      -6.692  -0.458 -31.745  1.00  0.00    -0.267 OA
BRANCH  13  16
HETATM   16  C   UNL     1      -6.359  -2.098 -34.214  1.00  0.00     0.035 A 
HETATM   17  C   UNL     1      -4.967  -2.135 -34.119  1.00  0.00     0.029 A 
HETATM   18  C   UNL     1      -4.266  -3.313 -34.399  1.00  0.00     0.002 A 
HETATM   19  C   UNL     1      -4.951  -4.463 -34.782  1.00  0.00     0.000 A 
HETATM   20  C   UNL     1      -6.340  -4.440 -34.877  1.00  0.00     0.002 A 
HETATM   21  C   UNL     1      -7.040  -3.265 -34.588  1.00  0.00     0.029 A 
ENDBRANCH  13  16
ENDBRANCH  10  12
BRANCH   1  22
HETATM   22  C   UNL     1      -6.216   2.707 -32.162  1.00  0.00     0.083 A 
HETATM   23  O   UNL     1      -4.918   2.987 -32.482  1.00  0.00    -0.317 OA
HETATM   24  C   UNL     1      -4.271   3.281 -31.321  1.00  0.00     0.049 A 
HETATM   25  C   UNL     1      -2.822   3.544 -31.420  1.00  0.00     0.076 C 
HETATM   26  C   UNL     1      -5.155   3.240 -30.265  1.00  0.00     0.035 A 
HETATM   27  C   UNL     1      -6.410   2.877 -30.805  1.00  0.00     0.038 A 
ENDBRANCH   1  22
TORSDOF 3
ENDMDL
MODEL 2
REMARK VINA RESULT:      -8.4      2.076      3.968
REMARK  3 active torsions:
REMARK  status: ('A' for Active; 'I' for Inactive)
REMARK    1  A    between atoms: C_4  and  C_5 
REMARK    2  A    between atoms: C_14  and  C_15 
REMARK       I    between atoms: C_15  and  N_16 
REMARK    3  A    between atoms: N_16  and  C_17 
ROOT
HETATM    1  C   UNL     1      -7.763   1.717 -31.282  1.00  0.00     0.222 C 
HETATM    2  N   UNL     1      -7.843   3.114 -30.866  1.00  0.00    -0.090 N 
HETATM    3  C   UNL     1      -6.880   4.052 -31.107  1.00  0.00     0.735 A 
HETATM    4  N   UNL     1      -7.264   5.181 -30.565  1.00  0.00     0.030 NA
HETATM    5  N   UNL     1      -8.470   4.909 -29.946  1.00  0.00     0.033 NA
HETATM    6  N   UNL     1      -8.816   3.634 -30.099  1.00  0.00     0.012 NA
HETATM    7  N   UNL     1      -5.752   3.689 -31.752  1.00  0.00    -0.191 N 
HETATM    8  C   UNL     1      -5.444   2.362 -32.042  1.00  0.00     0.037 C 
HETATM    9  C   UNL     1      -4.021   2.110 -32.477  1.00  0.00     0.070 C 
HETATM   10  C   UNL     1      -6.380   1.398 -31.848  1.00  0.00     0.064 C 
HETATM   11  H   UNL     1      -5.005   4.374 -31.834  1.00  0.00     0.184 HD
ENDROOT
BRANCH  10  12
HETATM   12  C   UNL     1      -6.145  -0.061 -32.029  1.00  0.00     0.256 C 
HETATM   13  N   UNL     1      -6.220  -0.485 -33.336  1.00  0.00    -0.323 N 
HETATM   14  H   UNL     1      -6.483   0.203 -34.031  1.00  0.00     0.169 HD
HETATM   15  O   UNL     1      -5.951  -0.745 -31.032  1.00  0.00    -0.267 OA
BRANCH  13  16
HETATM   16  C   UNL     1      -5.914  -1.771 -33.833  1.00  0.00     0.035 A 
HETATM   17  C   UNL     1      -4.625  -2.305 -33.876  1.00  0.00     0.029 A 
HETATM   18  C   UNL     1      -4.400  -3.575 -34.419  1.00  0.00     0.002 A 
HETATM   19  C   UNL     1      -5.460  -4.319 -34.928  1.00  0.00     0.000 A 
HETATM   20  C   UNL     1      -6.751  -3.798 -34.888  1.00  0.00     0.002 A 
HETATM   21  C   UNL     1      -6.977  -2.533 -34.337  1.00  0.00     0.029 A 
ENDBRANCH  13  16
ENDBRANCH  10  12
BRANCH   1  22
HETATM   22  C   UNL     1      -8.890   1.426 -32.229  1.00  0.00     0.083 A 
HETATM   23  O   UNL     1      -9.257   2.422 -33.090  1.00  0.00    -0.317 OA
HETATM   24  C   UNL     1     -10.325   1.967 -33.800  1.00  0.00     0.049 A 
HETATM   25  C   UNL     1     -10.942   2.917 -34.748  1.00  0.00     0.076 C 
HETATM   26  C   UNL     1     -10.616   0.670 -33.438  1.00  0.00     0.035 A 
HETATM   27  C   UNL     1      -9.688   0.317 -32.431  1.00  0.00     0.038 A 
ENDBRANCH   1  22
TORSDOF 3
ENDMDL
MODEL 3
REMARK VINA RESULT:      -8.4     15.527     18.396
REMARK  3 active torsions:
REMARK  status: ('A' for Active; 'I' for Inactive)
REMARK    1  A    between atoms: C_4  and  C_5 
REMARK    2  A    between atoms: C_14  and  C_15 
REMARK       I    between atoms: C_15  and  N_16 
REMARK    3  A    between atoms: N_16  and  C_17 
ROOT
HETATM    1  C   UNL     1      -0.558 -14.281 -39.665  1.00  0.00     0.222 C 
HETATM    2  N   UNL     1       0.705 -14.943 -39.355  1.00  0.00    -0.090 N 
HETATM    3  C   UNL     1       1.026 -15.472 -38.138  1.00  0.00     0.735 A 
HETATM    4  N   UNL     1       2.243 -15.952 -38.207  1.00  0.00     0.030 NA
HETATM    5  N   UNL     1       2.684 -15.671 -39.487  1.00  0.00     0.033 NA
HETATM    6  N   UNL     1       1.758 -15.023 -40.186  1.00  0.00     0.012 NA
HETATM    7  N   UNL     1       0.144 -15.370 -37.121  1.00  0.00    -0.191 N 
HETATM    8  C   UNL     1      -1.016 -14.604 -37.204  1.00  0.00     0.037 C 
HETATM    9  C   UNL     1      -1.717 -14.350 -35.893  1.00  0.00     0.070 C 
HETATM   10  C   UNL     1      -1.392 -14.084 -38.401  1.00  0.00     0.064 C 
HETATM   11  H   UNL     1       0.439 -15.680 -36.198  1.00  0.00     0.184 HD
ENDROOT
BRANCH  10  12
HETATM   12  C   UNL     1      -2.553 -13.174 -38.603  1.00  0.00     0.256 C 
HETATM   13  N   UNL     1      -3.664 -13.789 -39.132  1.00  0.00    -0.323 N 
HETATM   14  H   UNL     1      -3.575 -14.764 -39.388  1.00  0.00     0.169 HD
HETATM   15  O   UNL     1      -2.415 -11.989 -38.328  1.00  0.00    -0.267 OA
BRANCH  13  16
HETATM   16  C   UNL     1      -4.947 -13.225 -39.308  1.00  0.00     0.035 A 
HETATM   17  C   UNL     1      -5.855 -13.010 -38.271  1.00  0.00     0.029 A 
HETATM   18  C   UNL     1      -7.123 -12.480 -38.534  1.00  0.00     0.002 A 
HETATM   19  C   UNL     1      -7.495 -12.165 -39.838  1.00  0.00     0.000 A 
HETATM   20  C   UNL     1      -6.596 -12.372 -40.881  1.00  0.00     0.002 A 
HETATM   21  C   UNL     1      -5.326 -12.893 -40.616  1.00  0.00     0.029 A 
ENDBRANCH  13  16
ENDBRANCH  10  12
BRANCH   1  22
HETATM   22  C   UNL     1      -1.261 -15.053 -40.744  1.00  0.00     0.083 A 
HETATM   23  O   UNL     1      -2.130 -14.362 -41.541  1.00  0.00    -0.317 OA
HETATM   24  C   UNL     1      -2.692 -15.261 -42.395  1.00  0.00     0.049 A 
HETATM   25  C   UNL     1      -3.731 -14.744 -43.308  1.00  0.00     0.076 C 
HETATM   26  C   UNL     1      -2.156 -16.513 -42.185  1.00  0.00     0.035 A 
HETATM   27  C   UNL     1      -1.228 -16.379 -41.126  1.00  0.00     0.038 A 
ENDBRANCH   1  22
TORSDOF 3
ENDMDL
MODEL 4
REMARK VINA RESULT:      -8.2      2.329      4.473
REMARK  3 active torsions:
REMARK  status: ('A' for Active; 'I' for Inactive)
REMARK    1  A    between atoms: C_4  and  C_5 
REMARK    2  A    between atoms: C_14  and  C_15 
REMARK       I    between atoms: C_15  and  N_16 
REMARK    3  A    between atoms: N_16  and  C_17 
ROOT
HETATM    1  C   UNL     1      -8.669   2.028 -32.651  1.00  0.00     0.222 C 
HETATM    2  N   UNL     1      -8.873   3.143 -31.731  1.00  0.00    -0.090 N 
HETATM    3  C   UNL     1      -8.202   4.330 -31.791  1.00  0.00     0.735 A 
HETATM    4  N   UNL     1      -8.607   5.081 -30.796  1.00  0.00     0.030 NA
HETATM    5  N   UNL     1      -9.518   4.312 -30.094  1.00  0.00     0.033 NA
HETATM    6  N   UNL     1      -9.661   3.110 -30.644  1.00  0.00     0.012 NA
HETATM    7  N   UNL     1      -7.259   4.510 -32.740  1.00  0.00    -0.191 N 
HETATM    8  C   UNL     1      -6.817   3.479 -33.566  1.00  0.00     0.037 C 
HETATM    9  C   UNL     1      -5.558   3.771 -34.344  1.00  0.00     0.070 C 
HETATM   10  C   UNL     1      -7.473   2.290 -33.565  1.00  0.00     0.064 C 
HETATM   11  H   UNL     1      -6.701   5.359 -32.708  1.00  0.00     0.184 HD
ENDROOT
BRANCH  10  12
HETATM   12  C   UNL     1      -7.045   1.085 -34.327  1.00  0.00     0.256 C 
HETATM   13  N   UNL     1      -6.533   0.076 -33.544  1.00  0.00    -0.323 N 
HETATM   14  H   UNL     1      -6.436   0.263 -32.554  1.00  0.00     0.169 HD
HETATM   15  O   UNL     1      -7.145   1.106 -35.547  1.00  0.00    -0.267 OA
BRANCH  13  16
HETATM   16  C   UNL     1      -6.174  -1.225 -33.959  1.00  0.00     0.035 A 
HETATM   17  C   UNL     1      -7.087  -2.182 -34.405  1.00  0.00     0.029 A 
HETATM   18  C   UNL     1      -6.655  -3.464 -34.764  1.00  0.00     0.002 A 
HETATM   19  C   UNL     1      -5.307  -3.801 -34.674  1.00  0.00     0.000 A 
HETATM   20  C   UNL     1      -4.387  -2.854 -34.233  1.00  0.00     0.002 A 
HETATM   21  C   UNL     1      -4.818  -1.571 -33.884  1.00  0.00     0.029 A 
ENDBRANCH  13  16
ENDBRANCH  10  12
BRANCH   1  22
HETATM   22  C   UNL     1      -9.950   1.764 -33.387  1.00  0.00     0.083 A 
HETATM   23  O   UNL     1     -10.360   2.706 -34.287  1.00  0.00    -0.317 OA
HETATM   24  C   UNL     1     -11.560   2.296 -34.781  1.00  0.00     0.049 A 
HETATM   25  C   UNL     1     -12.233   3.209 -35.726  1.00  0.00     0.076 C 
HETATM   26  C   UNL     1     -11.901   1.074 -34.242  1.00  0.00     0.035 A 
HETATM   27  C   UNL     1     -10.861   0.726 -33.349  1.00  0.00     0.038 A 
ENDBRANCH   1  22
TORSDOF 3
ENDMDL
MODEL 5
REMARK VINA RESULT:      -8.0      8.039     11.428
REMARK  3 active torsions:
REMARK  status: ('A' for Active; 'I' for Inactive)
REMARK    1  A    between atoms: C_4  and  C_5 
REMARK    2  A    between atoms: C_14  and  C_15 
REMARK       I    between atoms: C_15  and  N_16 
REMARK    3  A    between atoms: N_16  and  C_17 
ROOT
HETATM    1  C   UNL     1      -1.244   7.836 -30.360  1.00  0.00     0.222 C 
HETATM    2  N   UNL     1      -1.342   7.589 -31.796  1.00  0.00    -0.090 N 
HETATM    3  C   UNL     1      -0.879   6.469 -32.424  1.00  0.00     0.735 A 
HETATM    4  N   UNL     1      -1.100   6.598 -33.709  1.00  0.00     0.030 NA
HETATM    5  N   UNL     1      -1.675   7.846 -33.866  1.00  0.00     0.033 NA
HETATM    6  N   UNL     1      -1.796   8.473 -32.700  1.00  0.00     0.012 NA
HETATM    7  N   UNL     1      -0.260   5.513 -31.699  1.00  0.00    -0.191 N 
HETATM    8  C   UNL     1       0.079   5.686 -30.359  1.00  0.00     0.037 C 
HETATM    9  C   UNL     1       1.031   4.660 -29.797  1.00  0.00     0.070 C 
HETATM   10  C   UNL     1      -0.384   6.769 -29.684  1.00  0.00     0.064 C 
HETATM   11  H   UNL     1       0.166   4.734 -32.195  1.00  0.00     0.184 HD
ENDROOT
BRANCH  10  12
HETATM   12  C   UNL     1      -0.018   7.116 -28.283  1.00  0.00     0.256 C 
HETATM   13  N   UNL     1       0.921   8.116 -28.178  1.00  0.00    -0.323 N 
HETATM   14  H   UNL     1       1.315   8.473 -29.040  1.00  0.00     0.169 HD
HETATM   15  O   UNL     1      -0.536   6.479 -27.374  1.00  0.00    -0.267 OA
BRANCH  13  16
HETATM   16  C   UNL     1       1.363   8.748 -26.996  1.00  0.00     0.035 A 
HETATM   17  C   UNL     1       2.139   8.123 -26.019  1.00  0.00     0.029 A 
HETATM   18  C   UNL     1       2.506   8.808 -24.855  1.00  0.00     0.002 A 
HETATM   19  C   UNL     1       2.095  10.123 -24.656  1.00  0.00     0.000 A 
HETATM   20  C   UNL     1       1.323  10.759 -25.625  1.00  0.00     0.002 A 
HETATM   21  C   UNL     1       0.965  10.076 -26.791  1.00  0.00     0.029 A 
ENDBRANCH  13  16
ENDBRANCH  10  12
BRANCH   1  22
HETATM   22  C   UNL     1      -2.628   7.954 -29.791  1.00  0.00     0.083 A 
HETATM   23  O   UNL     1      -3.313   6.792 -29.568  1.00  0.00    -0.317 OA
HETATM   24  C   UNL     1      -4.550   7.136 -29.118  1.00  0.00     0.049 A 
HETATM   25  C   UNL     1      -5.498   6.029 -28.881  1.00  0.00     0.076 C 
HETATM   26  C   UNL     1      -4.649   8.505 -29.003  1.00  0.00     0.035 A 
HETATM   27  C   UNL     1      -3.408   9.034 -29.430  1.00  0.00     0.038 A 
ENDBRANCH   1  22
TORSDOF 3
ENDMDL
MODEL 6
REMARK VINA RESULT:      -7.8      2.940      6.564
REMARK  3 active torsions:
REMARK  status: ('A' for Active; 'I' for Inactive)
REMARK    1  A    between atoms: C_4  and  C_5 
REMARK    2  A    between atoms: C_14  and  C_15 
REMARK       I    between atoms: C_15  and  N_16 
REMARK    3  A    between atoms: N_16  and  C_17 
ROOT
HETATM    1  C   UNL     1      -5.777   1.836 -33.442  1.00  0.00     0.222 C 
HETATM    2  N   UNL     1      -6.238   0.530 -33.903  1.00  0.00    -0.090 N 
HETATM    3  C   UNL     1      -5.902  -0.660 -33.323  1.00  0.00     0.735 A 
HETATM    4  N   UNL     1      -6.462  -1.623 -34.012  1.00  0.00     0.030 NA
HETATM    5  N   UNL     1      -7.120  -1.003 -35.058  1.00  0.00     0.033 NA
HETATM    6  N   UNL     1      -6.960   0.316 -35.015  1.00  0.00     0.012 NA
HETATM    7  N   UNL     1      -5.066  -0.665 -32.264  1.00  0.00    -0.191 N 
HETATM    8  C   UNL     1      -4.393   0.474 -31.829  1.00  0.00     0.037 C 
HETATM    9  C   UNL     1      -3.276   0.228 -30.846  1.00  0.00     0.070 C 
HETATM   10  C   UNL     1      -4.716   1.684 -32.354  1.00  0.00     0.064 C 
HETATM   11  H   UNL     1      -4.748  -1.564 -31.909  1.00  0.00     0.184 HD
ENDROOT
BRANCH  10  12
HETATM   12  C   UNL     1      -4.010   2.958 -32.044  1.00  0.00     0.256 C 
HETATM   13  N   UNL     1      -2.994   3.266 -32.920  1.00  0.00    -0.323 N 
HETATM   14  H   UNL     1      -2.782   2.586 -33.639  1.00  0.00     0.169 HD
HETATM   15  O   UNL     1      -4.354   3.584 -31.049  1.00  0.00    -0.267 OA
BRANCH  13  16
HETATM   16  C   UNL     1      -2.242   4.460 -32.966  1.00  0.00     0.035 A 
HETATM   17  C   UNL     1      -1.418   4.905 -31.931  1.00  0.00     0.029 A 
HETATM   18  C   UNL     1      -0.734   6.120 -32.038  1.00  0.00     0.002 A 
HETATM   19  C   UNL     1      -0.871   6.904 -33.180  1.00  0.00     0.000 A 
HETATM   20  C   UNL     1      -1.688   6.470 -34.221  1.00  0.00     0.002 A 
HETATM   21  C   UNL     1      -2.364   5.251 -34.116  1.00  0.00     0.029 A 
ENDBRANCH  13  16
ENDBRANCH  10  12
BRANCH   1  22
HETATM   22  C   UNL     1      -6.965   2.654 -33.025  1.00  0.00     0.083 A 
HETATM   23  O   UNL     1      -7.538   2.354 -31.821  1.00  0.00    -0.317 OA
HETATM   24  C   UNL     1      -8.621   3.165 -31.679  1.00  0.00     0.049 A 
HETATM   25  C   UNL     1      -9.446   2.961 -30.471  1.00  0.00     0.076 C 
HETATM   26  C   UNL     1      -8.720   4.016 -32.758  1.00  0.00     0.035 A 
HETATM   27  C   UNL     1      -7.649   3.693 -33.624  1.00  0.00     0.038 A 
ENDBRANCH   1  22
TORSDOF 3
ENDMDL
MODEL 7
REMARK VINA RESULT:      -7.7      2.641      5.577
REMARK  3 active torsions:
REMARK  status: ('A' for Active; 'I' for Inactive)
REMARK    1  A    between atoms: C_4  and  C_5 
REMARK    2  A    between atoms: C_14  and  C_15 
REMARK       I    between atoms: C_15  and  N_16 
REMARK    3  A    between atoms: N_16  and  C_17 
ROOT
HETATM    1  C   UNL     1      -5.942   1.033 -31.792  1.00  0.00     0.222 C 
HETATM    2  N   UNL     1      -4.586   0.493 -31.770  1.00  0.00    -0.090 N 
HETATM    3  C   UNL     1      -4.118  -0.463 -32.624  1.00  0.00     0.735 A 
HETATM    4  N   UNL     1      -2.878  -0.733 -32.298  1.00  0.00     0.030 NA
HETATM    5  N   UNL     1      -2.603   0.050 -31.192  1.00  0.00     0.033 NA
HETATM    6  N   UNL     1      -3.658   0.781 -30.843  1.00  0.00     0.012 NA
HETATM    7  N   UNL     1      -4.949  -0.985 -33.551  1.00  0.00    -0.191 N 
HETATM    8  C   UNL     1      -6.315  -0.715 -33.575  1.00  0.00     0.037 C 
HETATM    9  C   UNL     1      -7.135  -1.613 -34.468  1.00  0.00     0.070 C 
HETATM   10  C   UNL     1      -6.822   0.250 -32.765  1.00  0.00     0.064 C 
HETATM   11  H   UNL     1      -4.613  -1.765 -34.112  1.00  0.00     0.184 HD
ENDROOT
BRANCH  10  12
HETATM   12  C   UNL     1      -8.271   0.567 -32.628  1.00  0.00     0.256 C 
HETATM   13  N   UNL     1      -8.818   1.182 -33.730  1.00  0.00    -0.323 N 
HETATM   14  H   UNL     1      -8.191   1.414 -34.490  1.00  0.00     0.169 HD
HETATM   15  O   UNL     1      -8.824   0.300 -31.569  1.00  0.00    -0.267 OA
BRANCH  13  16
HETATM   16  C   UNL     1     -10.181   1.479 -33.950  1.00  0.00     0.035 A 
HETATM   17  C   UNL     1     -11.231   0.621 -33.619  1.00  0.00     0.029 A 
HETATM   18  C   UNL     1     -12.555   0.974 -33.904  1.00  0.00     0.002 A 
HETATM   19  C   UNL     1     -12.839   2.186 -34.526  1.00  0.00     0.000 A 
HETATM   20  C   UNL     1     -11.801   3.052 -34.858  1.00  0.00     0.002 A 
HETATM   21  C   UNL     1     -10.479   2.703 -34.565  1.00  0.00     0.029 A 
ENDBRANCH  13  16
ENDBRANCH  10  12
BRANCH   1  22
HETATM   22  C   UNL     1      -5.876   2.505 -32.080  1.00  0.00     0.083 A 
HETATM   23  O   UNL     1      -5.386   2.882 -33.299  1.00  0.00    -0.317 OA
HETATM   24  C   UNL     1      -5.357   4.242 -33.317  1.00  0.00     0.049 A 
HETATM   25  C   UNL     1      -4.786   4.875 -34.522  1.00  0.00     0.076 C 
HETATM   26  C   UNL     1      -5.870   4.742 -32.140  1.00  0.00     0.035 A 
HETATM   27  C   UNL     1      -6.212   3.624 -31.344  1.00  0.00     0.038 A 
ENDBRANCH   1  22
TORSDOF 3
ENDMDL
MODEL 8
REMARK VINA RESULT:      -7.7      2.919      3.967
REMARK  3 active torsions:
REMARK  status: ('A' for Active; 'I' for Inactive)
REMARK    1  A    between atoms: C_4  and  C_5 
REMARK    2  A    between atoms: C_14  and  C_15 
REMARK       I    between atoms: C_15  and  N_16 
REMARK    3  A    between atoms: N_16  and  C_17 
ROOT
HETATM    1  C   UNL     1      -5.240   4.245 -31.887  1.00  0.00     0.222 C 
HETATM    2  N   UNL     1      -5.380   5.161 -30.759  1.00  0.00    -0.090 N 
HETATM    3  C   UNL     1      -5.519   4.772 -29.457  1.00  0.00     0.735 A 
HETATM    4  N   UNL     1      -5.655   5.847 -28.720  1.00  0.00     0.030 NA
HETATM    5  N   UNL     1      -5.638   6.911 -29.604  1.00  0.00     0.033 NA
HETATM    6  N   UNL     1      -5.502   6.495 -30.859  1.00  0.00     0.012 NA
HETATM    7  N   UNL     1      -5.558   3.456 -29.162  1.00  0.00    -0.191 N 
HETATM    8  C   UNL     1      -5.628   2.466 -30.140  1.00  0.00     0.037 C 
HETATM    9  C   UNL     1      -5.977   1.087 -29.638  1.00  0.00     0.070 C 
HETATM   10  C   UNL     1      -5.465   2.800 -31.445  1.00  0.00     0.064 C 
HETATM   11  H   UNL     1      -5.762   3.185 -28.203  1.00  0.00     0.184 HD
ENDROOT
BRANCH  10  12
HETATM   12  C   UNL     1      -5.611   1.857 -32.588  1.00  0.00     0.256 C 
HETATM   13  N   UNL     1      -5.157   0.584 -32.327  1.00  0.00    -0.323 N 
HETATM   14  H   UNL     1      -4.718   0.424 -31.429  1.00  0.00     0.169 HD
HETATM   15  O   UNL     1      -6.071   2.285 -33.638  1.00  0.00    -0.267 OA
BRANCH  13  16
HETATM   16  C   UNL     1      -5.284  -0.551 -33.157  1.00  0.00     0.035 A 
HETATM   17  C   UNL     1      -4.213  -1.353 -33.553  1.00  0.00     0.029 A 
HETATM   18  C   UNL     1      -4.417  -2.441 -34.409  1.00  0.00     0.002 A 
HETATM   19  C   UNL     1      -5.694  -2.734 -34.879  1.00  0.00     0.000 A 
HETATM   20  C   UNL     1      -6.771  -1.943 -34.489  1.00  0.00     0.002 A 
HETATM   21  C   UNL     1      -6.568  -0.862 -33.626  1.00  0.00     0.029 A 
ENDBRANCH  13  16
ENDBRANCH  10  12
BRANCH   1  22
HETATM   22  C   UNL     1      -3.911   4.482 -32.543  1.00  0.00     0.083 A 
HETATM   23  O   UNL     1      -2.825   4.616 -31.725  1.00  0.00    -0.317 OA
HETATM   24  C   UNL     1      -1.753   4.884 -32.519  1.00  0.00     0.049 A 
HETATM   25  C   UNL     1      -0.471   5.144 -31.834  1.00  0.00     0.076 C 
HETATM   26  C   UNL     1      -2.132   4.874 -33.844  1.00  0.00     0.035 A 
HETATM   27  C   UNL     1      -3.521   4.608 -33.862  1.00  0.00     0.038 A 
ENDBRANCH   1  22
TORSDOF 3
ENDMDL
MODEL 9
REMARK VINA RESULT:      -7.7      1.757      2.323
REMARK  3 active torsions:
REMARK  status: ('A' for Active; 'I' for Inactive)
REMARK    1  A    between atoms: C_4  and  C_5 
REMARK    2  A    between atoms: C_14  and  C_15 
REMARK       I    between atoms: C_15  and  N_16 
REMARK    3  A    between atoms: N_16  and  C_17 
ROOT
HETATM    1  C   UNL     1      -8.418   3.244 -33.631  1.00  0.00     0.222 C 
HETATM    2  N   UNL     1      -9.280   4.260 -34.226  1.00  0.00    -0.090 N 
HETATM    3  C   UNL     1     -10.630   4.133 -34.390  1.00  0.00     0.735 A 
HETATM    4  N   UNL     1     -11.074   5.212 -34.985  1.00  0.00     0.030 NA
HETATM    5  N   UNL     1      -9.959   5.995 -35.223  1.00  0.00     0.033 NA
HETATM    6  N   UNL     1      -8.851   5.402 -34.788  1.00  0.00     0.012 NA
HETATM    7  N   UNL     1     -11.236   2.989 -34.008  1.00  0.00    -0.191 N 
HETATM    8  C   UNL     1     -10.528   1.860 -33.603  1.00  0.00     0.037 C 
HETATM    9  C   UNL     1     -11.336   0.589 -33.515  1.00  0.00     0.070 C 
HETATM   10  C   UNL     1      -9.189   1.946 -33.397  1.00  0.00     0.064 C 
HETATM   11  H   UNL     1     -12.222   2.872 -34.229  1.00  0.00     0.184 HD
ENDROOT
BRANCH  10  12
HETATM   12  C   UNL     1      -8.307   0.796 -33.056  1.00  0.00     0.256 C 
HETATM   13  N   UNL     1      -7.579   0.312 -34.119  1.00  0.00    -0.323 N 
HETATM   14  H   UNL     1      -7.750   0.729 -35.025  1.00  0.00     0.169 HD
HETATM   15  O   UNL     1      -8.332   0.367 -31.910  1.00  0.00    -0.267 OA
BRANCH  13  16
HETATM   16  C   UNL     1      -6.568  -0.673 -34.079  1.00  0.00     0.035 A 
HETATM   17  C   UNL     1      -5.288  -0.458 -33.565  1.00  0.00     0.029 A 
HETATM   18  C   UNL     1      -4.329  -1.476 -33.597  1.00  0.00     0.002 A 
HETATM   19  C   UNL     1      -4.640  -2.717 -34.147  1.00  0.00     0.000 A 
HETATM   20  C   UNL     1      -5.914  -2.944 -34.660  1.00  0.00     0.002 A 
HETATM   21  C   UNL     1      -6.874  -1.929 -34.620  1.00  0.00     0.029 A 
ENDBRANCH  13  16
ENDBRANCH  10  12
BRANCH   1  22
HETATM   22  C   UNL     1      -7.784   3.808 -32.392  1.00  0.00     0.083 A 
HETATM   23  O   UNL     1      -8.614   4.393 -31.477  1.00  0.00    -0.317 OA
HETATM   24  C   UNL     1      -7.829   4.884 -30.479  1.00  0.00     0.049 A 
HETATM   25  C   UNL     1      -8.514   5.633 -29.407  1.00  0.00     0.076 C 
HETATM   26  C   UNL     1      -6.507   4.577 -30.722  1.00  0.00     0.035 A 
HETATM   27  C   UNL     1      -6.478   3.878 -31.951  1.00  0.00     0.038 A 
ENDBRANCH   1  22
TORSDOF 3
ENDMDL
MODEL 10
REMARK VINA RESULT:      -7.5      2.932      5.573
REMARK  3 active torsions:
REMARK  status: ('A' for Active; 'I' for Inactive)
REMARK    1  A    between atoms: C_4  and  C_5 
REMARK    2  A    between atoms: C_14  and  C_15 
REMARK       I    between atoms: C_15  and  N_16 
REMARK    3  A    between atoms: N_16  and  C_17 
ROOT
HETATM    1  C   UNL     1      -4.620   3.082 -32.212  1.00  0.00     0.222 C 
HETATM    2  N   UNL     1      -3.429   3.922 -32.307  1.00  0.00    -0.090 N 
HETATM    3  C   UNL     1      -3.084   4.883 -31.401  1.00  0.00     0.735 A 
HETATM    4  N   UNL     1      -1.984   5.461 -31.815  1.00  0.00     0.030 NA
HETATM    5  N   UNL     1      -1.678   4.861 -33.023  1.00  0.00     0.033 NA
HETATM    6  N   UNL     1      -2.579   3.938 -33.346  1.00  0.00     0.012 NA
HETATM    7  N   UNL     1      -3.891   5.116 -30.345  1.00  0.00    -0.191 N 
HETATM    8  C   UNL     1      -5.151   4.535 -30.217  1.00  0.00     0.037 C 
HETATM    9  C   UNL     1      -6.035   5.138 -29.154  1.00  0.00     0.070 C 
HETATM   10  C   UNL     1      -5.527   3.553 -31.076  1.00  0.00     0.064 C 
HETATM   11  H   UNL     1      -3.671   5.901 -29.736  1.00  0.00     0.184 HD
ENDROOT
BRANCH  10  12
HETATM   12  C   UNL     1      -6.875   2.921 -31.105  1.00  0.00     0.256 C 
HETATM   13  N   UNL     1      -7.384   2.740 -32.370  1.00  0.00    -0.323 N 
HETATM   14  H   UNL     1      -6.840   3.100 -33.144  1.00  0.00     0.169 HD
HETATM   15  O   UNL     1      -7.415   2.661 -30.038  1.00  0.00    -0.267 OA
BRANCH  13  16
HETATM   16  C   UNL     1      -8.566   2.052 -32.722  1.00  0.00     0.035 A 
HETATM   17  C   UNL     1      -9.735   2.679 -33.156  1.00  0.00     0.029 A 
HETATM   18  C   UNL     1     -10.878   1.927 -33.451  1.00  0.00     0.002 A 
HETATM   19  C   UNL     1     -10.863   0.543 -33.307  1.00  0.00     0.000 A 
HETATM   20  C   UNL     1      -9.702  -0.095 -32.877  1.00  0.00     0.002 A 
HETATM   21  C   UNL     1      -8.558   0.657 -32.593  1.00  0.00     0.029 A 
ENDBRANCH  13  16
ENDBRANCH  10  12
BRANCH   1  22
HETATM   22  C   UNL     1      -4.196   1.647 -32.098  1.00  0.00     0.083 A 
HETATM   23  O   UNL     1      -4.810   0.746 -32.922  1.00  0.00    -0.317 OA
HETATM   24  C   UNL     1      -4.324  -0.485 -32.606  1.00  0.00     0.049 A 
HETATM   25  C   UNL     1      -4.910  -1.632 -33.328  1.00  0.00     0.076 C 
HETATM   26  C   UNL     1      -3.367  -0.377 -31.621  1.00  0.00     0.035 A 
HETATM   27  C   UNL     1      -3.278   0.997 -31.297  1.00  0.00     0.038 A 
ENDBRANCH   1  22
TORSDOF 3
ENDMDL
